MODEL        1
REMARK 921   NORMALIZED FREE ENERGY PREDICTED BY IDOCK:   -5.71 KCAL/MOL
REMARK 922        TOTAL FREE ENERGY PREDICTED BY IDOCK:   -8.96 KCAL/MOL
REMARK 923 INTER-LIGAND FREE ENERGY PREDICTED BY IDOCK:   -8.37 KCAL/MOL
REMARK 924 INTRA-LIGAND FREE ENERGY PREDICTED BY IDOCK:   -0.58 KCAL/MOL
REMARK 927      BINDING AFFINITY PREDICTED BY RF-SCORE:    0.00 PKD
ROOT
HETATM    1  C   UNL     1     -13.178  12.146  71.908  1.00  0.00    -0.474 C  
HETATM    2  C   UNL     1     -13.930  13.358  72.452  1.00  0.00    -0.504 C  
ENDROOT
BRANCH   2   3
HETATM    3  N   UNL     1     -13.492  14.654  71.903  1.00  0.00    -0.340 NA 
BRANCH   3   4
HETATM    4  C   UNL     1     -13.536  15.765  72.863  1.00  0.00    -0.577 C  
HETATM    5  C   UNL     1     -12.492  15.733  73.972  1.00  0.00    -0.775 C  
ENDBRANCH   3   4
BRANCH   3   6
HETATM    6  C   UNL     1     -12.185  14.487  71.225  1.00  0.00    -0.355 C  
BRANCH   6   7
HETATM    7  C   UNL     1     -11.867  15.570  70.181  1.00  0.00    -0.356 C  
BRANCH   7   8
HETATM    8  O   UNL     1     -11.868  15.088  68.821  1.00  0.00    -0.324 OA 
BRANCH   8   9
HETATM    9  C   UNL     1     -10.665  14.655  68.362  1.00  0.00    -0.241 C  
HETATM   10  O   UNL     1      -9.591  15.057  68.786  1.00  0.00    -0.206 OA 
BRANCH   9  11
HETATM   11  C   UNL     1     -10.801  13.562  67.267  1.00  0.00    -0.285 C  
HETATM   12  C   UNL     1     -11.698  12.402  67.772  1.00  0.00    -0.413 C  
HETATM   13  C   UNL     1      -9.351  13.013  67.053  1.00  0.00    -0.236 C  
HETATM   14  C   UNL     1      -8.800  12.215  68.238  1.00  0.00    -0.182 C  
HETATM   15  C   UNL     1     -11.118  11.604  68.940  1.00  0.00    -0.287 C  
HETATM   16  C   UNL     1      -9.735  11.072  68.602  1.00  0.00    -0.198 C  
BRANCH  11  17
HETATM   17  C   UNL     1     -11.354  14.281  65.961  1.00  0.00    -0.335 C  
HETATM   18  C   UNL     1     -10.449  14.231  64.711  1.00  0.00    -0.421 C  
HETATM   19  C   UNL     1     -11.816  12.426  63.620  1.00  0.00    -0.610 C  
HETATM   20  C   UNL     1     -12.883  12.581  64.704  1.00  0.00    -0.325 C  
HETATM   21  C   UNL     1     -10.422  12.857  64.055  1.00  0.00    -0.395 C  
HETATM   22  C   UNL     1     -12.782  13.878  65.519  1.00  0.00    -0.536 C  
ENDBRANCH  11  17
ENDBRANCH   9  11
ENDBRANCH   8   9
ENDBRANCH   7   8
ENDBRANCH   6   7
ENDBRANCH   3   6
ENDBRANCH   2   3
TORSDOF 8
ENDMDL
MODEL        2
REMARK 921   NORMALIZED FREE ENERGY PREDICTED BY IDOCK:   -5.41 KCAL/MOL
REMARK 922        TOTAL FREE ENERGY PREDICTED BY IDOCK:   -8.53 KCAL/MOL
REMARK 923 INTER-LIGAND FREE ENERGY PREDICTED BY IDOCK:   -7.95 KCAL/MOL
REMARK 924 INTRA-LIGAND FREE ENERGY PREDICTED BY IDOCK:   -0.58 KCAL/MOL
REMARK 927      BINDING AFFINITY PREDICTED BY RF-SCORE:    0.00 PKD
ROOT
HETATM    1  C   UNL     1     -13.195  13.837  71.689  1.00  0.00    -0.450 C  
HETATM    2  C   UNL     1     -13.521  12.398  72.081  1.00  0.00    -0.378 C  
ENDROOT
BRANCH   2   3
HETATM    3  N   UNL     1     -12.675  11.375  71.437  1.00  0.00    -0.403 NA 
BRANCH   3   4
HETATM    4  C   UNL     1     -13.342  10.085  71.222  1.00  0.00    -0.330 C  
HETATM    5  C   UNL     1     -13.075   9.011  72.270  1.00  0.00    -0.508 C  
ENDBRANCH   3   4
BRANCH   3   6
HETATM    6  C   UNL     1     -12.048  11.947  70.222  1.00  0.00    -0.325 C  
BRANCH   6   7
HETATM    7  C   UNL     1     -11.895  10.955  69.057  1.00  0.00    -0.299 C  
BRANCH   7   8
HETATM    8  O   UNL     1     -12.110  11.544  67.758  1.00  0.00    -0.626 OA 
BRANCH   8   9
HETATM    9  C   UNL     1     -11.036  11.513  66.926  1.00  0.00    -0.296 C  
HETATM   10  O   UNL     1     -10.347  10.520  66.743  1.00  0.00    -0.228 OA 
BRANCH   9  11
HETATM   11  C   UNL     1     -10.802  12.866  66.201  1.00  0.00    -0.300 C  
HETATM   12  C   UNL     1     -12.158  13.524  65.836  1.00  0.00    -0.477 C  
HETATM   13  C   UNL     1     -10.055  12.498  64.876  1.00  0.00    -0.249 C  
HETATM   14  C   UNL     1     -10.913  11.735  63.863  1.00  0.00    -0.476 C  
HETATM   15  C   UNL     1     -12.987  12.757  64.806  1.00  0.00    -0.228 C  
HETATM   16  C   UNL     1     -12.184  12.504  63.541  1.00  0.00    -0.652 C  
BRANCH  11  17
HETATM   17  C   UNL     1      -9.893  13.753  67.158  1.00  0.00    -0.242 C  
HETATM   18  C   UNL     1      -8.935  14.751  66.470  1.00  0.00    -0.267 C  
HETATM   19  C   UNL     1     -10.410  16.725  66.962  1.00  0.00    -0.300 C  
HETATM   20  C   UNL     1     -11.283  15.848  67.859  1.00  0.00    -0.297 C  
HETATM   21  C   UNL     1      -9.657  15.956  65.884  1.00  0.00    -0.378 C  
HETATM   22  C   UNL     1     -10.637  14.521  68.279  1.00  0.00    -0.241 C  
ENDBRANCH  11  17
ENDBRANCH   9  11
ENDBRANCH   8   9
ENDBRANCH   7   8
ENDBRANCH   6   7
ENDBRANCH   3   6
ENDBRANCH   2   3
TORSDOF 8
ENDMDL
MODEL        3
REMARK 921   NORMALIZED FREE ENERGY PREDICTED BY IDOCK:   -5.39 KCAL/MOL
REMARK 922        TOTAL FREE ENERGY PREDICTED BY IDOCK:   -8.50 KCAL/MOL
REMARK 923 INTER-LIGAND FREE ENERGY PREDICTED BY IDOCK:   -8.06 KCAL/MOL
REMARK 924 INTRA-LIGAND FREE ENERGY PREDICTED BY IDOCK:   -0.44 KCAL/MOL
REMARK 927      BINDING AFFINITY PREDICTED BY RF-SCORE:    0.00 PKD
ROOT
HETATM    1  C   UNL     1     -13.154  12.434  71.918  1.00  0.00    -0.471 C  
HETATM    2  C   UNL     1     -14.015  13.662  72.205  1.00  0.00    -0.563 C  
ENDROOT
BRANCH   2   3
HETATM    3  N   UNL     1     -13.344  14.954  71.973  1.00  0.00    -0.338 NA 
BRANCH   3   4
HETATM    4  C   UNL     1     -13.395  15.877  73.114  1.00  0.00    -0.587 C  
HETATM    5  C   UNL     1     -12.321  15.685  74.178  1.00  0.00    -0.799 C  
ENDBRANCH   3   4
BRANCH   3   6
HETATM    6  C   UNL     1     -11.981  14.715  71.442  1.00  0.00    -0.343 C  
BRANCH   6   7
HETATM    7  C   UNL     1     -11.393  15.891  70.645  1.00  0.00    -0.397 C  
BRANCH   7   8
HETATM    8  O   UNL     1     -11.515  15.745  69.215  1.00  0.00    -0.316 OA 
BRANCH   8   9
HETATM    9  C   UNL     1     -10.419  15.240  68.592  1.00  0.00    -0.235 C  
HETATM   10  O   UNL     1      -9.436  14.815  69.182  1.00  0.00    -0.188 OA 
BRANCH   9  11
HETATM   11  C   UNL     1     -10.565  15.222  67.046  1.00  0.00    -0.306 C  
HETATM   12  C   UNL     1      -9.256  14.714  66.387  1.00  0.00    -0.280 C  
HETATM   13  C   UNL     1     -10.780  16.717  66.636  1.00  0.00    -0.107 C  
HETATM   14  C   UNL     1      -9.548  17.605  66.833  1.00  0.00    -0.286 C  
HETATM   15  C   UNL     1      -8.045  15.627  66.576  1.00  0.00    -0.168 C  
HETATM   16  C   UNL     1      -8.347  17.037  66.094  1.00  0.00    -0.276 C  
BRANCH  11  17
HETATM   17  C   UNL     1     -11.841  14.334  66.712  1.00  0.00    -0.449 C  
HETATM   18  C   UNL     1     -12.338  14.365  65.249  1.00  0.00    -0.372 C  
HETATM   19  C   UNL     1     -11.331  12.125  64.712  1.00  0.00    -0.378 C  
HETATM   20  C   UNL     1     -11.013  11.914  66.192  1.00  0.00    -0.352 C  
HETATM   21  C   UNL     1     -11.434  13.588  64.301  1.00  0.00    -0.414 C  
HETATM   22  C   UNL     1     -11.767  12.849  67.147  1.00  0.00    -0.437 C  
ENDBRANCH  11  17
ENDBRANCH   9  11
ENDBRANCH   8   9
ENDBRANCH   7   8
ENDBRANCH   6   7
ENDBRANCH   3   6
ENDBRANCH   2   3
TORSDOF 8
ENDMDL
MODEL        4
REMARK 921   NORMALIZED FREE ENERGY PREDICTED BY IDOCK:   -5.34 KCAL/MOL
REMARK 922        TOTAL FREE ENERGY PREDICTED BY IDOCK:   -8.42 KCAL/MOL
REMARK 923 INTER-LIGAND FREE ENERGY PREDICTED BY IDOCK:   -7.38 KCAL/MOL
REMARK 924 INTRA-LIGAND FREE ENERGY PREDICTED BY IDOCK:   -1.05 KCAL/MOL
REMARK 927      BINDING AFFINITY PREDICTED BY RF-SCORE:    0.00 PKD
ROOT
HETATM    1  C   UNL     1     -10.555  11.443  63.866  1.00  0.00    -0.452 C  
HETATM    2  C   UNL     1     -11.795  12.333  63.895  1.00  0.00    -0.464 C  
ENDROOT
BRANCH   2   3
HETATM    3  N   UNL     1     -12.319  12.619  65.244  1.00  0.00    -0.576 NA 
BRANCH   3   4
HETATM    4  C   UNL     1     -11.492  12.094  66.338  1.00  0.00    -0.370 C  
HETATM    5  C   UNL     1     -11.803  12.632  67.729  1.00  0.00    -0.381 C  
ENDBRANCH   3   4
BRANCH   3   6
HETATM    6  C   UNL     1     -12.634  14.062  65.356  1.00  0.00    -0.505 C  
BRANCH   6   7
HETATM    7  C   UNL     1     -11.653  14.987  64.617  1.00  0.00    -0.386 C  
BRANCH   7   8
HETATM    8  O   UNL     1     -11.099  16.030  65.445  1.00  0.00    -0.258 OA 
BRANCH   8   9
HETATM    9  C   UNL     1      -9.965  15.694  66.113  1.00  0.00    -0.312 C  
HETATM   10  O   UNL     1      -9.305  14.694  65.873  1.00  0.00    -0.247 OA 
BRANCH   9  11
HETATM   11  C   UNL     1      -9.574  16.741  67.191  1.00  0.00    -0.238 C  
HETATM   12  C   UNL     1      -8.574  16.124  68.204  1.00  0.00    -0.177 C  
HETATM   13  C   UNL     1     -10.905  17.072  67.945  1.00  0.00    -0.302 C  
HETATM   14  C   UNL     1     -11.447  15.920  68.797  1.00  0.00    -0.393 C  
HETATM   15  C   UNL     1      -9.144  14.992  69.059  1.00  0.00    -0.205 C  
HETATM   16  C   UNL     1     -10.399  15.440  69.788  1.00  0.00    -0.296 C  
BRANCH  11  17
HETATM   17  C   UNL     1      -9.007  18.011  66.420  1.00  0.00    -0.249 C  
HETATM   18  C   UNL     1      -9.352  19.392  67.020  1.00  0.00    -0.393 C  
HETATM   19  C   UNL     1      -7.068  19.681  68.029  1.00  0.00    -0.307 C  
HETATM   20  C   UNL     1      -6.580  18.444  67.276  1.00  0.00    -0.205 C  
HETATM   21  C   UNL     1      -8.568  19.698  68.289  1.00  0.00    -0.358 C  
HETATM   22  C   UNL     1      -7.488  17.999  66.121  1.00  0.00    -0.305 C  
ENDBRANCH  11  17
ENDBRANCH   9  11
ENDBRANCH   8   9
ENDBRANCH   7   8
ENDBRANCH   6   7
ENDBRANCH   3   6
ENDBRANCH   2   3
TORSDOF 8
ENDMDL
MODEL        5
REMARK 921   NORMALIZED FREE ENERGY PREDICTED BY IDOCK:   -5.28 KCAL/MOL
REMARK 922        TOTAL FREE ENERGY PREDICTED BY IDOCK:   -8.34 KCAL/MOL
REMARK 923 INTER-LIGAND FREE ENERGY PREDICTED BY IDOCK:   -7.85 KCAL/MOL
REMARK 924 INTRA-LIGAND FREE ENERGY PREDICTED BY IDOCK:   -0.49 KCAL/MOL
REMARK 927      BINDING AFFINITY PREDICTED BY RF-SCORE:    0.00 PKD
ROOT
HETATM    1  C   UNL     1     -13.783   8.870  72.092  1.00  0.00    -0.527 C  
HETATM    2  C   UNL     1     -13.253  10.245  71.695  1.00  0.00    -0.408 C  
ENDROOT
BRANCH   2   3
HETATM    3  N   UNL     1     -11.897  10.241  71.115  1.00  0.00    -0.367 NA 
BRANCH   3   4
HETATM    4  C   UNL     1     -11.254   8.921  71.090  1.00  0.00    -0.284 C  
HETATM    5  C   UNL     1      -9.810   8.872  71.575  1.00  0.00    -0.384 C  
ENDBRANCH   3   4
BRANCH   3   6
HETATM    6  C   UNL     1     -11.918  10.934  69.805  1.00  0.00    -0.351 C  
BRANCH   6   7
HETATM    7  C   UNL     1     -11.927  12.469  69.898  1.00  0.00    -0.301 C  
BRANCH   7   8
HETATM    8  O   UNL     1     -10.926  13.108  69.079  1.00  0.00    -0.243 OA 
BRANCH   8   9
HETATM    9  C   UNL     1     -11.408  13.995  68.169  1.00  0.00    -0.292 C  
HETATM   10  O   UNL     1     -12.125  14.942  68.456  1.00  0.00    -0.263 OA 
BRANCH   9  11
HETATM   11  C   UNL     1     -10.913  13.699  66.727  1.00  0.00    -0.297 C  
HETATM   12  C   UNL     1      -9.374  13.504  66.713  1.00  0.00    -0.262 C  
HETATM   13  C   UNL     1     -11.258  14.984  65.902  1.00  0.00    -0.313 C  
HETATM   14  C   UNL     1     -10.429  16.214  66.281  1.00  0.00    -0.321 C  
HETATM   15  C   UNL     1      -8.566  14.750  67.072  1.00  0.00    -0.260 C  
HETATM   16  C   UNL     1      -8.941  15.918  66.174  1.00  0.00    -0.376 C  
BRANCH  11  17
HETATM   17  C   UNL     1     -11.727  12.435  66.208  1.00  0.00    -0.457 C  
HETATM   18  C   UNL     1     -12.468  12.597  64.862  1.00  0.00    -0.564 C  
HETATM   19  C   UNL     1     -10.730  11.302  63.589  1.00  0.00    -0.438 C  
HETATM   20  C   UNL     1     -10.067  10.900  64.905  1.00  0.00    -0.374 C  
HETATM   21  C   UNL     1     -11.527  12.598  63.665  1.00  0.00    -0.563 C  
HETATM   22  C   UNL     1     -10.942  11.101  66.150  1.00  0.00    -0.203 C  
ENDBRANCH  11  17
ENDBRANCH   9  11
ENDBRANCH   8   9
ENDBRANCH   7   8
ENDBRANCH   6   7
ENDBRANCH   3   6
ENDBRANCH   2   3
TORSDOF 8
ENDMDL
MODEL        6
REMARK 921   NORMALIZED FREE ENERGY PREDICTED BY IDOCK:   -5.27 KCAL/MOL
REMARK 922        TOTAL FREE ENERGY PREDICTED BY IDOCK:   -8.31 KCAL/MOL
REMARK 923 INTER-LIGAND FREE ENERGY PREDICTED BY IDOCK:   -7.25 KCAL/MOL
REMARK 924 INTRA-LIGAND FREE ENERGY PREDICTED BY IDOCK:   -1.06 KCAL/MOL
REMARK 927      BINDING AFFINITY PREDICTED BY RF-SCORE:    0.00 PKD
ROOT
HETATM    1  C   UNL     1      -8.180  16.391  66.281  1.00  0.00    -0.343 C  
HETATM    2  C   UNL     1      -9.530  17.088  66.428  1.00  0.00    -0.271 C  
ENDROOT
BRANCH   2   3
HETATM    3  N   UNL     1      -9.833  17.568  67.789  1.00  0.00    -0.276 NA 
BRANCH   3   4
HETATM    4  C   UNL     1     -10.007  19.023  67.893  1.00  0.00    -0.358 C  
HETATM    5  C   UNL     1     -10.463  19.734  66.626  1.00  0.00    -0.615 C  
ENDBRANCH   3   4
BRANCH   3   6
HETATM    6  C   UNL     1     -10.952  16.778  68.354  1.00  0.00    -0.325 C  
BRANCH   6   7
HETATM    7  C   UNL     1     -10.529  15.729  69.395  1.00  0.00    -0.257 C  
BRANCH   7   8
HETATM    8  O   UNL     1     -10.083  14.484  68.819  1.00  0.00    -0.233 OA 
BRANCH   8   9
HETATM    9  C   UNL     1     -11.075  13.633  68.448  1.00  0.00    -0.264 C  
HETATM   10  O   UNL     1     -12.125  13.505  69.060  1.00  0.00    -0.341 OA 
BRANCH   9  11
HETATM   11  C   UNL     1     -10.748  12.868  67.137  1.00  0.00    -0.268 C  
HETATM   12  C   UNL     1     -11.452  11.486  67.129  1.00  0.00    -0.313 C  
HETATM   13  C   UNL     1      -9.200  12.637  67.171  1.00  0.00    -0.214 C  
HETATM   14  C   UNL     1      -8.737  11.648  68.245  1.00  0.00    -0.163 C  
HETATM   15  C   UNL     1     -10.958  10.507  68.194  1.00  0.00    -0.330 C  
HETATM   16  C   UNL     1      -9.453  10.315  68.099  1.00  0.00    -0.155 C  
BRANCH  11  17
HETATM   17  C   UNL     1     -11.172  13.813  65.931  1.00  0.00    -0.305 C  
HETATM   18  C   UNL     1     -10.246  13.811  64.695  1.00  0.00    -0.313 C  
HETATM   19  C   UNL     1     -11.796  12.349  63.361  1.00  0.00    -0.571 C  
HETATM   20  C   UNL     1     -12.864  12.496  64.444  1.00  0.00    -0.366 C  
HETATM   21  C   UNL     1     -10.371  12.540  63.864  1.00  0.00    -0.436 C  
HETATM   22  C   UNL     1     -12.626  13.654  65.424  1.00  0.00    -0.533 C  
ENDBRANCH  11  17
ENDBRANCH   9  11
ENDBRANCH   8   9
ENDBRANCH   7   8
ENDBRANCH   6   7
ENDBRANCH   3   6
ENDBRANCH   2   3
TORSDOF 8
ENDMDL
MODEL        7
REMARK 921   NORMALIZED FREE ENERGY PREDICTED BY IDOCK:   -5.25 KCAL/MOL
REMARK 922        TOTAL FREE ENERGY PREDICTED BY IDOCK:   -8.29 KCAL/MOL
REMARK 923 INTER-LIGAND FREE ENERGY PREDICTED BY IDOCK:   -8.09 KCAL/MOL
REMARK 924 INTRA-LIGAND FREE ENERGY PREDICTED BY IDOCK:   -0.20 KCAL/MOL
REMARK 927      BINDING AFFINITY PREDICTED BY RF-SCORE:    0.00 PKD
ROOT
HETATM    1  C   UNL     1     -13.740  13.121  72.215  1.00  0.00    -0.647 C  
HETATM    2  C   UNL     1     -13.047  14.099  71.270  1.00  0.00    -0.350 C  
ENDROOT
BRANCH   2   3
HETATM    3  N   UNL     1     -13.094  15.510  71.697  1.00  0.00    -0.454 NA 
BRANCH   3   4
HETATM    4  C   UNL     1     -13.619  15.714  73.054  1.00  0.00    -0.532 C  
HETATM    5  C   UNL     1     -12.582  15.973  74.140  1.00  0.00    -0.714 C  
ENDBRANCH   3   4
BRANCH   3   6
HETATM    6  C   UNL     1     -11.778  16.145  71.450  1.00  0.00    -0.444 C  
BRANCH   6   7
HETATM    7  C   UNL     1     -10.991  15.541  70.275  1.00  0.00    -0.334 C  
BRANCH   7   8
HETATM    8  O   UNL     1     -10.476  16.523  69.353  1.00  0.00    -0.292 OA 
BRANCH   8   9
HETATM    9  C   UNL     1      -9.211  16.294  68.913  1.00  0.00    -0.249 C  
HETATM   10  O   UNL     1      -8.357  15.718  69.571  1.00  0.00    -0.242 OA 
BRANCH   9  11
HETATM   11  C   UNL     1      -8.979  16.807  67.466  1.00  0.00    -0.208 C  
HETATM   12  C   UNL     1     -10.319  16.841  66.684  1.00  0.00    -0.297 C  
HETATM   13  C   UNL     1      -8.041  15.746  66.799  1.00  0.00    -0.297 C  
HETATM   14  C   UNL     1      -8.705  14.387  66.556  1.00  0.00    -0.042 C  
HETATM   15  C   UNL     1     -10.950  15.472  66.433  1.00  0.00    -0.238 C  
HETATM   16  C   UNL     1      -9.973  14.543  65.733  1.00  0.00    -0.361 C  
BRANCH  11  17
HETATM   17  C   UNL     1      -8.267  18.224  67.586  1.00  0.00    -0.254 C  
HETATM   18  C   UNL     1      -8.309  19.124  66.331  1.00  0.00    -0.326 C  
HETATM   19  C   UNL     1     -10.130  20.583  67.267  1.00  0.00    -0.439 C  
HETATM   20  C   UNL     1      -9.985  19.893  68.622  1.00  0.00    -0.492 C  
HETATM   21  C   UNL     1      -9.683  19.732  66.085  1.00  0.00    -0.510 C  
HETATM   22  C   UNL     1      -8.687  19.093  68.797  1.00  0.00    -0.365 C  
ENDBRANCH  11  17
ENDBRANCH   9  11
ENDBRANCH   8   9
ENDBRANCH   7   8
ENDBRANCH   6   7
ENDBRANCH   3   6
ENDBRANCH   2   3
TORSDOF 8
ENDMDL
MODEL        8
REMARK 921   NORMALIZED FREE ENERGY PREDICTED BY IDOCK:   -5.23 KCAL/MOL
REMARK 922        TOTAL FREE ENERGY PREDICTED BY IDOCK:   -8.26 KCAL/MOL
REMARK 923 INTER-LIGAND FREE ENERGY PREDICTED BY IDOCK:   -7.75 KCAL/MOL
REMARK 924 INTRA-LIGAND FREE ENERGY PREDICTED BY IDOCK:   -0.52 KCAL/MOL
REMARK 927      BINDING AFFINITY PREDICTED BY RF-SCORE:    0.00 PKD
ROOT
HETATM    1  C   UNL     1     -12.423  12.157  63.506  1.00  0.00    -0.666 C  
HETATM    2  C   UNL     1     -11.495  12.377  64.698  1.00  0.00    -0.331 C  
ENDROOT
BRANCH   2   3
HETATM    3  N   UNL     1     -12.182  12.550  65.992  1.00  0.00    -0.620 NA 
BRANCH   3   4
HETATM    4  C   UNL     1     -11.626  11.742  67.086  1.00  0.00    -0.266 C  
HETATM    5  C   UNL     1     -10.172  11.315  66.929  1.00  0.00    -0.254 C  
ENDBRANCH   3   4
BRANCH   3   6
HETATM    6  C   UNL     1     -12.299  13.995  66.299  1.00  0.00    -0.448 C  
BRANCH   6   7
HETATM    7  C   UNL     1     -11.177  14.865  65.707  1.00  0.00    -0.334 C  
BRANCH   7   8
HETATM    8  O   UNL     1     -10.700  15.890  66.604  1.00  0.00    -0.316 OA 
BRANCH   8   9
HETATM    9  C   UNL     1     -10.271  17.028  66.000  1.00  0.00    -0.325 C  
HETATM   10  O   UNL     1     -10.813  17.527  65.025  1.00  0.00    -0.727 OA 
BRANCH   9  11
HETATM   11  C   UNL     1      -9.038  17.653  66.709  1.00  0.00    -0.273 C  
HETATM   12  C   UNL     1      -9.232  17.629  68.248  1.00  0.00    -0.283 C  
HETATM   13  C   UNL     1      -9.003  19.144  66.235  1.00  0.00    -0.320 C  
HETATM   14  C   UNL     1     -10.152  20.001  66.773  1.00  0.00    -0.607 C  
HETATM   15  C   UNL     1     -10.370  18.510  68.764  1.00  0.00    -0.210 C  
HETATM   16  C   UNL     1     -10.205  19.945  68.291  1.00  0.00    -0.562 C  
BRANCH  11  17
HETATM   17  C   UNL     1      -7.760  16.849  66.209  1.00  0.00    -0.332 C  
HETATM   18  C   UNL     1      -6.455  17.660  66.049  1.00  0.00    -0.265 C  
HETATM   19  C   UNL     1      -5.480  16.780  68.192  1.00  0.00    -0.117 C  
HETATM   20  C   UNL     1      -6.627  15.776  68.300  1.00  0.00    -0.124 C  
HETATM   21  C   UNL     1      -5.819  18.025  67.384  1.00  0.00    -0.160 C  
HETATM   22  C   UNL     1      -7.416  15.563  67.001  1.00  0.00    -0.205 C  
ENDBRANCH  11  17
ENDBRANCH   9  11
ENDBRANCH   8   9
ENDBRANCH   7   8
ENDBRANCH   6   7
ENDBRANCH   3   6
ENDBRANCH   2   3
TORSDOF 8
ENDMDL
MODEL        9
REMARK 921   NORMALIZED FREE ENERGY PREDICTED BY IDOCK:   -5.12 KCAL/MOL
REMARK 922        TOTAL FREE ENERGY PREDICTED BY IDOCK:   -8.10 KCAL/MOL
REMARK 923 INTER-LIGAND FREE ENERGY PREDICTED BY IDOCK:   -7.42 KCAL/MOL
REMARK 924 INTRA-LIGAND FREE ENERGY PREDICTED BY IDOCK:   -0.67 KCAL/MOL
REMARK 927      BINDING AFFINITY PREDICTED BY RF-SCORE:    0.00 PKD
ROOT
HETATM    1  C   UNL     1     -12.322  12.626  64.884  1.00  0.00    -0.563 C  
HETATM    2  C   UNL     1     -12.771  13.911  65.575  1.00  0.00    -0.499 C  
ENDROOT
BRANCH   2   3
HETATM    3  N   UNL     1     -11.706  14.625  66.303  1.00  0.00    -0.354 NA 
BRANCH   3   4
HETATM    4  C   UNL     1     -11.030  13.822  67.330  1.00  0.00    -0.292 C  
HETATM    5  C   UNL     1     -11.784  13.642  68.641  1.00  0.00    -0.389 C  
ENDBRANCH   3   4
BRANCH   3   6
HETATM    6  C   UNL     1     -10.790  15.269  65.331  1.00  0.00    -0.387 C  
BRANCH   6   7
HETATM    7  C   UNL     1      -9.332  15.377  65.806  1.00  0.00    -0.229 C  
BRANCH   7   8
HETATM    8  O   UNL     1      -8.859  16.734  65.933  1.00  0.00    -0.499 OA 
BRANCH   8   9
HETATM    9  C   UNL     1      -8.648  17.153  67.208  1.00  0.00    -0.201 C  
HETATM   10  O   UNL     1      -8.775  16.436  68.190  1.00  0.00    -0.184 OA 
BRANCH   9  11
HETATM   11  C   UNL     1      -8.187  18.634  67.281  1.00  0.00    -0.261 C  
HETATM   12  C   UNL     1      -8.617  19.266  68.631  1.00  0.00    -0.401 C  
HETATM   13  C   UNL     1      -8.953  19.361  66.126  1.00  0.00    -0.307 C  
HETATM   14  C   UNL     1     -10.463  19.482  66.352  1.00  0.00    -0.597 C  
HETATM   15  C   UNL     1     -10.128  19.399  68.825  1.00  0.00    -0.504 C  
HETATM   16  C   UNL     1     -10.759  20.168  67.676  1.00  0.00    -0.233 C  
BRANCH  11  17
HETATM   17  C   UNL     1      -6.616  18.643  67.038  1.00  0.00    -0.201 C  
HETATM   18  C   UNL     1      -6.084  19.658  66.002  1.00  0.00    -0.191 C  
HETATM   19  C   UNL     1      -5.258  21.243  67.770  1.00  0.00    -0.315 C  
HETATM   20  C   UNL     1      -5.540  20.192  68.842  1.00  0.00    -0.279 C  
HETATM   21  C   UNL     1      -6.106  21.092  66.514  1.00  0.00    -0.348 C  
HETATM   22  C   UNL     1      -5.735  18.767  68.306  1.00  0.00    -0.190 C  
ENDBRANCH  11  17
ENDBRANCH   9  11
ENDBRANCH   8   9
ENDBRANCH   7   8
ENDBRANCH   6   7
ENDBRANCH   3   6
ENDBRANCH   2   3
TORSDOF 8
ENDMDL
MODEL       10
REMARK 921   NORMALIZED FREE ENERGY PREDICTED BY IDOCK:   -5.11 KCAL/MOL
REMARK 922        TOTAL FREE ENERGY PREDICTED BY IDOCK:   -8.09 KCAL/MOL
REMARK 923 INTER-LIGAND FREE ENERGY PREDICTED BY IDOCK:   -7.44 KCAL/MOL
REMARK 924 INTRA-LIGAND FREE ENERGY PREDICTED BY IDOCK:   -0.65 KCAL/MOL
REMARK 927      BINDING AFFINITY PREDICTED BY RF-SCORE:    0.00 PKD
ROOT
HETATM    1  C   UNL     1     -10.952  16.525  70.143  1.00  0.00    -0.215 C  
HETATM    2  C   UNL     1     -12.137  15.570  70.266  1.00  0.00    -0.386 C  
ENDROOT
BRANCH   2   3
HETATM    3  N   UNL     1     -12.036  14.600  71.372  1.00  0.00    -0.344 NA 
BRANCH   3   4
HETATM    4  C   UNL     1     -12.225  15.182  72.707  1.00  0.00    -0.382 C  
HETATM    5  C   UNL     1     -13.572  15.847  72.962  1.00  0.00    -0.616 C  
ENDBRANCH   3   4
BRANCH   3   6
HETATM    6  C   UNL     1     -12.905  13.433  71.086  1.00  0.00    -0.291 C  
BRANCH   6   7
HETATM    7  C   UNL     1     -12.164  12.214  70.512  1.00  0.00    -0.304 C  
BRANCH   7   8
HETATM    8  O   UNL     1     -11.289  12.531  69.410  1.00  0.00    -0.252 OA 
BRANCH   8   9
HETATM    9  C   UNL     1     -11.581  11.900  68.243  1.00  0.00    -0.327 C  
HETATM   10  O   UNL     1     -12.247  10.877  68.171  1.00  0.00    -0.503 OA 
BRANCH   9  11
HETATM   11  C   UNL     1     -11.012  12.641  67.003  1.00  0.00    -0.300 C  
HETATM   12  C   UNL     1     -11.061  11.721  65.755  1.00  0.00    -0.351 C  
HETATM   13  C   UNL     1      -9.513  12.931  67.349  1.00  0.00    -0.198 C  
HETATM   14  C   UNL     1      -8.631  11.680  67.410  1.00  0.00    -0.149 C  
HETATM   15  C   UNL     1     -10.155  10.493  65.828  1.00  0.00    -0.329 C  
HETATM   16  C   UNL     1      -8.716  10.893  66.112  1.00  0.00    -0.189 C  
BRANCH  11  17
HETATM   17  C   UNL     1     -11.846  13.986  66.845  1.00  0.00    -0.458 C  
HETATM   18  C   UNL     1     -11.036  15.301  66.824  1.00  0.00    -0.306 C  
HETATM   19  C   UNL     1     -11.227  15.545  64.330  1.00  0.00    -0.232 C  
HETATM   20  C   UNL     1     -12.227  14.390  64.295  1.00  0.00    -0.450 C  
HETATM   21  C   UNL     1     -10.277  15.509  65.520  1.00  0.00    -0.415 C  
HETATM   22  C   UNL     1     -12.838  14.032  65.656  1.00  0.00    -0.442 C  
ENDBRANCH  11  17
ENDBRANCH   9  11
ENDBRANCH   8   9
ENDBRANCH   7   8
ENDBRANCH   6   7
ENDBRANCH   3   6
ENDBRANCH   2   3
TORSDOF 8
ENDMDL
MODEL       11
REMARK 921   NORMALIZED FREE ENERGY PREDICTED BY IDOCK:   -5.11 KCAL/MOL
REMARK 922        TOTAL FREE ENERGY PREDICTED BY IDOCK:   -8.09 KCAL/MOL
REMARK 923 INTER-LIGAND FREE ENERGY PREDICTED BY IDOCK:   -7.52 KCAL/MOL
REMARK 924 INTRA-LIGAND FREE ENERGY PREDICTED BY IDOCK:   -0.57 KCAL/MOL
REMARK 927      BINDING AFFINITY PREDICTED BY RF-SCORE:    0.00 PKD
ROOT
HETATM    1  C   UNL     1     -11.633  12.763  67.466  1.00  0.00    -0.412 C  
HETATM    2  C   UNL     1     -11.390  12.106  66.109  1.00  0.00    -0.361 C  
ENDROOT
BRANCH   2   3
HETATM    3  N   UNL     1     -10.746  12.977  65.108  1.00  0.00    -0.296 NA 
BRANCH   3   4
HETATM    4  C   UNL     1     -11.540  13.190  63.891  1.00  0.00    -0.433 C  
HETATM    5  C   UNL     1     -12.619  12.152  63.606  1.00  0.00    -0.616 C  
ENDBRANCH   3   4
BRANCH   3   6
HETATM    6  C   UNL     1     -10.285  14.224  65.762  1.00  0.00    -0.334 C  
BRANCH   6   7
HETATM    7  C   UNL     1     -10.920  15.508  65.202  1.00  0.00    -0.409 C  
BRANCH   7   8
HETATM    8  O   UNL     1     -10.166  16.704  65.490  1.00  0.00    -0.550 OA 
BRANCH   8   9
HETATM    9  C   UNL     1     -10.154  17.076  66.797  1.00  0.00    -0.300 C  
HETATM   10  O   UNL     1     -11.035  16.789  67.594  1.00  0.00    -0.290 OA 
BRANCH   9  11
HETATM   11  C   UNL     1      -8.877  17.872  67.179  1.00  0.00    -0.250 C  
HETATM   12  C   UNL     1      -9.054  18.541  68.568  1.00  0.00    -0.353 C  
HETATM   13  C   UNL     1      -8.753  18.996  66.098  1.00  0.00    -0.197 C  
HETATM   14  C   UNL     1      -9.841  20.071  66.183  1.00  0.00    -0.553 C  
HETATM   15  C   UNL     1     -10.128  19.627  68.624  1.00  0.00    -0.547 C  
HETATM   16  C   UNL     1      -9.879  20.693  67.570  1.00  0.00    -0.485 C  
BRANCH  11  17
HETATM   17  C   UNL     1      -7.657  16.854  67.107  1.00  0.00    -0.210 C  
HETATM   18  C   UNL     1      -6.288  17.446  66.705  1.00  0.00    -0.250 C  
HETATM   19  C   UNL     1      -5.431  17.437  69.068  1.00  0.00    -0.164 C  
HETATM   20  C   UNL     1      -6.657  16.638  69.508  1.00  0.00    -0.212 C  
HETATM   21  C   UNL     1      -5.652  18.273  67.814  1.00  0.00    -0.155 C  
HETATM   22  C   UNL     1      -7.433  15.974  68.362  1.00  0.00    -0.143 C  
ENDBRANCH  11  17
ENDBRANCH   9  11
ENDBRANCH   8   9
ENDBRANCH   7   8
ENDBRANCH   6   7
ENDBRANCH   3   6
ENDBRANCH   2   3
TORSDOF 8
ENDMDL
MODEL       12
REMARK 921   NORMALIZED FREE ENERGY PREDICTED BY IDOCK:   -5.09 KCAL/MOL
REMARK 922        TOTAL FREE ENERGY PREDICTED BY IDOCK:   -8.05 KCAL/MOL
REMARK 923 INTER-LIGAND FREE ENERGY PREDICTED BY IDOCK:   -7.46 KCAL/MOL
REMARK 924 INTRA-LIGAND FREE ENERGY PREDICTED BY IDOCK:   -0.60 KCAL/MOL
REMARK 927      BINDING AFFINITY PREDICTED BY RF-SCORE:    0.00 PKD
ROOT
HETATM    1  C   UNL     1     -12.184  12.128  63.459  1.00  0.00    -0.670 C  
HETATM    2  C   UNL     1     -11.244  12.214  64.658  1.00  0.00    -0.323 C  
ENDROOT
BRANCH   2   3
HETATM    3  N   UNL     1     -11.911  12.156  65.972  1.00  0.00    -0.585 NA 
BRANCH   3   4
HETATM    4  C   UNL     1     -11.083  11.595  67.048  1.00  0.00    -0.302 C  
HETATM    5  C   UNL     1      -9.705  11.092  66.637  1.00  0.00    -0.224 C  
ENDBRANCH   3   4
BRANCH   3   6
HETATM    6  C   UNL     1     -12.504  13.477  66.284  1.00  0.00    -0.326 C  
BRANCH   6   7
HETATM    7  C   UNL     1     -12.031  14.089  67.613  1.00  0.00    -0.368 C  
BRANCH   7   8
HETATM    8  O   UNL     1     -11.696  15.490  67.523  1.00  0.00    -0.194 OA 
BRANCH   8   9
HETATM    9  C   UNL     1     -10.997  15.984  68.578  1.00  0.00    -0.326 C  
HETATM   10  O   UNL     1     -11.322  15.821  69.745  1.00  0.00    -0.287 OA 
BRANCH   9  11
HETATM   11  C   UNL     1      -9.716  16.745  68.143  1.00  0.00    -0.247 C  
HETATM   12  C   UNL     1      -9.364  16.409  66.670  1.00  0.00    -0.282 C  
HETATM   13  C   UNL     1      -8.577  16.193  69.064  1.00  0.00    -0.251 C  
HETATM   14  C   UNL     1      -8.196  14.736  68.787  1.00  0.00    -0.163 C  
HETATM   15  C   UNL     1      -8.964  14.955  66.421  1.00  0.00    -0.254 C  
HETATM   16  C   UNL     1      -7.816  14.544  67.328  1.00  0.00    -0.199 C  
BRANCH  11  17
HETATM   17  C   UNL     1      -9.983  18.290  68.404  1.00  0.00    -0.401 C  
HETATM   18  C   UNL     1      -8.737  19.182  68.600  1.00  0.00    -0.394 C  
HETATM   19  C   UNL     1      -8.872  20.124  66.273  1.00  0.00    -0.302 C  
HETATM   20  C   UNL     1     -10.234  19.459  66.084  1.00  0.00    -0.570 C  
HETATM   21  C   UNL     1      -7.983  19.437  67.302  1.00  0.00    -0.292 C  
HETATM   22  C   UNL     1     -10.908  19.000  67.385  1.00  0.00    -0.496 C  
ENDBRANCH  11  17
ENDBRANCH   9  11
ENDBRANCH   8   9
ENDBRANCH   7   8
ENDBRANCH   6   7
ENDBRANCH   3   6
ENDBRANCH   2   3
TORSDOF 8
ENDMDL
MODEL       13
REMARK 921   NORMALIZED FREE ENERGY PREDICTED BY IDOCK:   -5.09 KCAL/MOL
REMARK 922        TOTAL FREE ENERGY PREDICTED BY IDOCK:   -8.05 KCAL/MOL
REMARK 923 INTER-LIGAND FREE ENERGY PREDICTED BY IDOCK:   -7.37 KCAL/MOL
REMARK 924 INTRA-LIGAND FREE ENERGY PREDICTED BY IDOCK:   -0.68 KCAL/MOL
REMARK 927      BINDING AFFINITY PREDICTED BY RF-SCORE:    0.00 PKD
ROOT
HETATM    1  C   UNL     1     -10.472  19.679  67.510  1.00  0.00    -0.589 C  
HETATM    2  C   UNL     1      -9.104  19.465  68.152  1.00  0.00    -0.333 C  
ENDROOT
BRANCH   2   3
HETATM    3  N   UNL     1      -7.960  19.620  67.235  1.00  0.00    -0.270 NA 
BRANCH   3   4
HETATM    4  C   UNL     1      -7.263  20.908  67.348  1.00  0.00    -0.340 C  
HETATM    5  C   UNL     1      -5.816  20.846  67.819  1.00  0.00    -0.353 C  
ENDBRANCH   3   4
BRANCH   3   6
HETATM    6  C   UNL     1      -7.075  18.436  67.344  1.00  0.00    -0.204 C  
BRANCH   6   7
HETATM    7  C   UNL     1      -7.172  17.457  66.163  1.00  0.00    -0.292 C  
BRANCH   7   8
HETATM    8  O   UNL     1      -7.792  16.198  66.498  1.00  0.00    -0.260 OA 
BRANCH   8   9
HETATM    9  C   UNL     1      -9.136  16.150  66.311  1.00  0.00    -0.338 C  
HETATM   10  O   UNL     1      -9.765  16.985  65.678  1.00  0.00    -0.543 OA 
BRANCH   9  11
HETATM   11  C   UNL     1      -9.785  14.895  66.955  1.00  0.00    -0.248 C  
HETATM   12  C   UNL     1     -11.212  15.227  67.464  1.00  0.00    -0.317 C  
HETATM   13  C   UNL     1      -8.884  14.553  68.188  1.00  0.00    -0.177 C  
HETATM   14  C   UNL     1      -8.963  15.575  69.325  1.00  0.00    -0.267 C  
HETATM   15  C   UNL     1     -11.265  16.231  68.615  1.00  0.00    -0.354 C  
HETATM   16  C   UNL     1     -10.401  15.773  69.778  1.00  0.00    -0.307 C  
BRANCH  11  17
HETATM   17  C   UNL     1      -9.744  13.740  65.862  1.00  0.00    -0.217 C  
HETATM   18  C   UNL     1     -10.233  12.346  66.314  1.00  0.00    -0.258 C  
HETATM   19  C   UNL     1     -12.452  12.595  65.159  1.00  0.00    -0.531 C  
HETATM   20  C   UNL     1     -11.955  13.871  64.482  1.00  0.00    -0.464 C  
HETATM   21  C   UNL     1     -11.746  12.272  66.470  1.00  0.00    -0.420 C  
HETATM   22  C   UNL     1     -10.432  14.060  64.512  1.00  0.00    -0.285 C  
ENDBRANCH  11  17
ENDBRANCH   9  11
ENDBRANCH   8   9
ENDBRANCH   7   8
ENDBRANCH   6   7
ENDBRANCH   3   6
ENDBRANCH   2   3
TORSDOF 8
ENDMDL
MODEL       14
REMARK 921   NORMALIZED FREE ENERGY PREDICTED BY IDOCK:   -5.07 KCAL/MOL
REMARK 922        TOTAL FREE ENERGY PREDICTED BY IDOCK:   -8.03 KCAL/MOL
REMARK 923 INTER-LIGAND FREE ENERGY PREDICTED BY IDOCK:   -7.56 KCAL/MOL
REMARK 924 INTRA-LIGAND FREE ENERGY PREDICTED BY IDOCK:   -0.47 KCAL/MOL
REMARK 927      BINDING AFFINITY PREDICTED BY RF-SCORE:    0.00 PKD
ROOT
HETATM    1  C   UNL     1     -10.668   7.795  72.915  1.00  0.00    -0.446 C  
HETATM    2  C   UNL     1     -10.658   8.807  71.773  1.00  0.00    -0.347 C  
ENDROOT
BRANCH   2   3
HETATM    3  N   UNL     1     -11.989   9.295  71.367  1.00  0.00    -0.327 NA 
BRANCH   3   4
HETATM    4  C   UNL     1     -13.049   9.056  72.355  1.00  0.00    -0.423 C  
HETATM    5  C   UNL     1     -14.341   8.453  71.817  1.00  0.00    -0.558 C  
ENDBRANCH   3   4
BRANCH   3   6
HETATM    6  C   UNL     1     -11.883  10.702  70.914  1.00  0.00    -0.331 C  
BRANCH   6   7
HETATM    7  C   UNL     1     -11.172  10.884  69.564  1.00  0.00    -0.277 C  
BRANCH   7   8
HETATM    8  O   UNL     1     -11.405  12.169  68.951  1.00  0.00    -0.241 OA 
BRANCH   8   9
HETATM    9  C   UNL     1     -10.383  12.638  68.189  1.00  0.00    -0.234 C  
HETATM   10  O   UNL     1      -9.203  12.526  68.490  1.00  0.00    -0.168 OA 
BRANCH   9  11
HETATM   11  C   UNL     1     -10.873  13.297  66.871  1.00  0.00    -0.286 C  
HETATM   12  C   UNL     1      -9.704  14.041  66.173  1.00  0.00    -0.300 C  
HETATM   13  C   UNL     1     -11.941  14.352  67.311  1.00  0.00    -0.409 C  
HETATM   14  C   UNL     1     -11.364  15.549  68.074  1.00  0.00    -0.332 C  
HETATM   15  C   UNL     1      -9.160  15.245  66.941  1.00  0.00    -0.263 C  
HETATM   16  C   UNL     1     -10.271  16.229  67.266  1.00  0.00    -0.279 C  
BRANCH  11  17
HETATM   17  C   UNL     1     -11.520  12.143  65.989  1.00  0.00    -0.427 C  
HETATM   18  C   UNL     1     -12.439  12.592  64.832  1.00  0.00    -0.564 C  
HETATM   19  C   UNL     1     -10.681  12.177  63.085  1.00  0.00    -0.230 C  
HETATM   20  C   UNL     1      -9.800  11.500  64.134  1.00  0.00    -0.288 C  
HETATM   21  C   UNL     1     -11.669  13.184  63.659  1.00  0.00    -0.505 C  
HETATM   22  C   UNL     1     -10.534  11.092  65.419  1.00  0.00    -0.321 C  
ENDBRANCH  11  17
ENDBRANCH   9  11
ENDBRANCH   8   9
ENDBRANCH   7   8
ENDBRANCH   6   7
ENDBRANCH   3   6
ENDBRANCH   2   3
TORSDOF 8
ENDMDL
MODEL       15
REMARK 921   NORMALIZED FREE ENERGY PREDICTED BY IDOCK:   -5.07 KCAL/MOL
REMARK 922        TOTAL FREE ENERGY PREDICTED BY IDOCK:   -8.02 KCAL/MOL
REMARK 923 INTER-LIGAND FREE ENERGY PREDICTED BY IDOCK:   -7.50 KCAL/MOL
REMARK 924 INTRA-LIGAND FREE ENERGY PREDICTED BY IDOCK:   -0.52 KCAL/MOL
REMARK 927      BINDING AFFINITY PREDICTED BY RF-SCORE:    0.00 PKD
ROOT
HETATM    1  C   UNL     1     -12.537  11.897  63.558  1.00  0.00    -0.579 C  
HETATM    2  C   UNL     1     -11.494  12.265  64.610  1.00  0.00    -0.336 C  
ENDROOT
BRANCH   2   3
HETATM    3  N   UNL     1     -12.049  12.707  65.903  1.00  0.00    -0.563 NA 
BRANCH   3   4
HETATM    4  C   UNL     1     -11.658  11.873  67.046  1.00  0.00    -0.291 C  
HETATM    5  C   UNL     1     -11.906  12.470  68.426  1.00  0.00    -0.353 C  
ENDBRANCH   3   4
BRANCH   3   6
HETATM    6  C   UNL     1     -11.787  14.154  66.085  1.00  0.00    -0.407 C  
BRANCH   6   7
HETATM    7  C   UNL     1     -10.733  14.735  65.128  1.00  0.00    -0.415 C  
BRANCH   7   8
HETATM    8  O   UNL     1      -9.682  15.466  65.793  1.00  0.00    -0.329 OA 
BRANCH   8   9
HETATM    9  C   UNL     1      -9.928  16.789  65.979  1.00  0.00    -0.313 C  
HETATM   10  O   UNL     1     -10.722  17.433  65.309  1.00  0.00    -0.646 OA 
BRANCH   9  11
HETATM   11  C   UNL     1      -9.121  17.387  67.163  1.00  0.00    -0.242 C  
HETATM   12  C   UNL     1      -8.207  16.304  67.794  1.00  0.00    -0.158 C  
HETATM   13  C   UNL     1     -10.195  17.809  68.220  1.00  0.00    -0.382 C  
HETATM   14  C   UNL     1     -10.917  16.633  68.885  1.00  0.00    -0.294 C  
HETATM   15  C   UNL     1      -8.949  15.153  68.471  1.00  0.00    -0.186 C  
HETATM   16  C   UNL     1      -9.922  15.673  69.517  1.00  0.00    -0.285 C  
BRANCH  11  17
HETATM   17  C   UNL     1      -8.332  18.646  66.596  1.00  0.00    -0.297 C  
HETATM   18  C   UNL     1      -8.260  19.885  67.515  1.00  0.00    -0.358 C  
HETATM   19  C   UNL     1      -5.890  19.411  68.205  1.00  0.00    -0.228 C  
HETATM   20  C   UNL     1      -5.803  18.313  67.146  1.00  0.00    -0.160 C  
HETATM   21  C   UNL     1      -7.306  19.698  68.687  1.00  0.00    -0.375 C  
HETATM   22  C   UNL     1      -6.900  18.369  66.074  1.00  0.00    -0.308 C  
ENDBRANCH  11  17
ENDBRANCH   9  11
ENDBRANCH   8   9
ENDBRANCH   7   8
ENDBRANCH   6   7
ENDBRANCH   3   6
ENDBRANCH   2   3
TORSDOF 8
ENDMDL
MODEL       16
REMARK 921   NORMALIZED FREE ENERGY PREDICTED BY IDOCK:   -5.05 KCAL/MOL
REMARK 922        TOTAL FREE ENERGY PREDICTED BY IDOCK:   -8.00 KCAL/MOL
REMARK 923 INTER-LIGAND FREE ENERGY PREDICTED BY IDOCK:   -7.46 KCAL/MOL
REMARK 924 INTRA-LIGAND FREE ENERGY PREDICTED BY IDOCK:   -0.55 KCAL/MOL
REMARK 927      BINDING AFFINITY PREDICTED BY RF-SCORE:    0.00 PKD
ROOT
HETATM    1  C   UNL     1     -11.355   6.591  71.478  1.00  0.00    -0.339 C  
HETATM    2  C   UNL     1     -10.544   7.147  70.310  1.00  0.00    -0.227 C  
ENDROOT
BRANCH   2   3
HETATM    3  N   UNL     1     -10.847   8.547  69.958  1.00  0.00    -0.236 NA 
BRANCH   3   4
HETATM    4  C   UNL     1     -11.005   9.441  71.113  1.00  0.00    -0.360 C  
HETATM    5  C   UNL     1     -12.294  10.253  71.157  1.00  0.00    -0.501 C  
ENDBRANCH   3   4
BRANCH   3   6
HETATM    6  C   UNL     1      -9.874   9.023  68.947  1.00  0.00    -0.175 C  
BRANCH   6   7
HETATM    7  C   UNL     1     -10.486   9.333  67.571  1.00  0.00    -0.274 C  
BRANCH   7   8
HETATM    8  O   UNL     1     -10.121  10.627  67.049  1.00  0.00    -0.195 OA 
BRANCH   8   9
HETATM    9  C   UNL     1     -11.091  11.575  67.128  1.00  0.00    -0.297 C  
HETATM   10  O   UNL     1     -12.106  11.454  67.799  1.00  0.00    -0.637 OA 
BRANCH   9  11
HETATM   11  C   UNL     1     -10.754  12.847  66.304  1.00  0.00    -0.292 C  
HETATM   12  C   UNL     1     -12.056  13.547  65.835  1.00  0.00    -0.477 C  
HETATM   13  C   UNL     1      -9.986  12.328  65.043  1.00  0.00    -0.227 C  
HETATM   14  C   UNL     1     -10.854  11.532  64.064  1.00  0.00    -0.453 C  
HETATM   15  C   UNL     1     -12.894  12.745  64.841  1.00  0.00    -0.357 C  
HETATM   16  C   UNL     1     -12.066  12.342  63.632  1.00  0.00    -0.648 C  
BRANCH  11  17
HETATM   17  C   UNL     1      -9.826  13.758  67.219  1.00  0.00    -0.241 C  
HETATM   18  C   UNL     1      -9.074  14.907  66.511  1.00  0.00    -0.309 C  
HETATM   19  C   UNL     1     -10.671  16.658  67.350  1.00  0.00    -0.253 C  
HETATM   20  C   UNL     1     -11.324  15.622  68.264  1.00  0.00    -0.357 C  
HETATM   21  C   UNL     1      -9.988  16.063  66.126  1.00  0.00    -0.347 C  
HETATM   22  C   UNL     1     -10.494  14.350  68.485  1.00  0.00    -0.254 C  
ENDBRANCH  11  17
ENDBRANCH   9  11
ENDBRANCH   8   9
ENDBRANCH   7   8
ENDBRANCH   6   7
ENDBRANCH   3   6
ENDBRANCH   2   3
TORSDOF 8
ENDMDL
MODEL       17
REMARK 921   NORMALIZED FREE ENERGY PREDICTED BY IDOCK:   -5.05 KCAL/MOL
REMARK 922        TOTAL FREE ENERGY PREDICTED BY IDOCK:   -8.00 KCAL/MOL
REMARK 923 INTER-LIGAND FREE ENERGY PREDICTED BY IDOCK:   -7.70 KCAL/MOL
REMARK 924 INTRA-LIGAND FREE ENERGY PREDICTED BY IDOCK:   -0.30 KCAL/MOL
REMARK 927      BINDING AFFINITY PREDICTED BY RF-SCORE:    0.00 PKD
ROOT
HETATM    1  C   UNL     1     -10.210  19.702  68.089  1.00  0.00    -0.580 C  
HETATM    2  C   UNL     1      -9.939  19.947  66.606  1.00  0.00    -0.457 C  
ENDROOT
BRANCH   2   3
HETATM    3  N   UNL     1      -9.144  18.897  65.943  1.00  0.00    -0.408 NA 
BRANCH   3   4
HETATM    4  C   UNL     1      -7.700  18.976  66.200  1.00  0.00    -0.271 C  
HETATM    5  C   UNL     1      -6.994  20.219  65.673  1.00  0.00    -0.292 C  
ENDBRANCH   3   4
BRANCH   3   6
HETATM    6  C   UNL     1      -9.742  17.571  66.226  1.00  0.00    -0.258 C  
BRANCH   6   7
HETATM    7  C   UNL     1     -10.828  17.136  65.228  1.00  0.00    -0.036 C  
BRANCH   7   8
HETATM    8  O   UNL     1     -10.561  15.869  64.592  1.00  0.00    -0.525 OA 
BRANCH   8   9
HETATM    9  C   UNL     1     -11.599  14.992  64.597  1.00  0.00    -0.386 C  
HETATM   10  O   UNL     1     -12.656  15.186  64.015  1.00  0.00    -0.791 OA 
BRANCH   9  11
HETATM   11  C   UNL     1     -11.281  13.696  65.391  1.00  0.00    -0.306 C  
HETATM   12  C   UNL     1     -10.062  12.967  64.768  1.00  0.00    -0.242 C  
HETATM   13  C   UNL     1     -12.545  12.788  65.217  1.00  0.00    -0.460 C  
HETATM   14  C   UNL     1     -12.744  12.255  63.796  1.00  0.00    -0.516 C  
HETATM   15  C   UNL     1     -10.291  12.423  63.359  1.00  0.00    -0.319 C  
HETATM   16  C   UNL     1     -11.506  11.512  63.318  1.00  0.00    -0.180 C  
BRANCH  11  17
HETATM   17  C   UNL     1     -11.071  14.121  66.908  1.00  0.00    -0.312 C  
HETATM   18  C   UNL     1     -11.944  13.395  67.956  1.00  0.00    -0.357 C  
HETATM   19  C   UNL     1     -10.062  11.902  68.695  1.00  0.00    -0.186 C  
HETATM   20  C   UNL     1      -9.083  12.723  67.859  1.00  0.00    -0.204 C  
HETATM   21  C   UNL     1     -11.502  11.959  68.201  1.00  0.00    -0.384 C  
HETATM   22  C   UNL     1      -9.610  14.097  67.423  1.00  0.00    -0.229 C  
ENDBRANCH  11  17
ENDBRANCH   9  11
ENDBRANCH   8   9
ENDBRANCH   7   8
ENDBRANCH   6   7
ENDBRANCH   3   6
ENDBRANCH   2   3
TORSDOF 8
ENDMDL
MODEL       18
REMARK 921   NORMALIZED FREE ENERGY PREDICTED BY IDOCK:   -5.02 KCAL/MOL
REMARK 922        TOTAL FREE ENERGY PREDICTED BY IDOCK:   -7.95 KCAL/MOL
REMARK 923 INTER-LIGAND FREE ENERGY PREDICTED BY IDOCK:   -7.61 KCAL/MOL
REMARK 924 INTRA-LIGAND FREE ENERGY PREDICTED BY IDOCK:   -0.34 KCAL/MOL
REMARK 927      BINDING AFFINITY PREDICTED BY RF-SCORE:    0.00 PKD
ROOT
HETATM    1  C   UNL     1     -13.761   9.036  72.189  1.00  0.00    -0.536 C  
HETATM    2  C   UNL     1     -13.249   9.936  71.067  1.00  0.00    -0.304 C  
ENDROOT
BRANCH   2   3
HETATM    3  N   UNL     1     -11.784  10.107  71.032  1.00  0.00    -0.366 NA 
BRANCH   3   4
HETATM    4  C   UNL     1     -11.037   9.091  71.785  1.00  0.00    -0.374 C  
HETATM    5  C   UNL     1      -9.617   8.815  71.307  1.00  0.00    -0.323 C  
ENDBRANCH   3   4
BRANCH   3   6
HETATM    6  C   UNL     1     -11.340  10.275  69.628  1.00  0.00    -0.257 C  
BRANCH   6   7
HETATM    7  C   UNL     1     -11.864  11.548  68.943  1.00  0.00    -0.341 C  
BRANCH   7   8
HETATM    8  O   UNL     1     -11.897  11.464  67.504  1.00  0.00    -0.614 OA 
BRANCH   8   9
HETATM    9  C   UNL     1     -10.719  11.736  66.884  1.00  0.00    -0.250 C  
HETATM   10  O   UNL     1      -9.806  10.930  66.774  1.00  0.00    -0.186 OA 
BRANCH   9  11
HETATM   11  C   UNL     1     -10.672  13.170  66.292  1.00  0.00    -0.295 C  
HETATM   12  C   UNL     1     -12.110  13.694  66.033  1.00  0.00    -0.480 C  
HETATM   13  C   UNL     1      -9.942  13.024  64.915  1.00  0.00    -0.151 C  
HETATM   14  C   UNL     1     -10.746  12.264  63.856  1.00  0.00    -0.463 C  
HETATM   15  C   UNL     1     -12.884  12.936  64.956  1.00  0.00    -0.348 C  
HETATM   16  C   UNL     1     -12.109  12.904  63.649  1.00  0.00    -0.611 C  
BRANCH  11  17
HETATM   17  C   UNL     1      -9.835  14.063  67.307  1.00  0.00    -0.242 C  
HETATM   18  C   UNL     1      -8.801  15.028  66.684  1.00  0.00    -0.307 C  
HETATM   19  C   UNL     1     -10.276  17.038  67.003  1.00  0.00    -0.303 C  
HETATM   20  C   UNL     1     -11.241  16.197  67.837  1.00  0.00    -0.245 C  
HETATM   21  C   UNL     1      -9.446  16.233  66.012  1.00  0.00    -0.369 C  
HETATM   22  C   UNL     1     -10.660  14.869  68.341  1.00  0.00    -0.244 C  
ENDBRANCH  11  17
ENDBRANCH   9  11
ENDBRANCH   8   9
ENDBRANCH   7   8
ENDBRANCH   6   7
ENDBRANCH   3   6
ENDBRANCH   2   3
TORSDOF 8
ENDMDL
MODEL       19
REMARK 921   NORMALIZED FREE ENERGY PREDICTED BY IDOCK:   -5.02 KCAL/MOL
REMARK 922        TOTAL FREE ENERGY PREDICTED BY IDOCK:   -7.95 KCAL/MOL
REMARK 923 INTER-LIGAND FREE ENERGY PREDICTED BY IDOCK:   -7.14 KCAL/MOL
REMARK 924 INTRA-LIGAND FREE ENERGY PREDICTED BY IDOCK:   -0.81 KCAL/MOL
REMARK 927      BINDING AFFINITY PREDICTED BY RF-SCORE:    0.00 PKD
ROOT
HETATM    1  C   UNL     1     -10.980  15.931  70.579  1.00  0.00    -0.346 C  
HETATM    2  C   UNL     1     -12.387  15.608  71.075  1.00  0.00    -0.428 C  
ENDROOT
BRANCH   2   3
HETATM    3  N   UNL     1     -12.486  14.393  71.905  1.00  0.00    -0.329 NA 
BRANCH   3   4
HETATM    4  C   UNL     1     -13.120  14.603  73.213  1.00  0.00    -0.393 C  
HETATM    5  C   UNL     1     -12.399  15.555  74.160  1.00  0.00    -0.806 C  
ENDBRANCH   3   4
BRANCH   3   6
HETATM    6  C   UNL     1     -13.083  13.296  71.108  1.00  0.00    -0.146 C  
BRANCH   6   7
HETATM    7  C   UNL     1     -12.084  12.545  70.212  1.00  0.00    -0.294 C  
BRANCH   7   8
HETATM    8  O   UNL     1     -12.117  12.957  68.830  1.00  0.00    -0.280 OA 
BRANCH   8   9
HETATM    9  C   UNL     1     -10.901  13.065  68.232  1.00  0.00    -0.246 C  
HETATM   10  O   UNL     1      -9.839  12.918  68.819  1.00  0.00    -0.112 OA 
BRANCH   9  11
HETATM   11  C   UNL     1     -11.007  13.355  66.710  1.00  0.00    -0.298 C  
HETATM   12  C   UNL     1      -9.629  13.793  66.148  1.00  0.00    -0.234 C  
HETATM   13  C   UNL     1     -11.998  14.561  66.590  1.00  0.00    -0.358 C  
HETATM   14  C   UNL     1     -11.447  15.883  67.132  1.00  0.00     0.156 C  
HETATM   15  C   UNL     1      -9.110  15.126  66.686  1.00  0.00    -0.310 C  
HETATM   16  C   UNL     1     -10.127  16.234  66.466  1.00  0.00    -0.301 C  
BRANCH  11  17
HETATM   17  C   UNL     1     -11.594  12.045  66.028  1.00  0.00    -0.371 C  
HETATM   18  C   UNL     1     -12.304  12.234  64.669  1.00  0.00    -0.449 C  
HETATM   19  C   UNL     1     -10.341  11.360  63.364  1.00  0.00    -0.458 C  
HETATM   20  C   UNL     1      -9.670  10.926  64.666  1.00  0.00    -0.333 C  
HETATM   21  C   UNL     1     -11.333  12.505  63.527  1.00  0.00    -0.556 C  
HETATM   22  C   UNL     1     -10.609  10.859  65.878  1.00  0.00    -0.244 C  
ENDBRANCH  11  17
ENDBRANCH   9  11
ENDBRANCH   8   9
ENDBRANCH   7   8
ENDBRANCH   6   7
ENDBRANCH   3   6
ENDBRANCH   2   3
TORSDOF 8
ENDMDL
MODEL       20
REMARK 921   NORMALIZED FREE ENERGY PREDICTED BY IDOCK:   -5.01 KCAL/MOL
REMARK 922        TOTAL FREE ENERGY PREDICTED BY IDOCK:   -7.94 KCAL/MOL
REMARK 923 INTER-LIGAND FREE ENERGY PREDICTED BY IDOCK:   -7.47 KCAL/MOL
REMARK 924 INTRA-LIGAND FREE ENERGY PREDICTED BY IDOCK:   -0.47 KCAL/MOL
REMARK 927      BINDING AFFINITY PREDICTED BY RF-SCORE:    0.00 PKD
ROOT
HETATM    1  C   UNL     1     -13.373   9.172  72.314  1.00  0.00    -0.540 C  
HETATM    2  C   UNL     1     -12.078   8.369  72.225  1.00  0.00    -0.392 C  
ENDROOT
BRANCH   2   3
HETATM    3  N   UNL     1     -11.079   8.910  71.286  1.00  0.00    -0.272 NA 
BRANCH   3   4
HETATM    4  C   UNL     1     -10.728   8.003  70.185  1.00  0.00    -0.244 C  
HETATM    5  C   UNL     1     -11.522   6.705  70.110  1.00  0.00    -0.444 C  
ENDBRANCH   3   4
BRANCH   3   6
HETATM    6  C   UNL     1     -11.493  10.265  70.851  1.00  0.00    -0.339 C  
BRANCH   6   7
HETATM    7  C   UNL     1     -10.748  10.791  69.613  1.00  0.00    -0.211 C  
BRANCH   7   8
HETATM    8  O   UNL     1     -11.116  12.135  69.239  1.00  0.00    -0.226 OA 
BRANCH   8   9
HETATM    9  C   UNL     1     -10.255  12.753  68.390  1.00  0.00    -0.236 C  
HETATM   10  O   UNL     1      -9.039  12.719  68.511  1.00  0.00    -0.154 OA 
BRANCH   9  11
HETATM   11  C   UNL     1     -10.980  13.477  67.224  1.00  0.00    -0.293 C  
HETATM   12  C   UNL     1      -9.981  14.360  66.432  1.00  0.00    -0.305 C  
HETATM   13  C   UNL     1     -12.033  14.409  67.910  1.00  0.00    -0.348 C  
HETATM   14  C   UNL     1     -11.423  15.581  68.685  1.00  0.00    -0.367 C  
HETATM   15  C   UNL     1      -9.403  15.537  67.218  1.00  0.00    -0.220 C  
HETATM   16  C   UNL     1     -10.510  16.405  67.791  1.00  0.00    -0.300 C  
BRANCH  11  17
HETATM   17  C   UNL     1     -11.680  12.351  66.345  1.00  0.00    -0.453 C  
HETATM   18  C   UNL     1     -12.525  12.838  65.147  1.00  0.00    -0.565 C  
HETATM   19  C   UNL     1     -10.745  12.254  63.472  1.00  0.00    -0.497 C  
HETATM   20  C   UNL     1      -9.952  11.540  64.566  1.00  0.00    -0.306 C  
HETATM   21  C   UNL     1     -11.675  13.343  63.989  1.00  0.00    -0.465 C  
HETATM   22  C   UNL     1     -10.756  11.219  65.833  1.00  0.00    -0.291 C  
ENDBRANCH  11  17
ENDBRANCH   9  11
ENDBRANCH   8   9
ENDBRANCH   7   8
ENDBRANCH   6   7
ENDBRANCH   3   6
ENDBRANCH   2   3
TORSDOF 8
ENDMDL
MODEL       21
REMARK 921   NORMALIZED FREE ENERGY PREDICTED BY IDOCK:   -5.01 KCAL/MOL
REMARK 922        TOTAL FREE ENERGY PREDICTED BY IDOCK:   -7.94 KCAL/MOL
REMARK 923 INTER-LIGAND FREE ENERGY PREDICTED BY IDOCK:   -7.80 KCAL/MOL
REMARK 924 INTRA-LIGAND FREE ENERGY PREDICTED BY IDOCK:   -0.14 KCAL/MOL
REMARK 927      BINDING AFFINITY PREDICTED BY RF-SCORE:    0.00 PKD
ROOT
HETATM    1  C   UNL     1     -12.651  15.745  74.153  1.00  0.00    -0.761 C  
HETATM    2  C   UNL     1     -12.407  16.044  72.676  1.00  0.00    -0.502 C  
ENDROOT
BRANCH   2   3
HETATM    3  N   UNL     1     -11.994  14.880  71.870  1.00  0.00    -0.364 NA 
BRANCH   3   4
HETATM    4  C   UNL     1     -13.108  14.125  71.281  1.00  0.00    -0.350 C  
HETATM    5  C   UNL     1     -13.769  13.093  72.186  1.00  0.00    -0.588 C  
ENDBRANCH   3   4
BRANCH   3   6
HETATM    6  C   UNL     1     -10.957  15.296  70.897  1.00  0.00    -0.246 C  
BRANCH   6   7
HETATM    7  C   UNL     1     -11.425  15.305  69.433  1.00  0.00    -0.315 C  
BRANCH   7   8
HETATM    8  O   UNL     1     -10.624  14.482  68.559  1.00  0.00    -0.238 OA 
BRANCH   8   9
HETATM    9  C   UNL     1     -11.309  13.522  67.884  1.00  0.00    -0.289 C  
HETATM   10  O   UNL     1     -12.380  13.064  68.254  1.00  0.00    -0.097 OA 
BRANCH   9  11
HETATM   11  C   UNL     1     -10.603  13.098  66.568  1.00  0.00    -0.290 C  
HETATM   12  C   UNL     1     -10.063  14.345  65.820  1.00  0.00    -0.361 C  
HETATM   13  C   UNL     1     -11.723  12.440  65.695  1.00  0.00    -0.468 C  
HETATM   14  C   UNL     1     -12.783  13.423  65.189  1.00  0.00    -0.459 C  
HETATM   15  C   UNL     1     -11.139  15.300  65.304  1.00  0.00    -0.382 C  
HETATM   16  C   UNL     1     -12.138  14.568  64.424  1.00  0.00    -0.492 C  
BRANCH  11  17
HETATM   17  C   UNL     1      -9.477  12.047  66.964  1.00  0.00    -0.199 C  
HETATM   18  C   UNL     1      -9.819  11.070  68.111  1.00  0.00    -0.185 C  
HETATM   19  C   UNL     1     -10.265   9.160  66.540  1.00  0.00    -0.322 C  
HETATM   20  C   UNL     1      -9.717   9.988  65.379  1.00  0.00    -0.368 C  
HETATM   21  C   UNL     1     -10.809   9.991  67.694  1.00  0.00    -0.336 C  
HETATM   22  C   UNL     1      -8.890  11.211  65.800  1.00  0.00    -0.182 C  
ENDBRANCH  11  17
ENDBRANCH   9  11
ENDBRANCH   8   9
ENDBRANCH   7   8
ENDBRANCH   6   7
ENDBRANCH   3   6
ENDBRANCH   2   3
TORSDOF 8
ENDMDL
MODEL       22
REMARK 921   NORMALIZED FREE ENERGY PREDICTED BY IDOCK:   -5.01 KCAL/MOL
REMARK 922        TOTAL FREE ENERGY PREDICTED BY IDOCK:   -7.93 KCAL/MOL
REMARK 923 INTER-LIGAND FREE ENERGY PREDICTED BY IDOCK:   -7.17 KCAL/MOL
REMARK 924 INTRA-LIGAND FREE ENERGY PREDICTED BY IDOCK:   -0.76 KCAL/MOL
REMARK 927      BINDING AFFINITY PREDICTED BY RF-SCORE:    0.00 PKD
ROOT
HETATM    1  C   UNL     1     -12.629  12.061  63.396  1.00  0.00    -0.592 C  
HETATM    2  C   UNL     1     -11.595  12.647  64.354  1.00  0.00    -0.357 C  
ENDROOT
BRANCH   2   3
HETATM    3  N   UNL     1     -11.371  11.858  65.579  1.00  0.00    -0.308 NA 
BRANCH   3   4
HETATM    4  C   UNL     1     -10.032  11.261  65.679  1.00  0.00    -0.247 C  
HETATM    5  C   UNL     1      -9.008  12.048  66.487  1.00  0.00    -0.193 C  
ENDBRANCH   3   4
BRANCH   3   6
HETATM    6  C   UNL     1     -11.772  12.657  66.761  1.00  0.00    -0.392 C  
BRANCH   6   7
HETATM    7  C   UNL     1     -12.219  14.092  66.438  1.00  0.00    -0.460 C  
BRANCH   7   8
HETATM    8  O   UNL     1     -11.550  15.101  67.222  1.00  0.00    -0.323 OA 
BRANCH   8   9
HETATM    9  C   UNL     1     -10.579  15.790  66.567  1.00  0.00    -0.306 C  
HETATM   10  O   UNL     1     -10.412  15.746  65.357  1.00  0.00    -0.368 OA 
BRANCH   9  11
HETATM   11  C   UNL     1      -9.726  16.672  67.519  1.00  0.00    -0.247 C  
HETATM   12  C   UNL     1      -8.254  16.722  67.034  1.00  0.00    -0.224 C  
HETATM   13  C   UNL     1      -9.769  15.944  68.904  1.00  0.00    -0.230 C  
HETATM   14  C   UNL     1      -9.013  14.612  68.936  1.00  0.00    -0.136 C  
HETATM   15  C   UNL     1      -7.512  15.388  67.097  1.00  0.00    -0.224 C  
HETATM   16  C   UNL     1      -7.569  14.799  68.497  1.00  0.00    -0.120 C  
BRANCH  11  17
HETATM   17  C   UNL     1     -10.431  18.096  67.585  1.00  0.00    -0.432 C  
HETATM   18  C   UNL     1     -10.026  19.011  68.762  1.00  0.00    -0.475 C  
HETATM   19  C   UNL     1      -8.535  20.436  67.326  1.00  0.00    -0.405 C  
HETATM   20  C   UNL     1      -9.065  19.731  66.078  1.00  0.00    -0.319 C  
HETATM   21  C   UNL     1      -8.634  19.605  68.598  1.00  0.00    -0.304 C  
HETATM   22  C   UNL     1     -10.366  18.945  66.292  1.00  0.00    -0.512 C  
ENDBRANCH  11  17
ENDBRANCH   9  11
ENDBRANCH   8   9
ENDBRANCH   7   8
ENDBRANCH   6   7
ENDBRANCH   3   6
ENDBRANCH   2   3
TORSDOF 8
ENDMDL
MODEL       23
REMARK 921   NORMALIZED FREE ENERGY PREDICTED BY IDOCK:   -4.97 KCAL/MOL
REMARK 922        TOTAL FREE ENERGY PREDICTED BY IDOCK:   -7.88 KCAL/MOL
REMARK 923 INTER-LIGAND FREE ENERGY PREDICTED BY IDOCK:   -7.04 KCAL/MOL
REMARK 924 INTRA-LIGAND FREE ENERGY PREDICTED BY IDOCK:   -0.84 KCAL/MOL
REMARK 927      BINDING AFFINITY PREDICTED BY RF-SCORE:    0.00 PKD
ROOT
HETATM    1  C   UNL     1      -9.115  10.957  62.572  1.00  0.00    -0.361 C  
HETATM    2  C   UNL     1     -10.072  10.870  63.758  1.00  0.00    -0.353 C  
ENDROOT
BRANCH   2   3
HETATM    3  N   UNL     1     -10.529  12.171  64.281  1.00  0.00    -0.314 NA 
BRANCH   3   4
HETATM    4  C   UNL     1     -11.693  12.730  63.582  1.00  0.00    -0.519 C  
HETATM    5  C   UNL     1     -12.234  14.045  64.130  1.00  0.00    -0.433 C  
ENDBRANCH   3   4
BRANCH   3   6
HETATM    6  C   UNL     1     -10.684  12.085  65.752  1.00  0.00    -0.279 C  
BRANCH   6   7
HETATM    7  C   UNL     1      -9.472  12.593  66.551  1.00  0.00    -0.247 C  
BRANCH   7   8
HETATM    8  O   UNL     1      -9.311  14.027  66.518  1.00  0.00    -0.278 OA 
BRANCH   8   9
HETATM    9  C   UNL     1      -9.095  14.609  67.726  1.00  0.00    -0.191 C  
HETATM   10  O   UNL     1      -8.315  14.175  68.561  1.00  0.00    -0.156 OA 
BRANCH   9  11
HETATM   11  C   UNL     1      -9.916  15.914  67.916  1.00  0.00    -0.221 C  
HETATM   12  C   UNL     1      -9.931  16.328  69.411  1.00  0.00    -0.232 C  
HETATM   13  C   UNL     1     -11.376  15.547  67.487  1.00  0.00    -0.232 C  
HETATM   14  C   UNL     1     -12.085  14.578  68.439  1.00  0.00    -0.249 C  
HETATM   15  C   UNL     1     -10.664  15.359  70.338  1.00  0.00    -0.312 C  
HETATM   16  C   UNL     1     -12.086  15.119  69.860  1.00  0.00    -0.373 C  
BRANCH  11  17
HETATM   17  C   UNL     1      -9.280  17.006  66.952  1.00  0.00    -0.254 C  
HETATM   18  C   UNL     1     -10.260  18.010  66.306  1.00  0.00    -0.381 C  
HETATM   19  C   UNL     1      -9.638  19.857  67.893  1.00  0.00    -0.490 C  
HETATM   20  C   UNL     1      -8.487  19.006  68.429  1.00  0.00    -0.383 C  
HETATM   21  C   UNL     1     -10.780  19.048  67.291  1.00  0.00    -0.556 C  
HETATM   22  C   UNL     1      -8.098  17.820  67.536  1.00  0.00    -0.228 C  
ENDBRANCH  11  17
ENDBRANCH   9  11
ENDBRANCH   8   9
ENDBRANCH   7   8
ENDBRANCH   6   7
ENDBRANCH   3   6
ENDBRANCH   2   3
TORSDOF 8
ENDMDL
MODEL       24
REMARK 921   NORMALIZED FREE ENERGY PREDICTED BY IDOCK:   -4.97 KCAL/MOL
REMARK 922        TOTAL FREE ENERGY PREDICTED BY IDOCK:   -7.88 KCAL/MOL
REMARK 923 INTER-LIGAND FREE ENERGY PREDICTED BY IDOCK:   -7.07 KCAL/MOL
REMARK 924 INTRA-LIGAND FREE ENERGY PREDICTED BY IDOCK:   -0.80 KCAL/MOL
REMARK 927      BINDING AFFINITY PREDICTED BY RF-SCORE:    0.00 PKD
ROOT
HETATM    1  C   UNL     1      -6.472  19.599  69.196  1.00  0.00    -0.361 C  
HETATM    2  C   UNL     1      -6.841  20.459  67.990  1.00  0.00    -0.296 C  
ENDROOT
BRANCH   2   3
HETATM    3  N   UNL     1      -8.155  20.155  67.393  1.00  0.00    -0.324 NA 
BRANCH   3   4
HETATM    4  C   UNL     1      -8.098  19.719  65.992  1.00  0.00    -0.322 C  
HETATM    5  C   UNL     1      -6.704  19.546  65.402  1.00  0.00    -0.309 C  
ENDBRANCH   3   4
BRANCH   3   6
HETATM    6  C   UNL     1      -8.903  19.239  68.287  1.00  0.00    -0.337 C  
BRANCH   6   7
HETATM    7  C   UNL     1     -10.362  18.991  67.867  1.00  0.00    -0.405 C  
BRANCH   7   8
HETATM    8  O   UNL     1     -10.574  17.720  67.220  1.00  0.00    -0.362 OA 
BRANCH   8   9
HETATM    9  C   UNL     1     -10.423  16.633  68.021  1.00  0.00    -0.320 C  
HETATM   10  O   UNL     1     -10.629  16.643  69.226  1.00  0.00    -0.308 OA 
BRANCH   9  11
HETATM   11  C   UNL     1      -9.999  15.364  67.234  1.00  0.00    -0.226 C  
HETATM   12  C   UNL     1      -9.437  14.291  68.204  1.00  0.00    -0.204 C  
HETATM   13  C   UNL     1      -8.843  15.833  66.289  1.00  0.00    -0.378 C  
HETATM   14  C   UNL     1      -7.549  16.208  67.018  1.00  0.00    -0.260 C  
HETATM   15  C   UNL     1      -8.133  14.676  68.902  1.00  0.00    -0.147 C  
HETATM   16  C   UNL     1      -7.067  15.059  67.890  1.00  0.00    -0.165 C  
BRANCH  11  17
HETATM   17  C   UNL     1     -11.270  14.884  66.409  1.00  0.00    -0.331 C  
HETATM   18  C   UNL     1     -11.022  14.464  64.943  1.00  0.00    -0.416 C  
HETATM   19  C   UNL     1     -11.138  12.011  65.479  1.00  0.00    -0.361 C  
HETATM   20  C   UNL     1     -11.618  12.343  66.891  1.00  0.00    -0.437 C  
HETATM   21  C   UNL     1     -10.322  13.117  64.824  1.00  0.00    -0.369 C  
HETATM   22  C   UNL     1     -12.130  13.778  67.071  1.00  0.00    -0.436 C  
ENDBRANCH  11  17
ENDBRANCH   9  11
ENDBRANCH   8   9
ENDBRANCH   7   8
ENDBRANCH   6   7
ENDBRANCH   3   6
ENDBRANCH   2   3
TORSDOF 8
ENDMDL
MODEL       25
REMARK 921   NORMALIZED FREE ENERGY PREDICTED BY IDOCK:   -4.93 KCAL/MOL
REMARK 922        TOTAL FREE ENERGY PREDICTED BY IDOCK:   -7.82 KCAL/MOL
REMARK 923 INTER-LIGAND FREE ENERGY PREDICTED BY IDOCK:   -7.15 KCAL/MOL
REMARK 924 INTRA-LIGAND FREE ENERGY PREDICTED BY IDOCK:   -0.67 KCAL/MOL
REMARK 927      BINDING AFFINITY PREDICTED BY RF-SCORE:    0.00 PKD
ROOT
HETATM    1  C   UNL     1     -11.856  12.288  68.793  1.00  0.00    -0.356 C  
HETATM    2  C   UNL     1     -11.056  13.580  68.647  1.00  0.00    -0.269 C  
ENDROOT
BRANCH   2   3
HETATM    3  N   UNL     1     -11.855  14.816  68.746  1.00  0.00    -0.309 NA 
BRANCH   3   4
HETATM    4  C   UNL     1     -12.313  15.134  70.105  1.00  0.00    -0.341 C  
HETATM    5  C   UNL     1     -11.223  15.293  71.158  1.00  0.00    -0.378 C  
ENDBRANCH   3   4
BRANCH   3   6
HETATM    6  C   UNL     1     -11.138  15.923  68.070  1.00  0.00    -0.334 C  
BRANCH   6   7
HETATM    7  C   UNL     1      -9.687  15.597  67.681  1.00  0.00    -0.225 C  
BRANCH   7   8
HETATM    8  O   UNL     1      -8.737  16.608  68.078  1.00  0.00    -0.188 OA 
BRANCH   8   9
HETATM    9  C   UNL     1      -8.296  17.410  67.075  1.00  0.00    -0.217 C  
HETATM   10  O   UNL     1      -8.305  17.091  65.895  1.00  0.00    -0.515 OA 
BRANCH   9  11
HETATM   11  C   UNL     1      -7.816  18.796  67.585  1.00  0.00    -0.257 C  
HETATM   12  C   UNL     1      -8.664  19.246  68.803  1.00  0.00    -0.383 C  
HETATM   13  C   UNL     1      -8.082  19.785  66.401  1.00  0.00    -0.350 C  
HETATM   14  C   UNL     1      -9.566  20.042  66.120  1.00  0.00    -0.476 C  
HETATM   15  C   UNL     1     -10.136  19.519  68.494  1.00  0.00    -0.543 C  
HETATM   16  C   UNL     1     -10.277  20.532  67.370  1.00  0.00    -0.342 C  
BRANCH  11  17
HETATM   17  C   UNL     1      -6.262  18.662  67.897  1.00  0.00    -0.189 C  
HETATM   18  C   UNL     1      -5.355  19.802  67.383  1.00  0.00    -0.166 C  
HETATM   19  C   UNL     1      -5.153  20.855  69.656  1.00  0.00    -0.403 C  
HETATM   20  C   UNL     1      -5.841  19.642  70.279  1.00  0.00    -0.309 C  
HETATM   21  C   UNL     1      -5.501  21.084  68.191  1.00  0.00    -0.366 C  
HETATM   22  C   UNL     1      -5.888  18.401  69.377  1.00  0.00    -0.236 C  
ENDBRANCH  11  17
ENDBRANCH   9  11
ENDBRANCH   8   9
ENDBRANCH   7   8
ENDBRANCH   6   7
ENDBRANCH   3   6
ENDBRANCH   2   3
TORSDOF 8
ENDMDL
MODEL       26
REMARK 921   NORMALIZED FREE ENERGY PREDICTED BY IDOCK:   -4.92 KCAL/MOL
REMARK 922        TOTAL FREE ENERGY PREDICTED BY IDOCK:   -7.81 KCAL/MOL
REMARK 923 INTER-LIGAND FREE ENERGY PREDICTED BY IDOCK:   -7.28 KCAL/MOL
REMARK 924 INTRA-LIGAND FREE ENERGY PREDICTED BY IDOCK:   -0.53 KCAL/MOL
REMARK 927      BINDING AFFINITY PREDICTED BY RF-SCORE:    0.00 PKD
ROOT
HETATM    1  C   UNL     1     -11.013  10.648  67.428  1.00  0.00    -0.361 C  
HETATM    2  C   UNL     1     -11.643  11.854  66.737  1.00  0.00    -0.268 C  
ENDROOT
BRANCH   2   3
HETATM    3  N   UNL     1     -10.857  12.404  65.617  1.00  0.00    -0.269 NA 
BRANCH   3   4
HETATM    4  C   UNL     1      -9.780  11.525  65.144  1.00  0.00    -0.237 C  
HETATM    5  C   UNL     1      -9.979  10.906  63.766  1.00  0.00    -0.408 C  
ENDBRANCH   3   4
BRANCH   3   6
HETATM    6  C   UNL     1     -11.775  12.871  64.552  1.00  0.00    -0.365 C  
BRANCH   6   7
HETATM    7  C   UNL     1     -11.681  14.375  64.244  1.00  0.00    -0.310 C  
BRANCH   7   8
HETATM    8  O   UNL     1     -10.488  15.001  64.759  1.00  0.00    -0.381 OA 
BRANCH   8   9
HETATM    9  C   UNL     1     -10.648  16.280  65.189  1.00  0.00    -0.304 C  
HETATM   10  O   UNL     1     -11.167  17.162  64.521  1.00  0.00    -1.104 OA 
BRANCH   9  11
HETATM   11  C   UNL     1     -10.136  16.491  66.640  1.00  0.00    -0.299 C  
HETATM   12  C   UNL     1     -10.766  17.768  67.253  1.00  0.00    -0.249 C  
HETATM   13  C   UNL     1      -8.593  16.714  66.503  1.00  0.00    -0.320 C  
HETATM   14  C   UNL     1      -8.207  18.035  65.830  1.00  0.00     0.034 C  
HETATM   15  C   UNL     1     -10.349  19.076  66.581  1.00  0.00    -0.501 C  
HETATM   16  C   UNL     1      -8.836  19.215  66.553  1.00  0.00    -0.348 C  
BRANCH  11  17
HETATM   17  C   UNL     1     -10.465  15.160  67.445  1.00  0.00    -0.264 C  
HETATM   18  C   UNL     1      -9.391  14.675  68.445  1.00  0.00    -0.201 C  
HETATM   19  C   UNL     1     -10.658  15.533  70.439  1.00  0.00    -0.294 C  
HETATM   20  C   UNL     1     -11.862  15.827  69.546  1.00  0.00    -0.359 C  
HETATM   21  C   UNL     1      -9.325  15.531  69.703  1.00  0.00    -0.224 C  
HETATM   22  C   UNL     1     -11.829  15.131  68.178  1.00  0.00    -0.252 C  
ENDBRANCH  11  17
ENDBRANCH   9  11
ENDBRANCH   8   9
ENDBRANCH   7   8
ENDBRANCH   6   7
ENDBRANCH   3   6
ENDBRANCH   2   3
TORSDOF 8
ENDMDL
MODEL       27
REMARK 921   NORMALIZED FREE ENERGY PREDICTED BY IDOCK:   -4.90 KCAL/MOL
REMARK 922        TOTAL FREE ENERGY PREDICTED BY IDOCK:   -7.77 KCAL/MOL
REMARK 923 INTER-LIGAND FREE ENERGY PREDICTED BY IDOCK:   -8.11 KCAL/MOL
REMARK 924 INTRA-LIGAND FREE ENERGY PREDICTED BY IDOCK:    0.34 KCAL/MOL
REMARK 927      BINDING AFFINITY PREDICTED BY RF-SCORE:    0.00 PKD
ROOT
HETATM    1  C   UNL     1     -10.930  10.590  67.505  1.00  0.00    -0.365 C  
HETATM    2  C   UNL     1     -11.779  11.736  66.961  1.00  0.00    -0.167 C  
ENDROOT
BRANCH   2   3
HETATM    3  N   UNL     1     -11.340  12.264  65.656  1.00  0.00    -0.337 NA 
BRANCH   3   4
HETATM    4  C   UNL     1     -10.693  11.272  64.787  1.00  0.00    -0.285 C  
HETATM    5  C   UNL     1     -10.202  11.782  63.439  1.00  0.00    -0.482 C  
ENDBRANCH   3   4
BRANCH   3   6
HETATM    6  C   UNL     1     -12.460  12.995  65.017  1.00  0.00    -0.477 C  
BRANCH   6   7
HETATM    7  C   UNL     1     -12.159  14.470  64.702  1.00  0.00    -0.473 C  
BRANCH   7   8
HETATM    8  O   UNL     1     -10.893  14.930  65.219  1.00  0.00    -0.334 OA 
BRANCH   8   9
HETATM    9  C   UNL     1     -10.747  16.279  65.269  1.00  0.00    -0.332 C  
HETATM   10  O   UNL     1     -11.272  17.050  64.478  1.00  0.00    -1.091 OA 
BRANCH   9  11
HETATM   11  C   UNL     1      -9.874  16.743  66.466  1.00  0.00    -0.303 C  
HETATM   12  C   UNL     1      -8.601  15.863  66.577  1.00  0.00    -0.345 C  
HETATM   13  C   UNL     1     -10.756  16.504  67.736  1.00  0.00    -0.329 C  
HETATM   14  C   UNL     1     -10.996  15.027  68.065  1.00  0.00    -0.285 C  
HETATM   15  C   UNL     1      -8.862  14.399  66.929  1.00  0.00    -0.246 C  
HETATM   16  C   UNL     1      -9.677  14.283  68.207  1.00  0.00    -0.221 C  
BRANCH  11  17
HETATM   17  C   UNL     1      -9.570  18.288  66.247  1.00  0.00    -0.256 C  
HETATM   18  C   UNL     1     -10.252  19.270  67.225  1.00  0.00    -0.512 C  
HETATM   19  C   UNL     1      -8.152  19.618  68.561  1.00  0.00    -0.339 C  
HETATM   20  C   UNL     1      -7.355  18.851  67.507  1.00  0.00    -0.242 C  
HETATM   21  C   UNL     1      -9.629  19.250  68.614  1.00  0.00    -0.479 C  
HETATM   22  C   UNL     1      -8.074  18.680  66.162  1.00  0.00    -0.208 C  
ENDBRANCH  11  17
ENDBRANCH   9  11
ENDBRANCH   8   9
ENDBRANCH   7   8
ENDBRANCH   6   7
ENDBRANCH   3   6
ENDBRANCH   2   3
TORSDOF 8
ENDMDL
MODEL       28
REMARK 921   NORMALIZED FREE ENERGY PREDICTED BY IDOCK:   -4.88 KCAL/MOL
REMARK 922        TOTAL FREE ENERGY PREDICTED BY IDOCK:   -7.75 KCAL/MOL
REMARK 923 INTER-LIGAND FREE ENERGY PREDICTED BY IDOCK:   -7.07 KCAL/MOL
REMARK 924 INTRA-LIGAND FREE ENERGY PREDICTED BY IDOCK:   -0.68 KCAL/MOL
REMARK 927      BINDING AFFINITY PREDICTED BY RF-SCORE:    0.00 PKD
ROOT
HETATM    1  C   UNL     1     -12.591   8.797  71.821  1.00  0.00    -0.409 C  
HETATM    2  C   UNL     1     -11.551   9.214  70.785  1.00  0.00    -0.276 C  
ENDROOT
BRANCH   2   3
HETATM    3  N   UNL     1     -10.735   8.109  70.249  1.00  0.00    -0.233 NA 
BRANCH   3   4
HETATM    4  C   UNL     1     -11.428   6.815  70.196  1.00  0.00    -0.349 C  
HETATM    5  C   UNL     1     -10.968   5.855  69.105  1.00  0.00    -0.382 C  
ENDBRANCH   3   4
BRANCH   3   6
HETATM    6  C   UNL     1     -10.121   8.525  68.966  1.00  0.00    -0.199 C  
BRANCH   6   7
HETATM    7  C   UNL     1      -9.908  10.041  68.825  1.00  0.00    -0.167 C  
BRANCH   7   8
HETATM    8  O   UNL     1     -10.089  10.532  67.481  1.00  0.00    -0.176 OA 
BRANCH   8   9
HETATM    9  C   UNL     1     -11.131  11.389  67.316  1.00  0.00    -0.303 C  
HETATM   10  O   UNL     1     -12.255  11.183  67.749  1.00  0.00    -0.432 OA 
BRANCH   9  11
HETATM   11  C   UNL     1     -10.729  12.679  66.551  1.00  0.00    -0.273 C  
HETATM   12  C   UNL     1     -11.991  13.399  66.008  1.00  0.00    -0.460 C  
HETATM   13  C   UNL     1      -9.875  12.187  65.335  1.00  0.00    -0.231 C  
HETATM   14  C   UNL     1     -10.674  11.421  64.276  1.00  0.00    -0.420 C  
HETATM   15  C   UNL     1     -12.759  12.627  64.936  1.00  0.00    -0.450 C  
HETATM   16  C   UNL     1     -11.848  12.249  63.779  1.00  0.00    -0.587 C  
BRANCH  11  17
HETATM   17  C   UNL     1      -9.866  13.562  67.553  1.00  0.00    -0.227 C  
HETATM   18  C   UNL     1      -8.827  14.511  66.916  1.00  0.00    -0.257 C  
HETATM   19  C   UNL     1     -10.269  16.542  67.250  1.00  0.00    -0.287 C  
HETATM   20  C   UNL     1     -11.235  15.715  68.098  1.00  0.00    -0.345 C  
HETATM   21  C   UNL     1      -9.463  15.724  66.250  1.00  0.00    -0.349 C  
HETATM   22  C   UNL     1     -10.666  14.380  68.597  1.00  0.00    -0.258 C  
ENDBRANCH  11  17
ENDBRANCH   9  11
ENDBRANCH   8   9
ENDBRANCH   7   8
ENDBRANCH   6   7
ENDBRANCH   3   6
ENDBRANCH   2   3
TORSDOF 8
ENDMDL
MODEL       29
REMARK 921   NORMALIZED FREE ENERGY PREDICTED BY IDOCK:   -4.88 KCAL/MOL
REMARK 922        TOTAL FREE ENERGY PREDICTED BY IDOCK:   -7.75 KCAL/MOL
REMARK 923 INTER-LIGAND FREE ENERGY PREDICTED BY IDOCK:   -7.12 KCAL/MOL
REMARK 924 INTRA-LIGAND FREE ENERGY PREDICTED BY IDOCK:   -0.63 KCAL/MOL
REMARK 927      BINDING AFFINITY PREDICTED BY RF-SCORE:    0.00 PKD
ROOT
HETATM    1  C   UNL     1     -10.565  19.728  66.541  1.00  0.00    -0.580 C  
HETATM    2  C   UNL     1      -9.178  19.092  66.485  1.00  0.00    -0.345 C  
ENDROOT
BRANCH   2   3
HETATM    3  N   UNL     1      -8.767  18.398  67.720  1.00  0.00    -0.264 NA 
BRANCH   3   4
HETATM    4  C   UNL     1      -7.769  19.122  68.518  1.00  0.00    -0.341 C  
HETATM    5  C   UNL     1      -6.611  18.290  69.054  1.00  0.00    -0.263 C  
ENDBRANCH   3   4
BRANCH   3   6
HETATM    6  C   UNL     1      -9.971  17.984  68.478  1.00  0.00    -0.390 C  
BRANCH   6   7
HETATM    7  C   UNL     1     -10.147  16.462  68.611  1.00  0.00    -0.244 C  
BRANCH   7   8
HETATM    8  O   UNL     1     -10.920  15.870  67.546  1.00  0.00    -0.323 OA 
BRANCH   8   9
HETATM    9  C   UNL     1     -10.223  15.054  66.713  1.00  0.00    -0.260 C  
HETATM   10  O   UNL     1      -9.307  15.435  65.998  1.00  0.00    -0.310 OA 
BRANCH   9  11
HETATM   11  C   UNL     1     -10.688  13.576  66.796  1.00  0.00    -0.278 C  
HETATM   12  C   UNL     1     -10.158  12.774  65.578  1.00  0.00    -0.278 C  
HETATM   13  C   UNL     1     -12.250  13.631  66.712  1.00  0.00    -0.416 C  
HETATM   14  C   UNL     1     -12.791  14.062  65.345  1.00  0.00    -0.442 C  
HETATM   15  C   UNL     1     -10.728  13.207  64.227  1.00  0.00    -0.431 C  
HETATM   16  C   UNL     1     -12.247  13.169  64.241  1.00  0.00    -0.463 C  
BRANCH  11  17
HETATM   17  C   UNL     1     -10.198  13.013  68.199  1.00  0.00    -0.239 C  
HETATM   18  C   UNL     1     -11.278  12.383  69.106  1.00  0.00    -0.295 C  
HETATM   19  C   UNL     1     -10.576  10.035  68.549  1.00  0.00    -0.245 C  
HETATM   20  C   UNL     1      -9.344  10.576  67.826  1.00  0.00    -0.158 C  
HETATM   21  C   UNL     1     -11.739  11.017  68.615  1.00  0.00    -0.367 C  
HETATM   22  C   UNL     1      -8.998  12.034  68.156  1.00  0.00    -0.190 C  
ENDBRANCH  11  17
ENDBRANCH   9  11
ENDBRANCH   8   9
ENDBRANCH   7   8
ENDBRANCH   6   7
ENDBRANCH   3   6
ENDBRANCH   2   3
TORSDOF 8
ENDMDL
MODEL       30
REMARK 921   NORMALIZED FREE ENERGY PREDICTED BY IDOCK:   -4.80 KCAL/MOL
REMARK 922        TOTAL FREE ENERGY PREDICTED BY IDOCK:   -7.63 KCAL/MOL
REMARK 923 INTER-LIGAND FREE ENERGY PREDICTED BY IDOCK:   -7.49 KCAL/MOL
REMARK 924 INTRA-LIGAND FREE ENERGY PREDICTED BY IDOCK:   -0.14 KCAL/MOL
REMARK 927      BINDING AFFINITY PREDICTED BY RF-SCORE:    0.00 PKD
ROOT
HETATM    1  C   UNL     1     -13.897   8.739  71.955  1.00  0.00    -0.504 C  
HETATM    2  C   UNL     1     -12.413   8.702  72.312  1.00  0.00    -0.395 C  
ENDROOT
BRANCH   2   3
HETATM    3  N   UNL     1     -11.552   9.539  71.457  1.00  0.00    -0.381 NA 
BRANCH   3   4
HETATM    4  C   UNL     1     -10.682   8.782  70.547  1.00  0.00    -0.223 C  
HETATM    5  C   UNL     1      -9.194   9.098  70.628  1.00  0.00    -0.310 C  
ENDBRANCH   3   4
BRANCH   3   6
HETATM    6  C   UNL     1     -12.374  10.577  70.791  1.00  0.00    -0.378 C  
BRANCH   6   7
HETATM    7  C   UNL     1     -11.582  11.534  69.886  1.00  0.00    -0.308 C  
BRANCH   7   8
HETATM    8  O   UNL     1     -12.099  11.628  68.542  1.00  0.00    -0.491 OA 
BRANCH   8   9
HETATM    9  C   UNL     1     -11.305  11.090  67.580  1.00  0.00    -0.281 C  
HETATM   10  O   UNL     1     -11.077   9.893  67.477  1.00  0.00    -0.257 OA 
BRANCH   9  11
HETATM   11  C   UNL     1     -10.749  12.157  66.599  1.00  0.00    -0.281 C  
HETATM   12  C   UNL     1     -10.722  11.596  65.152  1.00  0.00    -0.351 C  
HETATM   13  C   UNL     1      -9.275  12.412  67.060  1.00  0.00    -0.208 C  
HETATM   14  C   UNL     1      -8.329  11.231  66.821  1.00  0.00    -0.156 C  
HETATM   15  C   UNL     1      -9.755  10.434  64.932  1.00  0.00    -0.372 C  
HETATM   16  C   UNL     1      -8.346  10.810  65.361  1.00  0.00    -0.104 C  
BRANCH  11  17
HETATM   17  C   UNL     1     -11.649  13.457  66.769  1.00  0.00    -0.404 C  
HETATM   18  C   UNL     1     -10.902  14.781  67.043  1.00  0.00    -0.315 C  
HETATM   19  C   UNL     1     -11.169  15.585  64.677  1.00  0.00    -0.381 C  
HETATM   20  C   UNL     1     -12.114  14.420  64.389  1.00  0.00    -0.491 C  
HETATM   21  C   UNL     1     -10.188  15.323  65.812  1.00  0.00    -0.372 C  
HETATM   22  C   UNL     1     -12.673  13.725  65.638  1.00  0.00    -0.523 C  
ENDBRANCH  11  17
ENDBRANCH   9  11
ENDBRANCH   8   9
ENDBRANCH   7   8
ENDBRANCH   6   7
ENDBRANCH   3   6
ENDBRANCH   2   3
TORSDOF 8
ENDMDL
MODEL       31
REMARK 921   NORMALIZED FREE ENERGY PREDICTED BY IDOCK:   -4.80 KCAL/MOL
REMARK 922        TOTAL FREE ENERGY PREDICTED BY IDOCK:   -7.63 KCAL/MOL
REMARK 923 INTER-LIGAND FREE ENERGY PREDICTED BY IDOCK:   -6.98 KCAL/MOL
REMARK 924 INTRA-LIGAND FREE ENERGY PREDICTED BY IDOCK:   -0.65 KCAL/MOL
REMARK 927      BINDING AFFINITY PREDICTED BY RF-SCORE:    0.00 PKD
ROOT
HETATM    1  C   UNL     1     -10.823   6.674  69.712  1.00  0.00    -0.337 C  
HETATM    2  C   UNL     1     -10.719   8.089  70.274  1.00  0.00    -0.239 C  
ENDROOT
BRANCH   2   3
HETATM    3  N   UNL     1     -12.000   8.677  70.707  1.00  0.00    -0.189 NA 
BRANCH   3   4
HETATM    4  C   UNL     1     -12.774   7.834  71.627  1.00  0.00    -0.335 C  
HETATM    5  C   UNL     1     -14.271   8.109  71.689  1.00  0.00    -0.536 C  
ENDBRANCH   3   4
BRANCH   3   6
HETATM    6  C   UNL     1     -11.771  10.058  71.193  1.00  0.00    -0.387 C  
BRANCH   6   7
HETATM    7  C   UNL     1     -12.336  11.157  70.278  1.00  0.00    -0.315 C  
BRANCH   7   8
HETATM    8  O   UNL     1     -11.338  11.813  69.469  1.00  0.00    -0.262 OA 
BRANCH   8   9
HETATM    9  C   UNL     1     -11.297  11.416  68.170  1.00  0.00    -0.304 C  
HETATM   10  O   UNL     1     -11.736  10.346  67.772  1.00  0.00    -0.353 OA 
BRANCH   9  11
HETATM   11  C   UNL     1     -10.668  12.485  67.237  1.00  0.00    -0.259 C  
HETATM   12  C   UNL     1     -10.103  11.818  65.956  1.00  0.00    -0.263 C  
HETATM   13  C   UNL     1      -9.474  13.089  68.050  1.00  0.00    -0.217 C  
HETATM   14  C   UNL     1      -8.307  12.121  68.263  1.00  0.00    -0.172 C  
HETATM   15  C   UNL     1      -8.924  10.875  66.189  1.00  0.00    -0.196 C  
HETATM   16  C   UNL     1      -7.803  11.580  66.935  1.00  0.00    -0.163 C  
BRANCH  11  17
HETATM   17  C   UNL     1     -11.793  13.573  66.955  1.00  0.00    -0.452 C  
HETATM   18  C   UNL     1     -11.381  15.052  67.129  1.00  0.00    -0.323 C  
HETATM   19  C   UNL     1     -11.176  15.433  64.653  1.00  0.00    -0.374 C  
HETATM   20  C   UNL     1     -11.800  14.063  64.392  1.00  0.00    -0.453 C  
HETATM   21  C   UNL     1     -10.485  15.553  66.005  1.00  0.00    -0.335 C  
HETATM   22  C   UNL     1     -12.527  13.451  65.596  1.00  0.00    -0.519 C  
ENDBRANCH  11  17
ENDBRANCH   9  11
ENDBRANCH   8   9
ENDBRANCH   7   8
ENDBRANCH   6   7
ENDBRANCH   3   6
ENDBRANCH   2   3
TORSDOF 8
ENDMDL
MODEL       32
REMARK 921   NORMALIZED FREE ENERGY PREDICTED BY IDOCK:   -4.79 KCAL/MOL
REMARK 922        TOTAL FREE ENERGY PREDICTED BY IDOCK:   -7.61 KCAL/MOL
REMARK 923 INTER-LIGAND FREE ENERGY PREDICTED BY IDOCK:   -7.49 KCAL/MOL
REMARK 924 INTRA-LIGAND FREE ENERGY PREDICTED BY IDOCK:   -0.13 KCAL/MOL
REMARK 927      BINDING AFFINITY PREDICTED BY RF-SCORE:    0.00 PKD
ROOT
HETATM    1  C   UNL     1     -13.820   9.162  72.188  1.00  0.00    -0.508 C  
HETATM    2  C   UNL     1     -12.724  10.214  72.038  1.00  0.00    -0.327 C  
ENDROOT
BRANCH   2   3
HETATM    3  N   UNL     1     -12.980  11.229  70.999  1.00  0.00    -0.279 NA 
BRANCH   3   4
HETATM    4  C   UNL     1     -12.750  12.613  71.434  1.00  0.00    -0.247 C  
HETATM    5  C   UNL     1     -13.860  13.245  72.265  1.00  0.00    -0.637 C  
ENDBRANCH   3   4
BRANCH   3   6
HETATM    6  C   UNL     1     -12.265  10.854  69.756  1.00  0.00    -0.311 C  
BRANCH   6   7
HETATM    7  C   UNL     1     -11.965  12.031  68.814  1.00  0.00    -0.244 C  
BRANCH   7   8
HETATM    8  O   UNL     1     -12.089  11.704  67.415  1.00  0.00    -0.605 OA 
BRANCH   8   9
HETATM    9  C   UNL     1     -11.905  12.745  66.561  1.00  0.00    -0.405 C  
HETATM   10  O   UNL     1     -12.632  13.727  66.521  1.00  0.00    -0.362 OA 
BRANCH   9  11
HETATM   11  C   UNL     1     -10.647  12.571  65.668  1.00  0.00    -0.298 C  
HETATM   12  C   UNL     1      -9.358  12.749  66.512  1.00  0.00    -0.221 C  
HETATM   13  C   UNL     1     -10.721  13.734  64.623  1.00  0.00    -0.427 C  
HETATM   14  C   UNL     1     -10.503  15.128  65.218  1.00  0.00    -0.434 C  
HETATM   15  C   UNL     1      -9.149  14.154  67.077  1.00  0.00    -0.255 C  
HETATM   16  C   UNL     1      -9.184  15.196  65.971  1.00  0.00    -0.273 C  
BRANCH  11  17
HETATM   17  C   UNL     1     -10.768  11.148  64.970  1.00  0.00    -0.301 C  
HETATM   18  C   UNL     1     -10.653  11.124  63.429  1.00  0.00    -0.340 C  
HETATM   19  C   UNL     1      -8.286  10.279  63.477  1.00  0.00    -0.169 C  
HETATM   20  C   UNL     1      -8.400  10.051  64.984  1.00  0.00    -0.158 C  
HETATM   21  C   UNL     1      -9.229  11.347  62.938  1.00  0.00    -0.313 C  
HETATM   22  C   UNL     1      -9.837  10.040  65.523  1.00  0.00    -0.373 C  
ENDBRANCH  11  17
ENDBRANCH   9  11
ENDBRANCH   8   9
ENDBRANCH   7   8
ENDBRANCH   6   7
ENDBRANCH   3   6
ENDBRANCH   2   3
TORSDOF 8
ENDMDL
MODEL       33
REMARK 921   NORMALIZED FREE ENERGY PREDICTED BY IDOCK:   -4.79 KCAL/MOL
REMARK 922        TOTAL FREE ENERGY PREDICTED BY IDOCK:   -7.61 KCAL/MOL
REMARK 923 INTER-LIGAND FREE ENERGY PREDICTED BY IDOCK:   -7.23 KCAL/MOL
REMARK 924 INTRA-LIGAND FREE ENERGY PREDICTED BY IDOCK:   -0.38 KCAL/MOL
REMARK 927      BINDING AFFINITY PREDICTED BY RF-SCORE:    0.00 PKD
ROOT
HETATM    1  C   UNL     1     -10.447  19.630  66.036  1.00  0.00    -0.622 C  
HETATM    2  C   UNL     1      -9.860  18.253  66.339  1.00  0.00    -0.357 C  
ENDROOT
BRANCH   2   3
HETATM    3  N   UNL     1      -9.730  17.939  67.774  1.00  0.00    -0.275 NA 
BRANCH   3   4
HETATM    4  C   UNL     1      -9.357  19.085  68.613  1.00  0.00    -0.380 C  
HETATM    5  C   UNL     1      -7.865  19.284  68.849  1.00  0.00    -0.367 C  
ENDBRANCH   3   4
BRANCH   3   6
HETATM    6  C   UNL     1     -10.939  17.215  68.233  1.00  0.00    -0.229 C  
BRANCH   6   7
HETATM    7  C   UNL     1     -10.648  15.936  69.036  1.00  0.00    -0.247 C  
BRANCH   7   8
HETATM    8  O   UNL     1     -10.108  14.860  68.242  1.00  0.00    -0.215 OA 
BRANCH   8   9
HETATM    9  C   UNL     1     -11.020  13.957  67.798  1.00  0.00    -0.256 C  
HETATM   10  O   UNL     1     -12.141  13.835  68.270  1.00  0.00    -0.362 OA 
BRANCH   9  11
HETATM   11  C   UNL     1     -10.500  13.123  66.596  1.00  0.00    -0.280 C  
HETATM   12  C   UNL     1      -9.916  14.057  65.504  1.00  0.00    -0.302 C  
HETATM   13  C   UNL     1     -11.765  12.408  66.014  1.00  0.00    -0.469 C  
HETATM   14  C   UNL     1     -12.766  13.352  65.341  1.00  0.00    -0.484 C  
HETATM   15  C   UNL     1     -10.937  14.973  64.830  1.00  0.00    -0.427 C  
HETATM   16  C   UNL     1     -12.091  14.171  64.253  1.00  0.00    -0.471 C  
BRANCH  11  17
HETATM   17  C   UNL     1      -9.453  12.077  67.176  1.00  0.00    -0.187 C  
HETATM   18  C   UNL     1      -9.997  11.045  68.189  1.00  0.00    -0.190 C  
HETATM   19  C   UNL     1     -10.057   9.196  66.488  1.00  0.00    -0.357 C  
HETATM   20  C   UNL     1      -9.304  10.084  65.498  1.00  0.00    -0.271 C  
HETATM   21  C   UNL     1     -10.850   9.967  67.535  1.00  0.00    -0.326 C  
HETATM   22  C   UNL     1      -8.616  11.303  66.128  1.00  0.00    -0.156 C  
ENDBRANCH  11  17
ENDBRANCH   9  11
ENDBRANCH   8   9
ENDBRANCH   7   8
ENDBRANCH   6   7
ENDBRANCH   3   6
ENDBRANCH   2   3
TORSDOF 8
ENDMDL
MODEL       34
REMARK 921   NORMALIZED FREE ENERGY PREDICTED BY IDOCK:   -4.75 KCAL/MOL
REMARK 922        TOTAL FREE ENERGY PREDICTED BY IDOCK:   -7.56 KCAL/MOL
REMARK 923 INTER-LIGAND FREE ENERGY PREDICTED BY IDOCK:   -6.97 KCAL/MOL
REMARK 924 INTRA-LIGAND FREE ENERGY PREDICTED BY IDOCK:   -0.58 KCAL/MOL
REMARK 927      BINDING AFFINITY PREDICTED BY RF-SCORE:    0.00 PKD
ROOT
HETATM    1  C   UNL     1     -14.127   8.858  72.318  1.00  0.00    -0.512 C  
HETATM    2  C   UNL     1     -13.254  10.014  71.837  1.00  0.00    -0.452 C  
ENDROOT
BRANCH   2   3
HETATM    3  N   UNL     1     -11.844   9.661  71.589  1.00  0.00    -0.396 NA 
BRANCH   3   4
HETATM    4  C   UNL     1     -11.504   8.267  71.904  1.00  0.00    -0.310 C  
HETATM    5  C   UNL     1     -10.170   8.047  72.608  1.00  0.00    -0.385 C  
ENDBRANCH   3   4
BRANCH   3   6
HETATM    6  C   UNL     1     -11.460  10.089  70.223  1.00  0.00    -0.300 C  
BRANCH   6   7
HETATM    7  C   UNL     1     -12.222  11.320  69.704  1.00  0.00    -0.271 C  
BRANCH   7   8
HETATM    8  O   UNL     1     -12.174  11.473  68.271  1.00  0.00    -0.561 OA 
BRANCH   8   9
HETATM    9  C   UNL     1     -11.325  12.435  67.823  1.00  0.00    -0.299 C  
HETATM   10  O   UNL     1     -11.111  13.483  68.415  1.00  0.00    -0.248 OA 
BRANCH   9  11
HETATM   11  C   UNL     1     -10.622  12.041  66.495  1.00  0.00    -0.269 C  
HETATM   12  C   UNL     1      -9.594  13.128  66.086  1.00  0.00    -0.209 C  
HETATM   13  C   UNL     1     -11.761  12.006  65.422  1.00  0.00    -0.317 C  
HETATM   14  C   UNL     1     -12.345  13.381  65.082  1.00  0.00    -0.501 C  
HETATM   15  C   UNL     1     -10.201  14.484  65.729  1.00  0.00    -0.354 C  
HETATM   16  C   UNL     1     -11.252  14.340  64.641  1.00  0.00    -0.370 C  
BRANCH  11  17
HETATM   17  C   UNL     1      -9.984  10.602  66.718  1.00  0.00    -0.254 C  
HETATM   18  C   UNL     1      -9.853   9.705  65.467  1.00  0.00    -0.352 C  
HETATM   19  C   UNL     1      -7.390  10.148  65.235  1.00  0.00    -0.141 C  
HETATM   20  C   UNL     1      -7.390  10.853  66.590  1.00  0.00    -0.139 C  
HETATM   21  C   UNL     1      -8.740  10.156  64.530  1.00  0.00    -0.211 C  
HETATM   22  C   UNL     1      -8.624  10.570  67.458  1.00  0.00    -0.121 C  
ENDBRANCH  11  17
ENDBRANCH   9  11
ENDBRANCH   8   9
ENDBRANCH   7   8
ENDBRANCH   6   7
ENDBRANCH   3   6
ENDBRANCH   2   3
TORSDOF 8
ENDMDL
MODEL       35
REMARK 921   NORMALIZED FREE ENERGY PREDICTED BY IDOCK:   -4.74 KCAL/MOL
REMARK 922        TOTAL FREE ENERGY PREDICTED BY IDOCK:   -7.54 KCAL/MOL
REMARK 923 INTER-LIGAND FREE ENERGY PREDICTED BY IDOCK:   -7.30 KCAL/MOL
REMARK 924 INTRA-LIGAND FREE ENERGY PREDICTED BY IDOCK:   -0.24 KCAL/MOL
REMARK 927      BINDING AFFINITY PREDICTED BY RF-SCORE:    0.00 PKD
ROOT
HETATM    1  C   UNL     1      -9.890  19.309  68.796  1.00  0.00    -0.514 C  
HETATM    2  C   UNL     1      -8.771  19.478  67.771  1.00  0.00    -0.319 C  
ENDROOT
BRANCH   2   3
HETATM    3  N   UNL     1      -7.714  18.452  67.836  1.00  0.00    -0.246 NA 
BRANCH   3   4
HETATM    4  C   UNL     1      -6.399  18.961  68.247  1.00  0.00    -0.221 C  
HETATM    5  C   UNL     1      -6.321  19.556  69.647  1.00  0.00    -0.351 C  
ENDBRANCH   3   4
BRANCH   3   6
HETATM    6  C   UNL     1      -8.195  17.296  68.629  1.00  0.00    -0.262 C  
BRANCH   6   7
HETATM    7  C   UNL     1      -8.433  16.017  67.810  1.00  0.00    -0.161 C  
BRANCH   7   8
HETATM    8  O   UNL     1      -9.627  15.298  68.185  1.00  0.00    -0.200 OA 
BRANCH   8   9
HETATM    9  C   UNL     1      -9.726  14.042  67.678  1.00  0.00    -0.228 C  
HETATM   10  O   UNL     1      -8.771  13.296  67.516  1.00  0.00    -0.178 OA 
BRANCH   9  11
HETATM   11  C   UNL     1     -11.192  13.638  67.364  1.00  0.00    -0.323 C  
HETATM   12  C   UNL     1     -12.125  14.040  68.536  1.00  0.00    -0.329 C  
HETATM   13  C   UNL     1     -11.174  12.077  67.255  1.00  0.00    -0.371 C  
HETATM   14  C   UNL     1     -10.921  11.358  68.584  1.00  0.00    -0.267 C  
HETATM   15  C   UNL     1     -11.869  13.294  69.845  1.00  0.00    -0.380 C  
HETATM   16  C   UNL     1     -11.931  11.790  69.635  1.00  0.00    -0.378 C  
BRANCH  11  17
HETATM   17  C   UNL     1     -11.572  14.317  65.977  1.00  0.00    -0.362 C  
HETATM   18  C   UNL     1     -10.483  14.303  64.881  1.00  0.00    -0.454 C  
HETATM   19  C   UNL     1     -11.574  12.421  63.623  1.00  0.00    -0.580 C  
HETATM   20  C   UNL     1     -12.801  12.529  64.527  1.00  0.00    -0.352 C  
HETATM   21  C   UNL     1     -10.287  12.927  64.260  1.00  0.00    -0.396 C  
HETATM   22  C   UNL     1     -12.893  13.836  65.326  1.00  0.00    -0.430 C  
ENDBRANCH  11  17
ENDBRANCH   9  11
ENDBRANCH   8   9
ENDBRANCH   7   8
ENDBRANCH   6   7
ENDBRANCH   3   6
ENDBRANCH   2   3
TORSDOF 8
ENDMDL
MODEL       36
REMARK 921   NORMALIZED FREE ENERGY PREDICTED BY IDOCK:   -4.74 KCAL/MOL
REMARK 922        TOTAL FREE ENERGY PREDICTED BY IDOCK:   -7.54 KCAL/MOL
REMARK 923 INTER-LIGAND FREE ENERGY PREDICTED BY IDOCK:   -7.12 KCAL/MOL
REMARK 924 INTRA-LIGAND FREE ENERGY PREDICTED BY IDOCK:   -0.42 KCAL/MOL
REMARK 927      BINDING AFFINITY PREDICTED BY RF-SCORE:    0.00 PKD
ROOT
HETATM    1  C   UNL     1     -11.249  16.079  70.289  1.00  0.00    -0.397 C  
HETATM    2  C   UNL     1     -12.588  15.452  70.667  1.00  0.00    -0.439 C  
ENDROOT
BRANCH   2   3
HETATM    3  N   UNL     1     -12.519  14.456  71.752  1.00  0.00    -0.346 NA 
BRANCH   3   4
HETATM    4  C   UNL     1     -13.175  14.871  72.999  1.00  0.00    -0.494 C  
HETATM    5  C   UNL     1     -12.306  15.638  73.988  1.00  0.00    -0.771 C  
ENDBRANCH   3   4
BRANCH   3   6
HETATM    6  C   UNL     1     -12.962  13.137  71.240  1.00  0.00    -0.254 C  
BRANCH   6   7
HETATM    7  C   UNL     1     -12.017  12.508  70.203  1.00  0.00    -0.301 C  
BRANCH   7   8
HETATM    8  O   UNL     1     -11.537  11.198  70.570  1.00  0.00    -0.306 OA 
BRANCH   8   9
HETATM    9  C   UNL     1     -11.445  10.310  69.546  1.00  0.00    -0.210 C  
HETATM   10  O   UNL     1     -11.816  10.546  68.406  1.00  0.00    -0.380 OA 
BRANCH   9  11
HETATM   11  C   UNL     1     -10.777   8.975  69.972  1.00  0.00    -0.247 C  
HETATM   12  C   UNL     1      -9.491   9.253  70.793  1.00  0.00    -0.336 C  
HETATM   13  C   UNL     1     -10.370   8.274  68.633  1.00  0.00    -0.225 C  
HETATM   14  C   UNL     1      -9.236   8.974  67.877  1.00  0.00    -0.151 C  
HETATM   15  C   UNL     1      -8.365   9.931  70.013  1.00  0.00    -0.191 C  
HETATM   16  C   UNL     1      -8.013   9.138  68.765  1.00  0.00    -0.100 C  
BRANCH  11  17
HETATM   17  C   UNL     1     -11.875   8.138  70.759  1.00  0.00    -0.167 C  
HETATM   18  C   UNL     1     -11.964   6.632  70.427  1.00  0.00    -0.342 C  
HETATM   19  C   UNL     1     -10.750   5.953  72.520  1.00  0.00    -0.274 C  
HETATM   20  C   UNL     1     -10.830   7.391  73.031  1.00  0.00    -0.423 C  
HETATM   21  C   UNL     1     -10.806   5.829  71.003  1.00  0.00    -0.316 C  
HETATM   22  C   UNL     1     -11.853   8.273  72.302  1.00  0.00    -0.451 C  
ENDBRANCH  11  17
ENDBRANCH   9  11
ENDBRANCH   8   9
ENDBRANCH   7   8
ENDBRANCH   6   7
ENDBRANCH   3   6
ENDBRANCH   2   3
TORSDOF 8
ENDMDL
MODEL       37
REMARK 921   NORMALIZED FREE ENERGY PREDICTED BY IDOCK:   -4.73 KCAL/MOL
REMARK 922        TOTAL FREE ENERGY PREDICTED BY IDOCK:   -7.52 KCAL/MOL
REMARK 923 INTER-LIGAND FREE ENERGY PREDICTED BY IDOCK:   -7.33 KCAL/MOL
REMARK 924 INTRA-LIGAND FREE ENERGY PREDICTED BY IDOCK:   -0.19 KCAL/MOL
REMARK 927      BINDING AFFINITY PREDICTED BY RF-SCORE:    0.00 PKD
ROOT
HETATM    1  C   UNL     1     -13.928   8.937  72.226  1.00  0.00    -0.531 C  
HETATM    2  C   UNL     1     -12.696   8.688  71.359  1.00  0.00    -0.276 C  
ENDROOT
BRANCH   2   3
HETATM    3  N   UNL     1     -11.664   9.738  71.438  1.00  0.00    -0.390 NA 
BRANCH   3   4
HETATM    4  C   UNL     1     -10.305   9.276  71.125  1.00  0.00    -0.322 C  
HETATM    5  C   UNL     1      -9.572   8.547  72.244  1.00  0.00    -0.377 C  
ENDBRANCH   3   4
BRANCH   3   6
HETATM    6  C   UNL     1     -12.101  10.920  70.658  1.00  0.00    -0.371 C  
BRANCH   6   7
HETATM    7  C   UNL     1     -11.704  10.885  69.173  1.00  0.00    -0.326 C  
BRANCH   7   8
HETATM    8  O   UNL     1     -10.805  11.944  68.785  1.00  0.00    -0.216 OA 
BRANCH   8   9
HETATM    9  C   UNL     1     -11.407  13.091  68.376  1.00  0.00    -0.291 C  
HETATM   10  O   UNL     1     -12.407  13.558  68.901  1.00  0.00    -0.248 OA 
BRANCH   9  11
HETATM   11  C   UNL     1     -10.664  13.767  67.192  1.00  0.00    -0.283 C  
HETATM   12  C   UNL     1     -11.658  14.589  66.330  1.00  0.00    -0.370 C  
HETATM   13  C   UNL     1     -10.112  12.587  66.325  1.00  0.00    -0.264 C  
HETATM   14  C   UNL     1     -11.195  11.777  65.605  1.00  0.00    -0.324 C  
HETATM   15  C   UNL     1     -12.715  13.758  65.603  1.00  0.00    -0.523 C  
HETATM   16  C   UNL     1     -12.067  12.681  64.749  1.00  0.00    -0.495 C  
BRANCH  11  17
HETATM   17  C   UNL     1      -9.487  14.633  67.818  1.00  0.00    -0.205 C  
HETATM   18  C   UNL     1      -8.570  15.374  66.820  1.00  0.00    -0.308 C  
HETATM   19  C   UNL     1      -9.674  17.593  67.236  1.00  0.00    -0.284 C  
HETATM   20  C   UNL     1     -10.453  16.986  68.401  1.00  0.00    -0.370 C  
HETATM   21  C   UNL     1      -9.243  16.582  66.182  1.00  0.00    -0.338 C  
HETATM   22  C   UNL     1      -9.900  15.649  68.912  1.00  0.00    -0.219 C  
ENDBRANCH  11  17
ENDBRANCH   9  11
ENDBRANCH   8   9
ENDBRANCH   7   8
ENDBRANCH   6   7
ENDBRANCH   3   6
ENDBRANCH   2   3
TORSDOF 8
ENDMDL
MODEL       38
REMARK 921   NORMALIZED FREE ENERGY PREDICTED BY IDOCK:   -4.72 KCAL/MOL
REMARK 922        TOTAL FREE ENERGY PREDICTED BY IDOCK:   -7.52 KCAL/MOL
REMARK 923 INTER-LIGAND FREE ENERGY PREDICTED BY IDOCK:   -7.24 KCAL/MOL
REMARK 924 INTRA-LIGAND FREE ENERGY PREDICTED BY IDOCK:   -0.28 KCAL/MOL
REMARK 927      BINDING AFFINITY PREDICTED BY RF-SCORE:    0.00 PKD
ROOT
HETATM    1  C   UNL     1     -10.220  11.588  64.524  1.00  0.00    -0.338 C  
HETATM    2  C   UNL     1     -10.229  12.553  65.706  1.00  0.00    -0.270 C  
ENDROOT
BRANCH   2   3
HETATM    3  N   UNL     1     -10.162  13.980  65.340  1.00  0.00    -0.342 NA 
BRANCH   3   4
HETATM    4  C   UNL     1     -11.465  14.593  65.052  1.00  0.00    -0.386 C  
HETATM    5  C   UNL     1     -12.623  14.148  65.937  1.00  0.00    -0.447 C  
ENDBRANCH   3   4
BRANCH   3   6
HETATM    6  C   UNL     1      -9.353  14.711  66.344  1.00  0.00    -0.284 C  
BRANCH   6   7
HETATM    7  C   UNL     1      -8.873  16.098  65.887  1.00  0.00    -0.161 C  
BRANCH   7   8
HETATM    8  O   UNL     1      -8.090  16.798  66.876  1.00  0.00    -0.174 OA 
BRANCH   8   9
HETATM    9  C   UNL     1      -7.588  17.995  66.472  1.00  0.00    -0.245 C  
HETATM   10  O   UNL     1      -7.209  18.223  65.332  1.00  0.00    -0.541 OA 
BRANCH   9  11
HETATM   11  C   UNL     1      -7.586  19.056  67.605  1.00  0.00    -0.261 C  
HETATM   12  C   UNL     1      -8.401  18.545  68.823  1.00  0.00    -0.274 C  
HETATM   13  C   UNL     1      -8.319  20.301  67.004  1.00  0.00    -0.373 C  
HETATM   14  C   UNL     1      -9.817  20.092  66.761  1.00  0.00    -0.574 C  
HETATM   15  C   UNL     1      -9.896  18.366  68.565  1.00  0.00    -0.402 C  
HETATM   16  C   UNL     1     -10.515  19.650  68.037  1.00  0.00    -0.537 C  
BRANCH  11  17
HETATM   17  C   UNL     1      -6.065  19.376  67.937  1.00  0.00    -0.227 C  
HETATM   18  C   UNL     1      -5.804  20.524  68.938  1.00  0.00    -0.376 C  
HETATM   19  C   UNL     1      -5.306  18.948  70.832  1.00  0.00    -0.260 C  
HETATM   20  C   UNL     1      -5.314  17.773  69.855  1.00  0.00    -0.220 C  
HETATM   21  C   UNL     1      -6.134  20.142  70.375  1.00  0.00    -0.383 C  
HETATM   22  C   UNL     1      -5.198  18.170  68.377  1.00  0.00    -0.162 C  
ENDBRANCH  11  17
ENDBRANCH   9  11
ENDBRANCH   8   9
ENDBRANCH   7   8
ENDBRANCH   6   7
ENDBRANCH   3   6
ENDBRANCH   2   3
TORSDOF 8
ENDMDL
MODEL       39
REMARK 921   NORMALIZED FREE ENERGY PREDICTED BY IDOCK:   -4.72 KCAL/MOL
REMARK 922        TOTAL FREE ENERGY PREDICTED BY IDOCK:   -7.51 KCAL/MOL
REMARK 923 INTER-LIGAND FREE ENERGY PREDICTED BY IDOCK:   -6.94 KCAL/MOL
REMARK 924 INTRA-LIGAND FREE ENERGY PREDICTED BY IDOCK:   -0.56 KCAL/MOL
REMARK 927      BINDING AFFINITY PREDICTED BY RF-SCORE:    0.00 PKD
ROOT
HETATM    1  C   UNL     1     -11.392   6.490  70.155  1.00  0.00    -0.463 C  
HETATM    2  C   UNL     1     -11.590   7.439  71.335  1.00  0.00    -0.275 C  
ENDROOT
BRANCH   2   3
HETATM    3  N   UNL     1     -11.898   8.832  70.962  1.00  0.00    -0.286 NA 
BRANCH   3   4
HETATM    4  C   UNL     1     -13.008   9.430  71.715  1.00  0.00    -0.402 C  
HETATM    5  C   UNL     1     -12.970  10.945  71.873  1.00  0.00    -0.502 C  
ENDBRANCH   3   4
BRANCH   3   6
HETATM    6  C   UNL     1     -10.651   9.633  70.974  1.00  0.00    -0.292 C  
BRANCH   6   7
HETATM    7  C   UNL     1     -10.087   9.955  69.581  1.00  0.00    -0.230 C  
BRANCH   7   8
HETATM    8  O   UNL     1     -10.714  11.089  68.946  1.00  0.00    -0.188 OA 
BRANCH   8   9
HETATM    9  C   UNL     1      -9.857  12.021  68.455  1.00  0.00    -0.204 C  
HETATM   10  O   UNL     1      -8.641  11.950  68.562  1.00  0.00    -0.162 OA 
BRANCH   9  11
HETATM   11  C   UNL     1     -10.586  13.168  67.705  1.00  0.00    -0.235 C  
HETATM   12  C   UNL     1      -9.825  14.507  67.896  1.00  0.00    -0.222 C  
HETATM   13  C   UNL     1     -11.985  13.288  68.398  1.00  0.00    -0.336 C  
HETATM   14  C   UNL     1     -11.931  13.824  69.831  1.00  0.00    -0.412 C  
HETATM   15  C   UNL     1      -9.805  15.034  69.330  1.00  0.00    -0.170 C  
HETATM   16  C   UNL     1     -11.215  15.164  69.883  1.00  0.00    -0.305 C  
BRANCH  11  17
HETATM   17  C   UNL     1     -10.722  12.716  66.187  1.00  0.00    -0.293 C  
HETATM   18  C   UNL     1     -12.158  12.516  65.653  1.00  0.00    -0.464 C  
HETATM   19  C   UNL     1     -12.156  14.706  64.419  1.00  0.00    -0.481 C  
HETATM   20  C   UNL     1     -10.664  14.866  64.708  1.00  0.00    -0.365 C  
HETATM   21  C   UNL     1     -12.893  13.830  65.424  1.00  0.00    -0.455 C  
HETATM   22  C   UNL     1      -9.957  13.578  65.152  1.00  0.00    -0.201 C  
ENDBRANCH  11  17
ENDBRANCH   9  11
ENDBRANCH   8   9
ENDBRANCH   7   8
ENDBRANCH   6   7
ENDBRANCH   3   6
ENDBRANCH   2   3
TORSDOF 8
ENDMDL
MODEL       40
REMARK 921   NORMALIZED FREE ENERGY PREDICTED BY IDOCK:   -4.68 KCAL/MOL
REMARK 922        TOTAL FREE ENERGY PREDICTED BY IDOCK:   -7.46 KCAL/MOL
REMARK 923 INTER-LIGAND FREE ENERGY PREDICTED BY IDOCK:   -7.11 KCAL/MOL
REMARK 924 INTRA-LIGAND FREE ENERGY PREDICTED BY IDOCK:   -0.35 KCAL/MOL
REMARK 927      BINDING AFFINITY PREDICTED BY RF-SCORE:    0.00 PKD
ROOT
HETATM    1  C   UNL     1      -9.797   8.091  71.846  1.00  0.00    -0.251 C  
HETATM    2  C   UNL     1     -10.825   7.879  70.738  1.00  0.00    -0.232 C  
ENDROOT
BRANCH   2   3
HETATM    3  N   UNL     1     -11.891   8.898  70.681  1.00  0.00    -0.192 NA 
BRANCH   3   4
HETATM    4  C   UNL     1     -13.015   8.650  71.593  1.00  0.00    -0.344 C  
HETATM    5  C   UNL     1     -13.656   7.271  71.506  1.00  0.00    -0.442 C  
ENDBRANCH   3   4
BRANCH   3   6
HETATM    6  C   UNL     1     -11.291  10.247  70.804  1.00  0.00    -0.337 C  
BRANCH   6   7
HETATM    7  C   UNL     1     -11.944  11.317  69.914  1.00  0.00    -0.365 C  
BRANCH   7   8
HETATM    8  O   UNL     1     -11.004  12.057  69.106  1.00  0.00    -0.226 OA 
BRANCH   8   9
HETATM    9  C   UNL     1     -11.500  13.183  68.531  1.00  0.00    -0.303 C  
HETATM   10  O   UNL     1     -12.204  13.992  69.117  1.00  0.00    -0.346 OA 
BRANCH   9  11
HETATM   11  C   UNL     1     -11.041  13.353  67.057  1.00  0.00    -0.310 C  
HETATM   12  C   UNL     1      -9.493  13.303  66.965  1.00  0.00    -0.243 C  
HETATM   13  C   UNL     1     -11.518  14.785  66.641  1.00  0.00    -0.339 C  
HETATM   14  C   UNL     1     -10.773  15.923  67.344  1.00  0.00    -0.313 C  
HETATM   15  C   UNL     1      -8.772  14.462  67.653  1.00  0.00    -0.191 C  
HETATM   16  C   UNL     1      -9.272  15.800  67.134  1.00  0.00    -0.224 C  
BRANCH  11  17
HETATM   17  C   UNL     1     -11.773  12.224  66.211  1.00  0.00    -0.431 C  
HETATM   18  C   UNL     1     -12.504  12.686  64.931  1.00  0.00    -0.564 C  
HETATM   19  C   UNL     1     -10.677  11.855  63.418  1.00  0.00    -0.476 C  
HETATM   20  C   UNL     1     -10.009  11.164  64.606  1.00  0.00    -0.345 C  
HETATM   21  C   UNL     1     -11.548  13.044  63.800  1.00  0.00    -0.517 C  
HETATM   22  C   UNL     1     -10.911  10.992  65.836  1.00  0.00    -0.115 C  
ENDBRANCH  11  17
ENDBRANCH   9  11
ENDBRANCH   8   9
ENDBRANCH   7   8
ENDBRANCH   6   7
ENDBRANCH   3   6
ENDBRANCH   2   3
TORSDOF 8
ENDMDL
MODEL       41
REMARK 921   NORMALIZED FREE ENERGY PREDICTED BY IDOCK:   -4.63 KCAL/MOL
REMARK 922        TOTAL FREE ENERGY PREDICTED BY IDOCK:   -7.38 KCAL/MOL
REMARK 923 INTER-LIGAND FREE ENERGY PREDICTED BY IDOCK:   -6.91 KCAL/MOL
REMARK 924 INTRA-LIGAND FREE ENERGY PREDICTED BY IDOCK:   -0.47 KCAL/MOL
REMARK 927      BINDING AFFINITY PREDICTED BY RF-SCORE:    0.00 PKD
ROOT
HETATM    1  C   UNL     1      -9.511   5.229  66.873  1.00  0.00    -0.138 C  
HETATM    2  C   UNL     1     -10.708   6.134  66.594  1.00  0.00    -0.231 C  
ENDROOT
BRANCH   2   3
HETATM    3  N   UNL     1     -10.784   7.336  67.444  1.00  0.00    -0.289 NA 
BRANCH   3   4
HETATM    4  C   UNL     1     -10.388   7.116  68.841  1.00  0.00    -0.196 C  
HETATM    5  C   UNL     1     -11.399   6.383  69.715  1.00  0.00    -0.494 C  
ENDBRANCH   3   4
BRANCH   3   6
HETATM    6  C   UNL     1     -10.078   8.457  66.780  1.00  0.00    -0.303 C  
BRANCH   6   7
HETATM    7  C   UNL     1      -9.985   9.740  67.623  1.00  0.00    -0.174 C  
BRANCH   7   8
HETATM    8  O   UNL     1      -9.881  10.946  66.838  1.00  0.00    -0.181 OA 
BRANCH   8   9
HETATM    9  C   UNL     1     -10.947  11.784  66.925  1.00  0.00    -0.285 C  
HETATM   10  O   UNL     1     -11.968  11.524  67.545  1.00  0.00    -0.629 OA 
BRANCH   9  11
HETATM   11  C   UNL     1     -10.713  13.128  66.183  1.00  0.00    -0.289 C  
HETATM   12  C   UNL     1     -12.070  13.791  65.828  1.00  0.00    -0.458 C  
HETATM   13  C   UNL     1      -9.986  12.741  64.852  1.00  0.00    -0.159 C  
HETATM   14  C   UNL     1     -10.861  11.973  63.858  1.00  0.00    -0.457 C  
HETATM   15  C   UNL     1     -12.917  13.018  64.817  1.00  0.00    -0.207 C  
HETATM   16  C   UNL     1     -12.132  12.747  63.544  1.00  0.00    -0.642 C  
BRANCH  11  17
HETATM   17  C   UNL     1      -9.787  14.019  67.119  1.00  0.00    -0.240 C  
HETATM   18  C   UNL     1      -9.007  15.161  66.431  1.00  0.00    -0.314 C  
HETATM   19  C   UNL     1     -10.590  16.930  67.256  1.00  0.00    -0.270 C  
HETATM   20  C   UNL     1     -11.274  15.898  68.153  1.00  0.00    -0.339 C  
HETATM   21  C   UNL     1      -9.897  16.333  66.039  1.00  0.00    -0.371 C  
HETATM   22  C   UNL     1     -10.467  14.612  68.378  1.00  0.00    -0.243 C  
ENDBRANCH  11  17
ENDBRANCH   9  11
ENDBRANCH   8   9
ENDBRANCH   7   8
ENDBRANCH   6   7
ENDBRANCH   3   6
ENDBRANCH   2   3
TORSDOF 8
ENDMDL
MODEL       42
REMARK 921   NORMALIZED FREE ENERGY PREDICTED BY IDOCK:   -4.63 KCAL/MOL
REMARK 922        TOTAL FREE ENERGY PREDICTED BY IDOCK:   -7.37 KCAL/MOL
REMARK 923 INTER-LIGAND FREE ENERGY PREDICTED BY IDOCK:   -6.88 KCAL/MOL
REMARK 924 INTRA-LIGAND FREE ENERGY PREDICTED BY IDOCK:   -0.50 KCAL/MOL
REMARK 927      BINDING AFFINITY PREDICTED BY RF-SCORE:    0.00 PKD
ROOT
HETATM    1  C   UNL     1      -9.639  10.331  64.150  1.00  0.00    -0.376 C  
HETATM    2  C   UNL     1     -10.019   9.728  65.500  1.00  0.00    -0.259 C  
ENDROOT
BRANCH   2   3
HETATM    3  N   UNL     1     -10.200  10.709  66.586  1.00  0.00    -0.224 NA 
BRANCH   3   4
HETATM    4  C   UNL     1     -10.876  11.947  66.178  1.00  0.00    -0.292 C  
HETATM    5  C   UNL     1     -11.718  12.632  67.247  1.00  0.00    -0.435 C  
ENDBRANCH   3   4
BRANCH   3   6
HETATM    6  C   UNL     1     -10.809  10.040  67.760  1.00  0.00    -0.282 C  
BRANCH   6   7
HETATM    7  C   UNL     1     -10.303   8.609  68.011  1.00  0.00    -0.223 C  
BRANCH   7   8
HETATM    8  O   UNL     1     -10.152   8.281  69.407  1.00  0.00    -0.188 OA 
BRANCH   8   9
HETATM    9  C   UNL     1     -10.915   7.245  69.842  1.00  0.00    -0.243 C  
HETATM   10  O   UNL     1     -11.440   6.429  69.098  1.00  0.00    -0.364 OA 
BRANCH   9  11
HETATM   11  C   UNL     1     -11.015   7.183  71.390  1.00  0.00    -0.258 C  
HETATM   12  C   UNL     1     -12.433   6.725  71.821  1.00  0.00    -0.394 C  
HETATM   13  C   UNL     1     -10.800   8.656  71.874  1.00  0.00    -0.419 C  
HETATM   14  C   UNL     1     -11.944   9.608  71.516  1.00  0.00    -0.485 C  
HETATM   15  C   UNL     1     -13.556   7.701  71.473  1.00  0.00    -0.422 C  
HETATM   16  C   UNL     1     -13.271   9.082  72.040  1.00  0.00    -0.486 C  
BRANCH  11  17
HETATM   17  C   UNL     1      -9.848   6.226  71.892  1.00  0.00    -0.172 C  
HETATM   18  C   UNL     1      -9.179   6.599  73.233  1.00  0.00    -0.145 C  
HETATM   19  C   UNL     1     -10.425   4.828  74.509  1.00  0.00    -0.303 C  
HETATM   20  C   UNL     1     -10.946   4.249  73.195  1.00  0.00    -0.300 C  
HETATM   21  C   UNL     1     -10.064   6.306  74.437  1.00  0.00    -0.355 C  
HETATM   22  C   UNL     1     -10.187   4.715  71.945  1.00  0.00    -0.254 C  
ENDBRANCH  11  17
ENDBRANCH   9  11
ENDBRANCH   8   9
ENDBRANCH   7   8
ENDBRANCH   6   7
ENDBRANCH   3   6
ENDBRANCH   2   3
TORSDOF 8
ENDMDL
MODEL       43
REMARK 921   NORMALIZED FREE ENERGY PREDICTED BY IDOCK:   -4.60 KCAL/MOL
REMARK 922        TOTAL FREE ENERGY PREDICTED BY IDOCK:   -7.33 KCAL/MOL
REMARK 923 INTER-LIGAND FREE ENERGY PREDICTED BY IDOCK:   -6.45 KCAL/MOL
REMARK 924 INTRA-LIGAND FREE ENERGY PREDICTED BY IDOCK:   -0.88 KCAL/MOL
REMARK 927      BINDING AFFINITY PREDICTED BY RF-SCORE:    0.00 PKD
ROOT
HETATM    1  C   UNL     1     -10.578  19.620  67.496  1.00  0.00    -0.577 C  
HETATM    2  C   UNL     1      -9.632  19.494  66.305  1.00  0.00    -0.392 C  
ENDROOT
BRANCH   2   3
HETATM    3  N   UNL     1      -9.316  18.108  65.911  1.00  0.00    -0.492 NA 
BRANCH   3   4
HETATM    4  C   UNL     1      -7.961  17.670  66.269  1.00  0.00    -0.257 C  
HETATM    5  C   UNL     1      -7.766  17.212  67.709  1.00  0.00    -0.185 C  
ENDBRANCH   3   4
BRANCH   3   6
HETATM    6  C   UNL     1     -10.393  17.204  66.378  1.00  0.00    -0.307 C  
BRANCH   6   7
HETATM    7  C   UNL     1     -10.723  16.054  65.413  1.00  0.00    -0.383 C  
BRANCH   7   8
HETATM    8  O   UNL     1     -10.299  14.758  65.883  1.00  0.00    -0.288 OA 
BRANCH   8   9
HETATM    9  C   UNL     1     -11.220  14.082  66.618  1.00  0.00    -0.323 C  
HETATM   10  O   UNL     1     -12.425  14.147  66.424  1.00  0.00    -0.461 OA 
BRANCH   9  11
HETATM   11  C   UNL     1     -10.574  13.185  67.708  1.00  0.00    -0.242 C  
HETATM   12  C   UNL     1     -11.662  12.628  68.663  1.00  0.00    -0.364 C  
HETATM   13  C   UNL     1      -9.637  14.138  68.524  1.00  0.00    -0.214 C  
HETATM   14  C   UNL     1     -10.381  15.180  69.364  1.00  0.00    -0.259 C  
HETATM   15  C   UNL     1     -12.375  13.683  69.509  1.00  0.00    -0.232 C  
HETATM   16  C   UNL     1     -11.376  14.512  70.300  1.00  0.00    -0.225 C  
BRANCH  11  17
HETATM   17  C   UNL     1      -9.745  12.059  66.950  1.00  0.00    -0.213 C  
HETATM   18  C   UNL     1      -8.498  11.512  67.680  1.00  0.00    -0.135 C  
HETATM   19  C   UNL     1      -9.663   9.398  68.382  1.00  0.00    -0.163 C  
HETATM   20  C   UNL     1     -10.851   9.758  67.490  1.00  0.00    -0.286 C  
HETATM   21  C   UNL     1      -8.849  10.599  68.846  1.00  0.00    -0.160 C  
HETATM   22  C   UNL     1     -10.560  10.843  66.444  1.00  0.00    -0.289 C  
ENDBRANCH  11  17
ENDBRANCH   9  11
ENDBRANCH   8   9
ENDBRANCH   7   8
ENDBRANCH   6   7
ENDBRANCH   3   6
ENDBRANCH   2   3
TORSDOF 8
ENDMDL
MODEL       44
REMARK 921   NORMALIZED FREE ENERGY PREDICTED BY IDOCK:   -4.58 KCAL/MOL
REMARK 922        TOTAL FREE ENERGY PREDICTED BY IDOCK:   -7.31 KCAL/MOL
REMARK 923 INTER-LIGAND FREE ENERGY PREDICTED BY IDOCK:   -6.71 KCAL/MOL
REMARK 924 INTRA-LIGAND FREE ENERGY PREDICTED BY IDOCK:   -0.61 KCAL/MOL
REMARK 927      BINDING AFFINITY PREDICTED BY RF-SCORE:    0.00 PKD
ROOT
HETATM    1  C   UNL     1     -12.066  13.150  70.075  1.00  0.00    -0.375 C  
HETATM    2  C   UNL     1     -11.959  13.344  68.565  1.00  0.00    -0.328 C  
ENDROOT
BRANCH   2   3
HETATM    3  N   UNL     1     -11.813  12.098  67.791  1.00  0.00    -0.514 NA 
BRANCH   3   4
HETATM    4  C   UNL     1     -11.756  12.292  66.336  1.00  0.00    -0.365 C  
HETATM    5  C   UNL     1     -12.535  13.481  65.789  1.00  0.00    -0.514 C  
ENDBRANCH   3   4
BRANCH   3   6
HETATM    6  C   UNL     1     -10.692  11.301  68.344  1.00  0.00    -0.203 C  
BRANCH   6   7
HETATM    7  C   UNL     1     -10.942   9.784  68.368  1.00  0.00    -0.152 C  
BRANCH   7   8
HETATM    8  O   UNL     1     -10.363   9.117  69.509  1.00  0.00    -0.202 OA 
BRANCH   8   9
HETATM    9  C   UNL     1     -10.973   7.958  69.869  1.00  0.00    -0.178 C  
HETATM   10  O   UNL     1     -11.349   7.111  69.071  1.00  0.00     0.007 OA 
BRANCH   9  11
HETATM   11  C   UNL     1     -11.104   7.804  71.409  1.00  0.00    -0.268 C  
HETATM   12  C   UNL     1     -12.284   6.858  71.757  1.00  0.00    -0.396 C  
HETATM   13  C   UNL     1     -11.443   9.237  71.938  1.00  0.00    -0.382 C  
HETATM   14  C   UNL     1     -12.835   9.739  71.544  1.00  0.00    -0.502 C  
HETATM   15  C   UNL     1     -13.666   7.390  71.377  1.00  0.00    -0.419 C  
HETATM   16  C   UNL     1     -13.910   8.759  71.989  1.00  0.00    -0.504 C  
BRANCH  11  17
HETATM   17  C   UNL     1      -9.695   7.299  71.945  1.00  0.00    -0.171 C  
HETATM   18  C   UNL     1      -9.422   7.494  73.454  1.00  0.00    -0.306 C  
HETATM   19  C   UNL     1      -9.864   5.078  73.989  1.00  0.00    -0.182 C  
HETATM   20  C   UNL     1      -9.916   4.758  72.496  1.00  0.00    -0.216 C  
HETATM   21  C   UNL     1     -10.206   6.524  74.327  1.00  0.00    -0.373 C  
HETATM   22  C   UNL     1      -9.316   5.841  71.588  1.00  0.00    -0.162 C  
ENDBRANCH  11  17
ENDBRANCH   9  11
ENDBRANCH   8   9
ENDBRANCH   7   8
ENDBRANCH   6   7
ENDBRANCH   3   6
ENDBRANCH   2   3
TORSDOF 8
ENDMDL
MODEL       45
REMARK 921   NORMALIZED FREE ENERGY PREDICTED BY IDOCK:   -4.57 KCAL/MOL
REMARK 922        TOTAL FREE ENERGY PREDICTED BY IDOCK:   -7.29 KCAL/MOL
REMARK 923 INTER-LIGAND FREE ENERGY PREDICTED BY IDOCK:   -6.53 KCAL/MOL
REMARK 924 INTRA-LIGAND FREE ENERGY PREDICTED BY IDOCK:   -0.76 KCAL/MOL
REMARK 927      BINDING AFFINITY PREDICTED BY RF-SCORE:    0.00 PKD
ROOT
HETATM    1  C   UNL     1     -13.966  13.626  72.218  1.00  0.00    -0.661 C  
HETATM    2  C   UNL     1     -12.821  13.181  71.311  1.00  0.00    -0.296 C  
ENDROOT
BRANCH   2   3
HETATM    3  N   UNL     1     -12.864  11.762  70.914  1.00  0.00    -0.215 NA 
BRANCH   3   4
HETATM    4  C   UNL     1     -11.626  11.269  70.295  1.00  0.00    -0.275 C  
HETATM    5  C   UNL     1     -11.629  11.179  68.774  1.00  0.00    -0.389 C  
ENDBRANCH   3   4
BRANCH   3   6
HETATM    6  C   UNL     1     -13.344  10.944  72.053  1.00  0.00    -0.289 C  
BRANCH   6   7
HETATM    7  C   UNL     1     -13.525   9.452  71.733  1.00  0.00    -0.412 C  
BRANCH   7   8
HETATM    8  O   UNL     1     -12.502   8.606  72.298  1.00  0.00    -0.367 OA 
BRANCH   8   9
HETATM    9  C   UNL     1     -12.481   7.333  71.825  1.00  0.00    -0.343 C  
HETATM   10  O   UNL     1     -13.476   6.633  71.711  1.00  0.00    -0.215 OA 
BRANCH   9  11
HETATM   11  C   UNL     1     -11.058   6.875  71.405  1.00  0.00    -0.284 C  
HETATM   12  C   UNL     1     -10.895   5.348  71.627  1.00  0.00    -0.232 C  
HETATM   13  C   UNL     1     -10.082   7.625  72.371  1.00  0.00    -0.265 C  
HETATM   14  C   UNL     1     -10.155   7.153  73.827  1.00  0.00    -0.391 C  
HETATM   15  C   UNL     1     -10.948   4.904  73.088  1.00  0.00    -0.376 C  
HETATM   16  C   UNL     1      -9.923   5.654  73.923  1.00  0.00    -0.203 C  
BRANCH  11  17
HETATM   17  C   UNL     1     -10.851   7.331  69.895  1.00  0.00    -0.264 C  
HETATM   18  C   UNL     1      -9.506   8.012  69.559  1.00  0.00    -0.160 C  
HETATM   19  C   UNL     1      -8.570   5.945  68.477  1.00  0.00    -0.110 C  
HETATM   20  C   UNL     1      -9.943   5.280  68.561  1.00  0.00    -0.227 C  
HETATM   21  C   UNL     1      -8.341   7.032  69.519  1.00  0.00    -0.133 C  
HETATM   22  C   UNL     1     -11.107   6.247  68.819  1.00  0.00    -0.424 C  
ENDBRANCH  11  17
ENDBRANCH   9  11
ENDBRANCH   8   9
ENDBRANCH   7   8
ENDBRANCH   6   7
ENDBRANCH   3   6
ENDBRANCH   2   3
TORSDOF 8
ENDMDL
MODEL       46
REMARK 921   NORMALIZED FREE ENERGY PREDICTED BY IDOCK:   -4.56 KCAL/MOL
REMARK 922        TOTAL FREE ENERGY PREDICTED BY IDOCK:   -7.27 KCAL/MOL
REMARK 923 INTER-LIGAND FREE ENERGY PREDICTED BY IDOCK:   -6.88 KCAL/MOL
REMARK 924 INTRA-LIGAND FREE ENERGY PREDICTED BY IDOCK:   -0.39 KCAL/MOL
REMARK 927      BINDING AFFINITY PREDICTED BY RF-SCORE:    0.00 PKD
ROOT
HETATM    1  C   UNL     1      -9.984  11.329  68.117  1.00  0.00    -0.191 C  
HETATM    2  C   UNL     1     -11.489  11.571  68.204  1.00  0.00    -0.315 C  
ENDROOT
BRANCH   2   3
HETATM    3  N   UNL     1     -11.979  11.937  69.546  1.00  0.00    -0.306 NA 
BRANCH   3   4
HETATM    4  C   UNL     1     -11.794  10.895  70.564  1.00  0.00    -0.360 C  
HETATM    5  C   UNL     1     -13.058  10.413  71.265  1.00  0.00    -0.494 C  
ENDBRANCH   3   4
BRANCH   3   6
HETATM    6  C   UNL     1     -11.437  13.263  69.925  1.00  0.00    -0.100 C  
BRANCH   6   7
HETATM    7  C   UNL     1     -12.407  14.435  69.701  1.00  0.00    -0.255 C  
BRANCH   7   8
HETATM    8  O   UNL     1     -11.909  15.437  68.790  1.00  0.00    -0.351 OA 
BRANCH   8   9
HETATM    9  C   UNL     1     -10.998  16.295  69.319  1.00  0.00    -0.317 C  
HETATM   10  O   UNL     1     -10.911  16.543  70.513  1.00  0.00    -0.272 OA 
BRANCH   9  11
HETATM   11  C   UNL     1     -10.049  16.895  68.247  1.00  0.00    -0.302 C  
HETATM   12  C   UNL     1     -10.454  16.403  66.832  1.00  0.00    -0.289 C  
HETATM   13  C   UNL     1      -8.632  16.324  68.585  1.00  0.00    -0.222 C  
HETATM   14  C   UNL     1      -8.486  14.819  68.337  1.00  0.00    -0.157 C  
HETATM   15  C   UNL     1     -10.278  14.903  66.600  1.00  0.00    -0.264 C  
HETATM   16  C   UNL     1      -8.854  14.468  66.904  1.00  0.00    -0.257 C  
BRANCH  11  17
HETATM   17  C   UNL     1     -10.099  18.475  68.417  1.00  0.00    -0.423 C  
HETATM   18  C   UNL     1      -8.760  19.177  68.737  1.00  0.00    -0.365 C  
HETATM   19  C   UNL     1      -8.464  19.999  66.381  1.00  0.00    -0.341 C  
HETATM   20  C   UNL     1      -9.882  19.539  66.044  1.00  0.00    -0.424 C  
HETATM   21  C   UNL     1      -7.825  19.243  67.538  1.00  0.00    -0.284 C  
HETATM   22  C   UNL     1     -10.771  19.261  67.264  1.00  0.00    -0.594 C  
ENDBRANCH  11  17
ENDBRANCH   9  11
ENDBRANCH   8   9
ENDBRANCH   7   8
ENDBRANCH   6   7
ENDBRANCH   3   6
ENDBRANCH   2   3
TORSDOF 8
ENDMDL
MODEL       47
REMARK 921   NORMALIZED FREE ENERGY PREDICTED BY IDOCK:   -4.55 KCAL/MOL
REMARK 922        TOTAL FREE ENERGY PREDICTED BY IDOCK:   -7.26 KCAL/MOL
REMARK 923 INTER-LIGAND FREE ENERGY PREDICTED BY IDOCK:   -6.58 KCAL/MOL
REMARK 924 INTRA-LIGAND FREE ENERGY PREDICTED BY IDOCK:   -0.68 KCAL/MOL
REMARK 927      BINDING AFFINITY PREDICTED BY RF-SCORE:    0.00 PKD
ROOT
HETATM    1  C   UNL     1     -10.734   6.418  68.642  1.00  0.00    -0.341 C  
HETATM    2  C   UNL     1     -10.415   7.846  69.079  1.00  0.00    -0.198 C  
ENDROOT
BRANCH   2   3
HETATM    3  N   UNL     1     -11.408   8.452  69.985  1.00  0.00    -0.086 NA 
BRANCH   3   4
HETATM    4  C   UNL     1     -11.671   7.674  71.203  1.00  0.00    -0.290 C  
HETATM    5  C   UNL     1     -11.260   8.327  72.516  1.00  0.00    -0.446 C  
ENDBRANCH   3   4
BRANCH   3   6
HETATM    6  C   UNL     1     -11.052   9.869  70.232  1.00  0.00    -0.308 C  
BRANCH   6   7
HETATM    7  C   UNL     1     -12.137  10.878  69.822  1.00  0.00    -0.338 C  
BRANCH   7   8
HETATM    8  O   UNL     1     -12.149  11.180  68.411  1.00  0.00    -0.605 OA 
BRANCH   8   9
HETATM    9  C   UNL     1     -11.443  12.284  68.053  1.00  0.00    -0.321 C  
HETATM   10  O   UNL     1     -11.342  13.283  68.750  1.00  0.00    -0.254 OA 
BRANCH   9  11
HETATM   11  C   UNL     1     -10.741  12.124  66.677  1.00  0.00    -0.281 C  
HETATM   12  C   UNL     1      -9.709  13.263  66.462  1.00  0.00    -0.273 C  
HETATM   13  C   UNL     1     -11.879  12.277  65.614  1.00  0.00    -0.423 C  
HETATM   14  C   UNL     1     -12.460  13.691  65.517  1.00  0.00    -0.544 C  
HETATM   15  C   UNL     1     -10.313  14.661  66.344  1.00  0.00    -0.293 C  
HETATM   16  C   UNL     1     -11.364  14.710  65.247  1.00  0.00    -0.354 C  
BRANCH  11  17
HETATM   17  C   UNL     1     -10.106  10.666  66.648  1.00  0.00    -0.270 C  
HETATM   18  C   UNL     1     -10.036   9.972  65.269  1.00  0.00    -0.368 C  
HETATM   19  C   UNL     1      -7.581  10.442  65.000  1.00  0.00    -0.086 C  
HETATM   20  C   UNL     1      -7.517  10.930  66.447  1.00  0.00    -0.145 C  
HETATM   21  C   UNL     1      -8.960  10.560  64.365  1.00  0.00    -0.232 C  
HETATM   22  C   UNL     1      -8.715  10.519  67.314  1.00  0.00    -0.126 C  
ENDBRANCH  11  17
ENDBRANCH   9  11
ENDBRANCH   8   9
ENDBRANCH   7   8
ENDBRANCH   6   7
ENDBRANCH   3   6
ENDBRANCH   2   3
TORSDOF 8
ENDMDL
MODEL       48
REMARK 921   NORMALIZED FREE ENERGY PREDICTED BY IDOCK:   -4.53 KCAL/MOL
REMARK 922        TOTAL FREE ENERGY PREDICTED BY IDOCK:   -7.23 KCAL/MOL
REMARK 923 INTER-LIGAND FREE ENERGY PREDICTED BY IDOCK:   -7.11 KCAL/MOL
REMARK 924 INTRA-LIGAND FREE ENERGY PREDICTED BY IDOCK:   -0.11 KCAL/MOL
REMARK 927      BINDING AFFINITY PREDICTED BY RF-SCORE:    0.00 PKD
ROOT
HETATM    1  C   UNL     1      -9.610   8.863  71.543  1.00  0.00    -0.362 C  
HETATM    2  C   UNL     1     -11.067   8.866  71.999  1.00  0.00    -0.351 C  
ENDROOT
BRANCH   2   3
HETATM    3  N   UNL     1     -12.014   9.462  71.038  1.00  0.00    -0.305 NA 
BRANCH   3   4
HETATM    4  C   UNL     1     -13.355   9.710  71.584  1.00  0.00    -0.402 C  
HETATM    5  C   UNL     1     -14.082   8.496  72.149  1.00  0.00    -0.493 C  
ENDBRANCH   3   4
BRANCH   3   6
HETATM    6  C   UNL     1     -11.389  10.642  70.396  1.00  0.00    -0.304 C  
BRANCH   6   7
HETATM    7  C   UNL     1     -11.928  10.962  68.992  1.00  0.00    -0.251 C  
BRANCH   7   8
HETATM    8  O   UNL     1     -11.641  12.306  68.550  1.00  0.00    -0.266 OA 
BRANCH   8   9
HETATM    9  C   UNL     1     -10.898  12.393  67.417  1.00  0.00    -0.238 C  
HETATM   10  O   UNL     1     -10.350  11.437  66.887  1.00  0.00    -0.213 OA 
BRANCH   9  11
HETATM   11  C   UNL     1     -10.852  13.835  66.842  1.00  0.00    -0.286 C  
HETATM   12  C   UNL     1     -12.273  14.295  66.426  1.00  0.00    -0.426 C  
HETATM   13  C   UNL     1      -9.965  13.736  65.555  1.00  0.00    -0.260 C  
HETATM   14  C   UNL     1     -10.609  12.952  64.408  1.00  0.00    -0.418 C  
HETATM   15  C   UNL     1     -12.887  13.515  65.264  1.00  0.00    -0.410 C  
HETATM   16  C   UNL     1     -11.970  13.532  64.053  1.00  0.00    -0.501 C  
BRANCH  11  17
HETATM   17  C   UNL     1     -10.175  14.754  67.949  1.00  0.00    -0.229 C  
HETATM   18  C   UNL     1      -8.665  15.036  67.783  1.00  0.00    -0.167 C  
HETATM   19  C   UNL     1      -9.052  17.354  66.892  1.00  0.00    -0.258 C  
HETATM   20  C   UNL     1     -10.534  17.241  67.247  1.00  0.00    -0.319 C  
HETATM   21  C   UNL     1      -8.367  16.015  66.656  1.00  0.00    -0.331 C  
HETATM   22  C   UNL     1     -10.874  16.108  68.225  1.00  0.00    -0.326 C  
ENDBRANCH  11  17
ENDBRANCH   9  11
ENDBRANCH   8   9
ENDBRANCH   7   8
ENDBRANCH   6   7
ENDBRANCH   3   6
ENDBRANCH   2   3
TORSDOF 8
ENDMDL
MODEL       49
REMARK 921   NORMALIZED FREE ENERGY PREDICTED BY IDOCK:   -4.52 KCAL/MOL
REMARK 922        TOTAL FREE ENERGY PREDICTED BY IDOCK:   -7.21 KCAL/MOL
REMARK 923 INTER-LIGAND FREE ENERGY PREDICTED BY IDOCK:   -6.69 KCAL/MOL
REMARK 924 INTRA-LIGAND FREE ENERGY PREDICTED BY IDOCK:   -0.52 KCAL/MOL
REMARK 927      BINDING AFFINITY PREDICTED BY RF-SCORE:    0.00 PKD
ROOT
HETATM    1  C   UNL     1     -11.578  14.412  67.511  1.00  0.00    -0.398 C  
HETATM    2  C   UNL     1     -12.271  13.862  66.267  1.00  0.00    -0.461 C  
ENDROOT
BRANCH   2   3
HETATM    3  N   UNL     1     -12.211  12.396  66.124  1.00  0.00    -0.609 NA 
BRANCH   3   4
HETATM    4  C   UNL     1     -11.588  11.934  64.877  1.00  0.00    -0.226 C  
HETATM    5  C   UNL     1     -12.178  12.492  63.587  1.00  0.00    -0.642 C  
ENDBRANCH   3   4
BRANCH   3   6
HETATM    6  C   UNL     1     -11.631  11.803  67.352  1.00  0.00    -0.280 C  
BRANCH   6   7
HETATM    7  C   UNL     1     -10.636  10.659  67.097  1.00  0.00    -0.260 C  
BRANCH   7   8
HETATM    8  O   UNL     1     -10.977   9.429  67.769  1.00  0.00    -0.219 OA 
BRANCH   8   9
HETATM    9  C   UNL     1      -9.925   8.747  68.293  1.00  0.00    -0.176 C  
HETATM   10  O   UNL     1      -8.757   8.985  68.019  1.00  0.00    -0.129 OA 
BRANCH   9  11
HETATM   11  C   UNL     1     -10.363   7.659  69.309  1.00  0.00    -0.218 C  
HETATM   12  C   UNL     1      -9.130   6.863  69.813  1.00  0.00    -0.144 C  
HETATM   13  C   UNL     1     -11.284   6.687  68.498  1.00  0.00    -0.227 C  
HETATM   14  C   UNL     1     -10.547   5.861  67.440  1.00  0.00    -0.356 C  
HETATM   15  C   UNL     1      -8.425   6.028  68.745  1.00  0.00    -0.113 C  
HETATM   16  C   UNL     1      -9.399   5.083  68.062  1.00  0.00    -0.152 C  
BRANCH  11  17
HETATM   17  C   UNL     1     -11.168   8.399  70.463  1.00  0.00    -0.252 C  
HETATM   18  C   UNL     1     -12.247   7.570  71.194  1.00  0.00    -0.330 C  
HETATM   19  C   UNL     1     -10.794   7.195  73.211  1.00  0.00    -0.378 C  
HETATM   20  C   UNL     1      -9.776   8.193  72.661  1.00  0.00    -0.360 C  
HETATM   21  C   UNL     1     -11.656   6.535  72.142  1.00  0.00    -0.349 C  
HETATM   22  C   UNL     1     -10.309   9.101  71.545  1.00  0.00    -0.414 C  
ENDBRANCH  11  17
ENDBRANCH   9  11
ENDBRANCH   8   9
ENDBRANCH   7   8
ENDBRANCH   6   7
ENDBRANCH   3   6
ENDBRANCH   2   3
TORSDOF 8
ENDMDL
MODEL       50
REMARK 921   NORMALIZED FREE ENERGY PREDICTED BY IDOCK:   -4.51 KCAL/MOL
REMARK 922        TOTAL FREE ENERGY PREDICTED BY IDOCK:   -7.21 KCAL/MOL
REMARK 923 INTER-LIGAND FREE ENERGY PREDICTED BY IDOCK:   -6.64 KCAL/MOL
REMARK 924 INTRA-LIGAND FREE ENERGY PREDICTED BY IDOCK:   -0.57 KCAL/MOL
REMARK 927      BINDING AFFINITY PREDICTED BY RF-SCORE:    0.00 PKD
ROOT
HETATM    1  C   UNL     1     -11.103  15.874  64.756  1.00  0.00    -0.397 C  
HETATM    2  C   UNL     1     -12.142  14.782  64.519  1.00  0.00    -0.446 C  
ENDROOT
BRANCH   2   3
HETATM    3  N   UNL     1     -12.193  13.741  65.562  1.00  0.00    -0.413 NA 
BRANCH   3   4
HETATM    4  C   UNL     1     -12.302  12.370  65.046  1.00  0.00    -0.369 C  
HETATM    5  C   UNL     1     -12.348  12.229  63.530  1.00  0.00    -0.670 C  
ENDBRANCH   3   4
BRANCH   3   6
HETATM    6  C   UNL     1     -11.081  13.946  66.519  1.00  0.00    -0.308 C  
BRANCH   6   7
HETATM    7  C   UNL     1     -11.439  13.648  67.985  1.00  0.00    -0.310 C  
BRANCH   7   8
HETATM    8  O   UNL     1     -10.601  12.647  68.598  1.00  0.00    -0.235 OA 
BRANCH   8   9
HETATM    9  C   UNL     1     -11.063  11.373  68.504  1.00  0.00    -0.235 C  
HETATM   10  O   UNL     1     -12.232  11.088  68.292  1.00  0.00    -0.582 OA 
BRANCH   9  11
HETATM   11  C   UNL     1      -9.936  10.315  68.657  1.00  0.00    -0.183 C  
HETATM   12  C   UNL     1      -8.581  10.898  68.174  1.00  0.00    -0.133 C  
HETATM   13  C   UNL     1     -10.341   9.143  67.702  1.00  0.00    -0.314 C  
HETATM   14  C   UNL     1     -10.259   9.489  66.213  1.00  0.00    -0.290 C  
HETATM   15  C   UNL     1      -8.514  11.213  66.680  1.00  0.00    -0.164 C  
HETATM   16  C   UNL     1      -8.871   9.992  65.849  1.00  0.00    -0.164 C  
BRANCH  11  17
HETATM   17  C   UNL     1      -9.934   9.857  70.179  1.00  0.00    -0.291 C  
HETATM   18  C   UNL     1     -11.084   8.925  70.620  1.00  0.00    -0.306 C  
HETATM   19  C   UNL     1      -9.628   6.876  70.580  1.00  0.00    -0.171 C  
HETATM   20  C   UNL     1      -8.397   7.757  70.375  1.00  0.00    -0.123 C  
HETATM   21  C   UNL     1     -10.928   7.504  70.095  1.00  0.00    -0.267 C  
HETATM   22  C   UNL     1      -8.611   9.242  70.700  1.00  0.00    -0.270 C  
ENDBRANCH  11  17
ENDBRANCH   9  11
ENDBRANCH   8   9
ENDBRANCH   7   8
ENDBRANCH   6   7
ENDBRANCH   3   6
ENDBRANCH   2   3
TORSDOF 8
ENDMDL
MODEL       51
REMARK 921   NORMALIZED FREE ENERGY PREDICTED BY IDOCK:   -4.51 KCAL/MOL
REMARK 922        TOTAL FREE ENERGY PREDICTED BY IDOCK:   -7.20 KCAL/MOL
REMARK 923 INTER-LIGAND FREE ENERGY PREDICTED BY IDOCK:   -6.76 KCAL/MOL
REMARK 924 INTRA-LIGAND FREE ENERGY PREDICTED BY IDOCK:   -0.44 KCAL/MOL
REMARK 927      BINDING AFFINITY PREDICTED BY RF-SCORE:    0.00 PKD
ROOT
HETATM    1  C   UNL     1     -11.894  12.612  66.005  1.00  0.00    -0.492 C  
HETATM    2  C   UNL     1     -11.845  14.011  66.614  1.00  0.00    -0.419 C  
ENDROOT
BRANCH   2   3
HETATM    3  N   UNL     1     -11.082  14.110  67.872  1.00  0.00    -0.260 NA 
BRANCH   3   4
HETATM    4  C   UNL     1     -11.911  14.282  69.072  1.00  0.00    -0.335 C  
HETATM    5  C   UNL     1     -11.941  13.104  70.038  1.00  0.00    -0.391 C  
ENDBRANCH   3   4
BRANCH   3   6
HETATM    6  C   UNL     1     -10.116  12.989  67.954  1.00  0.00    -0.235 C  
BRANCH   6   7
HETATM    7  C   UNL     1      -8.652  13.422  68.140  1.00  0.00    -0.174 C  
BRANCH   7   8
HETATM    8  O   UNL     1      -8.494  14.823  68.449  1.00  0.00    -0.144 OA 
BRANCH   8   9
HETATM    9  C   UNL     1      -7.609  15.489  67.663  1.00  0.00    -0.161 C  
HETATM   10  O   UNL     1      -6.636  14.966  67.139  1.00  0.00    -0.269 OA 
BRANCH   9  11
HETATM   11  C   UNL     1      -7.989  16.982  67.468  1.00  0.00    -0.189 C  
HETATM   12  C   UNL     1      -7.366  17.530  66.157  1.00  0.00    -0.347 C  
HETATM   13  C   UNL     1      -7.339  17.733  68.678  1.00  0.00    -0.269 C  
HETATM   14  C   UNL     1      -5.809  17.782  68.638  1.00  0.00    -0.182 C  
HETATM   15  C   UNL     1      -5.839  17.592  66.148  1.00  0.00    -0.245 C  
HETATM   16  C   UNL     1      -5.321  18.390  67.333  1.00  0.00    -0.145 C  
BRANCH  11  17
HETATM   17  C   UNL     1      -9.576  17.066  67.510  1.00  0.00    -0.249 C  
HETATM   18  C   UNL     1     -10.194  17.835  68.699  1.00  0.00    -0.377 C  
HETATM   19  C   UNL     1     -10.680  19.872  67.309  1.00  0.00    -0.460 C  
HETATM   20  C   UNL     1     -10.306  19.099  66.046  1.00  0.00    -0.538 C  
HETATM   21  C   UNL     1     -10.025  19.344  68.579  1.00  0.00    -0.520 C  
HETATM   22  C   UNL     1     -10.263  17.574  66.219  1.00  0.00    -0.356 C  
ENDBRANCH  11  17
ENDBRANCH   9  11
ENDBRANCH   8   9
ENDBRANCH   7   8
ENDBRANCH   6   7
ENDBRANCH   3   6
ENDBRANCH   2   3
TORSDOF 8
ENDMDL
MODEL       52
REMARK 921   NORMALIZED FREE ENERGY PREDICTED BY IDOCK:   -4.48 KCAL/MOL
REMARK 922        TOTAL FREE ENERGY PREDICTED BY IDOCK:   -7.16 KCAL/MOL
REMARK 923 INTER-LIGAND FREE ENERGY PREDICTED BY IDOCK:   -6.86 KCAL/MOL
REMARK 924 INTRA-LIGAND FREE ENERGY PREDICTED BY IDOCK:   -0.30 KCAL/MOL
REMARK 927      BINDING AFFINITY PREDICTED BY RF-SCORE:    0.00 PKD
ROOT
HETATM    1  C   UNL     1      -9.415  10.696  65.137  1.00  0.00    -0.276 C  
HETATM    2  C   UNL     1      -9.977  12.058  65.535  1.00  0.00    -0.241 C  
ENDROOT
BRANCH   2   3
HETATM    3  N   UNL     1     -10.500  12.862  64.414  1.00  0.00    -0.384 NA 
BRANCH   3   4
HETATM    4  C   UNL     1     -11.132  12.076  63.347  1.00  0.00    -0.398 C  
HETATM    5  C   UNL     1     -12.642  11.899  63.451  1.00  0.00    -0.555 C  
ENDBRANCH   3   4
BRANCH   3   6
HETATM    6  C   UNL     1     -11.343  13.959  64.945  1.00  0.00    -0.347 C  
BRANCH   6   7
HETATM    7  C   UNL     1     -10.752  15.366  64.755  1.00  0.00    -0.314 C  
BRANCH   7   8
HETATM    8  O   UNL     1     -10.705  16.147  65.967  1.00  0.00    -0.308 OA 
BRANCH   8   9
HETATM    9  C   UNL     1      -9.545  16.054  66.667  1.00  0.00    -0.239 C  
HETATM   10  O   UNL     1      -8.498  15.633  66.197  1.00  0.00    -0.256 OA 
BRANCH   9  11
HETATM   11  C   UNL     1      -9.680  16.581  68.122  1.00  0.00    -0.234 C  
HETATM   12  C   UNL     1     -10.909  17.520  68.242  1.00  0.00    -0.223 C  
HETATM   13  C   UNL     1      -8.385  17.421  68.377  1.00  0.00    -0.263 C  
HETATM   14  C   UNL     1      -8.311  18.721  67.570  1.00  0.00    -0.283 C  
HETATM   15  C   UNL     1     -10.803  18.821  67.447  1.00  0.00    -0.414 C  
HETATM   16  C   UNL     1      -9.540  19.582  67.815  1.00  0.00    -0.443 C  
BRANCH  11  17
HETATM   17  C   UNL     1      -9.748  15.307  69.071  1.00  0.00    -0.234 C  
HETATM   18  C   UNL     1     -10.416  15.510  70.449  1.00  0.00    -0.222 C  
HETATM   19  C   UNL     1     -12.554  14.397  69.734  1.00  0.00    -0.159 C  
HETATM   20  C   UNL     1     -11.886  13.952  68.434  1.00  0.00    -0.409 C  
HETATM   21  C   UNL     1     -11.931  15.638  70.360  1.00  0.00    -0.405 C  
HETATM   22  C   UNL     1     -10.353  14.026  68.445  1.00  0.00    -0.251 C  
ENDBRANCH  11  17
ENDBRANCH   9  11
ENDBRANCH   8   9
ENDBRANCH   7   8
ENDBRANCH   6   7
ENDBRANCH   3   6
ENDBRANCH   2   3
TORSDOF 8
ENDMDL
MODEL       53
REMARK 921   NORMALIZED FREE ENERGY PREDICTED BY IDOCK:   -4.46 KCAL/MOL
REMARK 922        TOTAL FREE ENERGY PREDICTED BY IDOCK:   -7.12 KCAL/MOL
REMARK 923 INTER-LIGAND FREE ENERGY PREDICTED BY IDOCK:   -6.80 KCAL/MOL
REMARK 924 INTRA-LIGAND FREE ENERGY PREDICTED BY IDOCK:   -0.33 KCAL/MOL
REMARK 927      BINDING AFFINITY PREDICTED BY RF-SCORE:    0.00 PKD
ROOT
HETATM    1  C   UNL     1     -13.940  14.602  72.303  1.00  0.00    -0.589 C  
HETATM    2  C   UNL     1     -12.831  14.964  71.319  1.00  0.00    -0.348 C  
ENDROOT
BRANCH   2   3
HETATM    3  N   UNL     1     -12.128  13.811  70.728  1.00  0.00    -0.341 NA 
BRANCH   3   4
HETATM    4  C   UNL     1     -12.690  12.505  71.097  1.00  0.00    -0.245 C  
HETATM    5  C   UNL     1     -12.034  11.289  70.454  1.00  0.00    -0.471 C  
ENDBRANCH   3   4
BRANCH   3   6
HETATM    6  C   UNL     1     -11.975  14.019  69.269  1.00  0.00    -0.353 C  
BRANCH   6   7
HETATM    7  C   UNL     1     -11.869  15.493  68.844  1.00  0.00    -0.338 C  
BRANCH   7   8
HETATM    8  O   UNL     1     -10.514  15.949  68.657  1.00  0.00    -0.225 OA 
BRANCH   8   9
HETATM    9  C   UNL     1     -10.166  16.210  67.369  1.00  0.00    -0.272 C  
HETATM   10  O   UNL     1     -10.744  15.738  66.400  1.00  0.00    -0.309 OA 
BRANCH   9  11
HETATM   11  C   UNL     1      -8.981  17.207  67.260  1.00  0.00    -0.228 C  
HETATM   12  C   UNL     1      -8.826  18.007  68.580  1.00  0.00    -0.304 C  
HETATM   13  C   UNL     1      -9.384  18.201  66.120  1.00  0.00    -0.147 C  
HETATM   14  C   UNL     1     -10.551  19.127  66.478  1.00  0.00    -0.523 C  
HETATM   15  C   UNL     1      -9.991  18.941  68.905  1.00  0.00    -0.437 C  
HETATM   16  C   UNL     1     -10.259  19.898  67.755  1.00  0.00    -0.567 C  
BRANCH  11  17
HETATM   17  C   UNL     1      -7.696  16.357  66.867  1.00  0.00    -0.276 C  
HETATM   18  C   UNL     1      -6.345  17.107  66.874  1.00  0.00    -0.237 C  
HETATM   19  C   UNL     1      -5.644  16.114  69.073  1.00  0.00    -0.114 C  
HETATM   20  C   UNL     1      -6.840  15.165  69.026  1.00  0.00    -0.122 C  
HETATM   21  C   UNL     1      -5.837  17.399  68.279  1.00  0.00    -0.149 C  
HETATM   22  C   UNL     1      -7.496  15.032  67.644  1.00  0.00    -0.202 C  
ENDBRANCH  11  17
ENDBRANCH   9  11
ENDBRANCH   8   9
ENDBRANCH   7   8
ENDBRANCH   6   7
ENDBRANCH   3   6
ENDBRANCH   2   3
TORSDOF 8
ENDMDL
MODEL       54
REMARK 921   NORMALIZED FREE ENERGY PREDICTED BY IDOCK:   -4.43 KCAL/MOL
REMARK 922        TOTAL FREE ENERGY PREDICTED BY IDOCK:   -7.09 KCAL/MOL
REMARK 923 INTER-LIGAND FREE ENERGY PREDICTED BY IDOCK:   -6.93 KCAL/MOL
REMARK 924 INTRA-LIGAND FREE ENERGY PREDICTED BY IDOCK:   -0.16 KCAL/MOL
REMARK 927      BINDING AFFINITY PREDICTED BY RF-SCORE:    0.00 PKD
ROOT
HETATM    1  C   UNL     1     -12.496  15.682  74.414  1.00  0.00    -0.790 C  
HETATM    2  C   UNL     1     -12.733  15.913  72.924  1.00  0.00    -0.484 C  
ENDROOT
BRANCH   2   3
HETATM    3  N   UNL     1     -12.428  14.755  72.063  1.00  0.00    -0.326 NA 
BRANCH   3   4
HETATM    4  C   UNL     1     -13.545  13.819  71.887  1.00  0.00    -0.429 C  
HETATM    5  C   UNL     1     -13.236  12.351  72.154  1.00  0.00    -0.491 C  
ENDBRANCH   3   4
BRANCH   3   6
HETATM    6  C   UNL     1     -11.824  15.229  70.795  1.00  0.00    -0.338 C  
BRANCH   6   7
HETATM    7  C   UNL     1     -12.155  14.361  69.569  1.00  0.00    -0.322 C  
BRANCH   7   8
HETATM    8  O   UNL     1     -11.015  13.667  69.022  1.00  0.00    -0.252 OA 
BRANCH   8   9
HETATM    9  C   UNL     1     -11.262  12.399  68.598  1.00  0.00    -0.271 C  
HETATM   10  O   UNL     1     -11.807  11.547  69.284  1.00  0.00    -0.301 OA 
BRANCH   9  11
HETATM   11  C   UNL     1     -10.812  12.161  67.131  1.00  0.00    -0.286 C  
HETATM   12  C   UNL     1     -10.175  10.754  66.985  1.00  0.00    -0.261 C  
HETATM   13  C   UNL     1      -9.708  13.237  66.860  1.00  0.00    -0.248 C  
HETATM   14  C   UNL     1      -8.408  13.012  67.636  1.00  0.00    -0.181 C  
HETATM   15  C   UNL     1      -8.866  10.560  67.749  1.00  0.00    -0.125 C  
HETATM   16  C   UNL     1      -7.850  11.624  67.367  1.00  0.00    -0.147 C  
BRANCH  11  17
HETATM   17  C   UNL     1     -12.090  12.388  66.212  1.00  0.00    -0.256 C  
HETATM   18  C   UNL     1     -12.569  13.847  66.046  1.00  0.00    -0.467 C  
HETATM   19  C   UNL     1     -11.570  14.063  63.750  1.00  0.00     0.054 C  
HETATM   20  C   UNL     1     -11.271  12.564  63.741  1.00  0.00    -0.524 C  
HETATM   21  C   UNL     1     -11.659  14.670  65.144  1.00  0.00    -0.371 C  
HETATM   22  C   UNL     1     -12.030  11.754  64.800  1.00  0.00    -0.116 C  
ENDBRANCH  11  17
ENDBRANCH   9  11
ENDBRANCH   8   9
ENDBRANCH   7   8
ENDBRANCH   6   7
ENDBRANCH   3   6
ENDBRANCH   2   3
TORSDOF 8
ENDMDL
MODEL       55
REMARK 921   NORMALIZED FREE ENERGY PREDICTED BY IDOCK:   -4.43 KCAL/MOL
REMARK 922        TOTAL FREE ENERGY PREDICTED BY IDOCK:   -7.09 KCAL/MOL
REMARK 923 INTER-LIGAND FREE ENERGY PREDICTED BY IDOCK:   -6.48 KCAL/MOL
REMARK 924 INTRA-LIGAND FREE ENERGY PREDICTED BY IDOCK:   -0.61 KCAL/MOL
REMARK 927      BINDING AFFINITY PREDICTED BY RF-SCORE:    0.00 PKD
ROOT
HETATM    1  C   UNL     1     -13.804  13.916  72.399  1.00  0.00    -0.668 C  
HETATM    2  C   UNL     1     -12.714  13.622  71.372  1.00  0.00    -0.352 C  
ENDROOT
BRANCH   2   3
HETATM    3  N   UNL     1     -12.722  12.246  70.840  1.00  0.00    -0.248 NA 
BRANCH   3   4
HETATM    4  C   UNL     1     -11.539  11.898  70.043  1.00  0.00    -0.220 C  
HETATM    5  C   UNL     1     -11.782  11.643  68.561  1.00  0.00    -0.378 C  
ENDBRANCH   3   4
BRANCH   3   6
HETATM    6  C   UNL     1     -13.021  11.295  71.936  1.00  0.00    -0.365 C  
BRANCH   6   7
HETATM    7  C   UNL     1     -13.246   9.845  71.477  1.00  0.00    -0.408 C  
BRANCH   7   8
HETATM    8  O   UNL     1     -12.356   8.893  72.095  1.00  0.00    -0.357 OA 
BRANCH   8   9
HETATM    9  C   UNL     1     -12.438   7.627  71.609  1.00  0.00    -0.335 C  
HETATM   10  O   UNL     1     -13.480   7.110  71.232  1.00  0.00    -0.362 OA 
BRANCH   9  11
HETATM   11  C   UNL     1     -11.057   6.920  71.544  1.00  0.00    -0.276 C  
HETATM   12  C   UNL     1      -9.916   7.970  71.493  1.00  0.00    -0.225 C  
HETATM   13  C   UNL     1     -11.064   6.127  70.195  1.00  0.00    -0.448 C  
HETATM   14  C   UNL     1     -11.031   7.013  68.946  1.00  0.00    -0.162 C  
HETATM   15  C   UNL     1      -9.888   8.826  70.227  1.00  0.00    -0.198 C  
HETATM   16  C   UNL     1      -9.839   7.956  68.982  1.00  0.00    -0.171 C  
BRANCH  11  17
HETATM   17  C   UNL     1     -10.977   5.944  72.796  1.00  0.00    -0.303 C  
HETATM   18  C   UNL     1     -10.285   4.582  72.566  1.00  0.00    -0.246 C  
HETATM   19  C   UNL     1      -8.164   5.309  73.703  1.00  0.00    -0.113 C  
HETATM   20  C   UNL     1      -8.856   6.587  74.174  1.00  0.00    -0.169 C  
HETATM   21  C   UNL     1      -8.771   4.701  72.445  1.00  0.00    -0.124 C  
HETATM   22  C   UNL     1     -10.389   6.552  74.094  1.00  0.00    -0.351 C  
ENDBRANCH  11  17
ENDBRANCH   9  11
ENDBRANCH   8   9
ENDBRANCH   7   8
ENDBRANCH   6   7
ENDBRANCH   3   6
ENDBRANCH   2   3
TORSDOF 8
ENDMDL
MODEL       56
REMARK 921   NORMALIZED FREE ENERGY PREDICTED BY IDOCK:   -4.43 KCAL/MOL
REMARK 922        TOTAL FREE ENERGY PREDICTED BY IDOCK:   -7.09 KCAL/MOL
REMARK 923 INTER-LIGAND FREE ENERGY PREDICTED BY IDOCK:   -6.51 KCAL/MOL
REMARK 924 INTRA-LIGAND FREE ENERGY PREDICTED BY IDOCK:   -0.57 KCAL/MOL
REMARK 927      BINDING AFFINITY PREDICTED BY RF-SCORE:    0.00 PKD
ROOT
HETATM    1  C   UNL     1     -10.357  10.605  67.297  1.00  0.00    -0.265 C  
HETATM    2  C   UNL     1     -11.021  11.976  67.202  1.00  0.00    -0.270 C  
ENDROOT
BRANCH   2   3
HETATM    3  N   UNL     1     -10.622  12.776  66.029  1.00  0.00    -0.265 NA 
BRANCH   3   4
HETATM    4  C   UNL     1     -11.629  12.830  64.962  1.00  0.00    -0.337 C  
HETATM    5  C   UNL     1     -11.363  11.952  63.746  1.00  0.00    -0.532 C  
ENDBRANCH   3   4
BRANCH   3   6
HETATM    6  C   UNL     1     -10.137  14.102  66.478  1.00  0.00    -0.280 C  
BRANCH   6   7
HETATM    7  C   UNL     1      -9.028  14.048  67.542  1.00  0.00    -0.195 C  
BRANCH   7   8
HETATM    8  O   UNL     1      -8.052  15.104  67.421  1.00  0.00    -0.156 OA 
BRANCH   8   9
HETATM    9  C   UNL     1      -8.005  15.966  68.470  1.00  0.00    -0.152 C  
HETATM   10  O   UNL     1      -7.888  15.615  69.635  1.00  0.00    -0.203 OA 
BRANCH   9  11
HETATM   11  C   UNL     1      -8.073  17.452  68.025  1.00  0.00    -0.227 C  
HETATM   12  C   UNL     1      -7.606  17.597  66.553  1.00  0.00    -0.299 C  
HETATM   13  C   UNL     1      -7.055  18.204  68.946  1.00  0.00    -0.282 C  
HETATM   14  C   UNL     1      -5.589  17.855  68.676  1.00  0.00    -0.166 C  
HETATM   15  C   UNL     1      -6.134  17.266  66.311  1.00  0.00    -0.188 C  
HETATM   16  C   UNL     1      -5.235  18.092  67.217  1.00  0.00    -0.142 C  
BRANCH  11  17
HETATM   17  C   UNL     1      -9.564  17.943  68.278  1.00  0.00    -0.312 C  
HETATM   18  C   UNL     1      -9.747  19.433  68.645  1.00  0.00    -0.504 C  
HETATM   19  C   UNL     1     -10.528  20.051  66.337  1.00  0.00    -0.534 C  
HETATM   20  C   UNL     1     -10.600  18.570  65.966  1.00  0.00    -0.368 C  
HETATM   21  C   UNL     1      -9.544  20.364  67.457  1.00  0.00    -0.560 C  
HETATM   22  C   UNL     1     -10.587  17.610  67.163  1.00  0.00    -0.277 C  
ENDBRANCH  11  17
ENDBRANCH   9  11
ENDBRANCH   8   9
ENDBRANCH   7   8
ENDBRANCH   6   7
ENDBRANCH   3   6
ENDBRANCH   2   3
TORSDOF 8
ENDMDL
MODEL       57
REMARK 921   NORMALIZED FREE ENERGY PREDICTED BY IDOCK:   -4.40 KCAL/MOL
REMARK 922        TOTAL FREE ENERGY PREDICTED BY IDOCK:   -7.04 KCAL/MOL
REMARK 923 INTER-LIGAND FREE ENERGY PREDICTED BY IDOCK:   -6.23 KCAL/MOL
REMARK 924 INTRA-LIGAND FREE ENERGY PREDICTED BY IDOCK:   -0.82 KCAL/MOL
REMARK 927      BINDING AFFINITY PREDICTED BY RF-SCORE:    0.00 PKD
ROOT
HETATM    1  C   UNL     1      -8.633  12.461  67.221  1.00  0.00    -0.185 C  
HETATM    2  C   UNL     1      -9.973  12.662  66.517  1.00  0.00    -0.251 C  
ENDROOT
BRANCH   2   3
HETATM    3  N   UNL     1     -10.867  13.644  67.159  1.00  0.00    -0.283 NA 
BRANCH   3   4
HETATM    4  C   UNL     1     -12.159  13.819  66.484  1.00  0.00    -0.443 C  
HETATM    5  C   UNL     1     -12.387  12.963  65.244  1.00  0.00    -0.544 C  
ENDBRANCH   3   4
BRANCH   3   6
HETATM    6  C   UNL     1     -10.970  13.346  68.607  1.00  0.00    -0.260 C  
BRANCH   6   7
HETATM    7  C   UNL     1     -11.792  12.091  68.941  1.00  0.00    -0.299 C  
BRANCH   7   8
HETATM    8  O   UNL     1     -11.044  11.073  69.639  1.00  0.00    -0.251 OA 
BRANCH   8   9
HETATM    9  C   UNL     1     -10.882   9.909  68.959  1.00  0.00    -0.215 C  
HETATM   10  O   UNL     1     -11.139   9.773  67.771  1.00  0.00    -0.245 OA 
BRANCH   9  11
HETATM   11  C   UNL     1     -10.296   8.776  69.844  1.00  0.00    -0.212 C  
HETATM   12  C   UNL     1      -9.178   9.333  70.764  1.00  0.00    -0.316 C  
HETATM   13  C   UNL     1      -9.655   7.760  68.841  1.00  0.00    -0.154 C  
HETATM   14  C   UNL     1      -8.407   8.287  68.126  1.00  0.00    -0.129 C  
HETATM   15  C   UNL     1      -7.934   9.832  70.030  1.00  0.00    -0.196 C  
HETATM   16  C   UNL     1      -7.363   8.750  69.129  1.00  0.00    -0.072 C  
BRANCH  11  17
HETATM   17  C   UNL     1     -11.515   8.128  70.634  1.00  0.00    -0.237 C  
HETATM   18  C   UNL     1     -11.707   6.603  70.475  1.00  0.00    -0.453 C  
HETATM   19  C   UNL     1     -10.706   6.101  72.725  1.00  0.00    -0.268 C  
HETATM   20  C   UNL     1     -10.701   7.593  73.055  1.00  0.00    -0.449 C  
HETATM   21  C   UNL     1     -10.664   5.793  71.234  1.00  0.00    -0.323 C  
HETATM   22  C   UNL     1     -11.592   8.451  72.147  1.00  0.00    -0.442 C  
ENDBRANCH  11  17
ENDBRANCH   9  11
ENDBRANCH   8   9
ENDBRANCH   7   8
ENDBRANCH   6   7
ENDBRANCH   3   6
ENDBRANCH   2   3
TORSDOF 8
ENDMDL
MODEL       58
REMARK 921   NORMALIZED FREE ENERGY PREDICTED BY IDOCK:   -4.40 KCAL/MOL
REMARK 922        TOTAL FREE ENERGY PREDICTED BY IDOCK:   -7.04 KCAL/MOL
REMARK 923 INTER-LIGAND FREE ENERGY PREDICTED BY IDOCK:   -6.41 KCAL/MOL
REMARK 924 INTRA-LIGAND FREE ENERGY PREDICTED BY IDOCK:   -0.63 KCAL/MOL
REMARK 927      BINDING AFFINITY PREDICTED BY RF-SCORE:    0.00 PKD
ROOT
HETATM    1  C   UNL     1     -11.974  13.015  65.958  1.00  0.00    -0.498 C  
HETATM    2  C   UNL     1     -10.750  12.761  66.834  1.00  0.00    -0.253 C  
ENDROOT
BRANCH   2   3
HETATM    3  N   UNL     1     -11.047  12.539  68.261  1.00  0.00    -0.240 NA 
BRANCH   3   4
HETATM    4  C   UNL     1     -11.842  13.604  68.887  1.00  0.00    -0.364 C  
HETATM    5  C   UNL     1     -12.205  13.394  70.351  1.00  0.00    -0.415 C  
ENDBRANCH   3   4
BRANCH   3   6
HETATM    6  C   UNL     1     -11.600  11.177  68.445  1.00  0.00    -0.306 C  
BRANCH   6   7
HETATM    7  C   UNL     1     -10.540  10.081  68.645  1.00  0.00    -0.212 C  
BRANCH   7   8
HETATM    8  O   UNL     1     -10.537   9.509  69.969  1.00  0.00    -0.211 OA 
BRANCH   8   9
HETATM    9  C   UNL     1     -10.965   8.221  70.042  1.00  0.00    -0.197 C  
HETATM   10  O   UNL     1     -11.125   7.502  69.066  1.00  0.00    -0.038 OA 
BRANCH   9  11
HETATM   11  C   UNL     1     -11.189   7.747  71.503  1.00  0.00    -0.278 C  
HETATM   12  C   UNL     1     -12.359   6.730  71.566  1.00  0.00    -0.407 C  
HETATM   13  C   UNL     1     -11.605   9.032  72.293  1.00  0.00    -0.252 C  
HETATM   14  C   UNL     1     -12.985   9.581  71.917  1.00  0.00    -0.514 C  
HETATM   15  C   UNL     1     -13.729   7.305  71.210  1.00  0.00    -0.328 C  
HETATM   16  C   UNL     1     -14.054   8.512  72.074  1.00  0.00    -0.516 C  
BRANCH  11  17
HETATM   17  C   UNL     1      -9.802   7.166  72.019  1.00  0.00    -0.174 C  
HETATM   18  C   UNL     1      -9.480   7.379  73.515  1.00  0.00    -0.305 C  
HETATM   19  C   UNL     1     -10.062   5.011  74.123  1.00  0.00    -0.248 C  
HETATM   20  C   UNL     1     -10.172   4.658  72.641  1.00  0.00    -0.239 C  
HETATM   21  C   UNL     1     -10.302   6.483  74.431  1.00  0.00    -0.242 C  
HETATM   22  C   UNL     1      -9.527   5.677  71.691  1.00  0.00    -0.173 C  
ENDBRANCH  11  17
ENDBRANCH   9  11
ENDBRANCH   8   9
ENDBRANCH   7   8
ENDBRANCH   6   7
ENDBRANCH   3   6
ENDBRANCH   2   3
TORSDOF 8
ENDMDL
MODEL       59
REMARK 921   NORMALIZED FREE ENERGY PREDICTED BY IDOCK:   -4.39 KCAL/MOL
REMARK 922        TOTAL FREE ENERGY PREDICTED BY IDOCK:   -7.03 KCAL/MOL
REMARK 923 INTER-LIGAND FREE ENERGY PREDICTED BY IDOCK:   -6.81 KCAL/MOL
REMARK 924 INTRA-LIGAND FREE ENERGY PREDICTED BY IDOCK:   -0.22 KCAL/MOL
REMARK 927      BINDING AFFINITY PREDICTED BY RF-SCORE:    0.00 PKD
ROOT
HETATM    1  C   UNL     1     -10.042   8.172  72.841  1.00  0.00    -0.349 C  
HETATM    2  C   UNL     1     -10.936   8.741  71.742  1.00  0.00    -0.345 C  
ENDROOT
BRANCH   2   3
HETATM    3  N   UNL     1     -10.263   9.676  70.821  1.00  0.00    -0.290 NA 
BRANCH   3   4
HETATM    4  C   UNL     1      -8.864   9.338  70.530  1.00  0.00    -0.241 C  
HETATM    5  C   UNL     1      -8.108  10.324  69.648  1.00  0.00    -0.157 C  
ENDBRANCH   3   4
BRANCH   3   6
HETATM    6  C   UNL     1     -11.106   9.876  69.619  1.00  0.00    -0.241 C  
BRANCH   6   7
HETATM    7  C   UNL     1     -12.048  11.088  69.696  1.00  0.00    -0.340 C  
BRANCH   7   8
HETATM    8  O   UNL     1     -12.330  11.690  68.416  1.00  0.00    -0.417 OA 
BRANCH   8   9
HETATM    9  C   UNL     1     -11.772  12.913  68.218  1.00  0.00    -0.350 C  
HETATM   10  O   UNL     1     -11.861  13.838  69.013  1.00  0.00    -0.315 OA 
BRANCH   9  11
HETATM   11  C   UNL     1     -10.971  12.998  66.891  1.00  0.00    -0.289 C  
HETATM   12  C   UNL     1      -9.447  12.955  67.176  1.00  0.00    -0.229 C  
HETATM   13  C   UNL     1     -11.325  14.397  66.286  1.00  0.00    -0.350 C  
HETATM   14  C   UNL     1     -10.763  15.582  67.077  1.00  0.00    -0.321 C  
HETATM   15  C   UNL     1      -8.905  14.159  67.946  1.00  0.00    -0.182 C  
HETATM   16  C   UNL     1      -9.257  15.459  67.241  1.00  0.00    -0.217 C  
BRANCH  11  17
HETATM   17  C   UNL     1     -11.486  11.813  65.963  1.00  0.00    -0.281 C  
HETATM   18  C   UNL     1     -12.172  12.221  64.641  1.00  0.00    -0.454 C  
HETATM   19  C   UNL     1     -10.145  11.678  63.257  1.00  0.00    -0.454 C  
HETATM   20  C   UNL     1      -9.485  11.039  64.477  1.00  0.00    -0.269 C  
HETATM   21  C   UNL     1     -11.189  12.734  63.598  1.00  0.00    -0.482 C  
HETATM   22  C   UNL     1     -10.447  10.714  65.628  1.00  0.00    -0.235 C  
ENDBRANCH  11  17
ENDBRANCH   9  11
ENDBRANCH   8   9
ENDBRANCH   7   8
ENDBRANCH   6   7
ENDBRANCH   3   6
ENDBRANCH   2   3
TORSDOF 8
ENDMDL
MODEL       60
REMARK 921   NORMALIZED FREE ENERGY PREDICTED BY IDOCK:   -4.37 KCAL/MOL
REMARK 922        TOTAL FREE ENERGY PREDICTED BY IDOCK:   -7.00 KCAL/MOL
REMARK 923 INTER-LIGAND FREE ENERGY PREDICTED BY IDOCK:   -6.27 KCAL/MOL
REMARK 924 INTRA-LIGAND FREE ENERGY PREDICTED BY IDOCK:   -0.73 KCAL/MOL
REMARK 927      BINDING AFFINITY PREDICTED BY RF-SCORE:    0.00 PKD
ROOT
HETATM    1  C   UNL     1     -12.030  16.056  71.120  1.00  0.00    -0.443 C  
HETATM    2  C   UNL     1     -11.848  14.658  71.706  1.00  0.00    -0.224 C  
ENDROOT
BRANCH   2   3
HETATM    3  N   UNL     1     -11.940  13.561  70.726  1.00  0.00    -0.258 NA 
BRANCH   3   4
HETATM    4  C   UNL     1     -12.833  12.465  71.125  1.00  0.00    -0.205 C  
HETATM    5  C   UNL     1     -12.366  11.059  70.770  1.00  0.00    -0.496 C  
ENDBRANCH   3   4
BRANCH   3   6
HETATM    6  C   UNL     1     -12.224  14.120  69.383  1.00  0.00    -0.287 C  
BRANCH   6   7
HETATM    7  C   UNL     1     -11.341  13.554  68.258  1.00  0.00    -0.294 C  
BRANCH   7   8
HETATM    8  O   UNL     1     -10.002  14.090  68.243  1.00  0.00    -0.224 OA 
BRANCH   8   9
HETATM    9  C   UNL     1      -9.718  14.902  67.192  1.00  0.00    -0.228 C  
HETATM   10  O   UNL     1      -9.911  14.596  66.024  1.00  0.00    -0.284 OA 
BRANCH   9  11
HETATM   11  C   UNL     1      -9.158  16.281  67.636  1.00  0.00    -0.194 C  
HETATM   12  C   UNL     1      -7.904  16.648  66.799  1.00  0.00    -0.290 C  
HETATM   13  C   UNL     1      -8.722  16.087  69.126  1.00  0.00    -0.248 C  
HETATM   14  C   UNL     1      -7.508  15.172  69.311  1.00  0.00    -0.193 C  
HETATM   15  C   UNL     1      -6.697  15.736  67.017  1.00  0.00    -0.020 C  
HETATM   16  C   UNL     1      -6.327  15.665  68.489  1.00  0.00    -0.104 C  
BRANCH  11  17
HETATM   17  C   UNL     1     -10.348  17.327  67.506  1.00  0.00    -0.346 C  
HETATM   18  C   UNL     1     -10.526  18.317  68.679  1.00  0.00    -0.185 C  
HETATM   19  C   UNL     1      -9.461  20.216  67.424  1.00  0.00    -0.531 C  
HETATM   20  C   UNL     1      -9.463  19.374  66.149  1.00  0.00    -0.361 C  
HETATM   21  C   UNL     1      -9.455  19.398  68.709  1.00  0.00    -0.464 C  
HETATM   22  C   UNL     1     -10.387  18.149  66.193  1.00  0.00    -0.394 C  
ENDBRANCH  11  17
ENDBRANCH   9  11
ENDBRANCH   8   9
ENDBRANCH   7   8
ENDBRANCH   6   7
ENDBRANCH   3   6
ENDBRANCH   2   3
TORSDOF 8
ENDMDL
MODEL       61
REMARK 921   NORMALIZED FREE ENERGY PREDICTED BY IDOCK:   -4.37 KCAL/MOL
REMARK 922        TOTAL FREE ENERGY PREDICTED BY IDOCK:   -7.00 KCAL/MOL
REMARK 923 INTER-LIGAND FREE ENERGY PREDICTED BY IDOCK:   -6.44 KCAL/MOL
REMARK 924 INTRA-LIGAND FREE ENERGY PREDICTED BY IDOCK:   -0.55 KCAL/MOL
REMARK 927      BINDING AFFINITY PREDICTED BY RF-SCORE:    0.00 PKD
ROOT
HETATM    1  C   UNL     1     -10.772   5.783  66.767  1.00  0.00    -0.369 C  
HETATM    2  C   UNL     1     -10.200   6.682  67.861  1.00  0.00    -0.171 C  
ENDROOT
BRANCH   2   3
HETATM    3  N   UNL     1      -9.177   7.640  67.401  1.00  0.00    -0.131 NA 
BRANCH   3   4
HETATM    4  C   UNL     1      -8.017   7.021  66.747  1.00  0.00    -0.108 C  
HETATM    5  C   UNL     1      -7.590   7.637  65.421  1.00  0.00    -0.094 C  
ENDBRANCH   3   4
BRANCH   3   6
HETATM    6  C   UNL     1      -9.825   8.711  66.607  1.00  0.00    -0.266 C  
BRANCH   6   7
HETATM    7  C   UNL     1     -10.534   9.786  67.448  1.00  0.00    -0.259 C  
BRANCH   7   8
HETATM    8  O   UNL     1     -10.081  11.129  67.178  1.00  0.00    -0.183 OA 
BRANCH   8   9
HETATM    9  C   UNL     1     -11.051  12.079  67.197  1.00  0.00    -0.290 C  
HETATM   10  O   UNL     1     -12.085  11.982  67.843  1.00  0.00    -0.531 OA 
BRANCH   9  11
HETATM   11  C   UNL     1     -10.688  13.323  66.342  1.00  0.00    -0.291 C  
HETATM   12  C   UNL     1     -11.973  14.084  65.923  1.00  0.00    -0.424 C  
HETATM   13  C   UNL     1     -10.007  12.751  65.053  1.00  0.00    -0.171 C  
HETATM   14  C   UNL     1     -10.959  11.989  64.126  1.00  0.00    -0.418 C  
HETATM   15  C   UNL     1     -12.896  13.314  64.980  1.00  0.00    -0.356 C  
HETATM   16  C   UNL     1     -12.147  12.856  63.740  1.00  0.00    -0.583 C  
BRANCH  11  17
HETATM   17  C   UNL     1      -9.674  14.196  67.201  1.00  0.00    -0.248 C  
HETATM   18  C   UNL     1      -8.837  15.240  66.428  1.00  0.00    -0.311 C  
HETATM   19  C   UNL     1     -10.267  17.160  67.194  1.00  0.00    -0.316 C  
HETATM   20  C   UNL     1     -10.993  16.230  68.165  1.00  0.00    -0.343 C  
HETATM   21  C   UNL     1      -9.655  16.449  65.994  1.00  0.00    -0.352 C  
HETATM   22  C   UNL     1     -10.271  14.904  68.442  1.00  0.00    -0.231 C  
ENDBRANCH  11  17
ENDBRANCH   9  11
ENDBRANCH   8   9
ENDBRANCH   7   8
ENDBRANCH   6   7
ENDBRANCH   3   6
ENDBRANCH   2   3
TORSDOF 8
ENDMDL
MODEL       62
REMARK 921   NORMALIZED FREE ENERGY PREDICTED BY IDOCK:   -4.36 KCAL/MOL
REMARK 922        TOTAL FREE ENERGY PREDICTED BY IDOCK:   -6.98 KCAL/MOL
REMARK 923 INTER-LIGAND FREE ENERGY PREDICTED BY IDOCK:   -6.09 KCAL/MOL
REMARK 924 INTRA-LIGAND FREE ENERGY PREDICTED BY IDOCK:   -0.88 KCAL/MOL
REMARK 927      BINDING AFFINITY PREDICTED BY RF-SCORE:    0.00 PKD
ROOT
HETATM    1  C   UNL     1     -11.600  15.794  68.761  1.00  0.00    -0.401 C  
HETATM    2  C   UNL     1     -10.442  16.510  68.070  1.00  0.00    -0.313 C  
ENDROOT
BRANCH   2   3
HETATM    3  N   UNL     1     -10.631  16.739  66.626  1.00  0.00    -0.250 NA 
BRANCH   3   4
HETATM    4  C   UNL     1     -10.368  18.116  66.191  1.00  0.00    -0.385 C  
HETATM    5  C   UNL     1     -10.256  19.157  67.298  1.00  0.00    -0.487 C  
ENDBRANCH   3   4
BRANCH   3   6
HETATM    6  C   UNL     1      -9.893  15.706  65.861  1.00  0.00    -0.350 C  
BRANCH   6   7
HETATM    7  C   UNL     1     -10.778  14.597  65.270  1.00  0.00    -0.381 C  
BRANCH   7   8
HETATM    8  O   UNL     1     -10.967  13.470  66.150  1.00  0.00    -0.284 OA 
BRANCH   8   9
HETATM    9  C   UNL     1     -10.178  12.396  65.889  1.00  0.00    -0.251 C  
HETATM   10  O   UNL     1      -9.801  12.086  64.768  1.00  0.00    -0.239 OA 
BRANCH   9  11
HETATM   11  C   UNL     1      -9.771  11.626  67.174  1.00  0.00    -0.195 C  
HETATM   12  C   UNL     1      -9.336  12.619  68.283  1.00  0.00    -0.195 C  
HETATM   13  C   UNL     1      -8.530  10.765  66.762  1.00  0.00    -0.134 C  
HETATM   14  C   UNL     1      -7.270  11.583  66.465  1.00  0.00    -0.009 C  
HETATM   15  C   UNL     1      -8.063  13.407  67.975  1.00  0.00    -0.160 C  
HETATM   16  C   UNL     1      -6.911  12.473  67.644  1.00  0.00    -0.139 C  
BRANCH  11  17
HETATM   17  C   UNL     1     -11.008  10.712  67.578  1.00  0.00    -0.371 C  
HETATM   18  C   UNL     1     -10.682   9.275  68.043  1.00  0.00    -0.231 C  
HETATM   19  C   UNL     1     -11.016   9.835  70.471  1.00  0.00    -0.384 C  
HETATM   20  C   UNL     1     -11.576  11.201  70.078  1.00  0.00    -0.421 C  
HETATM   21  C   UNL     1     -10.074   9.229  69.439  1.00  0.00    -0.200 C  
HETATM   22  C   UNL     1     -11.994  11.321  68.606  1.00  0.00    -0.314 C  
ENDBRANCH  11  17
ENDBRANCH   9  11
ENDBRANCH   8   9
ENDBRANCH   7   8
ENDBRANCH   6   7
ENDBRANCH   3   6
ENDBRANCH   2   3
TORSDOF 8
ENDMDL
MODEL       63
REMARK 921   NORMALIZED FREE ENERGY PREDICTED BY IDOCK:   -4.33 KCAL/MOL
REMARK 922        TOTAL FREE ENERGY PREDICTED BY IDOCK:   -6.94 KCAL/MOL
REMARK 923 INTER-LIGAND FREE ENERGY PREDICTED BY IDOCK:   -6.50 KCAL/MOL
REMARK 924 INTRA-LIGAND FREE ENERGY PREDICTED BY IDOCK:   -0.43 KCAL/MOL
REMARK 927      BINDING AFFINITY PREDICTED BY RF-SCORE:    0.00 PKD
ROOT
HETATM    1  C   UNL     1     -10.606   7.505  67.313  1.00  0.00    -0.394 C  
HETATM    2  C   UNL     1      -9.976   7.736  68.683  1.00  0.00    -0.182 C  
ENDROOT
BRANCH   2   3
HETATM    3  N   UNL     1     -10.761   8.597  69.588  1.00  0.00    -0.224 NA 
BRANCH   3   4
HETATM    4  C   UNL     1     -11.439   7.875  70.672  1.00  0.00    -0.238 C  
HETATM    5  C   UNL     1     -11.196   6.372  70.730  1.00  0.00    -0.386 C  
ENDBRANCH   3   4
BRANCH   3   6
HETATM    6  C   UNL     1      -9.924   9.732  70.040  1.00  0.00    -0.254 C  
BRANCH   6   7
HETATM    7  C   UNL     1      -9.267  10.531  68.903  1.00  0.00    -0.183 C  
BRANCH   7   8
HETATM    8  O   UNL     1      -9.944  11.766  68.591  1.00  0.00    -0.212 OA 
BRANCH   8   9
HETATM    9  C   UNL     1      -9.365  12.510  67.613  1.00  0.00    -0.189 C  
HETATM   10  O   UNL     1      -8.217  12.348  67.226  1.00  0.00    -0.169 OA 
BRANCH   9  11
HETATM   11  C   UNL     1     -10.333  13.564  67.011  1.00  0.00    -0.252 C  
HETATM   12  C   UNL     1      -9.577  14.487  66.019  1.00  0.00    -0.305 C  
HETATM   13  C   UNL     1     -10.810  14.427  68.227  1.00  0.00    -0.250 C  
HETATM   14  C   UNL     1      -9.716  15.307  68.839  1.00  0.00    -0.220 C  
HETATM   15  C   UNL     1      -8.507  15.373  66.656  1.00  0.00    -0.296 C  
HETATM   16  C   UNL     1      -9.091  16.206  67.785  1.00  0.00    -0.197 C  
BRANCH  11  17
HETATM   17  C   UNL     1     -11.539  12.763  66.353  1.00  0.00    -0.435 C  
HETATM   18  C   UNL     1     -12.672  13.610  65.733  1.00  0.00    -0.470 C  
HETATM   19  C   UNL     1     -11.867  13.224  63.384  1.00  0.00    -0.415 C  
HETATM   20  C   UNL     1     -10.868  12.189  63.898  1.00  0.00    -0.461 C  
HETATM   21  C   UNL     1     -12.270  14.266  64.419  1.00  0.00    -0.471 C  
HETATM   22  C   UNL     1     -11.148  11.679  65.318  1.00  0.00    -0.298 C  
ENDBRANCH  11  17
ENDBRANCH   9  11
ENDBRANCH   8   9
ENDBRANCH   7   8
ENDBRANCH   6   7
ENDBRANCH   3   6
ENDBRANCH   2   3
TORSDOF 8
ENDMDL
MODEL       64
REMARK 921   NORMALIZED FREE ENERGY PREDICTED BY IDOCK:   -4.32 KCAL/MOL
REMARK 922        TOTAL FREE ENERGY PREDICTED BY IDOCK:   -6.92 KCAL/MOL
REMARK 923 INTER-LIGAND FREE ENERGY PREDICTED BY IDOCK:   -5.99 KCAL/MOL
REMARK 924 INTRA-LIGAND FREE ENERGY PREDICTED BY IDOCK:   -0.93 KCAL/MOL
REMARK 927      BINDING AFFINITY PREDICTED BY RF-SCORE:    0.00 PKD
ROOT
HETATM    1  C   UNL     1      -9.303   8.876  68.371  1.00  0.00    -0.140 C  
HETATM    2  C   UNL     1     -10.014   9.594  67.228  1.00  0.00    -0.197 C  
ENDROOT
BRANCH   2   3
HETATM    3  N   UNL     1     -10.985  10.620  67.651  1.00  0.00    -0.292 NA 
BRANCH   3   4
HETATM    4  C   UNL     1     -10.800  11.098  69.027  1.00  0.00    -0.231 C  
HETATM    5  C   UNL     1     -12.049  11.122  69.900  1.00  0.00    -0.418 C  
ENDBRANCH   3   4
BRANCH   3   6
HETATM    6  C   UNL     1     -11.041  11.697  66.634  1.00  0.00    -0.307 C  
BRANCH   6   7
HETATM    7  C   UNL     1      -9.684  12.348  66.321  1.00  0.00    -0.246 C  
BRANCH   7   8
HETATM    8  O   UNL     1      -9.730  13.789  66.258  1.00  0.00    -0.286 OA 
BRANCH   8   9
HETATM    9  C   UNL     1      -9.296  14.429  67.375  1.00  0.00    -0.199 C  
HETATM   10  O   UNL     1      -8.394  14.015  68.089  1.00  0.00    -0.146 OA 
BRANCH   9  11
HETATM   11  C   UNL     1     -10.044  15.766  67.627  1.00  0.00    -0.247 C  
HETATM   12  C   UNL     1      -9.875  16.209  69.104  1.00  0.00    -0.250 C  
HETATM   13  C   UNL     1     -11.555  15.445  67.374  1.00  0.00    -0.135 C  
HETATM   14  C   UNL     1     -12.185  14.523  68.422  1.00  0.00    -0.154 C  
HETATM   15  C   UNL     1     -10.531  15.286  70.130  1.00  0.00    -0.252 C  
HETATM   16  C   UNL     1     -12.006  15.090  69.821  1.00  0.00    -0.366 C  
BRANCH  11  17
HETATM   17  C   UNL     1      -9.485  16.815  66.571  1.00  0.00    -0.287 C  
HETATM   18  C   UNL     1     -10.467  17.911  66.101  1.00  0.00    -0.321 C  
HETATM   19  C   UNL     1      -9.427  19.669  67.565  1.00  0.00    -0.434 C  
HETATM   20  C   UNL     1      -8.282  18.714  67.898  1.00  0.00    -0.285 C  
HETATM   21  C   UNL     1     -10.720  18.973  67.162  1.00  0.00    -0.541 C  
HETATM   22  C   UNL     1      -8.155  17.514  66.950  1.00  0.00    -0.254 C  
ENDBRANCH  11  17
ENDBRANCH   9  11
ENDBRANCH   8   9
ENDBRANCH   7   8
ENDBRANCH   6   7
ENDBRANCH   3   6
ENDBRANCH   2   3
TORSDOF 8
ENDMDL
MODEL       65
REMARK 921   NORMALIZED FREE ENERGY PREDICTED BY IDOCK:   -4.32 KCAL/MOL
REMARK 922        TOTAL FREE ENERGY PREDICTED BY IDOCK:   -6.92 KCAL/MOL
REMARK 923 INTER-LIGAND FREE ENERGY PREDICTED BY IDOCK:   -6.38 KCAL/MOL
REMARK 924 INTRA-LIGAND FREE ENERGY PREDICTED BY IDOCK:   -0.54 KCAL/MOL
REMARK 927      BINDING AFFINITY PREDICTED BY RF-SCORE:    0.00 PKD
ROOT
HETATM    1  C   UNL     1     -12.194  12.062  63.547  1.00  0.00    -0.653 C  
HETATM    2  C   UNL     1     -12.602  12.916  64.745  1.00  0.00    -0.425 C  
ENDROOT
BRANCH   2   3
HETATM    3  N   UNL     1     -11.538  13.127  65.744  1.00  0.00    -0.333 NA 
BRANCH   3   4
HETATM    4  C   UNL     1     -11.306  14.534  66.094  1.00  0.00    -0.348 C  
HETATM    5  C   UNL     1     -11.175  14.841  67.580  1.00  0.00    -0.332 C  
ENDBRANCH   3   4
BRANCH   3   6
HETATM    6  C   UNL     1     -11.771  12.240  66.909  1.00  0.00    -0.334 C  
BRANCH   6   7
HETATM    7  C   UNL     1     -10.864  11.000  66.955  1.00  0.00    -0.279 C  
BRANCH   7   8
HETATM    8  O   UNL     1     -11.157  10.104  68.048  1.00  0.00    -0.278 OA 
BRANCH   8   9
HETATM    9  C   UNL     1     -10.093   9.778  68.827  1.00  0.00    -0.174 C  
HETATM   10  O   UNL     1      -9.206  10.563  69.130  1.00  0.00    -0.181 OA 
BRANCH   9  11
HETATM   11  C   UNL     1     -10.144   8.308  69.325  1.00  0.00    -0.199 C  
HETATM   12  C   UNL     1      -8.734   7.840  69.771  1.00  0.00    -0.139 C  
HETATM   13  C   UNL     1     -10.577   7.467  68.078  1.00  0.00    -0.235 C  
HETATM   14  C   UNL     1      -9.519   7.394  66.973  1.00  0.00    -0.199 C  
HETATM   15  C   UNL     1      -7.702   7.753  68.648  1.00  0.00    -0.118 C  
HETATM   16  C   UNL     1      -8.201   6.868  67.517  1.00  0.00    -0.116 C  
BRANCH  11  17
HETATM   17  C   UNL     1     -11.237   8.249  70.479  1.00  0.00    -0.247 C  
HETATM   18  C   UNL     1     -11.849   6.862  70.777  1.00  0.00    -0.427 C  
HETATM   19  C   UNL     1     -10.457   6.536  72.844  1.00  0.00    -0.246 C  
HETATM   20  C   UNL     1      -9.982   7.985  72.751  1.00  0.00    -0.364 C  
HETATM   21  C   UNL     1     -10.889   5.937  71.512  1.00  0.00    -0.325 C  
HETATM   22  C   UNL     1     -10.828   8.878  71.833  1.00  0.00    -0.433 C  
ENDBRANCH  11  17
ENDBRANCH   9  11
ENDBRANCH   8   9
ENDBRANCH   7   8
ENDBRANCH   6   7
ENDBRANCH   3   6
ENDBRANCH   2   3
TORSDOF 8
ENDMDL
MODEL       66
REMARK 921   NORMALIZED FREE ENERGY PREDICTED BY IDOCK:   -4.31 KCAL/MOL
REMARK 922        TOTAL FREE ENERGY PREDICTED BY IDOCK:   -6.91 KCAL/MOL
REMARK 923 INTER-LIGAND FREE ENERGY PREDICTED BY IDOCK:   -6.66 KCAL/MOL
REMARK 924 INTRA-LIGAND FREE ENERGY PREDICTED BY IDOCK:   -0.25 KCAL/MOL
REMARK 927      BINDING AFFINITY PREDICTED BY RF-SCORE:    0.00 PKD
ROOT
HETATM    1  C   UNL     1     -14.407   7.602  71.663  1.00  0.00    -0.613 C  
HETATM    2  C   UNL     1     -12.943   7.611  71.232  1.00  0.00    -0.246 C  
ENDROOT
BRANCH   2   3
HETATM    3  N   UNL     1     -12.068   8.487  72.035  1.00  0.00    -0.339 NA 
BRANCH   3   4
HETATM    4  C   UNL     1     -11.160   7.770  72.940  1.00  0.00    -0.398 C  
HETATM    5  C   UNL     1     -11.036   6.269  72.712  1.00  0.00    -0.284 C  
ENDBRANCH   3   4
BRANCH   3   6
HETATM    6  C   UNL     1     -11.398   9.464  71.146  1.00  0.00    -0.351 C  
BRANCH   6   7
HETATM    7  C   UNL     1     -12.305  10.603  70.653  1.00  0.00    -0.369 C  
BRANCH   7   8
HETATM    8  O   UNL     1     -12.171  10.887  69.245  1.00  0.00    -0.364 OA 
BRANCH   8   9
HETATM    9  C   UNL     1     -11.594  12.081  68.950  1.00  0.00    -0.321 C  
HETATM   10  O   UNL     1     -11.736  13.090  69.625  1.00  0.00    -0.296 OA 
BRANCH   9  11
HETATM   11  C   UNL     1     -10.699  12.016  67.683  1.00  0.00    -0.252 C  
HETATM   12  C   UNL     1     -10.785  10.609  67.034  1.00  0.00    -0.317 C  
HETATM   13  C   UNL     1      -9.238  12.236  68.200  1.00  0.00    -0.197 C  
HETATM   14  C   UNL     1      -8.689  11.081  69.042  1.00  0.00    -0.072 C  
HETATM   15  C   UNL     1     -10.210   9.475  67.882  1.00  0.00    -0.251 C  
HETATM   16  C   UNL     1      -8.772   9.768  68.280  1.00  0.00    -0.119 C  
BRANCH  11  17
HETATM   17  C   UNL     1     -11.165  13.196  66.725  1.00  0.00    -0.330 C  
HETATM   18  C   UNL     1     -10.152  13.655  65.653  1.00  0.00    -0.299 C  
HETATM   19  C   UNL     1     -11.339  12.435  63.805  1.00  0.00    -0.536 C  
HETATM   20  C   UNL     1     -12.503  12.138  64.750  1.00  0.00    -0.264 C  
HETATM   21  C   UNL     1     -10.008  12.660  64.510  1.00  0.00    -0.186 C  
HETATM   22  C   UNL     1     -12.530  12.999  66.021  1.00  0.00    -0.256 C  
ENDBRANCH  11  17
ENDBRANCH   9  11
ENDBRANCH   8   9
ENDBRANCH   7   8
ENDBRANCH   6   7
ENDBRANCH   3   6
ENDBRANCH   2   3
TORSDOF 8
ENDMDL
MODEL       67
REMARK 921   NORMALIZED FREE ENERGY PREDICTED BY IDOCK:   -4.31 KCAL/MOL
REMARK 922        TOTAL FREE ENERGY PREDICTED BY IDOCK:   -6.90 KCAL/MOL
REMARK 923 INTER-LIGAND FREE ENERGY PREDICTED BY IDOCK:   -6.23 KCAL/MOL
REMARK 924 INTRA-LIGAND FREE ENERGY PREDICTED BY IDOCK:   -0.68 KCAL/MOL
REMARK 927      BINDING AFFINITY PREDICTED BY RF-SCORE:    0.00 PKD
ROOT
HETATM    1  C   UNL     1     -11.743  15.145  67.470  1.00  0.00    -0.214 C  
HETATM    2  C   UNL     1     -11.020  14.381  66.364  1.00  0.00    -0.319 C  
ENDROOT
BRANCH   2   3
HETATM    3  N   UNL     1     -10.312  13.167  66.813  1.00  0.00    -0.250 NA 
BRANCH   3   4
HETATM    4  C   UNL     1      -9.919  12.258  65.728  1.00  0.00    -0.254 C  
HETATM    5  C   UNL     1      -9.607  10.825  66.137  1.00  0.00    -0.236 C  
ENDBRANCH   3   4
BRANCH   3   6
HETATM    6  C   UNL     1      -9.204  13.548  67.721  1.00  0.00    -0.213 C  
BRANCH   6   7
HETATM    7  C   UNL     1      -8.203  14.547  67.117  1.00  0.00    -0.188 C  
BRANCH   7   8
HETATM    8  O   UNL     1      -8.281  15.869  67.691  1.00  0.00    -0.143 OA 
BRANCH   8   9
HETATM    9  C   UNL     1      -8.314  16.886  66.791  1.00  0.00    -0.235 C  
HETATM   10  O   UNL     1      -8.583  16.738  65.608  1.00  0.00    -0.415 OA 
BRANCH   9  11
HETATM   11  C   UNL     1      -8.012  18.265  67.436  1.00  0.00    -0.232 C  
HETATM   12  C   UNL     1      -8.793  18.420  68.768  1.00  0.00    -0.239 C  
HETATM   13  C   UNL     1      -8.553  19.323  66.418  1.00  0.00    -0.355 C  
HETATM   14  C   UNL     1     -10.079  19.352  66.294  1.00  0.00    -0.539 C  
HETATM   15  C   UNL     1     -10.313  18.470  68.619  1.00  0.00    -0.271 C  
HETATM   16  C   UNL     1     -10.728  19.567  67.652  1.00  0.00    -0.527 C  
BRANCH  11  17
HETATM   17  C   UNL     1      -6.433  18.365  67.600  1.00  0.00    -0.199 C  
HETATM   18  C   UNL     1      -5.779  19.699  67.178  1.00  0.00    -0.177 C  
HETATM   19  C   UNL     1      -5.516  20.483  69.552  1.00  0.00    -0.372 C  
HETATM   20  C   UNL     1      -5.933  19.101  70.053  1.00  0.00    -0.268 C  
HETATM   21  C   UNL     1      -6.046  20.827  68.166  1.00  0.00    -0.369 C  
HETATM   22  C   UNL     1      -5.872  17.992  68.995  1.00  0.00    -0.211 C  
ENDBRANCH  11  17
ENDBRANCH   9  11
ENDBRANCH   8   9
ENDBRANCH   7   8
ENDBRANCH   6   7
ENDBRANCH   3   6
ENDBRANCH   2   3
TORSDOF 8
ENDMDL
MODEL       68
REMARK 921   NORMALIZED FREE ENERGY PREDICTED BY IDOCK:   -4.30 KCAL/MOL
REMARK 922        TOTAL FREE ENERGY PREDICTED BY IDOCK:   -6.89 KCAL/MOL
REMARK 923 INTER-LIGAND FREE ENERGY PREDICTED BY IDOCK:   -6.22 KCAL/MOL
REMARK 924 INTRA-LIGAND FREE ENERGY PREDICTED BY IDOCK:   -0.66 KCAL/MOL
REMARK 927      BINDING AFFINITY PREDICTED BY RF-SCORE:    0.00 PKD
ROOT
HETATM    1  C   UNL     1     -11.708  14.540  67.588  1.00  0.00    -0.410 C  
HETATM    2  C   UNL     1     -12.151  13.464  66.600  1.00  0.00    -0.373 C  
ENDROOT
BRANCH   2   3
HETATM    3  N   UNL     1     -11.908  12.079  67.046  1.00  0.00    -0.611 NA 
BRANCH   3   4
HETATM    4  C   UNL     1     -11.142  11.263  66.095  1.00  0.00    -0.143 C  
HETATM    5  C   UNL     1      -9.704  10.949  66.491  1.00  0.00    -0.235 C  
ENDBRANCH   3   4
BRANCH   3   6
HETATM    6  C   UNL     1     -11.357  12.092  68.421  1.00  0.00    -0.286 C  
BRANCH   6   7
HETATM    7  C   UNL     1     -12.077  11.155  69.404  1.00  0.00    -0.326 C  
BRANCH   7   8
HETATM    8  O   UNL     1     -11.185  10.400  70.250  1.00  0.00    -0.283 OA 
BRANCH   8   9
HETATM    9  C   UNL     1     -11.689   9.230  70.721  1.00  0.00    -0.269 C  
HETATM   10  O   UNL     1     -12.802   9.118  71.214  1.00  0.00    -0.315 OA 
BRANCH   9  11
HETATM   11  C   UNL     1     -10.714   8.038  70.526  1.00  0.00    -0.231 C  
HETATM   12  C   UNL     1     -11.466   6.692  70.696  1.00  0.00    -0.420 C  
HETATM   13  C   UNL     1      -9.666   8.170  71.682  1.00  0.00    -0.238 C  
HETATM   14  C   UNL     1     -10.234   7.897  73.078  1.00  0.00    -0.394 C  
HETATM   15  C   UNL     1     -12.004   6.430  72.102  1.00  0.00    -0.346 C  
HETATM   16  C   UNL     1     -10.894   6.529  73.136  1.00  0.00    -0.286 C  
BRANCH  11  17
HETATM   17  C   UNL     1     -10.037   8.221  69.099  1.00  0.00    -0.205 C  
HETATM   18  C   UNL     1      -8.591   7.697  68.950  1.00  0.00    -0.129 C  
HETATM   19  C   UNL     1      -9.318   5.629  67.720  1.00  0.00    -0.113 C  
HETATM   20  C   UNL     1     -10.736   6.189  67.619  1.00  0.00    -0.388 C  
HETATM   21  C   UNL     1      -8.516   6.177  68.893  1.00  0.00    -0.118 C  
HETATM   22  C   UNL     1     -10.850   7.695  67.890  1.00  0.00    -0.105 C  
ENDBRANCH  11  17
ENDBRANCH   9  11
ENDBRANCH   8   9
ENDBRANCH   7   8
ENDBRANCH   6   7
ENDBRANCH   3   6
ENDBRANCH   2   3
TORSDOF 8
ENDMDL
MODEL       69
REMARK 921   NORMALIZED FREE ENERGY PREDICTED BY IDOCK:   -4.29 KCAL/MOL
REMARK 922        TOTAL FREE ENERGY PREDICTED BY IDOCK:   -6.89 KCAL/MOL
REMARK 923 INTER-LIGAND FREE ENERGY PREDICTED BY IDOCK:   -6.97 KCAL/MOL
REMARK 924 INTRA-LIGAND FREE ENERGY PREDICTED BY IDOCK:    0.08 KCAL/MOL
REMARK 927      BINDING AFFINITY PREDICTED BY RF-SCORE:    0.00 PKD
ROOT
HETATM    1  C   UNL     1     -12.527  12.000  63.526  1.00  0.00    -0.654 C  
HETATM    2  C   UNL     1     -11.139  12.558  63.832  1.00  0.00    -0.423 C  
ENDROOT
BRANCH   2   3
HETATM    3  N   UNL     1     -10.999  13.168  65.168  1.00  0.00    -0.291 NA 
BRANCH   3   4
HETATM    4  C   UNL     1     -11.089  14.634  65.177  1.00  0.00    -0.377 C  
HETATM    5  C   UNL     1      -9.846  15.376  65.653  1.00  0.00    -0.387 C  
ENDBRANCH   3   4
BRANCH   3   6
HETATM    6  C   UNL     1     -11.918  12.495  66.117  1.00  0.00    -0.366 C  
BRANCH   6   7
HETATM    7  C   UNL     1     -11.299  12.182  67.488  1.00  0.00    -0.326 C  
BRANCH   7   8
HETATM    8  O   UNL     1     -11.671  10.891  68.015  1.00  0.00    -0.540 OA 
BRANCH   8   9
HETATM    9  C   UNL     1     -11.432  10.720  69.341  1.00  0.00    -0.295 C  
HETATM   10  O   UNL     1     -11.722  11.544  70.197  1.00  0.00    -0.317 OA 
BRANCH   9  11
HETATM   11  C   UNL     1     -10.788   9.344  69.660  1.00  0.00    -0.245 C  
HETATM   12  C   UNL     1      -9.388   9.539  70.300  1.00  0.00    -0.305 C  
HETATM   13  C   UNL     1     -10.606   8.644  68.272  1.00  0.00    -0.181 C  
HETATM   14  C   UNL     1      -9.549   9.294  67.374  1.00  0.00    -0.190 C  
HETATM   15  C   UNL     1      -8.343  10.168  69.379  1.00  0.00    -0.174 C  
HETATM   16  C   UNL     1      -8.209   9.377  68.088  1.00  0.00    -0.118 C  
BRANCH  11  17
HETATM   17  C   UNL     1     -11.814   8.554  70.583  1.00  0.00    -0.111 C  
HETATM   18  C   UNL     1     -11.878   7.023  70.390  1.00  0.00    -0.295 C  
HETATM   19  C   UNL     1     -10.524   6.562  72.456  1.00  0.00    -0.229 C  
HETATM   20  C   UNL     1     -10.615   8.038  72.843  1.00  0.00    -0.399 C  
HETATM   21  C   UNL     1     -10.665   6.302  70.962  1.00  0.00    -0.313 C  
HETATM   22  C   UNL     1     -11.705   8.827  72.104  1.00  0.00    -0.433 C  
ENDBRANCH  11  17
ENDBRANCH   9  11
ENDBRANCH   8   9
ENDBRANCH   7   8
ENDBRANCH   6   7
ENDBRANCH   3   6
ENDBRANCH   2   3
TORSDOF 8
ENDMDL
MODEL       70
REMARK 921   NORMALIZED FREE ENERGY PREDICTED BY IDOCK:   -4.26 KCAL/MOL
REMARK 922        TOTAL FREE ENERGY PREDICTED BY IDOCK:   -6.83 KCAL/MOL
REMARK 923 INTER-LIGAND FREE ENERGY PREDICTED BY IDOCK:   -6.25 KCAL/MOL
REMARK 924 INTRA-LIGAND FREE ENERGY PREDICTED BY IDOCK:   -0.58 KCAL/MOL
REMARK 927      BINDING AFFINITY PREDICTED BY RF-SCORE:    0.00 PKD
ROOT
HETATM    1  C   UNL     1     -11.217   6.593  69.666  1.00  0.00    -0.397 C  
HETATM    2  C   UNL     1     -10.621   7.958  70.003  1.00  0.00    -0.242 C  
ENDROOT
BRANCH   2   3
HETATM    3  N   UNL     1     -11.612   9.016  70.271  1.00  0.00    -0.135 NA 
BRANCH   3   4
HETATM    4  C   UNL     1     -12.086   9.065  71.660  1.00  0.00    -0.352 C  
HETATM    5  C   UNL     1     -13.576   8.823  71.867  1.00  0.00    -0.467 C  
ENDBRANCH   3   4
BRANCH   3   6
HETATM    6  C   UNL     1     -11.106  10.309  69.753  1.00  0.00    -0.287 C  
BRANCH   6   7
HETATM    7  C   UNL     1     -12.150  11.144  68.994  1.00  0.00    -0.246 C  
BRANCH   7   8
HETATM    8  O   UNL     1     -11.935  11.190  67.569  1.00  0.00    -0.580 OA 
BRANCH   8   9
HETATM    9  C   UNL     1     -11.712  12.430  67.060  1.00  0.00    -0.353 C  
HETATM   10  O   UNL     1     -12.577  13.288  66.957  1.00  0.00    -0.152 OA 
BRANCH   9  11
HETATM   11  C   UNL     1     -10.229  12.654  66.658  1.00  0.00    -0.246 C  
HETATM   12  C   UNL     1     -10.127  13.741  65.556  1.00  0.00    -0.303 C  
HETATM   13  C   UNL     1      -9.755  11.289  66.057  1.00  0.00    -0.253 C  
HETATM   14  C   UNL     1     -10.402  10.937  64.714  1.00  0.00    -0.391 C  
HETATM   15  C   UNL     1     -10.759  13.358  64.218  1.00  0.00    -0.374 C  
HETATM   16  C   UNL     1     -10.186  12.049  63.700  1.00  0.00    -0.470 C  
BRANCH  11  17
HETATM   17  C   UNL     1      -9.438  13.013  67.990  1.00  0.00    -0.217 C  
HETATM   18  C   UNL     1      -8.057  12.344  68.173  1.00  0.00    -0.163 C  
HETATM   19  C   UNL     1      -6.807  14.428  67.532  1.00  0.00    -0.162 C  
HETATM   20  C   UNL     1      -8.113  15.219  67.560  1.00  0.00    -0.192 C  
HETATM   21  C   UNL     1      -6.988  12.939  67.267  1.00  0.00    -0.067 C  
HETATM   22  C   UNL     1      -9.268  14.522  68.292  1.00  0.00    -0.201 C  
ENDBRANCH  11  17
ENDBRANCH   9  11
ENDBRANCH   8   9
ENDBRANCH   7   8
ENDBRANCH   6   7
ENDBRANCH   3   6
ENDBRANCH   2   3
TORSDOF 8
ENDMDL
MODEL       71
REMARK 921   NORMALIZED FREE ENERGY PREDICTED BY IDOCK:   -4.25 KCAL/MOL
REMARK 922        TOTAL FREE ENERGY PREDICTED BY IDOCK:   -6.82 KCAL/MOL
REMARK 923 INTER-LIGAND FREE ENERGY PREDICTED BY IDOCK:   -6.30 KCAL/MOL
REMARK 924 INTRA-LIGAND FREE ENERGY PREDICTED BY IDOCK:   -0.52 KCAL/MOL
REMARK 927      BINDING AFFINITY PREDICTED BY RF-SCORE:    0.00 PKD
ROOT
HETATM    1  C   UNL     1     -11.187  14.785  66.436  1.00  0.00    -0.342 C  
HETATM    2  C   UNL     1     -12.254  13.753  66.794  1.00  0.00    -0.397 C  
ENDROOT
BRANCH   2   3
HETATM    3  N   UNL     1     -12.290  12.571  65.913  1.00  0.00    -0.603 NA 
BRANCH   3   4
HETATM    4  C   UNL     1     -12.281  12.884  64.478  1.00  0.00    -0.426 C  
HETATM    5  C   UNL     1     -11.479  11.938  63.593  1.00  0.00    -0.551 C  
ENDBRANCH   3   4
BRANCH   3   6
HETATM    6  C   UNL     1     -11.244  11.609  66.334  1.00  0.00    -0.287 C  
BRANCH   6   7
HETATM    7  C   UNL     1     -11.359  11.143  67.795  1.00  0.00    -0.293 C  
BRANCH   7   8
HETATM    8  O   UNL     1     -10.760   9.854  68.044  1.00  0.00    -0.224 OA 
BRANCH   8   9
HETATM    9  C   UNL     1      -9.792   9.843  68.996  1.00  0.00    -0.190 C  
HETATM   10  O   UNL     1      -9.074  10.800  69.247  1.00  0.00    -0.143 OA 
BRANCH   9  11
HETATM   11  C   UNL     1      -9.722   8.494  69.763  1.00  0.00    -0.179 C  
HETATM   12  C   UNL     1      -8.527   8.497  70.751  1.00  0.00    -0.166 C  
HETATM   13  C   UNL     1      -9.457   7.411  68.665  1.00  0.00    -0.139 C  
HETATM   14  C   UNL     1      -8.067   7.491  68.027  1.00  0.00    -0.124 C  
HETATM   15  C   UNL     1      -7.149   8.554  70.092  1.00  0.00    -0.043 C  
HETATM   16  C   UNL     1      -6.980   7.426  69.088  1.00  0.00    -0.076 C  
BRANCH  11  17
HETATM   17  C   UNL     1     -11.135   8.285  70.461  1.00  0.00    -0.259 C  
HETATM   18  C   UNL     1     -11.743   6.867  70.377  1.00  0.00    -0.377 C  
HETATM   19  C   UNL     1     -11.114   6.304  72.744  1.00  0.00    -0.284 C  
HETATM   20  C   UNL     1     -10.706   7.757  72.981  1.00  0.00    -0.446 C  
HETATM   21  C   UNL     1     -11.041   5.868  71.286  1.00  0.00    -0.307 C  
HETATM   22  C   UNL     1     -11.237   8.748  71.936  1.00  0.00    -0.438 C  
ENDBRANCH  11  17
ENDBRANCH   9  11
ENDBRANCH   8   9
ENDBRANCH   7   8
ENDBRANCH   6   7
ENDBRANCH   3   6
ENDBRANCH   2   3
TORSDOF 8
ENDMDL
MODEL       72
REMARK 921   NORMALIZED FREE ENERGY PREDICTED BY IDOCK:   -4.24 KCAL/MOL
REMARK 922        TOTAL FREE ENERGY PREDICTED BY IDOCK:   -6.81 KCAL/MOL
REMARK 923 INTER-LIGAND FREE ENERGY PREDICTED BY IDOCK:   -6.69 KCAL/MOL
REMARK 924 INTRA-LIGAND FREE ENERGY PREDICTED BY IDOCK:   -0.12 KCAL/MOL
REMARK 927      BINDING AFFINITY PREDICTED BY RF-SCORE:    0.00 PKD
ROOT
HETATM    1  C   UNL     1     -12.285  16.004  72.213  1.00  0.00    -0.604 C  
HETATM    2  C   UNL     1     -12.735  14.988  71.167  1.00  0.00    -0.362 C  
ENDROOT
BRANCH   2   3
HETATM    3  N   UNL     1     -12.332  13.597  71.442  1.00  0.00    -0.282 NA 
BRANCH   3   4
HETATM    4  C   UNL     1     -13.350  12.797  72.135  1.00  0.00    -0.492 C  
HETATM    5  C   UNL     1     -13.268  11.289  71.932  1.00  0.00    -0.491 C  
ENDBRANCH   3   4
BRANCH   3   6
HETATM    6  C   UNL     1     -11.812  12.978  70.200  1.00  0.00    -0.252 C  
BRANCH   6   7
HETATM    7  C   UNL     1     -12.484  13.478  68.911  1.00  0.00     0.252 C  
BRANCH   7   8
HETATM    8  O   UNL     1     -11.916  12.924  67.706  1.00  0.00    -0.347 OA 
BRANCH   8   9
HETATM    9  C   UNL     1     -11.942  13.747  66.625  1.00  0.00    -0.431 C  
HETATM   10  O   UNL     1     -12.968  14.215  66.152  1.00  0.00    -0.280 OA 
BRANCH   9  11
HETATM   11  C   UNL     1     -10.523  14.063  66.080  1.00  0.00    -0.307 C  
HETATM   12  C   UNL     1     -10.423  13.675  64.581  1.00  0.00    -0.442 C  
HETATM   13  C   UNL     1      -9.554  13.146  66.897  1.00  0.00    -0.248 C  
HETATM   14  C   UNL     1      -9.693  11.652  66.586  1.00  0.00    -0.221 C  
HETATM   15  C   UNL     1     -10.540  12.178  64.297  1.00  0.00    -0.385 C  
HETATM   16  C   UNL     1      -9.518  11.390  65.099  1.00  0.00    -0.223 C  
BRANCH  11  17
HETATM   17  C   UNL     1     -10.250  15.604  66.365  1.00  0.00    -0.300 C  
HETATM   18  C   UNL     1     -10.539  16.101  67.799  1.00  0.00    -0.309 C  
HETATM   19  C   UNL     1      -8.106  16.126  68.430  1.00  0.00    -0.171 C  
HETATM   20  C   UNL     1      -7.726  15.865  66.973  1.00  0.00    -0.268 C  
HETATM   21  C   UNL     1      -9.497  15.634  68.807  1.00  0.00    -0.214 C  
HETATM   22  C   UNL     1      -8.850  16.130  65.963  1.00  0.00    -0.313 C  
ENDBRANCH  11  17
ENDBRANCH   9  11
ENDBRANCH   8   9
ENDBRANCH   7   8
ENDBRANCH   6   7
ENDBRANCH   3   6
ENDBRANCH   2   3
TORSDOF 8
ENDMDL
MODEL       73
REMARK 921   NORMALIZED FREE ENERGY PREDICTED BY IDOCK:   -4.23 KCAL/MOL
REMARK 922        TOTAL FREE ENERGY PREDICTED BY IDOCK:   -6.79 KCAL/MOL
REMARK 923 INTER-LIGAND FREE ENERGY PREDICTED BY IDOCK:   -6.09 KCAL/MOL
REMARK 924 INTRA-LIGAND FREE ENERGY PREDICTED BY IDOCK:   -0.70 KCAL/MOL
REMARK 927      BINDING AFFINITY PREDICTED BY RF-SCORE:    0.00 PKD
ROOT
HETATM    1  C   UNL     1     -10.779   7.778  67.192  1.00  0.00    -0.337 C  
HETATM    2  C   UNL     1      -9.422   7.695  67.888  1.00  0.00    -0.143 C  
ENDROOT
BRANCH   2   3
HETATM    3  N   UNL     1      -9.267   8.592  69.047  1.00  0.00    -0.146 NA 
BRANCH   3   4
HETATM    4  C   UNL     1      -9.683   8.005  70.328  1.00  0.00    -0.175 C  
HETATM    5  C   UNL     1     -10.290   8.969  71.340  1.00  0.00    -0.396 C  
ENDBRANCH   3   4
BRANCH   3   6
HETATM    6  C   UNL     1      -7.898   9.159  69.053  1.00  0.00    -0.090 C  
BRANCH   6   7
HETATM    7  C   UNL     1      -7.825  10.650  68.684  1.00  0.00    -0.121 C  
BRANCH   7   8
HETATM    8  O   UNL     1      -9.115  11.265  68.486  1.00  0.00    -0.168 OA 
BRANCH   8   9
HETATM    9  C   UNL     1      -9.091  12.612  68.318  1.00  0.00    -0.181 C  
HETATM   10  O   UNL     1      -8.160  13.325  68.663  1.00  0.00    -0.121 OA 
BRANCH   9  11
HETATM   11  C   UNL     1     -10.360  13.148  67.600  1.00  0.00    -0.223 C  
HETATM   12  C   UNL     1     -10.681  14.589  68.076  1.00  0.00    -0.243 C  
HETATM   13  C   UNL     1     -11.521  12.203  68.058  1.00  0.00    -0.380 C  
HETATM   14  C   UNL     1     -11.901  12.346  69.534  1.00  0.00    -0.368 C  
HETATM   15  C   UNL     1     -11.081  14.705  69.547  1.00  0.00    -0.294 C  
HETATM   16  C   UNL     1     -12.250  13.788  69.866  1.00  0.00    -0.383 C  
BRANCH  11  17
HETATM   17  C   UNL     1     -10.092  13.031  66.037  1.00  0.00    -0.286 C  
HETATM   18  C   UNL     1     -11.022  12.084  65.247  1.00  0.00    -0.356 C  
HETATM   19  C   UNL     1     -12.384  13.976  64.307  1.00  0.00    -0.393 C  
HETATM   20  C   UNL     1     -11.372  14.978  64.862  1.00  0.00    -0.419 C  
HETATM   21  C   UNL     1     -12.423  12.652  65.058  1.00  0.00    -0.556 C  
HETATM   22  C   UNL     1     -10.021  14.369  65.260  1.00  0.00    -0.314 C  
ENDBRANCH  11  17
ENDBRANCH   9  11
ENDBRANCH   8   9
ENDBRANCH   7   8
ENDBRANCH   6   7
ENDBRANCH   3   6
ENDBRANCH   2   3
TORSDOF 8
ENDMDL
MODEL       74
REMARK 921   NORMALIZED FREE ENERGY PREDICTED BY IDOCK:   -4.22 KCAL/MOL
REMARK 922        TOTAL FREE ENERGY PREDICTED BY IDOCK:   -6.78 KCAL/MOL
REMARK 923 INTER-LIGAND FREE ENERGY PREDICTED BY IDOCK:   -6.36 KCAL/MOL
REMARK 924 INTRA-LIGAND FREE ENERGY PREDICTED BY IDOCK:   -0.42 KCAL/MOL
REMARK 927      BINDING AFFINITY PREDICTED BY RF-SCORE:    0.00 PKD
ROOT
HETATM    1  C   UNL     1     -10.262  11.801  63.390  1.00  0.00    -0.482 C  
HETATM    2  C   UNL     1     -11.051  11.509  64.664  1.00  0.00    -0.250 C  
ENDROOT
BRANCH   2   3
HETATM    3  N   UNL     1     -10.239  11.022  65.795  1.00  0.00    -0.252 NA 
BRANCH   3   4
HETATM    4  C   UNL     1      -9.974   9.578  65.773  1.00  0.00    -0.245 C  
HETATM    5  C   UNL     1      -9.100   9.041  66.900  1.00  0.00    -0.161 C  
ENDBRANCH   3   4
BRANCH   3   6
HETATM    6  C   UNL     1      -9.027  11.863  65.931  1.00  0.00    -0.009 C  
BRANCH   6   7
HETATM    7  C   UNL     1      -9.100  12.909  67.056  1.00  0.00    -0.228 C  
BRANCH   7   8
HETATM    8  O   UNL     1      -8.943  14.268  66.599  1.00  0.00    -0.245 OA 
BRANCH   8   9
HETATM    9  C   UNL     1     -10.073  15.022  66.634  1.00  0.00    -0.261 C  
HETATM   10  O   UNL     1     -11.137  14.674  66.142  1.00  0.00    -0.323 OA 
BRANCH   9  11
HETATM   11  C   UNL     1      -9.879  16.357  67.403  1.00  0.00    -0.244 C  
HETATM   12  C   UNL     1      -8.863  16.169  68.560  1.00  0.00    -0.200 C  
HETATM   13  C   UNL     1     -11.280  16.684  68.018  1.00  0.00    -0.164 C  
HETATM   14  C   UNL     1     -11.713  15.730  69.135  1.00  0.00    -0.398 C  
HETATM   15  C   UNL     1      -9.327  15.231  69.675  1.00  0.00    -0.161 C  
HETATM   16  C   UNL     1     -10.667  15.675  70.237  1.00  0.00    -0.354 C  
BRANCH  11  17
HETATM   17  C   UNL     1      -9.440  17.448  66.332  1.00  0.00    -0.279 C  
HETATM   18  C   UNL     1     -10.519  18.469  65.907  1.00  0.00    -0.379 C  
HETATM   19  C   UNL     1      -9.556  20.296  67.339  1.00  0.00    -0.569 C  
HETATM   20  C   UNL     1      -8.331  19.427  67.622  1.00  0.00    -0.334 C  
HETATM   21  C   UNL     1     -10.809  19.506  66.983  1.00  0.00    -0.542 C  
HETATM   22  C   UNL     1      -8.152  18.242  66.663  1.00  0.00    -0.281 C  
ENDBRANCH  11  17
ENDBRANCH   9  11
ENDBRANCH   8   9
ENDBRANCH   7   8
ENDBRANCH   6   7
ENDBRANCH   3   6
ENDBRANCH   2   3
TORSDOF 8
ENDMDL
MODEL       75
REMARK 921   NORMALIZED FREE ENERGY PREDICTED BY IDOCK:   -4.22 KCAL/MOL
REMARK 922        TOTAL FREE ENERGY PREDICTED BY IDOCK:   -6.78 KCAL/MOL
REMARK 923 INTER-LIGAND FREE ENERGY PREDICTED BY IDOCK:   -5.88 KCAL/MOL
REMARK 924 INTRA-LIGAND FREE ENERGY PREDICTED BY IDOCK:   -0.90 KCAL/MOL
REMARK 927      BINDING AFFINITY PREDICTED BY RF-SCORE:    0.00 PKD
ROOT
HETATM    1  C   UNL     1      -9.501   9.692  65.536  1.00  0.00    -0.330 C  
HETATM    2  C   UNL     1      -9.722   8.542  66.515  1.00  0.00    -0.260 C  
ENDROOT
BRANCH   2   3
HETATM    3  N   UNL     1      -8.917   8.618  67.749  1.00  0.00    -0.136 NA 
BRANCH   3   4
HETATM    4  C   UNL     1      -8.221   7.372  68.095  1.00  0.00    -0.124 C  
HETATM    5  C   UNL     1      -6.898   7.124  67.381  1.00  0.00    -0.070 C  
ENDBRANCH   3   4
BRANCH   3   6
HETATM    6  C   UNL     1      -8.040   9.811  67.694  1.00  0.00    -0.113 C  
BRANCH   6   7
HETATM    7  C   UNL     1      -8.279  10.828  68.822  1.00  0.00    -0.145 C  
BRANCH   7   8
HETATM    8  O   UNL     1      -9.533  11.533  68.716  1.00  0.00    -0.175 OA 
BRANCH   8   9
HETATM    9  C   UNL     1      -9.427  12.861  68.450  1.00  0.00    -0.162 C  
HETATM   10  O   UNL     1      -8.426  13.523  68.683  1.00  0.00    -0.124 OA 
BRANCH   9  11
HETATM   11  C   UNL     1     -10.702  13.440  67.780  1.00  0.00    -0.259 C  
HETATM   12  C   UNL     1     -10.791  14.970  68.022  1.00  0.00    -0.270 C  
HETATM   13  C   UNL     1     -11.901  12.751  68.513  1.00  0.00    -0.345 C  
HETATM   14  C   UNL     1     -12.079  13.185  69.971  1.00  0.00    -0.375 C  
HETATM   15  C   UNL     1     -10.991  15.379  69.481  1.00  0.00    -0.276 C  
HETATM   16  C   UNL     1     -12.212  14.696  70.074  1.00  0.00    -0.385 C  
BRANCH  11  17
HETATM   17  C   UNL     1     -10.644  13.034  66.244  1.00  0.00    -0.283 C  
HETATM   18  C   UNL     1     -11.985  12.650  65.581  1.00  0.00    -0.507 C  
HETATM   19  C   UNL     1     -12.203  14.864  64.412  1.00  0.00    -0.399 C  
HETATM   20  C   UNL     1     -10.780  15.226  64.835  1.00  0.00    -0.423 C  
HETATM   21  C   UNL     1     -12.884  13.852  65.324  1.00  0.00    -0.437 C  
HETATM   22  C   UNL     1      -9.930  14.038  65.304  1.00  0.00    -0.283 C  
ENDBRANCH  11  17
ENDBRANCH   9  11
ENDBRANCH   8   9
ENDBRANCH   7   8
ENDBRANCH   6   7
ENDBRANCH   3   6
ENDBRANCH   2   3
TORSDOF 8
ENDMDL
MODEL       76
REMARK 921   NORMALIZED FREE ENERGY PREDICTED BY IDOCK:   -4.21 KCAL/MOL
REMARK 922        TOTAL FREE ENERGY PREDICTED BY IDOCK:   -6.76 KCAL/MOL
REMARK 923 INTER-LIGAND FREE ENERGY PREDICTED BY IDOCK:   -6.43 KCAL/MOL
REMARK 924 INTRA-LIGAND FREE ENERGY PREDICTED BY IDOCK:   -0.33 KCAL/MOL
REMARK 927      BINDING AFFINITY PREDICTED BY RF-SCORE:    0.00 PKD
ROOT
HETATM    1  C   UNL     1     -12.871   7.339  71.464  1.00  0.00    -0.430 C  
HETATM    2  C   UNL     1     -11.513   7.438  70.774  1.00  0.00    -0.288 C  
ENDROOT
BRANCH   2   3
HETATM    3  N   UNL     1     -10.861   8.757  70.880  1.00  0.00    -0.226 NA 
BRANCH   3   4
HETATM    4  C   UNL     1      -9.527   8.726  71.494  1.00  0.00    -0.271 C  
HETATM    5  C   UNL     1      -9.454   8.157  72.905  1.00  0.00    -0.345 C  
ENDBRANCH   3   4
BRANCH   3   6
HETATM    6  C   UNL     1     -10.912   9.439  69.566  1.00  0.00    -0.173 C  
BRANCH   6   7
HETATM    7  C   UNL     1      -9.778  10.450  69.329  1.00  0.00    -0.214 C  
BRANCH   7   8
HETATM    8  O   UNL     1      -9.926  11.219  68.118  1.00  0.00    -0.170 OA 
BRANCH   8   9
HETATM    9  C   UNL     1      -9.412  12.476  68.167  1.00  0.00    -0.214 C  
HETATM   10  O   UNL     1      -8.350  12.756  68.703  1.00  0.00    -0.091 OA 
BRANCH   9  11
HETATM   11  C   UNL     1     -10.301  13.515  67.431  1.00  0.00    -0.237 C  
HETATM   12  C   UNL     1      -9.930  14.954  67.876  1.00  0.00    -0.219 C  
HETATM   13  C   UNL     1     -11.763  13.211  67.901  1.00  0.00    -0.398 C  
HETATM   14  C   UNL     1     -12.031  13.542  69.372  1.00  0.00    -0.383 C  
HETATM   15  C   UNL     1     -10.227  15.269  69.341  1.00  0.00    -0.258 C  
HETATM   16  C   UNL     1     -11.684  14.992  69.672  1.00  0.00    -0.353 C  
BRANCH  11  17
HETATM   17  C   UNL     1     -10.122  13.256  65.872  1.00  0.00    -0.296 C  
HETATM   18  C   UNL     1     -11.120  12.276  65.217  1.00  0.00    -0.359 C  
HETATM   19  C   UNL     1     -12.477  14.124  64.188  1.00  0.00    -0.267 C  
HETATM   20  C   UNL     1     -11.409  15.136  64.601  1.00  0.00    -0.362 C  
HETATM   21  C   UNL     1     -12.512  12.871  65.052  1.00  0.00    -0.553 C  
HETATM   22  C   UNL     1     -10.056  14.520  64.979  1.00  0.00    -0.325 C  
ENDBRANCH  11  17
ENDBRANCH   9  11
ENDBRANCH   8   9
ENDBRANCH   7   8
ENDBRANCH   6   7
ENDBRANCH   3   6
ENDBRANCH   2   3
TORSDOF 8
ENDMDL
MODEL       77
REMARK 921   NORMALIZED FREE ENERGY PREDICTED BY IDOCK:   -4.21 KCAL/MOL
REMARK 922        TOTAL FREE ENERGY PREDICTED BY IDOCK:   -6.76 KCAL/MOL
REMARK 923 INTER-LIGAND FREE ENERGY PREDICTED BY IDOCK:   -5.89 KCAL/MOL
REMARK 924 INTRA-LIGAND FREE ENERGY PREDICTED BY IDOCK:   -0.87 KCAL/MOL
REMARK 927      BINDING AFFINITY PREDICTED BY RF-SCORE:    0.00 PKD
ROOT
HETATM    1  C   UNL     1     -10.146  10.708  64.726  1.00  0.00    -0.412 C  
HETATM    2  C   UNL     1      -9.077  11.206  65.695  1.00  0.00    -0.205 C  
ENDROOT
BRANCH   2   3
HETATM    3  N   UNL     1      -9.498  12.324  66.559  1.00  0.00    -0.232 NA 
BRANCH   3   4
HETATM    4  C   UNL     1     -10.942  12.592  66.542  1.00  0.00    -0.266 C  
HETATM    5  C   UNL     1     -11.668  12.425  67.871  1.00  0.00    -0.421 C  
ENDBRANCH   3   4
BRANCH   3   6
HETATM    6  C   UNL     1      -8.927  12.143  67.915  1.00  0.00    -0.184 C  
BRANCH   6   7
HETATM    7  C   UNL     1      -7.975  10.943  68.049  1.00  0.00    -0.109 C  
BRANCH   7   8
HETATM    8  O   UNL     1      -8.134  10.208  69.280  1.00  0.00    -0.123 OA 
BRANCH   8   9
HETATM    9  C   UNL     1      -8.362   8.877  69.130  1.00  0.00    -0.124 C  
HETATM   10  O   UNL     1      -7.541   8.093  68.677  1.00  0.00    -0.098 OA 
BRANCH   9  11
HETATM   11  C   UNL     1      -9.767   8.450  69.635  1.00  0.00    -0.173 C  
HETATM   12  C   UNL     1      -9.808   6.920  69.886  1.00  0.00    -0.172 C  
HETATM   13  C   UNL     1     -10.746   8.789  68.462  1.00  0.00    -0.108 C  
HETATM   14  C   UNL     1     -10.569   7.907  67.222  1.00  0.00    -0.365 C  
HETATM   15  C   UNL     1      -9.653   6.060  68.632  1.00  0.00    -0.141 C  
HETATM   16  C   UNL     1     -10.687   6.435  67.583  1.00  0.00    -0.387 C  
BRANCH  11  17
HETATM   17  C   UNL     1     -10.079   9.322  70.928  1.00  0.00    -0.373 C  
HETATM   18  C   UNL     1     -11.353  10.194  70.880  1.00  0.00    -0.420 C  
HETATM   19  C   UNL     1     -12.665   8.605  72.319  1.00  0.00    -0.450 C  
HETATM   20  C   UNL     1     -11.389   7.815  72.608  1.00  0.00    -0.449 C  
HETATM   21  C   UNL     1     -12.633   9.379  71.008  1.00  0.00    -0.291 C  
HETATM   22  C   UNL     1     -10.088   8.559  72.275  1.00  0.00    -0.386 C  
ENDBRANCH  11  17
ENDBRANCH   9  11
ENDBRANCH   8   9
ENDBRANCH   7   8
ENDBRANCH   6   7
ENDBRANCH   3   6
ENDBRANCH   2   3
TORSDOF 8
ENDMDL
MODEL       78
REMARK 921   NORMALIZED FREE ENERGY PREDICTED BY IDOCK:   -4.20 KCAL/MOL
REMARK 922        TOTAL FREE ENERGY PREDICTED BY IDOCK:   -6.74 KCAL/MOL
REMARK 923 INTER-LIGAND FREE ENERGY PREDICTED BY IDOCK:   -5.97 KCAL/MOL
REMARK 924 INTRA-LIGAND FREE ENERGY PREDICTED BY IDOCK:   -0.77 KCAL/MOL
REMARK 927      BINDING AFFINITY PREDICTED BY RF-SCORE:    0.00 PKD
ROOT
HETATM    1  C   UNL     1     -12.759  11.892  63.523  1.00  0.00    -0.530 C  
HETATM    2  C   UNL     1     -11.800  13.071  63.380  1.00  0.00    -0.476 C  
ENDROOT
BRANCH   2   3
HETATM    3  N   UNL     1     -11.573  13.836  64.620  1.00  0.00    -0.362 NA 
BRANCH   3   4
HETATM    4  C   UNL     1     -11.508  15.291  64.431  1.00  0.00    -0.239 C  
HETATM    5  C   UNL     1     -10.564  16.044  65.360  1.00  0.00    -0.428 C  
ENDBRANCH   3   4
BRANCH   3   6
HETATM    6  C   UNL     1     -12.539  13.398  65.655  1.00  0.00    -0.438 C  
BRANCH   6   7
HETATM    7  C   UNL     1     -11.896  12.966  66.984  1.00  0.00    -0.374 C  
BRANCH   7   8
HETATM    8  O   UNL     1     -11.572  11.561  67.045  1.00  0.00    -0.510 OA 
BRANCH   8   9
HETATM    9  C   UNL     1     -10.316  11.278  67.477  1.00  0.00    -0.194 C  
HETATM   10  O   UNL     1      -9.652  12.029  68.178  1.00  0.00    -0.189 OA 
BRANCH   9  11
HETATM   11  C   UNL     1      -9.827   9.877  67.020  1.00  0.00    -0.241 C  
HETATM   12  C   UNL     1      -8.305   9.726  67.276  1.00  0.00    -0.121 C  
HETATM   13  C   UNL     1     -10.079   9.838  65.476  1.00  0.00    -0.242 C  
HETATM   14  C   UNL     1      -9.173  10.773  64.669  1.00  0.00    -0.249 C  
HETATM   15  C   UNL     1      -7.420  10.653  66.443  1.00  0.00    -0.138 C  
HETATM   16  C   UNL     1      -7.708  10.492  64.959  1.00  0.00    -0.039 C  
BRANCH  11  17
HETATM   17  C   UNL     1     -10.717   8.804  67.785  1.00  0.00    -0.193 C  
HETATM   18  C   UNL     1     -10.586   7.338  67.315  1.00  0.00    -0.395 C  
HETATM   19  C   UNL     1      -9.131   6.696  69.261  1.00  0.00    -0.138 C  
HETATM   20  C   UNL     1      -9.405   8.051  69.911  1.00  0.00    -0.156 C  
HETATM   21  C   UNL     1      -9.275   6.694  67.745  1.00  0.00    -0.111 C  
HETATM   22  C   UNL     1     -10.607   8.808  69.330  1.00  0.00    -0.210 C  
ENDBRANCH  11  17
ENDBRANCH   9  11
ENDBRANCH   8   9
ENDBRANCH   7   8
ENDBRANCH   6   7
ENDBRANCH   3   6
ENDBRANCH   2   3
TORSDOF 8
ENDMDL
MODEL       79
REMARK 921   NORMALIZED FREE ENERGY PREDICTED BY IDOCK:   -4.20 KCAL/MOL
REMARK 922        TOTAL FREE ENERGY PREDICTED BY IDOCK:   -6.74 KCAL/MOL
REMARK 923 INTER-LIGAND FREE ENERGY PREDICTED BY IDOCK:   -6.03 KCAL/MOL
REMARK 924 INTRA-LIGAND FREE ENERGY PREDICTED BY IDOCK:   -0.71 KCAL/MOL
REMARK 927      BINDING AFFINITY PREDICTED BY RF-SCORE:    0.00 PKD
ROOT
HETATM    1  C   UNL     1     -10.616  15.468  65.018  1.00  0.00    -0.435 C  
HETATM    2  C   UNL     1     -10.418  13.961  64.876  1.00  0.00    -0.426 C  
ENDROOT
BRANCH   2   3
HETATM    3  N   UNL     1     -11.635  13.209  64.519  1.00  0.00    -0.346 NA 
BRANCH   3   4
HETATM    4  C   UNL     1     -11.404  12.076  63.614  1.00  0.00    -0.452 C  
HETATM    5  C   UNL     1     -10.059  11.374  63.751  1.00  0.00    -0.408 C  
ENDBRANCH   3   4
BRANCH   3   6
HETATM    6  C   UNL     1     -12.381  12.863  65.752  1.00  0.00    -0.375 C  
BRANCH   6   7
HETATM    7  C   UNL     1     -11.506  12.316  66.892  1.00  0.00    -0.356 C  
BRANCH   7   8
HETATM    8  O   UNL     1     -11.399  10.877  66.905  1.00  0.00    -0.329 OA 
BRANCH   8   9
HETATM    9  C   UNL     1     -11.005  10.339  68.089  1.00  0.00    -0.274 C  
HETATM   10  O   UNL     1     -11.524  10.608  69.163  1.00  0.00    -0.259 OA 
BRANCH   9  11
HETATM   11  C   UNL     1      -9.851   9.313  67.926  1.00  0.00    -0.200 C  
HETATM   12  C   UNL     1      -9.601   8.566  69.263  1.00  0.00    -0.170 C  
HETATM   13  C   UNL     1      -8.585  10.169  67.591  1.00  0.00    -0.118 C  
HETATM   14  C   UNL     1      -8.086  11.033  68.753  1.00  0.00    -0.145 C  
HETATM   15  C   UNL     1      -9.082   9.444  70.401  1.00  0.00    -0.302 C  
HETATM   16  C   UNL     1      -7.821  10.184  69.985  1.00  0.00    -0.131 C  
BRANCH  11  17
HETATM   17  C   UNL     1     -10.248   8.358  66.719  1.00  0.00    -0.376 C  
HETATM   18  C   UNL     1      -9.113   7.968  65.746  1.00  0.00    -0.109 C  
HETATM   19  C   UNL     1      -8.854   5.676  66.744  1.00  0.00    -0.115 C  
HETATM   20  C   UNL     1     -10.117   5.896  67.576  1.00  0.00    -0.197 C  
HETATM   21  C   UNL     1      -8.140   6.961  66.345  1.00  0.00    -0.113 C  
HETATM   22  C   UNL     1     -11.000   7.059  67.101  1.00  0.00    -0.393 C  
ENDBRANCH  11  17
ENDBRANCH   9  11
ENDBRANCH   8   9
ENDBRANCH   7   8
ENDBRANCH   6   7
ENDBRANCH   3   6
ENDBRANCH   2   3
TORSDOF 8
ENDMDL
MODEL       80
REMARK 921   NORMALIZED FREE ENERGY PREDICTED BY IDOCK:   -4.19 KCAL/MOL
REMARK 922        TOTAL FREE ENERGY PREDICTED BY IDOCK:   -6.73 KCAL/MOL
REMARK 923 INTER-LIGAND FREE ENERGY PREDICTED BY IDOCK:   -6.19 KCAL/MOL
REMARK 924 INTRA-LIGAND FREE ENERGY PREDICTED BY IDOCK:   -0.53 KCAL/MOL
REMARK 927      BINDING AFFINITY PREDICTED BY RF-SCORE:    0.00 PKD
ROOT
HETATM    1  C   UNL     1      -9.247   7.824  69.676  1.00  0.00    -0.153 C  
HETATM    2  C   UNL     1     -10.674   7.956  70.203  1.00  0.00    -0.244 C  
ENDROOT
BRANCH   2   3
HETATM    3  N   UNL     1     -11.221   9.325  70.168  1.00  0.00    -0.237 NA 
BRANCH   3   4
HETATM    4  C   UNL     1     -11.764   9.794  71.449  1.00  0.00    -0.398 C  
HETATM    5  C   UNL     1     -12.958  10.736  71.365  1.00  0.00    -0.535 C  
ENDBRANCH   3   4
BRANCH   3   6
HETATM    6  C   UNL     1     -10.228  10.238  69.555  1.00  0.00    -0.236 C  
BRANCH   6   7
HETATM    7  C   UNL     1     -10.744  11.011  68.331  1.00  0.00    -0.203 C  
BRANCH   7   8
HETATM    8  O   UNL     1     -10.321  12.390  68.291  1.00  0.00    -0.215 OA 
BRANCH   8   9
HETATM    9  C   UNL     1      -9.623  12.747  67.182  1.00  0.00    -0.219 C  
HETATM   10  O   UNL     1      -8.854  12.001  66.594  1.00  0.00    -0.198 OA 
BRANCH   9  11
HETATM   11  C   UNL     1      -9.937  14.195  66.718  1.00  0.00    -0.267 C  
HETATM   12  C   UNL     1     -11.316  14.649  67.263  1.00  0.00    -0.364 C  
HETATM   13  C   UNL     1     -10.020  14.117  65.157  1.00  0.00    -0.263 C  
HETATM   14  C   UNL     1     -11.231  13.340  64.631  1.00  0.00    -0.370 C  
HETATM   15  C   UNL     1     -12.512  13.875  66.707  1.00  0.00    -0.254 C  
HETATM   16  C   UNL     1     -12.525  13.912  65.188  1.00  0.00    -0.479 C  
BRANCH  11  17
HETATM   17  C   UNL     1      -8.725  15.107  67.194  1.00  0.00    -0.238 C  
HETATM   18  C   UNL     1      -8.307  16.250  66.242  1.00  0.00    -0.343 C  
HETATM   19  C   UNL     1      -9.448  18.011  67.626  1.00  0.00    -0.264 C  
HETATM   20  C   UNL     1      -9.695  16.982  68.728  1.00  0.00    -0.273 C  
HETATM   21  C   UNL     1      -9.297  17.407  66.236  1.00  0.00    -0.240 C  
HETATM   22  C   UNL     1      -8.846  15.708  68.616  1.00  0.00    -0.201 C  
ENDBRANCH  11  17
ENDBRANCH   9  11
ENDBRANCH   8   9
ENDBRANCH   7   8
ENDBRANCH   6   7
ENDBRANCH   3   6
ENDBRANCH   2   3
TORSDOF 8
ENDMDL
MODEL       81
REMARK 921   NORMALIZED FREE ENERGY PREDICTED BY IDOCK:   -4.17 KCAL/MOL
REMARK 922        TOTAL FREE ENERGY PREDICTED BY IDOCK:   -6.70 KCAL/MOL
REMARK 923 INTER-LIGAND FREE ENERGY PREDICTED BY IDOCK:   -6.11 KCAL/MOL
REMARK 924 INTRA-LIGAND FREE ENERGY PREDICTED BY IDOCK:   -0.58 KCAL/MOL
REMARK 927      BINDING AFFINITY PREDICTED BY RF-SCORE:    0.00 PKD
ROOT
HETATM    1  C   UNL     1     -12.033  13.057  63.657  1.00  0.00    -0.608 C  
HETATM    2  C   UNL     1     -12.416  12.641  65.075  1.00  0.00    -0.487 C  
ENDROOT
BRANCH   2   3
HETATM    3  N   UNL     1     -11.396  12.927  66.100  1.00  0.00    -0.303 NA 
BRANCH   3   4
HETATM    4  C   UNL     1     -11.839  13.849  67.154  1.00  0.00    -0.412 C  
HETATM    5  C   UNL     1     -11.124  15.194  67.210  1.00  0.00    -0.332 C  
ENDBRANCH   3   4
BRANCH   3   6
HETATM    6  C   UNL     1     -10.829  11.654  66.602  1.00  0.00    -0.283 C  
BRANCH   6   7
HETATM    7  C   UNL     1      -9.632  11.821  67.553  1.00  0.00    -0.177 C  
BRANCH   7   8
HETATM    8  O   UNL     1      -9.815  11.190  68.837  1.00  0.00    -0.200 OA 
BRANCH   8   9
HETATM    9  C   UNL     1      -8.841  10.312  69.192  1.00  0.00    -0.176 C  
HETATM   10  O   UNL     1      -7.688  10.637  69.437  1.00  0.00    -0.139 OA 
BRANCH   9  11
HETATM   11  C   UNL     1      -9.360   8.852  69.292  1.00  0.00    -0.149 C  
HETATM   12  C   UNL     1     -10.840   8.836  69.755  1.00  0.00    -0.196 C  
HETATM   13  C   UNL     1      -8.485   8.180  70.403  1.00  0.00    -0.129 C  
HETATM   14  C   UNL     1      -8.746   8.713  71.815  1.00  0.00    -0.266 C  
HETATM   15  C   UNL     1     -11.074   9.350  71.175  1.00  0.00    -0.432 C  
HETATM   16  C   UNL     1     -10.218   8.592  72.176  1.00  0.00    -0.403 C  
BRANCH  11  17
HETATM   17  C   UNL     1      -9.122   8.177  67.872  1.00  0.00    -0.136 C  
HETATM   18  C   UNL     1      -8.241   6.908  67.851  1.00  0.00    -0.114 C  
HETATM   19  C   UNL     1     -10.216   5.369  67.630  1.00  0.00    -0.236 C  
HETATM   20  C   UNL     1     -11.129   6.575  67.406  1.00  0.00    -0.411 C  
HETATM   21  C   UNL     1      -8.951   5.685  68.416  1.00  0.00    -0.114 C  
HETATM   22  C   UNL     1     -10.395   7.873  67.044  1.00  0.00    -0.411 C  
ENDBRANCH  11  17
ENDBRANCH   9  11
ENDBRANCH   8   9
ENDBRANCH   7   8
ENDBRANCH   6   7
ENDBRANCH   3   6
ENDBRANCH   2   3
TORSDOF 8
ENDMDL
MODEL       82
REMARK 921   NORMALIZED FREE ENERGY PREDICTED BY IDOCK:   -4.16 KCAL/MOL
REMARK 922        TOTAL FREE ENERGY PREDICTED BY IDOCK:   -6.69 KCAL/MOL
REMARK 923 INTER-LIGAND FREE ENERGY PREDICTED BY IDOCK:   -6.23 KCAL/MOL
REMARK 924 INTRA-LIGAND FREE ENERGY PREDICTED BY IDOCK:   -0.46 KCAL/MOL
REMARK 927      BINDING AFFINITY PREDICTED BY RF-SCORE:    0.00 PKD
ROOT
HETATM    1  C   UNL     1      -9.924  10.662  69.139  1.00  0.00    -0.228 C  
HETATM    2  C   UNL     1     -11.372  10.520  68.675  1.00  0.00    -0.252 C  
ENDROOT
BRANCH   2   3
HETATM    3  N   UNL     1     -12.366  11.171  69.548  1.00  0.00    -0.276 NA 
BRANCH   3   4
HETATM    4  C   UNL     1     -13.055  10.257  70.469  1.00  0.00    -0.138 C  
HETATM    5  C   UNL     1     -12.206   9.674  71.592  1.00  0.00    -0.484 C  
ENDBRANCH   3   4
BRANCH   3   6
HETATM    6  C   UNL     1     -11.751  12.349  70.205  1.00  0.00    -0.185 C  
BRANCH   6   7
HETATM    7  C   UNL     1     -11.956  13.675  69.454  1.00  0.00    -0.342 C  
BRANCH   7   8
HETATM    8  O   UNL     1     -10.725  14.335  69.093  1.00  0.00    -0.247 OA 
BRANCH   8   9
HETATM    9  C   UNL     1     -10.862  15.382  68.238  1.00  0.00    -0.269 C  
HETATM   10  O   UNL     1     -11.807  16.158  68.259  1.00  0.00    -0.209 OA 
BRANCH   9  11
HETATM   11  C   UNL     1      -9.668  15.512  67.255  1.00  0.00    -0.218 C  
HETATM   12  C   UNL     1     -10.134  16.150  65.920  1.00  0.00    -0.379 C  
HETATM   13  C   UNL     1      -9.208  14.043  66.970  1.00  0.00    -0.262 C  
HETATM   14  C   UNL     1     -10.209  13.220  66.153  1.00  0.00    -0.296 C  
HETATM   15  C   UNL     1     -11.114  15.301  65.111  1.00  0.00    -0.412 C  
HETATM   16  C   UNL     1     -10.544  13.918  64.844  1.00  0.00    -0.436 C  
BRANCH  11  17
HETATM   17  C   UNL     1      -8.539  16.343  68.005  1.00  0.00    -0.185 C  
HETATM   18  C   UNL     1      -7.194  16.506  67.262  1.00  0.00    -0.202 C  
HETATM   19  C   UNL     1      -7.698  18.871  66.578  1.00  0.00    -0.274 C  
HETATM   20  C   UNL     1      -8.929  18.870  67.482  1.00  0.00    -0.308 C  
HETATM   21  C   UNL     1      -7.275  17.488  66.101  1.00  0.00    -0.343 C  
HETATM   22  C   UNL     1      -8.957  17.742  68.522  1.00  0.00    -0.288 C  
ENDBRANCH  11  17
ENDBRANCH   9  11
ENDBRANCH   8   9
ENDBRANCH   7   8
ENDBRANCH   6   7
ENDBRANCH   3   6
ENDBRANCH   2   3
TORSDOF 8
ENDMDL
MODEL       83
REMARK 921   NORMALIZED FREE ENERGY PREDICTED BY IDOCK:   -4.16 KCAL/MOL
REMARK 922        TOTAL FREE ENERGY PREDICTED BY IDOCK:   -6.68 KCAL/MOL
REMARK 923 INTER-LIGAND FREE ENERGY PREDICTED BY IDOCK:   -5.76 KCAL/MOL
REMARK 924 INTRA-LIGAND FREE ENERGY PREDICTED BY IDOCK:   -0.93 KCAL/MOL
REMARK 927      BINDING AFFINITY PREDICTED BY RF-SCORE:    0.00 PKD
ROOT
HETATM    1  C   UNL     1      -9.448  10.637  68.836  1.00  0.00    -0.199 C  
HETATM    2  C   UNL     1     -10.966  10.787  68.781  1.00  0.00    -0.247 C  
ENDROOT
BRANCH   2   3
HETATM    3  N   UNL     1     -11.567  11.431  69.964  1.00  0.00    -0.308 NA 
BRANCH   3   4
HETATM    4  C   UNL     1     -11.911  12.846  69.773  1.00  0.00    -0.296 C  
HETATM    5  C   UNL     1     -12.519  13.554  70.977  1.00  0.00    -0.451 C  
ENDBRANCH   3   4
BRANCH   3   6
HETATM    6  C   UNL     1     -12.681  10.595  70.469  1.00  0.00    -0.313 C  
BRANCH   6   7
HETATM    7  C   UNL     1     -12.424   9.954  71.843  1.00  0.00    -0.347 C  
BRANCH   7   8
HETATM    8  O   UNL     1     -12.125   8.544  71.781  1.00  0.00    -0.294 OA 
BRANCH   8   9
HETATM    9  C   UNL     1     -10.804   8.233  71.822  1.00  0.00    -0.267 C  
HETATM   10  O   UNL     1      -9.913   9.062  71.937  1.00  0.00    -0.332 OA 
BRANCH   9  11
HETATM   11  C   UNL     1     -10.547   6.703  71.750  1.00  0.00    -0.242 C  
HETATM   12  C   UNL     1      -9.066   6.421  71.384  1.00  0.00    -0.145 C  
HETATM   13  C   UNL     1     -11.454   6.189  70.582  1.00  0.00    -0.331 C  
HETATM   14  C   UNL     1     -11.012   6.656  69.192  1.00  0.00    -0.338 C  
HETATM   15  C   UNL     1      -8.654   6.874  69.984  1.00  0.00    -0.141 C  
HETATM   16  C   UNL     1      -9.565   6.272  68.927  1.00  0.00    -0.135 C  
BRANCH  11  17
HETATM   17  C   UNL     1     -10.992   6.092  73.149  1.00  0.00    -0.269 C  
HETATM   18  C   UNL     1     -11.454   4.617  73.142  1.00  0.00    -0.317 C  
HETATM   19  C   UNL     1      -9.284   3.787  74.100  1.00  0.00    -0.100 C  
HETATM   20  C   UNL     1      -8.848   5.228  74.359  1.00  0.00    -0.117 C  
HETATM   21  C   UNL     1     -10.300   3.638  72.976  1.00  0.00    -0.242 C  
HETATM   22  C   UNL     1      -9.984   6.259  74.313  1.00  0.00    -0.324 C  
ENDBRANCH  11  17
ENDBRANCH   9  11
ENDBRANCH   8   9
ENDBRANCH   7   8
ENDBRANCH   6   7
ENDBRANCH   3   6
ENDBRANCH   2   3
TORSDOF 8
ENDMDL
MODEL       84
REMARK 921   NORMALIZED FREE ENERGY PREDICTED BY IDOCK:   -4.13 KCAL/MOL
REMARK 922        TOTAL FREE ENERGY PREDICTED BY IDOCK:   -6.65 KCAL/MOL
REMARK 923 INTER-LIGAND FREE ENERGY PREDICTED BY IDOCK:   -6.13 KCAL/MOL
REMARK 924 INTRA-LIGAND FREE ENERGY PREDICTED BY IDOCK:   -0.52 KCAL/MOL
REMARK 927      BINDING AFFINITY PREDICTED BY RF-SCORE:    0.00 PKD
ROOT
HETATM    1  C   UNL     1      -9.287  11.309  68.173  1.00  0.00    -0.181 C  
HETATM    2  C   UNL     1      -9.949  10.889  66.863  1.00  0.00    -0.194 C  
ENDROOT
BRANCH   2   3
HETATM    3  N   UNL     1     -10.561  11.992  66.099  1.00  0.00    -0.254 NA 
BRANCH   3   4
HETATM    4  C   UNL     1     -10.546  11.802  64.643  1.00  0.00    -0.308 C  
HETATM    5  C   UNL     1      -9.960  10.486  64.146  1.00  0.00    -0.385 C  
ENDBRANCH   3   4
BRANCH   3   6
HETATM    6  C   UNL     1     -11.898  12.299  66.661  1.00  0.00    -0.289 C  
BRANCH   6   7
HETATM    7  C   UNL     1     -12.076  13.756  67.118  1.00  0.00    -0.378 C  
BRANCH   7   8
HETATM    8  O   UNL     1     -10.845  14.507  67.165  1.00  0.00    -0.285 OA 
BRANCH   8   9
HETATM    9  C   UNL     1     -10.771  15.429  68.161  1.00  0.00    -0.271 C  
HETATM   10  O   UNL     1     -11.452  15.391  69.175  1.00  0.00    -0.289 OA 
BRANCH   9  11
HETATM   11  C   UNL     1      -9.695  16.515  67.890  1.00  0.00    -0.236 C  
HETATM   12  C   UNL     1      -8.867  16.152  66.629  1.00  0.00    -0.298 C  
HETATM   13  C   UNL     1      -8.747  16.474  69.135  1.00  0.00    -0.150 C  
HETATM   14  C   UNL     1      -7.901  15.201  69.238  1.00  0.00    -0.206 C  
HETATM   15  C   UNL     1      -8.013  14.892  66.763  1.00  0.00     0.066 C  
HETATM   16  C   UNL     1      -7.093  14.984  67.969  1.00  0.00    -0.142 C  
BRANCH  11  17
HETATM   17  C   UNL     1     -10.458  17.906  67.781  1.00  0.00    -0.409 C  
HETATM   18  C   UNL     1     -10.154  18.947  68.882  1.00  0.00    -0.372 C  
HETATM   19  C   UNL     1      -8.644  20.293  67.390  1.00  0.00    -0.420 C  
HETATM   20  C   UNL     1      -9.078  19.448  66.192  1.00  0.00    -0.314 C  
HETATM   21  C   UNL     1      -8.779  19.583  68.731  1.00  0.00    -0.342 C  
HETATM   22  C   UNL     1     -10.356  18.630  66.416  1.00  0.00    -0.472 C  
ENDBRANCH  11  17
ENDBRANCH   9  11
ENDBRANCH   8   9
ENDBRANCH   7   8
ENDBRANCH   6   7
ENDBRANCH   3   6
ENDBRANCH   2   3
TORSDOF 8
ENDMDL
MODEL       85
REMARK 921   NORMALIZED FREE ENERGY PREDICTED BY IDOCK:   -4.13 KCAL/MOL
REMARK 922        TOTAL FREE ENERGY PREDICTED BY IDOCK:   -6.64 KCAL/MOL
REMARK 923 INTER-LIGAND FREE ENERGY PREDICTED BY IDOCK:   -6.05 KCAL/MOL
REMARK 924 INTRA-LIGAND FREE ENERGY PREDICTED BY IDOCK:   -0.58 KCAL/MOL
REMARK 927      BINDING AFFINITY PREDICTED BY RF-SCORE:    0.00 PKD
ROOT
HETATM    1  C   UNL     1     -12.601  15.816  72.073  1.00  0.00    -0.524 C  
HETATM    2  C   UNL     1     -11.791  15.049  71.032  1.00  0.00    -0.323 C  
ENDROOT
BRANCH   2   3
HETATM    3  N   UNL     1     -11.436  15.826  69.830  1.00  0.00    -0.323 NA 
BRANCH   3   4
HETATM    4  C   UNL     1     -10.036  16.265  69.784  1.00  0.00    -0.052 C  
HETATM    5  C   UNL     1      -9.745  17.485  68.918  1.00  0.00    -0.259 C  
ENDBRANCH   3   4
BRANCH   3   6
HETATM    6  C   UNL     1     -11.887  15.099  68.620  1.00  0.00    -0.302 C  
BRANCH   6   7
HETATM    7  C   UNL     1     -12.101  13.590  68.827  1.00  0.00    -0.270 C  
BRANCH   7   8
HETATM    8  O   UNL     1     -11.358  12.765  67.906  1.00  0.00    -0.256 OA 
BRANCH   8   9
HETATM    9  C   UNL     1     -11.753  12.849  66.609  1.00  0.00    -0.390 C  
HETATM   10  O   UNL     1     -12.904  13.071  66.262  1.00  0.00    -0.139 OA 
BRANCH   9  11
HETATM   11  C   UNL     1     -10.575  12.674  65.612  1.00  0.00    -0.299 C  
HETATM   12  C   UNL     1      -9.223  12.948  66.322  1.00  0.00    -0.087 C  
HETATM   13  C   UNL     1     -10.795  13.773  64.520  1.00  0.00    -0.399 C  
HETATM   14  C   UNL     1     -10.584  15.206  65.019  1.00  0.00    -0.439 C  
HETATM   15  C   UNL     1      -9.025  14.389  66.791  1.00  0.00    -0.256 C  
HETATM   16  C   UNL     1      -9.205  15.365  65.640  1.00  0.00    -0.039 C  
BRANCH  11  17
HETATM   17  C   UNL     1     -10.698  11.211  65.003  1.00  0.00    -0.301 C  
HETATM   18  C   UNL     1     -10.685  11.102  63.462  1.00  0.00    -0.340 C  
HETATM   19  C   UNL     1      -8.295  10.327  63.395  1.00  0.00    -0.169 C  
HETATM   20  C   UNL     1      -8.301  10.182  64.916  1.00  0.00    -0.166 C  
HETATM   21  C   UNL     1      -9.305  11.336  62.864  1.00  0.00    -0.376 C  
HETATM   22  C   UNL     1      -9.698  10.162  65.552  1.00  0.00    -0.344 C  
ENDBRANCH  11  17
ENDBRANCH   9  11
ENDBRANCH   8   9
ENDBRANCH   7   8
ENDBRANCH   6   7
ENDBRANCH   3   6
ENDBRANCH   2   3
TORSDOF 8
ENDMDL
MODEL       86
REMARK 921   NORMALIZED FREE ENERGY PREDICTED BY IDOCK:   -4.11 KCAL/MOL
REMARK 922        TOTAL FREE ENERGY PREDICTED BY IDOCK:   -6.61 KCAL/MOL
REMARK 923 INTER-LIGAND FREE ENERGY PREDICTED BY IDOCK:   -6.31 KCAL/MOL
REMARK 924 INTRA-LIGAND FREE ENERGY PREDICTED BY IDOCK:   -0.31 KCAL/MOL
REMARK 927      BINDING AFFINITY PREDICTED BY RF-SCORE:    0.00 PKD
ROOT
HETATM    1  C   UNL     1      -9.157   8.124  68.923  1.00  0.00    -0.147 C  
HETATM    2  C   UNL     1      -9.805   8.679  67.658  1.00  0.00    -0.180 C  
ENDROOT
BRANCH   2   3
HETATM    3  N   UNL     1     -10.777   9.764  67.887  1.00  0.00    -0.259 NA 
BRANCH   3   4
HETATM    4  C   UNL     1     -10.706  10.369  69.223  1.00  0.00    -0.237 C  
HETATM    5  C   UNL     1     -11.762  11.421  69.538  1.00  0.00    -0.417 C  
ENDBRANCH   3   4
BRANCH   3   6
HETATM    6  C   UNL     1     -10.703  10.738  66.772  1.00  0.00    -0.231 C  
BRANCH   6   7
HETATM    7  C   UNL     1      -9.280  11.218  66.440  1.00  0.00    -0.192 C  
BRANCH   7   8
HETATM    8  O   UNL     1      -9.203  12.617  66.098  1.00  0.00    -0.168 OA 
BRANCH   8   9
HETATM    9  C   UNL     1      -9.375  13.475  67.137  1.00  0.00    -0.240 C  
HETATM   10  O   UNL     1      -8.996  13.247  68.277  1.00  0.00    -0.187 OA 
BRANCH   9  11
HETATM   11  C   UNL     1     -10.070  14.797  66.712  1.00  0.00    -0.258 C  
HETATM   12  C   UNL     1     -11.506  14.862  67.294  1.00  0.00    -0.350 C  
HETATM   13  C   UNL     1     -10.169  14.726  65.152  1.00  0.00    -0.410 C  
HETATM   14  C   UNL     1     -11.146  13.668  64.632  1.00  0.00    -0.387 C  
HETATM   15  C   UNL     1     -12.470  13.812  66.744  1.00  0.00    -0.254 C  
HETATM   16  C   UNL     1     -12.530  13.870  65.227  1.00  0.00    -0.504 C  
BRANCH  11  17
HETATM   17  C   UNL     1      -9.128  15.988  67.186  1.00  0.00    -0.224 C  
HETATM   18  C   UNL     1      -9.037  17.210  66.245  1.00  0.00    -0.260 C  
HETATM   19  C   UNL     1     -10.573  18.599  67.670  1.00  0.00    -0.458 C  
HETATM   20  C   UNL     1     -10.526  17.529  68.760  1.00  0.00    -0.318 C  
HETATM   21  C   UNL     1     -10.293  18.070  66.269  1.00  0.00    -0.384 C  
HETATM   22  C   UNL     1      -9.378  16.521  68.618  1.00  0.00    -0.241 C  
ENDBRANCH  11  17
ENDBRANCH   9  11
ENDBRANCH   8   9
ENDBRANCH   7   8
ENDBRANCH   6   7
ENDBRANCH   3   6
ENDBRANCH   2   3
TORSDOF 8
ENDMDL
MODEL       87
REMARK 921   NORMALIZED FREE ENERGY PREDICTED BY IDOCK:   -4.09 KCAL/MOL
REMARK 922        TOTAL FREE ENERGY PREDICTED BY IDOCK:   -6.59 KCAL/MOL
REMARK 923 INTER-LIGAND FREE ENERGY PREDICTED BY IDOCK:   -6.10 KCAL/MOL
REMARK 924 INTRA-LIGAND FREE ENERGY PREDICTED BY IDOCK:   -0.49 KCAL/MOL
REMARK 927      BINDING AFFINITY PREDICTED BY RF-SCORE:    0.00 PKD
ROOT
HETATM    1  C   UNL     1     -12.061  14.199  68.857  1.00  0.00    -0.339 C  
HETATM    2  C   UNL     1     -11.099  13.039  68.619  1.00  0.00    -0.269 C  
ENDROOT
BRANCH   2   3
HETATM    3  N   UNL     1     -11.670  11.906  67.869  1.00  0.00    -0.487 NA 
BRANCH   3   4
HETATM    4  C   UNL     1     -11.299  11.871  66.448  1.00  0.00    -0.339 C  
HETATM    5  C   UNL     1     -10.295  10.798  66.045  1.00  0.00    -0.300 C  
ENDBRANCH   3   4
BRANCH   3   6
HETATM    6  C   UNL     1     -11.403  10.644  68.600  1.00  0.00    -0.281 C  
BRANCH   6   7
HETATM    7  C   UNL     1     -11.547  10.751  70.127  1.00  0.00    -0.337 C  
BRANCH   7   8
HETATM    8  O   UNL     1     -10.907   9.679  70.849  1.00  0.00    -0.295 OA 
BRANCH   8   9
HETATM    9  C   UNL     1     -11.685   8.588  71.070  1.00  0.00    -0.275 C  
HETATM   10  O   UNL     1     -12.907   8.621  71.109  1.00  0.00    -0.228 OA 
BRANCH   9  11
HETATM   11  C   UNL     1     -10.857   7.284  71.227  1.00  0.00    -0.255 C  
HETATM   12  C   UNL     1      -9.366   7.548  70.890  1.00  0.00    -0.154 C  
HETATM   13  C   UNL     1     -11.440   6.296  70.161  1.00  0.00    -0.452 C  
HETATM   14  C   UNL     1     -11.146   6.692  68.711  1.00  0.00    -0.297 C  
HETATM   15  C   UNL     1      -9.093   7.919  69.432  1.00  0.00    -0.145 C  
HETATM   16  C   UNL     1      -9.652   6.865  68.490  1.00  0.00    -0.131 C  
BRANCH  11  17
HETATM   17  C   UNL     1     -11.099   6.757  72.707  1.00  0.00    -0.292 C  
HETATM   18  C   UNL     1     -11.325   5.237  72.870  1.00  0.00    -0.368 C  
HETATM   19  C   UNL     1      -8.988   4.836  73.705  1.00  0.00    -0.104 C  
HETATM   20  C   UNL     1      -8.763   6.345  73.797  1.00  0.00    -0.132 C  
HETATM   21  C   UNL     1     -10.048   4.427  72.691  1.00  0.00    -0.229 C  
HETATM   22  C   UNL     1     -10.047   7.186  73.760  1.00  0.00    -0.391 C  
ENDBRANCH  11  17
ENDBRANCH   9  11
ENDBRANCH   8   9
ENDBRANCH   7   8
ENDBRANCH   6   7
ENDBRANCH   3   6
ENDBRANCH   2   3
TORSDOF 8
ENDMDL
MODEL       88
REMARK 921   NORMALIZED FREE ENERGY PREDICTED BY IDOCK:   -4.09 KCAL/MOL
REMARK 922        TOTAL FREE ENERGY PREDICTED BY IDOCK:   -6.58 KCAL/MOL
REMARK 923 INTER-LIGAND FREE ENERGY PREDICTED BY IDOCK:   -5.84 KCAL/MOL
REMARK 924 INTRA-LIGAND FREE ENERGY PREDICTED BY IDOCK:   -0.74 KCAL/MOL
REMARK 927      BINDING AFFINITY PREDICTED BY RF-SCORE:    0.00 PKD
ROOT
HETATM    1  C   UNL     1      -7.480   9.900  69.126  1.00  0.00    -0.087 C  
HETATM    2  C   UNL     1      -8.244   8.671  68.640  1.00  0.00    -0.121 C  
ENDROOT
BRANCH   2   3
HETATM    3  N   UNL     1      -9.684   8.675  68.956  1.00  0.00    -0.170 NA 
BRANCH   3   4
HETATM    4  C   UNL     1     -10.092   9.711  69.913  1.00  0.00    -0.246 C  
HETATM    5  C   UNL     1     -10.703   9.213  71.217  1.00  0.00    -0.401 C  
ENDBRANCH   3   4
BRANCH   3   6
HETATM    6  C   UNL     1     -10.466   8.667  67.696  1.00  0.00    -0.244 C  
BRANCH   6   7
HETATM    7  C   UNL     1     -10.091   9.783  66.708  1.00  0.00    -0.231 C  
BRANCH   7   8
HETATM    8  O   UNL     1     -10.785  11.026  66.942  1.00  0.00    -0.253 OA 
BRANCH   8   9
HETATM    9  C   UNL     1     -10.025  12.144  66.811  1.00  0.00    -0.203 C  
HETATM   10  O   UNL     1      -8.882  12.143  66.375  1.00  0.00    -0.184 OA 
BRANCH   9  11
HETATM   11  C   UNL     1     -10.779  13.433  67.235  1.00  0.00    -0.265 C  
HETATM   12  C   UNL     1     -12.301  13.278  66.978  1.00  0.00    -0.190 C  
HETATM   13  C   UNL     1     -10.229  14.559  66.298  1.00  0.00    -0.306 C  
HETATM   14  C   UNL     1     -10.643  14.413  64.831  1.00  0.00    -0.456 C  
HETATM   15  C   UNL     1     -12.693  13.156  65.505  1.00  0.00    -0.367 C  
HETATM   16  C   UNL     1     -12.155  14.328  64.701  1.00  0.00    -0.478 C  
BRANCH  11  17
HETATM   17  C   UNL     1     -10.409  13.706  68.757  1.00  0.00    -0.182 C  
HETATM   18  C   UNL     1     -10.128  15.175  69.146  1.00  0.00    -0.245 C  
HETATM   19  C   UNL     1     -12.381  15.469  70.221  1.00  0.00    -0.431 C  
HETATM   20  C   UNL     1     -12.640  13.969  70.085  1.00  0.00    -0.310 C  
HETATM   21  C   UNL     1     -11.391  16.023  69.205  1.00  0.00    -0.352 C  
HETATM   22  C   UNL     1     -11.388  13.126  69.808  1.00  0.00    -0.120 C  
ENDBRANCH  11  17
ENDBRANCH   9  11
ENDBRANCH   8   9
ENDBRANCH   7   8
ENDBRANCH   6   7
ENDBRANCH   3   6
ENDBRANCH   2   3
TORSDOF 8
ENDMDL
MODEL       89
REMARK 921   NORMALIZED FREE ENERGY PREDICTED BY IDOCK:   -4.08 KCAL/MOL
REMARK 922        TOTAL FREE ENERGY PREDICTED BY IDOCK:   -6.58 KCAL/MOL
REMARK 923 INTER-LIGAND FREE ENERGY PREDICTED BY IDOCK:   -6.15 KCAL/MOL
REMARK 924 INTRA-LIGAND FREE ENERGY PREDICTED BY IDOCK:   -0.43 KCAL/MOL
REMARK 927      BINDING AFFINITY PREDICTED BY RF-SCORE:    0.00 PKD
ROOT
HETATM    1  C   UNL     1     -11.923  14.366  67.442  1.00  0.00    -0.407 C  
HETATM    2  C   UNL     1     -12.009  13.607  66.120  1.00  0.00    -0.416 C  
ENDROOT
BRANCH   2   3
HETATM    3  N   UNL     1     -11.614  12.189  66.196  1.00  0.00    -0.438 NA 
BRANCH   3   4
HETATM    4  C   UNL     1     -10.510  11.818  65.301  1.00  0.00    -0.274 C  
HETATM    5  C   UNL     1     -10.553  12.421  63.902  1.00  0.00    -0.470 C  
ENDBRANCH   3   4
BRANCH   3   6
HETATM    6  C   UNL     1     -11.404  11.809  67.613  1.00  0.00    -0.302 C  
BRANCH   6   7
HETATM    7  C   UNL     1     -10.656  10.481  67.811  1.00  0.00    -0.243 C  
BRANCH   7   8
HETATM    8  O   UNL     1     -10.641  10.019  69.178  1.00  0.00    -0.196 OA 
BRANCH   8   9
HETATM    9  C   UNL     1     -10.579   8.670  69.330  1.00  0.00    -0.192 C  
HETATM   10  O   UNL     1     -10.561   7.881  68.396  1.00  0.00    -0.188 OA 
BRANCH   9  11
HETATM   11  C   UNL     1     -10.492   8.240  70.819  1.00  0.00    -0.223 C  
HETATM   12  C   UNL     1     -11.306   6.939  71.053  1.00  0.00    -0.342 C  
HETATM   13  C   UNL     1     -11.169   9.400  71.623  1.00  0.00    -0.431 C  
HETATM   14  C   UNL     1     -12.681   9.514  71.408  1.00  0.00    -0.445 C  
HETATM   15  C   UNL     1     -12.814   7.082  70.856  1.00  0.00    -0.172 C  
HETATM   16  C   UNL     1     -13.373   8.197  71.723  1.00  0.00    -0.370 C  
BRANCH  11  17
HETATM   17  C   UNL     1      -8.948   8.105  71.173  1.00  0.00    -0.174 C  
HETATM   18  C   UNL     1      -8.518   8.586  72.577  1.00  0.00    -0.181 C  
HETATM   19  C   UNL     1      -8.358   6.247  73.483  1.00  0.00    -0.121 C  
HETATM   20  C   UNL     1      -8.545   5.689  72.073  1.00  0.00    -0.130 C  
HETATM   21  C   UNL     1      -8.950   7.635  73.686  1.00  0.00    -0.310 C  
HETATM   22  C   UNL     1      -8.320   6.708  70.947  1.00  0.00    -0.125 C  
ENDBRANCH  11  17
ENDBRANCH   9  11
ENDBRANCH   8   9
ENDBRANCH   7   8
ENDBRANCH   6   7
ENDBRANCH   3   6
ENDBRANCH   2   3
TORSDOF 8
ENDMDL
MODEL       90
REMARK 921   NORMALIZED FREE ENERGY PREDICTED BY IDOCK:   -4.08 KCAL/MOL
REMARK 922        TOTAL FREE ENERGY PREDICTED BY IDOCK:   -6.57 KCAL/MOL
REMARK 923 INTER-LIGAND FREE ENERGY PREDICTED BY IDOCK:   -6.07 KCAL/MOL
REMARK 924 INTRA-LIGAND FREE ENERGY PREDICTED BY IDOCK:   -0.51 KCAL/MOL
REMARK 927      BINDING AFFINITY PREDICTED BY RF-SCORE:    0.00 PKD
ROOT
HETATM    1  C   UNL     1     -11.686  12.036  63.803  1.00  0.00    -0.575 C  
HETATM    2  C   UNL     1     -10.303  11.392  63.761  1.00  0.00    -0.393 C  
ENDROOT
BRANCH   2   3
HETATM    3  N   UNL     1     -10.056  10.389  64.814  1.00  0.00    -0.347 NA 
BRANCH   3   4
HETATM    4  C   UNL     1      -8.879   9.543  64.581  1.00  0.00    -0.213 C  
HETATM    5  C   UNL     1      -7.575  10.023  65.207  1.00  0.00    -0.137 C  
ENDBRANCH   3   4
BRANCH   3   6
HETATM    6  C   UNL     1     -10.079  11.050  66.141  1.00  0.00    -0.237 C  
BRANCH   6   7
HETATM    7  C   UNL     1     -10.803  10.253  67.237  1.00  0.00    -0.250 C  
BRANCH   7   8
HETATM    8  O   UNL     1      -9.959   9.302  67.920  1.00  0.00    -0.170 OA 
BRANCH   8   9
HETATM    9  C   UNL     1     -10.422   8.025  67.930  1.00  0.00    -0.197 C  
HETATM   10  O   UNL     1     -10.920   7.474  66.959  1.00  0.00    -0.306 OA 
BRANCH   9  11
HETATM   11  C   UNL     1     -10.212   7.323  69.299  1.00  0.00    -0.193 C  
HETATM   12  C   UNL     1      -8.705   7.304  69.669  1.00  0.00    -0.141 C  
HETATM   13  C   UNL     1     -10.690   5.849  69.084  1.00  0.00    -0.394 C  
HETATM   14  C   UNL     1      -9.789   5.025  68.159  1.00  0.00    -0.203 C  
HETATM   15  C   UNL     1      -7.829   6.457  68.747  1.00  0.00    -0.109 C  
HETATM   16  C   UNL     1      -8.352   5.033  68.655  1.00  0.00    -0.087 C  
BRANCH  11  17
HETATM   17  C   UNL     1     -11.124   8.086  70.355  1.00  0.00    -0.238 C  
HETATM   18  C   UNL     1     -12.144   7.225  71.134  1.00  0.00    -0.376 C  
HETATM   19  C   UNL     1     -10.735   7.187  73.215  1.00  0.00    -0.403 C  
HETATM   20  C   UNL     1      -9.798   8.225  72.599  1.00  0.00    -0.357 C  
HETATM   21  C   UNL     1     -11.491   6.348  72.193  1.00  0.00    -0.344 C  
HETATM   22  C   UNL     1     -10.376   8.968  71.386  1.00  0.00    -0.396 C  
ENDBRANCH  11  17
ENDBRANCH   9  11
ENDBRANCH   8   9
ENDBRANCH   7   8
ENDBRANCH   6   7
ENDBRANCH   3   6
ENDBRANCH   2   3
TORSDOF 8
ENDMDL
MODEL       91
REMARK 921   NORMALIZED FREE ENERGY PREDICTED BY IDOCK:   -4.07 KCAL/MOL
REMARK 922        TOTAL FREE ENERGY PREDICTED BY IDOCK:   -6.55 KCAL/MOL
REMARK 923 INTER-LIGAND FREE ENERGY PREDICTED BY IDOCK:   -6.16 KCAL/MOL
REMARK 924 INTRA-LIGAND FREE ENERGY PREDICTED BY IDOCK:   -0.39 KCAL/MOL
REMARK 927      BINDING AFFINITY PREDICTED BY RF-SCORE:    0.00 PKD
ROOT
HETATM    1  C   UNL     1     -11.674  14.521  66.948  1.00  0.00    -0.399 C  
HETATM    2  C   UNL     1     -10.708  13.582  66.229  1.00  0.00    -0.288 C  
ENDROOT
BRANCH   2   3
HETATM    3  N   UNL     1     -11.272  12.264  65.880  1.00  0.00    -0.325 NA 
BRANCH   3   4
HETATM    4  C   UNL     1     -11.217  11.942  64.449  1.00  0.00    -0.336 C  
HETATM    5  C   UNL     1     -12.160  12.732  63.549  1.00  0.00    -0.642 C  
ENDBRANCH   3   4
BRANCH   3   6
HETATM    6  C   UNL     1     -10.685  11.227  66.762  1.00  0.00    -0.275 C  
BRANCH   6   7
HETATM    7  C   UNL     1     -11.415  11.045  68.103  1.00  0.00    -0.302 C  
BRANCH   7   8
HETATM    8  O   UNL     1     -11.158   9.775  68.737  1.00  0.00    -0.189 OA 
BRANCH   8   9
HETATM    9  C   UNL     1     -11.046   9.819  70.091  1.00  0.00    -0.285 C  
HETATM   10  O   UNL     1     -11.650  10.613  70.797  1.00  0.00    -0.333 OA 
BRANCH   9  11
HETATM   11  C   UNL     1     -10.098   8.724  70.649  1.00  0.00    -0.248 C  
HETATM   12  C   UNL     1     -10.404   7.356  69.984  1.00  0.00    -0.224 C  
HETATM   13  C   UNL     1     -10.438   8.623  72.173  1.00  0.00    -0.411 C  
HETATM   14  C   UNL     1     -11.820   8.034  72.470  1.00  0.00    -0.419 C  
HETATM   15  C   UNL     1     -11.779   6.776  70.313  1.00  0.00    -0.397 C  
HETATM   16  C   UNL     1     -11.980   6.671  71.816  1.00  0.00    -0.391 C  
BRANCH  11  17
HETATM   17  C   UNL     1      -8.611   9.235  70.413  1.00  0.00    -0.250 C  
HETATM   18  C   UNL     1      -7.566   8.828  71.476  1.00  0.00    -0.130 C  
HETATM   19  C   UNL     1      -6.583   7.027  70.024  1.00  0.00    -0.044 C  
HETATM   20  C   UNL     1      -7.419   7.523  68.845  1.00  0.00    -0.096 C  
HETATM   21  C   UNL     1      -7.173   7.359  71.388  1.00  0.00    -0.071 C  
HETATM   22  C   UNL     1      -8.002   8.932  69.022  1.00  0.00    -0.106 C  
ENDBRANCH  11  17
ENDBRANCH   9  11
ENDBRANCH   8   9
ENDBRANCH   7   8
ENDBRANCH   6   7
ENDBRANCH   3   6
ENDBRANCH   2   3
TORSDOF 8
ENDMDL
MODEL       92
REMARK 921   NORMALIZED FREE ENERGY PREDICTED BY IDOCK:   -4.05 KCAL/MOL
REMARK 922        TOTAL FREE ENERGY PREDICTED BY IDOCK:   -6.53 KCAL/MOL
REMARK 923 INTER-LIGAND FREE ENERGY PREDICTED BY IDOCK:   -6.02 KCAL/MOL
REMARK 924 INTRA-LIGAND FREE ENERGY PREDICTED BY IDOCK:   -0.51 KCAL/MOL
REMARK 927      BINDING AFFINITY PREDICTED BY RF-SCORE:    0.00 PKD
ROOT
HETATM    1  C   UNL     1      -7.559  10.094  64.923  1.00  0.00    -0.138 C  
HETATM    2  C   UNL     1      -6.824   9.824  66.234  1.00  0.00    -0.092 C  
ENDROOT
BRANCH   2   3
HETATM    3  N   UNL     1      -7.657   9.939  67.445  1.00  0.00    -0.091 NA 
BRANCH   3   4
HETATM    4  C   UNL     1      -7.982   8.656  68.082  1.00  0.00    -0.107 C  
HETATM    5  C   UNL     1      -6.913   7.574  67.987  1.00  0.00    -0.072 C  
ENDBRANCH   3   4
BRANCH   3   6
HETATM    6  C   UNL     1      -7.062  10.941  68.360  1.00  0.00    -0.073 C  
BRANCH   6   7
HETATM    7  C   UNL     1      -7.512  12.388  68.099  1.00  0.00    -0.118 C  
BRANCH   7   8
HETATM    8  O   UNL     1      -8.739  12.490  67.348  1.00  0.00    -0.171 OA 
BRANCH   8   9
HETATM    9  C   UNL     1      -9.598  13.452  67.777  1.00  0.00    -0.213 C  
HETATM   10  O   UNL     1      -9.250  14.449  68.392  1.00  0.00    -0.185 OA 
BRANCH   9  11
HETATM   11  C   UNL     1     -11.068  13.167  67.364  1.00  0.00    -0.301 C  
HETATM   12  C   UNL     1     -12.030  13.493  68.537  1.00  0.00    -0.379 C  
HETATM   13  C   UNL     1     -11.127  11.628  67.087  1.00  0.00    -0.354 C  
HETATM   14  C   UNL     1     -10.969  10.758  68.337  1.00  0.00    -0.299 C  
HETATM   15  C   UNL     1     -11.870  12.598  69.765  1.00  0.00    -0.379 C  
HETATM   16  C   UNL     1     -12.001  11.131  69.390  1.00  0.00    -0.420 C  
BRANCH  11  17
HETATM   17  C   UNL     1     -11.351  14.011  66.047  1.00  0.00    -0.328 C  
HETATM   18  C   UNL     1     -10.292  13.915  64.926  1.00  0.00    -0.430 C  
HETATM   19  C   UNL     1     -11.687  12.342  63.549  1.00  0.00    -0.592 C  
HETATM   20  C   UNL     1     -12.869  12.569  64.489  1.00  0.00    -0.352 C  
HETATM   21  C   UNL     1     -10.327  12.582  64.191  1.00  0.00    -0.416 C  
HETATM   22  C   UNL     1     -12.740  13.802  65.393  1.00  0.00    -0.513 C  
ENDBRANCH  11  17
ENDBRANCH   9  11
ENDBRANCH   8   9
ENDBRANCH   7   8
ENDBRANCH   6   7
ENDBRANCH   3   6
ENDBRANCH   2   3
TORSDOF 8
ENDMDL
MODEL       93
REMARK 921   NORMALIZED FREE ENERGY PREDICTED BY IDOCK:   -4.04 KCAL/MOL
REMARK 922        TOTAL FREE ENERGY PREDICTED BY IDOCK:   -6.51 KCAL/MOL
REMARK 923 INTER-LIGAND FREE ENERGY PREDICTED BY IDOCK:   -6.05 KCAL/MOL
REMARK 924 INTRA-LIGAND FREE ENERGY PREDICTED BY IDOCK:   -0.46 KCAL/MOL
REMARK 927      BINDING AFFINITY PREDICTED BY RF-SCORE:    0.00 PKD
ROOT
HETATM    1  C   UNL     1     -12.002  13.148  66.106  1.00  0.00    -0.478 C  
HETATM    2  C   UNL     1     -11.137  12.474  67.168  1.00  0.00    -0.276 C  
ENDROOT
BRANCH   2   3
HETATM    3  N   UNL     1     -11.249  13.058  68.518  1.00  0.00    -0.256 NA 
BRANCH   3   4
HETATM    4  C   UNL     1     -12.149  14.215  68.605  1.00  0.00    -0.285 C  
HETATM    5  C   UNL     1     -12.073  15.026  69.892  1.00  0.00    -0.376 C  
ENDBRANCH   3   4
BRANCH   3   6
HETATM    6  C   UNL     1     -11.539  11.984  69.498  1.00  0.00    -0.321 C  
BRANCH   6   7
HETATM    7  C   UNL     1     -10.724  10.697  69.291  1.00  0.00    -0.238 C  
BRANCH   7   8
HETATM    8  O   UNL     1     -11.042   9.649  70.230  1.00  0.00    -0.243 OA 
BRANCH   8   9
HETATM    9  C   UNL     1      -9.991   8.878  70.612  1.00  0.00    -0.216 C  
HETATM   10  O   UNL     1      -9.072   9.280  71.311  1.00  0.00    -0.264 OA 
BRANCH   9  11
HETATM   11  C   UNL     1     -10.102   7.417  70.099  1.00  0.00    -0.197 C  
HETATM   12  C   UNL     1     -11.584   6.958  70.095  1.00  0.00    -0.340 C  
HETATM   13  C   UNL     1      -9.317   6.554  71.142  1.00  0.00    -0.167 C  
HETATM   14  C   UNL     1      -9.989   6.465  72.515  1.00  0.00    -0.183 C  
HETATM   15  C   UNL     1     -12.227   6.854  71.478  1.00  0.00    -0.415 C  
HETATM   16  C   UNL     1     -11.414   5.949  72.389  1.00  0.00    -0.358 C  
BRANCH  11  17
HETATM   17  C   UNL     1      -9.412   7.376  68.667  1.00  0.00    -0.139 C  
HETATM   18  C   UNL     1      -8.537   6.140  68.359  1.00  0.00    -0.112 C  
HETATM   19  C   UNL     1     -10.302   5.073  66.923  1.00  0.00    -0.267 C  
HETATM   20  C   UNL     1     -11.128   6.357  66.985  1.00  0.00    -0.405 C  
HETATM   21  C   UNL     1      -9.357   4.883  68.102  1.00  0.00    -0.164 C  
HETATM   22  C   UNL     1     -10.351   7.594  67.455  1.00  0.00    -0.347 C  
ENDBRANCH  11  17
ENDBRANCH   9  11
ENDBRANCH   8   9
ENDBRANCH   7   8
ENDBRANCH   6   7
ENDBRANCH   3   6
ENDBRANCH   2   3
TORSDOF 8
ENDMDL
MODEL       94
REMARK 921   NORMALIZED FREE ENERGY PREDICTED BY IDOCK:   -4.01 KCAL/MOL
REMARK 922        TOTAL FREE ENERGY PREDICTED BY IDOCK:   -6.47 KCAL/MOL
REMARK 923 INTER-LIGAND FREE ENERGY PREDICTED BY IDOCK:   -5.99 KCAL/MOL
REMARK 924 INTRA-LIGAND FREE ENERGY PREDICTED BY IDOCK:   -0.48 KCAL/MOL
REMARK 927      BINDING AFFINITY PREDICTED BY RF-SCORE:    0.00 PKD
ROOT
HETATM    1  C   UNL     1     -11.411  15.462  71.129  1.00  0.00    -0.425 C  
HETATM    2  C   UNL     1     -11.917  15.576  69.694  1.00  0.00    -0.359 C  
ENDROOT
BRANCH   2   3
HETATM    3  N   UNL     1     -10.861  15.745  68.678  1.00  0.00    -0.262 NA 
BRANCH   3   4
HETATM    4  C   UNL     1     -10.906  17.027  67.964  1.00  0.00    -0.330 C  
HETATM    5  C   UNL     1     -10.120  18.171  68.592  1.00  0.00    -0.406 C  
ENDBRANCH   3   4
BRANCH   3   6
HETATM    6  C   UNL     1      -9.543  15.428  69.279  1.00  0.00    -0.268 C  
BRANCH   6   7
HETATM    7  C   UNL     1      -8.770  14.309  68.562  1.00  0.00    -0.175 C  
BRANCH   7   8
HETATM    8  O   UNL     1      -9.489  13.060  68.486  1.00  0.00    -0.190 OA 
BRANCH   8   9
HETATM    9  C   UNL     1      -9.206  12.298  67.397  1.00  0.00    -0.182 C  
HETATM   10  O   UNL     1      -8.189  12.416  66.730  1.00  0.00    -0.135 OA 
BRANCH   9  11
HETATM   11  C   UNL     1     -10.297  11.230  67.116  1.00  0.00    -0.244 C  
HETATM   12  C   UNL     1     -10.263  10.804  65.624  1.00  0.00    -0.320 C  
HETATM   13  C   UNL     1     -11.659  11.949  67.396  1.00  0.00    -0.367 C  
HETATM   14  C   UNL     1     -12.011  13.043  66.384  1.00  0.00    -0.466 C  
HETATM   15  C   UNL     1     -10.640  11.905  64.634  1.00  0.00    -0.353 C  
HETATM   16  C   UNL     1     -12.002  12.493  64.967  1.00  0.00    -0.478 C  
BRANCH  11  17
HETATM   17  C   UNL     1     -10.047  10.033  68.132  1.00  0.00    -0.186 C  
HETATM   18  C   UNL     1     -10.715   8.683  67.786  1.00  0.00    -0.178 C  
HETATM   19  C   UNL     1      -8.572   7.678  66.944  1.00  0.00    -0.123 C  
HETATM   20  C   UNL     1      -7.799   8.885  67.473  1.00  0.00    -0.101 C  
HETATM   21  C   UNL     1     -10.034   7.965  66.630  1.00  0.00    -0.316 C  
HETATM   22  C   UNL     1      -8.568   9.742  68.487  1.00  0.00    -0.120 C  
ENDBRANCH  11  17
ENDBRANCH   9  11
ENDBRANCH   8   9
ENDBRANCH   7   8
ENDBRANCH   6   7
ENDBRANCH   3   6
ENDBRANCH   2   3
TORSDOF 8
ENDMDL
MODEL       95
REMARK 921   NORMALIZED FREE ENERGY PREDICTED BY IDOCK:   -4.00 KCAL/MOL
REMARK 922        TOTAL FREE ENERGY PREDICTED BY IDOCK:   -6.46 KCAL/MOL
REMARK 923 INTER-LIGAND FREE ENERGY PREDICTED BY IDOCK:   -6.42 KCAL/MOL
REMARK 924 INTRA-LIGAND FREE ENERGY PREDICTED BY IDOCK:   -0.04 KCAL/MOL
REMARK 927      BINDING AFFINITY PREDICTED BY RF-SCORE:    0.00 PKD
ROOT
HETATM    1  C   UNL     1      -7.887   7.890  72.424  1.00  0.00    -0.144 C  
HETATM    2  C   UNL     1      -9.222   8.571  72.136  1.00  0.00    -0.266 C  
ENDROOT
BRANCH   2   3
HETATM    3  N   UNL     1     -10.153   7.779  71.310  1.00  0.00    -0.179 NA 
BRANCH   3   4
HETATM    4  C   UNL     1     -11.356   7.326  72.020  1.00  0.00    -0.260 C  
HETATM    5  C   UNL     1     -11.462   5.826  72.266  1.00  0.00    -0.320 C  
ENDBRANCH   3   4
BRANCH   3   6
HETATM    6  C   UNL     1     -10.427   8.500  70.045  1.00  0.00    -0.223 C  
BRANCH   6   7
HETATM    7  C   UNL     1     -10.641  10.014  70.208  1.00  0.00    -0.295 C  
BRANCH   7   8
HETATM    8  O   UNL     1     -10.040  10.804  69.161  1.00  0.00    -0.213 OA 
BRANCH   8   9
HETATM    9  C   UNL     1     -10.854  11.081  68.109  1.00  0.00    -0.226 C  
HETATM   10  O   UNL     1     -12.028  10.746  68.052  1.00  0.00    -0.537 OA 
BRANCH   9  11
HETATM   11  C   UNL     1     -10.142  11.905  67.003  1.00  0.00    -0.226 C  
HETATM   12  C   UNL     1     -10.459  11.317  65.603  1.00  0.00    -0.317 C  
HETATM   13  C   UNL     1      -8.612  11.731  67.281  1.00  0.00    -0.162 C  
HETATM   14  C   UNL     1      -8.083  10.317  67.018  1.00  0.00    -0.121 C  
HETATM   15  C   UNL     1      -9.902   9.915  65.355  1.00  0.00    -0.384 C  
HETATM   16  C   UNL     1      -8.403   9.874  65.600  1.00  0.00    -0.140 C  
BRANCH  11  17
HETATM   17  C   UNL     1     -10.601  13.417  67.185  1.00  0.00    -0.259 C  
HETATM   18  C   UNL     1      -9.872  14.467  66.317  1.00  0.00    -0.322 C  
HETATM   19  C   UNL     1     -11.785  14.665  64.699  1.00  0.00    -0.431 C  
HETATM   20  C   UNL     1     -12.655  13.818  65.626  1.00  0.00    -0.551 C  
HETATM   21  C   UNL     1     -10.290  14.419  64.854  1.00  0.00    -0.419 C  
HETATM   22  C   UNL     1     -12.121  13.684  67.059  1.00  0.00    -0.423 C  
ENDBRANCH  11  17
ENDBRANCH   9  11
ENDBRANCH   8   9
ENDBRANCH   7   8
ENDBRANCH   6   7
ENDBRANCH   3   6
ENDBRANCH   2   3
TORSDOF 8
ENDMDL
MODEL       96
REMARK 921   NORMALIZED FREE ENERGY PREDICTED BY IDOCK:   -4.00 KCAL/MOL
REMARK 922        TOTAL FREE ENERGY PREDICTED BY IDOCK:   -6.45 KCAL/MOL
REMARK 923 INTER-LIGAND FREE ENERGY PREDICTED BY IDOCK:   -5.88 KCAL/MOL
REMARK 924 INTRA-LIGAND FREE ENERGY PREDICTED BY IDOCK:   -0.56 KCAL/MOL
REMARK 927      BINDING AFFINITY PREDICTED BY RF-SCORE:    0.00 PKD
ROOT
HETATM    1  C   UNL     1     -10.430   4.078  64.852  1.00  0.00    -0.175 C  
HETATM    2  C   UNL     1      -9.472   4.198  66.034  1.00  0.00    -0.180 C  
ENDROOT
BRANCH   2   3
HETATM    3  N   UNL     1      -9.352   5.556  66.597  1.00  0.00    -0.136 NA 
BRANCH   3   4
HETATM    4  C   UNL     1     -10.629   6.267  66.740  1.00  0.00    -0.265 C  
HETATM    5  C   UNL     1     -10.535   7.772  66.956  1.00  0.00    -0.419 C  
ENDBRANCH   3   4
BRANCH   3   6
HETATM    6  C   UNL     1      -8.539   5.507  67.835  1.00  0.00    -0.104 C  
BRANCH   6   7
HETATM    7  C   UNL     1      -9.328   5.136  69.101  1.00  0.00    -0.124 C  
BRANCH   7   8
HETATM    8  O   UNL     1      -9.109   6.034  70.209  1.00  0.00    -0.148 OA 
BRANCH   8   9
HETATM    9  C   UNL     1     -10.104   6.061  71.133  1.00  0.00    -0.194 C  
HETATM   10  O   UNL     1     -10.654   5.061  71.570  1.00  0.00    -0.190 OA 
BRANCH   9  11
HETATM   11  C   UNL     1     -10.440   7.501  71.607  1.00  0.00    -0.226 C  
HETATM   12  C   UNL     1      -9.181   8.404  71.525  1.00  0.00    -0.257 C  
HETATM   13  C   UNL     1     -10.850   7.354  73.110  1.00  0.00    -0.435 C  
HETATM   14  C   UNL     1      -9.695   6.971  74.041  1.00  0.00    -0.332 C  
HETATM   15  C   UNL     1      -8.051   8.017  72.478  1.00  0.00    -0.182 C  
HETATM   16  C   UNL     1      -8.547   7.959  73.914  1.00  0.00    -0.332 C  
BRANCH  11  17
HETATM   17  C   UNL     1     -11.656   8.010  70.717  1.00  0.00    -0.251 C  
HETATM   18  C   UNL     1     -13.066   7.877  71.335  1.00  0.00    -0.287 C  
HETATM   19  C   UNL     1     -13.195  10.320  71.914  1.00  0.00    -0.550 C  
HETATM   20  C   UNL     1     -11.917  10.575  71.116  1.00  0.00    -0.435 C  
HETATM   21  C   UNL     1     -13.327   8.895  72.437  1.00  0.00    -0.488 C  
HETATM   22  C   UNL     1     -11.528   9.446  70.152  1.00  0.00    -0.175 C  
ENDBRANCH  11  17
ENDBRANCH   9  11
ENDBRANCH   8   9
ENDBRANCH   7   8
ENDBRANCH   6   7
ENDBRANCH   3   6
ENDBRANCH   2   3
TORSDOF 8
ENDMDL
MODEL       97
REMARK 921   NORMALIZED FREE ENERGY PREDICTED BY IDOCK:   -3.99 KCAL/MOL
REMARK 922        TOTAL FREE ENERGY PREDICTED BY IDOCK:   -6.44 KCAL/MOL
REMARK 923 INTER-LIGAND FREE ENERGY PREDICTED BY IDOCK:   -5.83 KCAL/MOL
REMARK 924 INTRA-LIGAND FREE ENERGY PREDICTED BY IDOCK:   -0.60 KCAL/MOL
REMARK 927      BINDING AFFINITY PREDICTED BY RF-SCORE:    0.00 PKD
ROOT
HETATM    1  C   UNL     1      -9.911   9.261  66.498  1.00  0.00    -0.344 C  
HETATM    2  C   UNL     1     -10.542  10.559  65.999  1.00  0.00    -0.093 C  
ENDROOT
BRANCH   2   3
HETATM    3  N   UNL     1      -9.776  11.253  64.946  1.00  0.00    -0.247 NA 
BRANCH   3   4
HETATM    4  C   UNL     1      -9.025  10.359  64.055  1.00  0.00    -0.228 C  
HETATM    5  C   UNL     1      -9.058  10.712  62.573  1.00  0.00    -0.326 C  
ENDBRANCH   3   4
BRANCH   3   6
HETATM    6  C   UNL     1     -10.660  12.213  64.244  1.00  0.00    -0.345 C  
BRANCH   6   7
HETATM    7  C   UNL     1     -10.312  13.691  64.484  1.00  0.00    -0.330 C  
BRANCH   7   8
HETATM    8  O   UNL     1     -10.748  14.192  65.764  1.00  0.00    -0.285 OA 
BRANCH   8   9
HETATM    9  C   UNL     1      -9.940  15.131  66.322  1.00  0.00    -0.288 C  
HETATM   10  O   UNL     1      -9.352  15.990  65.681  1.00  0.00    -0.385 OA 
BRANCH   9  11
HETATM   11  C   UNL     1      -9.874  15.020  67.869  1.00  0.00    -0.217 C  
HETATM   12  C   UNL     1      -8.735  15.914  68.426  1.00  0.00    -0.183 C  
HETATM   13  C   UNL     1      -9.519  13.524  68.160  1.00  0.00    -0.214 C  
HETATM   14  C   UNL     1      -8.099  13.124  67.748  1.00  0.00    -0.165 C  
HETATM   15  C   UNL     1      -7.325  15.483  68.022  1.00  0.00    -0.139 C  
HETATM   16  C   UNL     1      -7.070  14.034  68.401  1.00  0.00    -0.102 C  
BRANCH  11  17
HETATM   17  C   UNL     1     -11.316  15.397  68.422  1.00  0.00    -0.345 C  
HETATM   18  C   UNL     1     -12.282  14.221  68.688  1.00  0.00    -0.205 C  
HETATM   19  C   UNL     1     -11.920  14.302  71.174  1.00  0.00    -0.354 C  
HETATM   20  C   UNL     1     -11.144  15.608  71.018  1.00  0.00    -0.365 C  
HETATM   21  C   UNL     1     -11.913  13.422  69.931  1.00  0.00    -0.408 C  
HETATM   22  C   UNL     1     -11.346  16.315  69.670  1.00  0.00    -0.266 C  
ENDBRANCH  11  17
ENDBRANCH   9  11
ENDBRANCH   8   9
ENDBRANCH   7   8
ENDBRANCH   6   7
ENDBRANCH   3   6
ENDBRANCH   2   3
TORSDOF 8
ENDMDL
MODEL       98
REMARK 921   NORMALIZED FREE ENERGY PREDICTED BY IDOCK:   -3.99 KCAL/MOL
REMARK 922        TOTAL FREE ENERGY PREDICTED BY IDOCK:   -6.44 KCAL/MOL
REMARK 923 INTER-LIGAND FREE ENERGY PREDICTED BY IDOCK:   -6.12 KCAL/MOL
REMARK 924 INTRA-LIGAND FREE ENERGY PREDICTED BY IDOCK:   -0.32 KCAL/MOL
REMARK 927      BINDING AFFINITY PREDICTED BY RF-SCORE:    0.00 PKD
ROOT
HETATM    1  C   UNL     1     -12.702  12.089  63.688  1.00  0.00    -0.550 C  
HETATM    2  C   UNL     1     -11.869  13.368  63.641  1.00  0.00    -0.398 C  
ENDROOT
BRANCH   2   3
HETATM    3  N   UNL     1     -11.444  13.876  64.959  1.00  0.00    -0.327 NA 
BRANCH   3   4
HETATM    4  C   UNL     1     -10.798  15.195  64.920  1.00  0.00    -0.418 C  
HETATM    5  C   UNL     1      -9.538  15.347  65.762  1.00  0.00    -0.368 C  
ENDBRANCH   3   4
BRANCH   3   6
HETATM    6  C   UNL     1     -12.573  13.778  65.914  1.00  0.00    -0.447 C  
BRANCH   6   7
HETATM    7  C   UNL     1     -12.207  13.153  67.270  1.00  0.00    -0.177 C  
BRANCH   7   8
HETATM    8  O   UNL     1     -12.017  11.723  67.220  1.00  0.00    -0.618 OA 
BRANCH   8   9
HETATM    9  C   UNL     1     -11.355  11.193  68.281  1.00  0.00    -0.297 C  
HETATM   10  O   UNL     1     -11.729  11.301  69.440  1.00  0.00    -0.278 OA 
BRANCH   9  11
HETATM   11  C   UNL     1     -10.090  10.398  67.859  1.00  0.00    -0.200 C  
HETATM   12  C   UNL     1     -10.454   8.918  67.569  1.00  0.00    -0.337 C  
HETATM   13  C   UNL     1      -9.142  10.442  69.104  1.00  0.00    -0.197 C  
HETATM   14  C   UNL     1      -9.645   9.634  70.304  1.00  0.00    -0.307 C  
HETATM   15  C   UNL     1     -10.931   8.125  68.786  1.00  0.00     0.144 C  
HETATM   16  C   UNL     1      -9.911   8.190  69.911  1.00  0.00    -0.190 C  
BRANCH  11  17
HETATM   17  C   UNL     1      -9.457  11.160  66.615  1.00  0.00    -0.204 C  
HETATM   18  C   UNL     1      -7.933  11.408  66.661  1.00  0.00    -0.148 C  
HETATM   19  C   UNL     1      -7.438   9.538  65.056  1.00  0.00    -0.110 C  
HETATM   20  C   UNL     1      -8.933   9.385  64.776  1.00  0.00    -0.241 C  
HETATM   21  C   UNL     1      -7.120  10.144  66.417  1.00  0.00    -0.107 C  
HETATM   22  C   UNL     1      -9.792  10.576  65.220  1.00  0.00    -0.345 C  
ENDBRANCH  11  17
ENDBRANCH   9  11
ENDBRANCH   8   9
ENDBRANCH   7   8
ENDBRANCH   6   7
ENDBRANCH   3   6
ENDBRANCH   2   3
TORSDOF 8
ENDMDL
MODEL       99
REMARK 921   NORMALIZED FREE ENERGY PREDICTED BY IDOCK:   -3.98 KCAL/MOL
REMARK 922        TOTAL FREE ENERGY PREDICTED BY IDOCK:   -6.42 KCAL/MOL
REMARK 923 INTER-LIGAND FREE ENERGY PREDICTED BY IDOCK:   -5.87 KCAL/MOL
REMARK 924 INTRA-LIGAND FREE ENERGY PREDICTED BY IDOCK:   -0.56 KCAL/MOL
REMARK 927      BINDING AFFINITY PREDICTED BY RF-SCORE:    0.00 PKD
ROOT
HETATM    1  C   UNL     1     -10.606  10.315  69.213  1.00  0.00    -0.254 C  
HETATM    2  C   UNL     1      -9.837  11.051  68.119  1.00  0.00    -0.176 C  
ENDROOT
BRANCH   2   3
HETATM    3  N   UNL     1     -10.557  12.187  67.514  1.00  0.00    -0.210 NA 
BRANCH   3   4
HETATM    4  C   UNL     1     -11.091  11.920  66.172  1.00  0.00    -0.326 C  
HETATM    5  C   UNL     1     -10.530  12.779  65.046  1.00  0.00    -0.334 C  
ENDBRANCH   3   4
BRANCH   3   6
HETATM    6  C   UNL     1     -11.558  12.706  68.477  1.00  0.00    -0.323 C  
BRANCH   6   7
HETATM    7  C   UNL     1     -12.191  14.048  68.074  1.00  0.00    -0.153 C  
BRANCH   7   8
HETATM    8  O   UNL     1     -11.235  15.034  67.632  1.00  0.00    -0.306 OA 
BRANCH   8   9
HETATM    9  C   UNL     1     -10.985  16.032  68.519  1.00  0.00    -0.326 C  
HETATM   10  O   UNL     1     -11.697  16.282  69.480  1.00  0.00    -0.250 OA 
BRANCH   9  11
HETATM   11  C   UNL     1      -9.671  16.797  68.203  1.00  0.00    -0.247 C  
HETATM   12  C   UNL     1      -9.853  18.315  68.468  1.00  0.00    -0.400 C  
HETATM   13  C   UNL     1      -9.430  16.585  66.671  1.00  0.00    -0.278 C  
HETATM   14  C   UNL     1     -10.442  17.300  65.772  1.00  0.00    -0.237 C  
HETATM   15  C   UNL     1     -10.851  19.012  67.543  1.00  0.00    -0.478 C  
HETATM   16  C   UNL     1     -10.490  18.787  66.084  1.00  0.00    -0.499 C  
BRANCH  11  17
HETATM   17  C   UNL     1      -8.523  16.125  69.075  1.00  0.00    -0.251 C  
HETATM   18  C   UNL     1      -8.245  14.628  68.813  1.00  0.00    -0.156 C  
HETATM   19  C   UNL     1      -6.177  15.102  67.467  1.00  0.00    -0.079 C  
HETATM   20  C   UNL     1      -6.249  16.572  67.876  1.00  0.00    -0.148 C  
HETATM   21  C   UNL     1      -7.519  14.382  67.498  1.00  0.00    -0.206 C  
HETATM   22  C   UNL     1      -7.158  16.858  69.079  1.00  0.00    -0.232 C  
ENDBRANCH  11  17
ENDBRANCH   9  11
ENDBRANCH   8   9
ENDBRANCH   7   8
ENDBRANCH   6   7
ENDBRANCH   3   6
ENDBRANCH   2   3
TORSDOF 8
ENDMDL
MODEL      100
REMARK 921   NORMALIZED FREE ENERGY PREDICTED BY IDOCK:   -3.97 KCAL/MOL
REMARK 922        TOTAL FREE ENERGY PREDICTED BY IDOCK:   -6.41 KCAL/MOL
REMARK 923 INTER-LIGAND FREE ENERGY PREDICTED BY IDOCK:   -6.09 KCAL/MOL
REMARK 924 INTRA-LIGAND FREE ENERGY PREDICTED BY IDOCK:   -0.33 KCAL/MOL
REMARK 927      BINDING AFFINITY PREDICTED BY RF-SCORE:    0.00 PKD
ROOT
HETATM    1  C   UNL     1      -7.477  17.399  68.085  1.00  0.00    -0.208 C  
HETATM    2  C   UNL     1      -8.285  17.764  66.842  1.00  0.00    -0.232 C  
ENDROOT
BRANCH   2   3
HETATM    3  N   UNL     1      -9.519  18.526  67.109  1.00  0.00    -0.283 NA 
BRANCH   3   4
HETATM    4  C   UNL     1      -9.542  19.870  66.518  1.00  0.00    -0.423 C  
HETATM    5  C   UNL     1     -10.485  20.066  65.338  1.00  0.00    -0.163 C  
ENDBRANCH   3   4
BRANCH   3   6
HETATM    6  C   UNL     1     -10.697  17.692  66.772  1.00  0.00    -0.129 C  
BRANCH   6   7
HETATM    7  C   UNL     1     -10.385  16.483  65.874  1.00  0.00    -0.350 C  
BRANCH   7   8
HETATM    8  O   UNL     1     -10.977  15.249  66.331  1.00  0.00    -0.320 OA 
BRANCH   8   9
HETATM    9  C   UNL     1     -10.273  14.127  66.033  1.00  0.00    -0.308 C  
HETATM   10  O   UNL     1      -9.090  14.128  65.725  1.00  0.00     0.110 OA 
BRANCH   9  11
HETATM   11  C   UNL     1     -11.122  12.834  66.167  1.00  0.00    -0.322 C  
HETATM   12  C   UNL     1     -10.549  11.715  65.258  1.00  0.00    -0.333 C  
HETATM   13  C   UNL     1     -12.545  13.221  65.641  1.00  0.00    -0.469 C  
HETATM   14  C   UNL     1     -12.605  13.492  64.135  1.00  0.00    -0.188 C  
HETATM   15  C   UNL     1     -10.641  11.997  63.759  1.00  0.00    -0.478 C  
HETATM   16  C   UNL     1     -12.071  12.304  63.349  1.00  0.00    -0.615 C  
BRANCH  11  17
HETATM   17  C   UNL     1     -11.152  12.457  67.711  1.00  0.00    -0.292 C  
HETATM   18  C   UNL     1     -11.607  11.023  68.062  1.00  0.00    -0.326 C  
HETATM   19  C   UNL     1      -9.260  10.230  68.485  1.00  0.00    -0.144 C  
HETATM   20  C   UNL     1      -8.757  11.669  68.384  1.00  0.00    -0.158 C  
HETATM   21  C   UNL     1     -10.558   9.971  67.730  1.00  0.00    -0.311 C  
HETATM   22  C   UNL     1      -9.851  12.739  68.503  1.00  0.00    -0.147 C  
ENDBRANCH  11  17
ENDBRANCH   9  11
ENDBRANCH   8   9
ENDBRANCH   7   8
ENDBRANCH   6   7
ENDBRANCH   3   6
ENDBRANCH   2   3
TORSDOF 8
ENDMDL
MODEL      101
REMARK 921   NORMALIZED FREE ENERGY PREDICTED BY IDOCK:   -3.97 KCAL/MOL
REMARK 922        TOTAL FREE ENERGY PREDICTED BY IDOCK:   -6.41 KCAL/MOL
REMARK 923 INTER-LIGAND FREE ENERGY PREDICTED BY IDOCK:   -6.09 KCAL/MOL
REMARK 924 INTRA-LIGAND FREE ENERGY PREDICTED BY IDOCK:   -0.33 KCAL/MOL
REMARK 927      BINDING AFFINITY PREDICTED BY RF-SCORE:    0.00 PKD
ROOT
HETATM    1  C   UNL     1     -10.953   5.948  69.268  1.00  0.00    -0.397 C  
HETATM    2  C   UNL     1     -10.709   7.445  69.440  1.00  0.00    -0.211 C  
ENDROOT
BRANCH   2   3
HETATM    3  N   UNL     1     -10.936   7.955  70.805  1.00  0.00    -0.247 NA 
BRANCH   3   4
HETATM    4  C   UNL     1     -10.288   7.167  71.861  1.00  0.00    -0.192 C  
HETATM    5  C   UNL     1     -10.734   7.467  73.287  1.00  0.00    -0.441 C  
ENDBRANCH   3   4
BRANCH   3   6
HETATM    6  C   UNL     1     -10.626   9.404  70.848  1.00  0.00    -0.320 C  
BRANCH   6   7
HETATM    7  C   UNL     1     -11.327  10.237  69.763  1.00  0.00    -0.273 C  
BRANCH   7   8
HETATM    8  O   UNL     1     -10.417  10.946  68.895  1.00  0.00    -0.185 OA 
BRANCH   8   9
HETATM    9  C   UNL     1     -11.002  11.593  67.853  1.00  0.00    -0.225 C  
HETATM   10  O   UNL     1     -12.143  12.032  67.879  1.00  0.00    -0.531 OA 
BRANCH   9  11
HETATM   11  C   UNL     1     -10.049  11.754  66.638  1.00  0.00    -0.231 C  
HETATM   12  C   UNL     1      -8.575  11.555  67.079  1.00  0.00    -0.161 C  
HETATM   13  C   UNL     1     -10.231  13.234  66.165  1.00  0.00    -0.296 C  
HETATM   14  C   UNL     1      -9.684  14.278  67.143  1.00  0.00    -0.254 C  
HETATM   15  C   UNL     1      -8.043  12.621  68.037  1.00  0.00    -0.161 C  
HETATM   16  C   UNL     1      -8.219  14.013  67.454  1.00  0.00    -0.203 C  
BRANCH  11  17
HETATM   17  C   UNL     1     -10.533  10.721  65.530  1.00  0.00    -0.264 C  
HETATM   18  C   UNL     1     -11.070  11.325  64.213  1.00  0.00    -0.293 C  
HETATM   19  C   UNL     1      -8.952  10.825  62.956  1.00  0.00    -0.257 C  
HETATM   20  C   UNL     1      -8.443  10.006  64.141  1.00  0.00    -0.179 C  
HETATM   21  C   UNL     1      -9.968  11.896  63.331  1.00  0.00    -0.435 C  
HETATM   22  C   UNL     1      -9.525   9.607  65.154  1.00  0.00    -0.332 C  
ENDBRANCH  11  17
ENDBRANCH   9  11
ENDBRANCH   8   9
ENDBRANCH   7   8
ENDBRANCH   6   7
ENDBRANCH   3   6
ENDBRANCH   2   3
TORSDOF 8
ENDMDL
MODEL      102
REMARK 921   NORMALIZED FREE ENERGY PREDICTED BY IDOCK:   -3.97 KCAL/MOL
REMARK 922        TOTAL FREE ENERGY PREDICTED BY IDOCK:   -6.41 KCAL/MOL
REMARK 923 INTER-LIGAND FREE ENERGY PREDICTED BY IDOCK:   -6.28 KCAL/MOL
REMARK 924 INTRA-LIGAND FREE ENERGY PREDICTED BY IDOCK:   -0.13 KCAL/MOL
REMARK 927      BINDING AFFINITY PREDICTED BY RF-SCORE:    0.00 PKD
ROOT
HETATM    1  C   UNL     1      -9.718  19.167  68.227  1.00  0.00    -0.439 C  
HETATM    2  C   UNL     1      -8.344  18.503  68.176  1.00  0.00    -0.296 C  
ENDROOT
BRANCH   2   3
HETATM    3  N   UNL     1      -7.816  18.279  66.817  1.00  0.00    -0.227 NA 
BRANCH   3   4
HETATM    4  C   UNL     1      -6.595  19.035  66.510  1.00  0.00    -0.193 C  
HETATM    5  C   UNL     1      -6.706  20.055  65.384  1.00  0.00    -0.328 C  
ENDBRANCH   3   4
BRANCH   3   6
HETATM    6  C   UNL     1      -7.713  16.823  66.561  1.00  0.00    -0.299 C  
BRANCH   6   7
HETATM    7  C   UNL     1      -8.984  16.189  65.973  1.00  0.00    -0.298 C  
BRANCH   7   8
HETATM    8  O   UNL     1      -9.849  15.593  66.962  1.00  0.00    -0.228 OA 
BRANCH   8   9
HETATM    9  C   UNL     1      -9.640  14.270  67.189  1.00  0.00    -0.245 C  
HETATM   10  O   UNL     1      -8.585  13.699  66.955  1.00  0.00    -0.209 OA 
BRANCH   9  11
HETATM   11  C   UNL     1     -10.875  13.568  67.815  1.00  0.00    -0.267 C  
HETATM   12  C   UNL     1     -10.962  12.097  67.332  1.00  0.00    -0.308 C  
HETATM   13  C   UNL     1     -12.115  14.348  67.264  1.00  0.00    -0.358 C  
HETATM   14  C   UNL     1     -12.361  14.154  65.764  1.00  0.00    -0.481 C  
HETATM   15  C   UNL     1     -11.232  11.928  65.837  1.00  0.00    -0.373 C  
HETATM   16  C   UNL     1     -12.487  12.678  65.422  1.00  0.00    -0.421 C  
BRANCH  11  17
HETATM   17  C   UNL     1     -10.743  13.720  69.393  1.00  0.00    -0.014 C  
HETATM   18  C   UNL     1     -10.389  15.128  69.922  1.00  0.00    -0.207 C  
HETATM   19  C   UNL     1     -12.751  15.609  70.633  1.00  0.00    -0.443 C  
HETATM   20  C   UNL     1     -13.130  14.155  70.353  1.00  0.00    -0.033 C  
HETATM   21  C   UNL     1     -11.554  16.104  69.833  1.00  0.00    -0.244 C  
HETATM   22  C   UNL     1     -11.939  13.196  70.227  1.00  0.00    -0.366 C  
ENDBRANCH  11  17
ENDBRANCH   9  11
ENDBRANCH   8   9
ENDBRANCH   7   8
ENDBRANCH   6   7
ENDBRANCH   3   6
ENDBRANCH   2   3
TORSDOF 8
ENDMDL
MODEL      103
REMARK 921   NORMALIZED FREE ENERGY PREDICTED BY IDOCK:   -3.96 KCAL/MOL
REMARK 922        TOTAL FREE ENERGY PREDICTED BY IDOCK:   -6.40 KCAL/MOL
REMARK 923 INTER-LIGAND FREE ENERGY PREDICTED BY IDOCK:   -5.54 KCAL/MOL
REMARK 924 INTRA-LIGAND FREE ENERGY PREDICTED BY IDOCK:   -0.86 KCAL/MOL
REMARK 927      BINDING AFFINITY PREDICTED BY RF-SCORE:    0.00 PKD
ROOT
HETATM    1  C   UNL     1     -14.408   7.511  71.363  1.00  0.00    -0.540 C  
HETATM    2  C   UNL     1     -12.920   7.175  71.433  1.00  0.00    -0.368 C  
ENDROOT
BRANCH   2   3
HETATM    3  N   UNL     1     -12.130   8.050  72.318  1.00  0.00    -0.342 NA 
BRANCH   3   4
HETATM    4  C   UNL     1     -10.991   7.387  72.966  1.00  0.00    -0.374 C  
HETATM    5  C   UNL     1     -10.801   5.912  72.637  1.00  0.00    -0.290 C  
ENDBRANCH   3   4
BRANCH   3   6
HETATM    6  C   UNL     1     -11.781   9.297  71.597  1.00  0.00    -0.392 C  
BRANCH   6   7
HETATM    7  C   UNL     1     -10.290   9.432  71.245  1.00  0.00    -0.292 C  
BRANCH   7   8
HETATM    8  O   UNL     1     -10.049   9.855  69.887  1.00  0.00    -0.230 OA 
BRANCH   8   9
HETATM    9  C   UNL     1      -9.015   9.231  69.264  1.00  0.00    -0.147 C  
HETATM   10  O   UNL     1      -7.851   9.318  69.626  1.00  0.00    -0.077 OA 
BRANCH   9  11
HETATM   11  C   UNL     1      -9.478   8.359  68.065  1.00  0.00    -0.157 C  
HETATM   12  C   UNL     1      -8.299   8.121  67.085  1.00  0.00    -0.120 C  
HETATM   13  C   UNL     1     -10.568   9.212  67.334  1.00  0.00    -0.315 C  
HETATM   14  C   UNL     1     -10.023  10.460  66.634  1.00  0.00    -0.262 C  
HETATM   15  C   UNL     1      -7.787   9.377  66.380  1.00  0.00    -0.100 C  
HETATM   16  C   UNL     1      -8.916  10.094  65.658  1.00  0.00    -0.199 C  
BRANCH  11  17
HETATM   17  C   UNL     1     -10.089   7.023  68.673  1.00  0.00    -0.168 C  
HETATM   18  C   UNL     1     -11.156   6.302  67.818  1.00  0.00    -0.361 C  
HETATM   19  C   UNL     1      -9.540   4.545  67.031  1.00  0.00    -0.210 C  
HETATM   20  C   UNL     1      -8.501   5.055  68.028  1.00  0.00    -0.103 C  
HETATM   21  C   UNL     1     -10.563   5.591  66.609  1.00  0.00    -0.365 C  
HETATM   22  C   UNL     1      -9.065   5.957  69.135  1.00  0.00    -0.125 C  
ENDBRANCH  11  17
ENDBRANCH   9  11
ENDBRANCH   8   9
ENDBRANCH   7   8
ENDBRANCH   6   7
ENDBRANCH   3   6
ENDBRANCH   2   3
TORSDOF 8
ENDMDL
MODEL      104
REMARK 921   NORMALIZED FREE ENERGY PREDICTED BY IDOCK:   -3.93 KCAL/MOL
REMARK 922        TOTAL FREE ENERGY PREDICTED BY IDOCK:   -6.34 KCAL/MOL
REMARK 923 INTER-LIGAND FREE ENERGY PREDICTED BY IDOCK:   -5.52 KCAL/MOL
REMARK 924 INTRA-LIGAND FREE ENERGY PREDICTED BY IDOCK:   -0.83 KCAL/MOL
REMARK 927      BINDING AFFINITY PREDICTED BY RF-SCORE:    0.00 PKD
ROOT
HETATM    1  C   UNL     1     -12.851  10.586  70.878  1.00  0.00    -0.485 C  
HETATM    2  C   UNL     1     -11.666  11.149  70.097  1.00  0.00    -0.353 C  
ENDROOT
BRANCH   2   3
HETATM    3  N   UNL     1     -11.907  11.331  68.654  1.00  0.00    -0.469 NA 
BRANCH   3   4
HETATM    4  C   UNL     1     -11.854  12.727  68.202  1.00  0.00    -0.324 C  
HETATM    5  C   UNL     1     -10.859  13.626  68.925  1.00  0.00    -0.264 C  
ENDBRANCH   3   4
BRANCH   3   6
HETATM    6  C   UNL     1     -11.037  10.409  67.887  1.00  0.00    -0.299 C  
BRANCH   6   7
HETATM    7  C   UNL     1      -9.826   9.877  68.672  1.00  0.00    -0.158 C  
BRANCH   7   8
HETATM    8  O   UNL     1      -9.864   8.454  68.909  1.00  0.00    -0.171 OA 
BRANCH   8   9
HETATM    9  C   UNL     1      -9.326   8.053  70.089  1.00  0.00    -0.156 C  
HETATM   10  O   UNL     1      -8.653   8.775  70.811  1.00  0.00    -0.150 OA 
BRANCH   9  11
HETATM   11  C   UNL     1      -9.690   6.586  70.444  1.00  0.00    -0.186 C  
HETATM   12  C   UNL     1     -11.053   6.200  69.811  1.00  0.00    -0.486 C  
HETATM   13  C   UNL     1      -9.843   6.566  72.002  1.00  0.00    -0.169 C  
HETATM   14  C   UNL     1     -11.061   7.335  72.523  1.00  0.00    -0.334 C  
HETATM   15  C   UNL     1     -12.256   6.964  70.362  1.00  0.00    -0.175 C  
HETATM   16  C   UNL     1     -12.339   6.830  71.874  1.00  0.00    -0.369 C  
BRANCH  11  17
HETATM   17  C   UNL     1      -8.477   5.677  69.964  1.00  0.00    -0.122 C  
HETATM   18  C   UNL     1      -8.257   4.356  70.735  1.00  0.00    -0.077 C  
HETATM   19  C   UNL     1      -9.293   2.961  68.919  1.00  0.00    -0.226 C  
HETATM   20  C   UNL     1      -9.330   4.183  68.002  1.00  0.00    -0.213 C  
HETATM   21  C   UNL     1      -9.301   3.298  70.404  1.00  0.00    -0.237 C  
HETATM   22  C   UNL     1      -8.435   5.346  68.451  1.00  0.00    -0.096 C  
ENDBRANCH  11  17
ENDBRANCH   9  11
ENDBRANCH   8   9
ENDBRANCH   7   8
ENDBRANCH   6   7
ENDBRANCH   3   6
ENDBRANCH   2   3
TORSDOF 8
ENDMDL
MODEL      105
REMARK 921   NORMALIZED FREE ENERGY PREDICTED BY IDOCK:   -3.91 KCAL/MOL
REMARK 922        TOTAL FREE ENERGY PREDICTED BY IDOCK:   -6.33 KCAL/MOL
REMARK 923 INTER-LIGAND FREE ENERGY PREDICTED BY IDOCK:   -5.93 KCAL/MOL
REMARK 924 INTRA-LIGAND FREE ENERGY PREDICTED BY IDOCK:   -0.40 KCAL/MOL
REMARK 927      BINDING AFFINITY PREDICTED BY RF-SCORE:    0.00 PKD
ROOT
HETATM    1  C   UNL     1     -10.785  19.463  67.351  1.00  0.00    -0.594 C  
HETATM    2  C   UNL     1      -9.493  19.495  66.539  1.00  0.00    -0.375 C  
ENDROOT
BRANCH   2   3
HETATM    3  N   UNL     1      -9.052  18.184  66.028  1.00  0.00    -0.521 NA 
BRANCH   3   4
HETATM    4  C   UNL     1      -7.720  17.770  66.490  1.00  0.00    -0.263 C  
HETATM    5  C   UNL     1      -7.270  18.341  67.829  1.00  0.00    -0.215 C  
ENDBRANCH   3   4
BRANCH   3   6
HETATM    6  C   UNL     1     -10.117  17.179  66.260  1.00  0.00    -0.320 C  
BRANCH   6   7
HETATM    7  C   UNL     1      -9.838  15.802  65.636  1.00  0.00    -0.322 C  
BRANCH   7   8
HETATM    8  O   UNL     1     -10.698  14.754  66.132  1.00  0.00    -0.298 OA 
BRANCH   8   9
HETATM    9  C   UNL     1     -10.075  13.577  66.401  1.00  0.00    -0.294 C  
HETATM   10  O   UNL     1      -9.444  12.936  65.573  1.00  0.00    -0.044 OA 
BRANCH   9  11
HETATM   11  C   UNL     1     -10.216  13.153  67.888  1.00  0.00    -0.233 C  
HETATM   12  C   UNL     1      -9.466  14.151  68.808  1.00  0.00    -0.102 C  
HETATM   13  C   UNL     1      -9.511  11.759  67.987  1.00  0.00    -0.188 C  
HETATM   14  C   UNL     1      -7.991  11.811  67.810  1.00  0.00    -0.141 C  
HETATM   15  C   UNL     1      -7.948  14.170  68.631  1.00  0.00    -0.132 C  
HETATM   16  C   UNL     1      -7.363  12.777  68.803  1.00  0.00    -0.067 C  
BRANCH  11  17
HETATM   17  C   UNL     1     -11.773  13.043  68.192  1.00  0.00    -0.391 C  
HETATM   18  C   UNL     1     -12.280  11.680  68.715  1.00  0.00    -0.048 C  
HETATM   19  C   UNL     1     -12.440  12.490  71.089  1.00  0.00    -0.322 C  
HETATM   20  C   UNL     1     -12.174  13.920  70.618  1.00  0.00    -0.443 C  
HETATM   21  C   UNL     1     -11.884  11.417  70.161  1.00  0.00    -0.440 C  
HETATM   22  C   UNL     1     -12.363  14.142  69.111  1.00  0.00    -0.173 C  
ENDBRANCH  11  17
ENDBRANCH   9  11
ENDBRANCH   8   9
ENDBRANCH   7   8
ENDBRANCH   6   7
ENDBRANCH   3   6
ENDBRANCH   2   3
TORSDOF 8
ENDMDL
MODEL      106
REMARK 921   NORMALIZED FREE ENERGY PREDICTED BY IDOCK:   -3.91 KCAL/MOL
REMARK 922        TOTAL FREE ENERGY PREDICTED BY IDOCK:   -6.32 KCAL/MOL
REMARK 923 INTER-LIGAND FREE ENERGY PREDICTED BY IDOCK:   -5.77 KCAL/MOL
REMARK 924 INTRA-LIGAND FREE ENERGY PREDICTED BY IDOCK:   -0.55 KCAL/MOL
REMARK 927      BINDING AFFINITY PREDICTED BY RF-SCORE:    0.00 PKD
ROOT
HETATM    1  C   UNL     1     -14.135  15.372  72.331  1.00  0.00    -0.645 C  
HETATM    2  C   UNL     1     -12.881  14.517  72.162  1.00  0.00    -0.339 C  
ENDROOT
BRANCH   2   3
HETATM    3  N   UNL     1     -12.980  13.474  71.124  1.00  0.00    -0.296 NA 
BRANCH   3   4
HETATM    4  C   UNL     1     -11.966  13.575  70.066  1.00  0.00    -0.340 C  
HETATM    5  C   UNL     1     -10.974  14.724  70.197  1.00  0.00    -0.161 C  
ENDBRANCH   3   4
BRANCH   3   6
HETATM    6  C   UNL     1     -13.059  12.142  71.768  1.00  0.00    -0.352 C  
BRANCH   6   7
HETATM    7  C   UNL     1     -12.786  10.961  70.823  1.00  0.00    -0.289 C  
BRANCH   7   8
HETATM    8  O   UNL     1     -11.522  10.307  71.056  1.00  0.00    -0.350 OA 
BRANCH   8   9
HETATM    9  C   UNL     1     -11.541   8.954  70.933  1.00  0.00    -0.283 C  
HETATM   10  O   UNL     1     -12.528   8.266  71.150  1.00  0.00    -0.275 OA 
BRANCH   9  11
HETATM   11  C   UNL     1     -10.184   8.378  70.447  1.00  0.00    -0.212 C  
HETATM   12  C   UNL     1     -10.203   6.828  70.507  1.00  0.00    -0.212 C  
HETATM   13  C   UNL     1      -9.124   8.902  71.472  1.00  0.00    -0.299 C  
HETATM   14  C   UNL     1      -9.249   8.293  72.872  1.00  0.00    -0.329 C  
HETATM   15  C   UNL     1     -10.305   6.242  71.915  1.00  0.00    -0.234 C  
HETATM   16  C   UNL     1      -9.197   6.775  72.808  1.00  0.00    -0.149 C  
BRANCH  11  17
HETATM   17  C   UNL     1      -9.928   8.963  68.991  1.00  0.00    -0.195 C  
HETATM   18  C   UNL     1      -8.457   9.024  68.521  1.00  0.00    -0.128 C  
HETATM   19  C   UNL     1      -8.693   6.993  67.059  1.00  0.00    -0.123 C  
HETATM   20  C   UNL     1     -10.204   7.004  67.288  1.00  0.00    -0.301 C  
HETATM   21  C   UNL     1      -7.891   7.654  68.172  1.00  0.00    -0.121 C  
HETATM   22  C   UNL     1     -10.755   8.322  67.848  1.00  0.00    -0.138 C  
ENDBRANCH  11  17
ENDBRANCH   9  11
ENDBRANCH   8   9
ENDBRANCH   7   8
ENDBRANCH   6   7
ENDBRANCH   3   6
ENDBRANCH   2   3
TORSDOF 8
ENDMDL
MODEL      107
REMARK 921   NORMALIZED FREE ENERGY PREDICTED BY IDOCK:   -3.90 KCAL/MOL
REMARK 922        TOTAL FREE ENERGY PREDICTED BY IDOCK:   -6.30 KCAL/MOL
REMARK 923 INTER-LIGAND FREE ENERGY PREDICTED BY IDOCK:   -5.88 KCAL/MOL
REMARK 924 INTRA-LIGAND FREE ENERGY PREDICTED BY IDOCK:   -0.43 KCAL/MOL
REMARK 927      BINDING AFFINITY PREDICTED BY RF-SCORE:    0.00 PKD
ROOT
HETATM    1  C   UNL     1      -7.400  17.531  68.646  1.00  0.00    -0.256 C  
HETATM    2  C   UNL     1      -8.394  17.918  67.554  1.00  0.00    -0.228 C  
ENDROOT
BRANCH   2   3
HETATM    3  N   UNL     1      -9.807  17.908  67.973  1.00  0.00    -0.305 NA 
BRANCH   3   4
HETATM    4  C   UNL     1     -10.455  19.226  67.949  1.00  0.00    -0.410 C  
HETATM    5  C   UNL     1      -9.963  20.194  66.881  1.00  0.00    -0.600 C  
ENDBRANCH   3   4
BRANCH   3   6
HETATM    6  C   UNL     1     -10.537  16.857  67.225  1.00  0.00    -0.270 C  
BRANCH   6   7
HETATM    7  C   UNL     1      -9.801  16.336  65.979  1.00  0.00    -0.343 C  
BRANCH   7   8
HETATM    8  O   UNL     1     -10.018  14.933  65.719  1.00  0.00    -0.305 OA 
BRANCH   8   9
HETATM    9  C   UNL     1      -9.260  14.086  66.464  1.00  0.00    -0.218 C  
HETATM   10  O   UNL     1      -8.166  14.378  66.923  1.00  0.00    -0.161 OA 
BRANCH   9  11
HETATM   11  C   UNL     1      -9.954  12.718  66.703  1.00  0.00    -0.246 C  
HETATM   12  C   UNL     1     -11.428  12.769  66.222  1.00  0.00    -0.405 C  
HETATM   13  C   UNL     1      -9.945  12.518  68.256  1.00  0.00    -0.229 C  
HETATM   14  C   UNL     1     -10.860  13.481  69.018  1.00  0.00    -0.227 C  
HETATM   15  C   UNL     1     -12.328  13.719  67.012  1.00  0.00    -0.289 C  
HETATM   16  C   UNL     1     -12.286  13.400  68.497  1.00  0.00    -0.132 C  
BRANCH  11  17
HETATM   17  C   UNL     1      -9.075  11.617  65.966  1.00  0.00    -0.188 C  
HETATM   18  C   UNL     1      -7.909  11.009  66.778  1.00  0.00    -0.149 C  
HETATM   19  C   UNL     1      -9.165   8.884  67.256  1.00  0.00    -0.164 C  
HETATM   20  C   UNL     1     -10.259   9.312  66.279  1.00  0.00    -0.273 C  
HETATM   21  C   UNL     1      -8.381  10.043  67.857  1.00  0.00    -0.117 C  
HETATM   22  C   UNL     1      -9.856  10.444  65.323  1.00  0.00    -0.361 C  
ENDBRANCH  11  17
ENDBRANCH   9  11
ENDBRANCH   8   9
ENDBRANCH   7   8
ENDBRANCH   6   7
ENDBRANCH   3   6
ENDBRANCH   2   3
TORSDOF 8
ENDMDL
MODEL      108
REMARK 921   NORMALIZED FREE ENERGY PREDICTED BY IDOCK:   -3.88 KCAL/MOL
REMARK 922        TOTAL FREE ENERGY PREDICTED BY IDOCK:   -6.28 KCAL/MOL
REMARK 923 INTER-LIGAND FREE ENERGY PREDICTED BY IDOCK:   -5.79 KCAL/MOL
REMARK 924 INTRA-LIGAND FREE ENERGY PREDICTED BY IDOCK:   -0.49 KCAL/MOL
REMARK 927      BINDING AFFINITY PREDICTED BY RF-SCORE:    0.00 PKD
ROOT
HETATM    1  C   UNL     1     -12.389  14.452  71.026  1.00  0.00    -0.427 C  
HETATM    2  C   UNL     1     -12.035  13.516  69.874  1.00  0.00    -0.348 C  
ENDROOT
BRANCH   2   3
HETATM    3  N   UNL     1     -11.977  12.087  70.234  1.00  0.00    -0.345 NA 
BRANCH   3   4
HETATM    4  C   UNL     1     -12.881  11.700  71.325  1.00  0.00    -0.328 C  
HETATM    5  C   UNL     1     -13.182  10.211  71.447  1.00  0.00    -0.474 C  
ENDBRANCH   3   4
BRANCH   3   6
HETATM    6  C   UNL     1     -12.111  11.263  69.010  1.00  0.00    -0.257 C  
BRANCH   6   7
HETATM    7  C   UNL     1     -10.829  10.519  68.600  1.00  0.00    -0.237 C  
BRANCH   7   8
HETATM    8  O   UNL     1     -10.705   9.206  69.185  1.00  0.00    -0.225 OA 
BRANCH   8   9
HETATM    9  C   UNL     1      -9.441   8.708  69.219  1.00  0.00    -0.158 C  
HETATM   10  O   UNL     1      -8.500   9.199  68.613  1.00  0.00    -0.124 OA 
BRANCH   9  11
HETATM   11  C   UNL     1      -9.312   7.468  70.144  1.00  0.00    -0.157 C  
HETATM   12  C   UNL     1      -8.258   6.480  69.578  1.00  0.00    -0.126 C  
HETATM   13  C   UNL     1     -10.715   6.776  70.103  1.00  0.00    -0.274 C  
HETATM   14  C   UNL     1     -11.060   6.136  68.754  1.00  0.00    -0.398 C  
HETATM   15  C   UNL     1      -8.634   5.837  68.244  1.00  0.00    -0.112 C  
HETATM   16  C   UNL     1      -9.985   5.147  68.333  1.00  0.00    -0.214 C  
BRANCH  11  17
HETATM   17  C   UNL     1      -8.970   8.010  71.600  1.00  0.00    -0.192 C  
HETATM   18  C   UNL     1     -10.152   8.570  72.422  1.00  0.00    -0.365 C  
HETATM   19  C   UNL     1     -10.328   6.502  73.840  1.00  0.00    -0.356 C  
HETATM   20  C   UNL     1      -9.025   5.979  73.238  1.00  0.00    -0.130 C  
HETATM   21  C   UNL     1     -11.078   7.480  72.945  1.00  0.00    -0.426 C  
HETATM   22  C   UNL     1      -8.183   7.040  72.516  1.00  0.00    -0.116 C  
ENDBRANCH  11  17
ENDBRANCH   9  11
ENDBRANCH   8   9
ENDBRANCH   7   8
ENDBRANCH   6   7
ENDBRANCH   3   6
ENDBRANCH   2   3
TORSDOF 8
ENDMDL
MODEL      109
REMARK 921   NORMALIZED FREE ENERGY PREDICTED BY IDOCK:   -3.88 KCAL/MOL
REMARK 922        TOTAL FREE ENERGY PREDICTED BY IDOCK:   -6.28 KCAL/MOL
REMARK 923 INTER-LIGAND FREE ENERGY PREDICTED BY IDOCK:   -5.60 KCAL/MOL
REMARK 924 INTRA-LIGAND FREE ENERGY PREDICTED BY IDOCK:   -0.68 KCAL/MOL
REMARK 927      BINDING AFFINITY PREDICTED BY RF-SCORE:    0.00 PKD
ROOT
HETATM    1  C   UNL     1     -11.931  12.993  69.713  1.00  0.00    -0.377 C  
HETATM    2  C   UNL     1     -11.814  13.850  68.455  1.00  0.00    -0.366 C  
ENDROOT
BRANCH   2   3
HETATM    3  N   UNL     1     -11.592  13.091  67.210  1.00  0.00    -0.335 NA 
BRANCH   3   4
HETATM    4  C   UNL     1     -12.416  13.532  66.077  1.00  0.00    -0.399 C  
HETATM    5  C   UNL     1     -12.340  12.673  64.821  1.00  0.00    -0.556 C  
ENDBRANCH   3   4
BRANCH   3   6
HETATM    6  C   UNL     1     -10.140  13.031  66.921  1.00  0.00    -0.243 C  
BRANCH   6   7
HETATM    7  C   UNL     1      -9.529  11.623  67.022  1.00  0.00    -0.182 C  
BRANCH   7   8
HETATM    8  O   UNL     1     -10.155  10.786  68.016  1.00  0.00    -0.169 OA 
BRANCH   8   9
HETATM    9  C   UNL     1     -10.072   9.451  67.781  1.00  0.00    -0.198 C  
HETATM   10  O   UNL     1     -10.206   8.946  66.676  1.00  0.00    -0.275 OA 
BRANCH   9  11
HETATM   11  C   UNL     1      -9.746   8.637  69.062  1.00  0.00    -0.173 C  
HETATM   12  C   UNL     1      -8.888   9.486  70.037  1.00  0.00    -0.246 C  
HETATM   13  C   UNL     1      -8.888   7.424  68.572  1.00  0.00    -0.126 C  
HETATM   14  C   UNL     1      -7.492   7.804  68.069  1.00  0.00    -0.108 C  
HETATM   15  C   UNL     1      -7.491   9.834  69.524  1.00  0.00    -0.101 C  
HETATM   16  C   UNL     1      -6.728   8.580  69.130  1.00  0.00    -0.047 C  
BRANCH  11  17
HETATM   17  C   UNL     1     -11.135   8.162  69.674  1.00  0.00    -0.015 C  
HETATM   18  C   UNL     1     -11.210   6.697  70.159  1.00  0.00    -0.416 C  
HETATM   19  C   UNL     1     -10.998   7.339  72.580  1.00  0.00    -0.322 C  
HETATM   20  C   UNL     1     -11.155   8.811  72.202  1.00  0.00    -0.406 C  
HETATM   21  C   UNL     1     -10.452   6.465  71.459  1.00  0.00    -0.256 C  
HETATM   22  C   UNL     1     -11.722   9.054  70.796  1.00  0.00    -0.286 C  
ENDBRANCH  11  17
ENDBRANCH   9  11
ENDBRANCH   8   9
ENDBRANCH   7   8
ENDBRANCH   6   7
ENDBRANCH   3   6
ENDBRANCH   2   3
TORSDOF 8
ENDMDL
MODEL      110
REMARK 921   NORMALIZED FREE ENERGY PREDICTED BY IDOCK:   -3.87 KCAL/MOL
REMARK 922        TOTAL FREE ENERGY PREDICTED BY IDOCK:   -6.27 KCAL/MOL
REMARK 923 INTER-LIGAND FREE ENERGY PREDICTED BY IDOCK:   -5.62 KCAL/MOL
REMARK 924 INTRA-LIGAND FREE ENERGY PREDICTED BY IDOCK:   -0.65 KCAL/MOL
REMARK 927      BINDING AFFINITY PREDICTED BY RF-SCORE:    0.00 PKD
ROOT
HETATM    1  C   UNL     1      -7.259  17.297  68.775  1.00  0.00    -0.245 C  
HETATM    2  C   UNL     1      -7.616  17.829  67.390  1.00  0.00    -0.200 C  
ENDROOT
BRANCH   2   3
HETATM    3  N   UNL     1      -8.857  18.624  67.334  1.00  0.00    -0.271 NA 
BRANCH   3   4
HETATM    4  C   UNL     1      -8.683  19.982  66.803  1.00  0.00    -0.333 C  
HETATM    5  C   UNL     1      -7.503  20.771  67.358  1.00  0.00    -0.374 C  
ENDBRANCH   3   4
BRANCH   3   6
HETATM    6  C   UNL     1      -9.918  17.838  66.662  1.00  0.00    -0.338 C  
BRANCH   6   7
HETATM    7  C   UNL     1      -9.413  16.586  65.927  1.00  0.00    -0.219 C  
BRANCH   7   8
HETATM    8  O   UNL     1     -10.271  15.436  66.076  1.00  0.00    -0.284 OA 
BRANCH   8   9
HETATM    9  C   UNL     1      -9.884  14.548  67.030  1.00  0.00    -0.249 C  
HETATM   10  O   UNL     1      -8.718  14.268  67.265  1.00  0.00    -0.195 OA 
BRANCH   9  11
HETATM   11  C   UNL     1     -11.084  13.958  67.818  1.00  0.00    -0.281 C  
HETATM   12  C   UNL     1     -10.611  12.793  68.728  1.00  0.00    -0.216 C  
HETATM   13  C   UNL     1     -12.047  13.378  66.729  1.00  0.00    -0.419 C  
HETATM   14  C   UNL     1     -11.501  12.145  66.001  1.00  0.00    -0.427 C  
HETATM   15  C   UNL     1     -10.093  11.565  67.980  1.00  0.00    -0.197 C  
HETATM   16  C   UNL     1     -11.127  11.054  66.991  1.00  0.00    -0.311 C  
BRANCH  11  17
HETATM   17  C   UNL     1     -11.755  15.161  68.611  1.00  0.00    -0.364 C  
HETATM   18  C   UNL     1     -12.897  14.794  69.585  1.00  0.00     0.171 C  
HETATM   19  C   UNL     1     -11.427  15.011  71.613  1.00  0.00    -0.377 C  
HETATM   20  C   UNL     1     -10.320  15.608  70.745  1.00  0.00     0.254 C  
HETATM   21  C   UNL     1     -12.397  14.116  70.854  1.00  0.00    -0.438 C  
HETATM   22  C   UNL     1     -10.783  16.101  69.367  1.00  0.00    -0.307 C  
ENDBRANCH  11  17
ENDBRANCH   9  11
ENDBRANCH   8   9
ENDBRANCH   7   8
ENDBRANCH   6   7
ENDBRANCH   3   6
ENDBRANCH   2   3
TORSDOF 8
ENDMDL
MODEL      111
REMARK 921   NORMALIZED FREE ENERGY PREDICTED BY IDOCK:   -3.87 KCAL/MOL
REMARK 922        TOTAL FREE ENERGY PREDICTED BY IDOCK:   -6.26 KCAL/MOL
REMARK 923 INTER-LIGAND FREE ENERGY PREDICTED BY IDOCK:   -5.29 KCAL/MOL
REMARK 924 INTRA-LIGAND FREE ENERGY PREDICTED BY IDOCK:   -0.97 KCAL/MOL
REMARK 927      BINDING AFFINITY PREDICTED BY RF-SCORE:    0.00 PKD
ROOT
HETATM    1  C   UNL     1     -10.727  11.181  64.157  1.00  0.00    -0.415 C  
HETATM    2  C   UNL     1      -9.295  10.891  64.599  1.00  0.00    -0.223 C  
ENDROOT
BRANCH   2   3
HETATM    3  N   UNL     1      -9.114   9.610  65.307  1.00  0.00    -0.202 NA 
BRANCH   3   4
HETATM    4  C   UNL     1      -8.473   8.560  64.505  1.00  0.00    -0.090 C  
HETATM    5  C   UNL     1      -7.512   7.643  65.250  1.00  0.00    -0.083 C  
ENDBRANCH   3   4
BRANCH   3   6
HETATM    6  C   UNL     1      -8.468   9.857  66.618  1.00  0.00    -0.125 C  
BRANCH   6   7
HETATM    7  C   UNL     1      -9.445  10.193  67.756  1.00  0.00    -0.144 C  
BRANCH   7   8
HETATM    8  O   UNL     1      -9.608  11.608  67.985  1.00  0.00    -0.172 OA 
BRANCH   8   9
HETATM    9  C   UNL     1     -10.874  12.075  67.828  1.00  0.00    -0.215 C  
HETATM   10  O   UNL     1     -11.818  11.379  67.482  1.00  0.00    -0.614 OA 
BRANCH   9  11
HETATM   11  C   UNL     1     -11.002  13.583  68.174  1.00  0.00    -0.275 C  
HETATM   12  C   UNL     1     -12.304  14.168  67.566  1.00  0.00    -0.106 C  
HETATM   13  C   UNL     1      -9.778  14.270  67.481  1.00  0.00    -0.223 C  
HETATM   14  C   UNL     1      -9.849  14.284  65.952  1.00  0.00    -0.322 C  
HETATM   15  C   UNL     1     -12.343  14.193  66.038  1.00  0.00    -0.470 C  
HETATM   16  C   UNL     1     -11.139  14.931  65.475  1.00  0.00    -0.353 C  
BRANCH  11  17
HETATM   17  C   UNL     1     -10.921  13.703  69.758  1.00  0.00     0.112 C  
HETATM   18  C   UNL     1     -10.617  15.106  70.328  1.00  0.00    -0.195 C  
HETATM   19  C   UNL     1     -13.010  15.517  70.976  1.00  0.00    -0.550 C  
HETATM   20  C   UNL     1     -13.346  14.062  70.653  1.00  0.00     0.024 C  
HETATM   21  C   UNL     1     -11.801  16.058  70.224  1.00  0.00    -0.268 C  
HETATM   22  C   UNL     1     -12.129  13.134  70.543  1.00  0.00    -0.385 C  
ENDBRANCH  11  17
ENDBRANCH   9  11
ENDBRANCH   8   9
ENDBRANCH   7   8
ENDBRANCH   6   7
ENDBRANCH   3   6
ENDBRANCH   2   3
TORSDOF 8
ENDMDL
MODEL      112
REMARK 921   NORMALIZED FREE ENERGY PREDICTED BY IDOCK:   -3.86 KCAL/MOL
REMARK 922        TOTAL FREE ENERGY PREDICTED BY IDOCK:   -6.25 KCAL/MOL
REMARK 923 INTER-LIGAND FREE ENERGY PREDICTED BY IDOCK:   -5.72 KCAL/MOL
REMARK 924 INTRA-LIGAND FREE ENERGY PREDICTED BY IDOCK:   -0.53 KCAL/MOL
REMARK 927      BINDING AFFINITY PREDICTED BY RF-SCORE:    0.00 PKD
ROOT
HETATM    1  C   UNL     1     -11.653  15.692  69.034  1.00  0.00    -0.396 C  
HETATM    2  C   UNL     1     -12.067  14.257  68.716  1.00  0.00    -0.265 C  
ENDROOT
BRANCH   2   3
HETATM    3  N   UNL     1     -11.983  13.891  67.290  1.00  0.00    -0.408 NA 
BRANCH   3   4
HETATM    4  C   UNL     1     -11.037  14.701  66.512  1.00  0.00    -0.329 C  
HETATM    5  C   UNL     1     -11.013  14.441  65.010  1.00  0.00    -0.398 C  
ENDBRANCH   3   4
BRANCH   3   6
HETATM    6  C   UNL     1     -11.779  12.428  67.167  1.00  0.00    -0.345 C  
BRANCH   6   7
HETATM    7  C   UNL     1     -11.659  11.687  68.509  1.00  0.00    -0.317 C  
BRANCH   7   8
HETATM    8  O   UNL     1     -11.262  10.306  68.379  1.00  0.00    -0.265 OA 
BRANCH   8   9
HETATM    9  C   UNL     1     -10.829   9.720  69.526  1.00  0.00    -0.240 C  
HETATM   10  O   UNL     1     -11.081  10.146  70.644  1.00  0.00    -0.307 OA 
BRANCH   9  11
HETATM   11  C   UNL     1     -10.013   8.426  69.265  1.00  0.00    -0.195 C  
HETATM   12  C   UNL     1      -9.040   8.155  70.443  1.00  0.00    -0.150 C  
HETATM   13  C   UNL     1      -9.169   8.723  67.982  1.00  0.00    -0.147 C  
HETATM   14  C   UNL     1      -8.064   9.765  68.185  1.00  0.00    -0.108 C  
HETATM   15  C   UNL     1      -7.933   9.194  70.612  1.00  0.00    -0.177 C  
HETATM   16  C   UNL     1      -7.143   9.362  69.325  1.00  0.00    -0.058 C  
BRANCH  11  17
HETATM   17  C   UNL     1     -11.064   7.258  69.017  1.00  0.00     0.006 C  
HETATM   18  C   UNL     1     -10.800   6.340  67.802  1.00  0.00    -0.424 C  
HETATM   19  C   UNL     1      -9.904   4.475  69.228  1.00  0.00    -0.241 C  
HETATM   20  C   UNL     1     -10.351   5.221  70.484  1.00  0.00    -0.336 C  
HETATM   21  C   UNL     1      -9.643   5.377  68.029  1.00  0.00    -0.153 C  
HETATM   22  C   UNL     1     -11.364   6.346  70.232  1.00  0.00    -0.468 C  
ENDBRANCH  11  17
ENDBRANCH   9  11
ENDBRANCH   8   9
ENDBRANCH   7   8
ENDBRANCH   6   7
ENDBRANCH   3   6
ENDBRANCH   2   3
TORSDOF 8
ENDMDL
MODEL      113
REMARK 921   NORMALIZED FREE ENERGY PREDICTED BY IDOCK:   -3.85 KCAL/MOL
REMARK 922        TOTAL FREE ENERGY PREDICTED BY IDOCK:   -6.24 KCAL/MOL
REMARK 923 INTER-LIGAND FREE ENERGY PREDICTED BY IDOCK:   -6.04 KCAL/MOL
REMARK 924 INTRA-LIGAND FREE ENERGY PREDICTED BY IDOCK:   -0.20 KCAL/MOL
REMARK 927      BINDING AFFINITY PREDICTED BY RF-SCORE:    0.00 PKD
ROOT
HETATM    1  C   UNL     1      -9.990  17.392  68.233  1.00  0.00    -0.320 C  
HETATM    2  C   UNL     1     -10.928  16.328  68.795  1.00  0.00    -0.343 C  
ENDROOT
BRANCH   2   3
HETATM    3  N   UNL     1     -11.501  15.415  67.788  1.00  0.00    -0.316 NA 
BRANCH   3   4
HETATM    4  C   UNL     1     -10.716  15.307  66.552  1.00  0.00    -0.311 C  
HETATM    5  C   UNL     1     -11.515  15.125  65.267  1.00  0.00    -0.266 C  
ENDBRANCH   3   4
BRANCH   3   6
HETATM    6  C   UNL     1     -11.819  14.115  68.424  1.00  0.00    -0.353 C  
BRANCH   6   7
HETATM    7  C   UNL     1     -10.615  13.171  68.577  1.00  0.00    -0.259 C  
BRANCH   7   8
HETATM    8  O   UNL     1     -10.868  12.037  69.433  1.00  0.00    -0.140 OA 
BRANCH   8   9
HETATM    9  C   UNL     1     -11.053  10.857  68.787  1.00  0.00    -0.256 C  
HETATM   10  O   UNL     1     -11.871  10.691  67.894  1.00  0.00    -0.485 OA 
BRANCH   9  11
HETATM   11  C   UNL     1     -10.082   9.748  69.276  1.00  0.00    -0.207 C  
HETATM   12  C   UNL     1      -8.610  10.172  69.029  1.00  0.00    -0.156 C  
HETATM   13  C   UNL     1     -10.397   8.502  68.384  1.00  0.00    -0.241 C  
HETATM   14  C   UNL     1      -9.989   8.662  66.916  1.00  0.00    -0.330 C  
HETATM   15  C   UNL     1      -8.219  10.303  67.557  1.00  0.00    -0.114 C  
HETATM   16  C   UNL     1      -8.516   9.019  66.799  1.00  0.00    -0.121 C  
BRANCH  11  17
HETATM   17  C   UNL     1     -10.424   9.475  70.805  1.00  0.00    -0.384 C  
HETATM   18  C   UNL     1     -11.755   8.746  71.093  1.00  0.00    -0.344 C  
HETATM   19  C   UNL     1     -10.619   6.547  71.533  1.00  0.00    -0.265 C  
HETATM   20  C   UNL     1      -9.259   7.244  71.495  1.00  0.00    -0.150 C  
HETATM   21  C   UNL     1     -11.706   7.264  70.744  1.00  0.00    -0.333 C  
HETATM   22  C   UNL     1      -9.320   8.772  71.632  1.00  0.00    -0.345 C  
ENDBRANCH  11  17
ENDBRANCH   9  11
ENDBRANCH   8   9
ENDBRANCH   7   8
ENDBRANCH   6   7
ENDBRANCH   3   6
ENDBRANCH   2   3
TORSDOF 8
ENDMDL
MODEL      114
REMARK 921   NORMALIZED FREE ENERGY PREDICTED BY IDOCK:   -3.84 KCAL/MOL
REMARK 922        TOTAL FREE ENERGY PREDICTED BY IDOCK:   -6.22 KCAL/MOL
REMARK 923 INTER-LIGAND FREE ENERGY PREDICTED BY IDOCK:   -5.95 KCAL/MOL
REMARK 924 INTRA-LIGAND FREE ENERGY PREDICTED BY IDOCK:   -0.27 KCAL/MOL
REMARK 927      BINDING AFFINITY PREDICTED BY RF-SCORE:    0.00 PKD
ROOT
HETATM    1  C   UNL     1     -10.720  19.831  67.021  1.00  0.00    -0.542 C  
HETATM    2  C   UNL     1      -9.333  19.614  66.421  1.00  0.00    -0.387 C  
ENDROOT
BRANCH   2   3
HETATM    3  N   UNL     1      -9.109  18.273  65.850  1.00  0.00    -0.467 NA 
BRANCH   3   4
HETATM    4  C   UNL     1      -7.745  17.759  66.027  1.00  0.00    -0.188 C  
HETATM    5  C   UNL     1      -6.895  18.466  67.076  1.00  0.00    -0.207 C  
ENDBRANCH   3   4
BRANCH   3   6
HETATM    6  C   UNL     1     -10.173  17.353  66.319  1.00  0.00    -0.341 C  
BRANCH   6   7
HETATM    7  C   UNL     1     -10.464  16.180  65.369  1.00  0.00    -0.373 C  
BRANCH   7   8
HETATM    8  O   UNL     1      -9.646  15.017  65.611  1.00  0.00    -0.333 OA 
BRANCH   8   9
HETATM    9  C   UNL     1     -10.249  14.024  66.316  1.00  0.00    -0.296 C  
HETATM   10  O   UNL     1     -11.232  13.412  65.923  1.00  0.00    -0.297 OA 
BRANCH   9  11
HETATM   11  C   UNL     1      -9.531  13.722  67.659  1.00  0.00    -0.217 C  
HETATM   12  C   UNL     1      -9.876  12.290  68.144  1.00  0.00    -0.212 C  
HETATM   13  C   UNL     1     -10.122  14.749  68.681  1.00  0.00    -0.238 C  
HETATM   14  C   UNL     1     -11.591  14.504  69.039  1.00  0.00    -0.330 C  
HETATM   15  C   UNL     1     -11.342  12.074  68.518  1.00  0.00    -0.323 C  
HETATM   16  C   UNL     1     -11.793  13.088  69.556  1.00  0.00    -0.385 C  
BRANCH  11  17
HETATM   17  C   UNL     1      -7.978  13.964  67.418  1.00  0.00    -0.184 C  
HETATM   18  C   UNL     1      -7.332  15.128  68.202  1.00  0.00    -0.117 C  
HETATM   19  C   UNL     1      -6.264  13.591  69.880  1.00  0.00    -0.108 C  
HETATM   20  C   UNL     1      -6.667  12.386  69.032  1.00  0.00    -0.100 C  
HETATM   21  C   UNL     1      -7.148  14.815  69.680  1.00  0.00    -0.158 C  
HETATM   22  C   UNL     1      -7.065  12.724  67.588  1.00  0.00    -0.145 C  
ENDBRANCH  11  17
ENDBRANCH   9  11
ENDBRANCH   8   9
ENDBRANCH   7   8
ENDBRANCH   6   7
ENDBRANCH   3   6
ENDBRANCH   2   3
TORSDOF 8
ENDMDL
MODEL      115
REMARK 921   NORMALIZED FREE ENERGY PREDICTED BY IDOCK:   -3.84 KCAL/MOL
REMARK 922        TOTAL FREE ENERGY PREDICTED BY IDOCK:   -6.22 KCAL/MOL
REMARK 923 INTER-LIGAND FREE ENERGY PREDICTED BY IDOCK:   -5.83 KCAL/MOL
REMARK 924 INTRA-LIGAND FREE ENERGY PREDICTED BY IDOCK:   -0.39 KCAL/MOL
REMARK 927      BINDING AFFINITY PREDICTED BY RF-SCORE:    0.00 PKD
ROOT
HETATM    1  C   UNL     1      -8.230   5.580  64.459  1.00  0.00    -0.129 C  
HETATM    2  C   UNL     1      -8.579   5.570  65.945  1.00  0.00    -0.141 C  
ENDROOT
BRANCH   2   3
HETATM    3  N   UNL     1      -9.742   4.737  66.301  1.00  0.00    -0.175 NA 
BRANCH   3   4
HETATM    4  C   UNL     1      -9.418   3.564  67.123  1.00  0.00    -0.183 C  
HETATM    5  C   UNL     1      -8.009   3.006  66.966  1.00  0.00    -0.079 C  
ENDBRANCH   3   4
BRANCH   3   6
HETATM    6  C   UNL     1     -10.813   5.596  66.860  1.00  0.00    -0.202 C  
BRANCH   6   7
HETATM    7  C   UNL     1     -10.337   6.588  67.934  1.00  0.00    -0.189 C  
BRANCH   7   8
HETATM    8  O   UNL     1     -11.199   6.652  69.090  1.00  0.00    -0.278 OA 
BRANCH   8   9
HETATM    9  C   UNL     1     -11.026   7.745  69.877  1.00  0.00    -0.190 C  
HETATM   10  O   UNL     1     -10.790   8.864  69.445  1.00  0.00    -0.208 OA 
BRANCH   9  11
HETATM   11  C   UNL     1     -11.200   7.429  71.387  1.00  0.00    -0.272 C  
HETATM   12  C   UNL     1     -12.537   6.680  71.630  1.00  0.00    -0.315 C  
HETATM   13  C   UNL     1     -11.275   8.823  72.094  1.00  0.00    -0.408 C  
HETATM   14  C   UNL     1     -12.548   9.616  71.782  1.00  0.00    -0.497 C  
HETATM   15  C   UNL     1     -13.793   7.498  71.335  1.00  0.00    -0.439 C  
HETATM   16  C   UNL     1     -13.788   8.803  72.115  1.00  0.00    -0.513 C  
BRANCH  11  17
HETATM   17  C   UNL     1      -9.913   6.612  71.841  1.00  0.00    -0.189 C  
HETATM   18  C   UNL     1      -9.304   6.990  73.209  1.00  0.00    -0.182 C  
HETATM   19  C   UNL     1     -10.294   4.988  74.361  1.00  0.00    -0.321 C  
HETATM   20  C   UNL     1     -10.729   4.425  73.009  1.00  0.00    -0.284 C  
HETATM   21  C   UNL     1     -10.141   6.503  74.384  1.00  0.00    -0.371 C  
HETATM   22  C   UNL     1     -10.039   5.069  71.797  1.00  0.00    -0.262 C  
ENDBRANCH  11  17
ENDBRANCH   9  11
ENDBRANCH   8   9
ENDBRANCH   7   8
ENDBRANCH   6   7
ENDBRANCH   3   6
ENDBRANCH   2   3
TORSDOF 8
ENDMDL
MODEL      116
REMARK 921   NORMALIZED FREE ENERGY PREDICTED BY IDOCK:   -3.80 KCAL/MOL
REMARK 922        TOTAL FREE ENERGY PREDICTED BY IDOCK:   -6.17 KCAL/MOL
REMARK 923 INTER-LIGAND FREE ENERGY PREDICTED BY IDOCK:   -5.20 KCAL/MOL
REMARK 924 INTRA-LIGAND FREE ENERGY PREDICTED BY IDOCK:   -0.96 KCAL/MOL
REMARK 927      BINDING AFFINITY PREDICTED BY RF-SCORE:    0.00 PKD
ROOT
HETATM    1  C   UNL     1     -10.075   9.223  66.615  1.00  0.00    -0.341 C  
HETATM    2  C   UNL     1      -9.217   8.058  67.100  1.00  0.00    -0.142 C  
ENDROOT
BRANCH   2   3
HETATM    3  N   UNL     1      -7.834   8.419  67.464  1.00  0.00    -0.098 NA 
BRANCH   3   4
HETATM    4  C   UNL     1      -7.693   9.757  68.052  1.00  0.00    -0.083 C  
HETATM    5  C   UNL     1      -7.065   9.815  69.439  1.00  0.00    -0.066 C  
ENDBRANCH   3   4
BRANCH   3   6
HETATM    6  C   UNL     1      -7.236   7.331  68.274  1.00  0.00    -0.094 C  
BRANCH   6   7
HETATM    7  C   UNL     1      -8.258   6.460  69.023  1.00  0.00    -0.115 C  
BRANCH   7   8
HETATM    8  O   UNL     1      -8.277   6.679  70.448  1.00  0.00    -0.121 OA 
BRANCH   8   9
HETATM    9  C   UNL     1      -9.368   6.189  71.093  1.00  0.00    -0.164 C  
HETATM   10  O   UNL     1      -9.658   5.002  71.132  1.00  0.00    -0.151 OA 
BRANCH   9  11
HETATM   11  C   UNL     1     -10.187   7.296  71.810  1.00  0.00    -0.211 C  
HETATM   12  C   UNL     1      -9.273   8.500  72.162  1.00  0.00    -0.336 C  
HETATM   13  C   UNL     1     -10.683   6.642  73.142  1.00  0.00    -0.306 C  
HETATM   14  C   UNL     1      -9.570   6.358  74.155  1.00  0.00    -0.242 C  
HETATM   15  C   UNL     1      -8.184   8.199  73.192  1.00  0.00    -0.253 C  
HETATM   16  C   UNL     1      -8.783   7.622  74.464  1.00  0.00    -0.140 C  
BRANCH  11  17
HETATM   17  C   UNL     1     -11.401   7.668  70.853  1.00  0.00    -0.291 C  
HETATM   18  C   UNL     1     -12.813   7.605  71.474  1.00  0.00    -0.376 C  
HETATM   19  C   UNL     1     -12.970  10.101  71.721  1.00  0.00    -0.567 C  
HETATM   20  C   UNL     1     -11.689  10.261  70.904  1.00  0.00    -0.472 C  
HETATM   21  C   UNL     1     -13.092   8.758  72.429  1.00  0.00    -0.444 C  
HETATM   22  C   UNL     1     -11.283   9.018  70.102  1.00  0.00    -0.191 C  
ENDBRANCH  11  17
ENDBRANCH   9  11
ENDBRANCH   8   9
ENDBRANCH   7   8
ENDBRANCH   6   7
ENDBRANCH   3   6
ENDBRANCH   2   3
TORSDOF 8
ENDMDL
MODEL      117
REMARK 921   NORMALIZED FREE ENERGY PREDICTED BY IDOCK:   -3.80 KCAL/MOL
REMARK 922        TOTAL FREE ENERGY PREDICTED BY IDOCK:   -6.16 KCAL/MOL
REMARK 923 INTER-LIGAND FREE ENERGY PREDICTED BY IDOCK:   -5.68 KCAL/MOL
REMARK 924 INTRA-LIGAND FREE ENERGY PREDICTED BY IDOCK:   -0.48 KCAL/MOL
REMARK 927      BINDING AFFINITY PREDICTED BY RF-SCORE:    0.00 PKD
ROOT
HETATM    1  C   UNL     1     -11.893  14.290  67.469  1.00  0.00    -0.429 C  
HETATM    2  C   UNL     1     -12.322  14.173  66.009  1.00  0.00    -0.445 C  
ENDROOT
BRANCH   2   3
HETATM    3  N   UNL     1     -11.364  14.731  65.037  1.00  0.00    -0.374 NA 
BRANCH   3   4
HETATM    4  C   UNL     1     -10.896  16.086  65.358  1.00  0.00    -0.328 C  
HETATM    5  C   UNL     1      -9.454  16.199  65.838  1.00  0.00    -0.337 C  
ENDBRANCH   3   4
BRANCH   3   6
HETATM    6  C   UNL     1     -10.278  13.752  64.796  1.00  0.00    -0.335 C  
BRANCH   6   7
HETATM    7  C   UNL     1     -10.764  12.330  64.470  1.00  0.00    -0.319 C  
BRANCH   7   8
HETATM    8  O   UNL     1     -10.917  11.487  65.630  1.00  0.00    -0.288 OA 
BRANCH   8   9
HETATM    9  C   UNL     1      -9.846  10.703  65.918  1.00  0.00    -0.243 C  
HETATM   10  O   UNL     1      -9.124  10.199  65.070  1.00  0.00    -0.172 OA 
BRANCH   9  11
HETATM   11  C   UNL     1      -9.612  10.548  67.445  1.00  0.00    -0.181 C  
HETATM   12  C   UNL     1      -9.396  11.937  68.102  1.00  0.00    -0.191 C  
HETATM   13  C   UNL     1      -8.287   9.725  67.576  1.00  0.00    -0.114 C  
HETATM   14  C   UNL     1      -7.031  10.481  67.133  1.00  0.00    -0.089 C  
HETATM   15  C   UNL     1      -8.125  12.663  67.662  1.00  0.00    -0.173 C  
HETATM   16  C   UNL     1      -6.897  11.796  67.886  1.00  0.00    -0.077 C  
BRANCH  11  17
HETATM   17  C   UNL     1     -10.857   9.748  68.026  1.00  0.00    -0.276 C  
HETATM   18  C   UNL     1     -10.542   8.446  68.796  1.00  0.00    -0.154 C  
HETATM   19  C   UNL     1     -10.894   9.521  71.040  1.00  0.00    -0.423 C  
HETATM   20  C   UNL     1     -11.444  10.771  70.354  1.00  0.00    -0.397 C  
HETATM   21  C   UNL     1      -9.947   8.702  70.173  1.00  0.00    -0.193 C  
HETATM   22  C   UNL     1     -11.848  10.570  68.888  1.00  0.00    -0.136 C  
ENDBRANCH  11  17
ENDBRANCH   9  11
ENDBRANCH   8   9
ENDBRANCH   7   8
ENDBRANCH   6   7
ENDBRANCH   3   6
ENDBRANCH   2   3
TORSDOF 8
ENDMDL
MODEL      118
REMARK 921   NORMALIZED FREE ENERGY PREDICTED BY IDOCK:   -3.79 KCAL/MOL
REMARK 922        TOTAL FREE ENERGY PREDICTED BY IDOCK:   -6.14 KCAL/MOL
REMARK 923 INTER-LIGAND FREE ENERGY PREDICTED BY IDOCK:   -5.61 KCAL/MOL
REMARK 924 INTRA-LIGAND FREE ENERGY PREDICTED BY IDOCK:   -0.53 KCAL/MOL
REMARK 927      BINDING AFFINITY PREDICTED BY RF-SCORE:    0.00 PKD
ROOT
HETATM    1  C   UNL     1      -9.980   8.481  68.796  1.00  0.00    -0.197 C  
HETATM    2  C   UNL     1     -10.489   9.868  68.413  1.00  0.00    -0.208 C  
ENDROOT
BRANCH   2   3
HETATM    3  N   UNL     1      -9.717  10.537  67.348  1.00  0.00    -0.162 NA 
BRANCH   3   4
HETATM    4  C   UNL     1     -10.192  10.253  65.988  1.00  0.00    -0.228 C  
HETATM    5  C   UNL     1      -9.283   9.378  65.132  1.00  0.00    -0.287 C  
ENDBRANCH   3   4
BRANCH   3   6
HETATM    6  C   UNL     1      -9.591  11.980  67.662  1.00  0.00    -0.188 C  
BRANCH   6   7
HETATM    7  C   UNL     1      -9.504  12.893  66.428  1.00  0.00    -0.226 C  
BRANCH   7   8
HETATM    8  O   UNL     1      -9.004  14.215  66.716  1.00  0.00    -0.242 OA 
BRANCH   8   9
HETATM    9  C   UNL     1      -9.901  15.221  66.547  1.00  0.00    -0.266 C  
HETATM   10  O   UNL     1     -10.854  15.160  65.784  1.00  0.00    -0.329 OA 
BRANCH   9  11
HETATM   11  C   UNL     1      -9.609  16.443  67.459  1.00  0.00    -0.227 C  
HETATM   12  C   UNL     1      -8.737  16.016  68.669  1.00  0.00    -0.206 C  
HETATM   13  C   UNL     1     -11.008  16.901  67.992  1.00  0.00    -0.271 C  
HETATM   14  C   UNL     1     -11.660  15.919  68.969  1.00  0.00    -0.392 C  
HETATM   15  C   UNL     1      -9.417  15.054  69.643  1.00  0.00    -0.026 C  
HETATM   16  C   UNL     1     -10.735  15.623  70.139  1.00  0.00    -0.355 C  
BRANCH  11  17
HETATM   17  C   UNL     1      -8.938  17.556  66.543  1.00  0.00    -0.284 C  
HETATM   18  C   UNL     1      -9.201  19.025  66.940  1.00  0.00    -0.332 C  
HETATM   19  C   UNL     1      -6.926  19.300  67.974  1.00  0.00    -0.282 C  
HETATM   20  C   UNL     1      -6.508  17.942  67.410  1.00  0.00    -0.179 C  
HETATM   21  C   UNL     1      -8.428  19.450  68.181  1.00  0.00    -0.367 C  
HETATM   22  C   UNL     1      -7.417  17.404  66.297  1.00  0.00    -0.354 C  
ENDBRANCH  11  17
ENDBRANCH   9  11
ENDBRANCH   8   9
ENDBRANCH   7   8
ENDBRANCH   6   7
ENDBRANCH   3   6
ENDBRANCH   2   3
TORSDOF 8
ENDMDL
MODEL      119
REMARK 921   NORMALIZED FREE ENERGY PREDICTED BY IDOCK:   -3.78 KCAL/MOL
REMARK 922        TOTAL FREE ENERGY PREDICTED BY IDOCK:   -6.13 KCAL/MOL
REMARK 923 INTER-LIGAND FREE ENERGY PREDICTED BY IDOCK:   -5.72 KCAL/MOL
REMARK 924 INTRA-LIGAND FREE ENERGY PREDICTED BY IDOCK:   -0.41 KCAL/MOL
REMARK 927      BINDING AFFINITY PREDICTED BY RF-SCORE:    0.00 PKD
ROOT
HETATM    1  C   UNL     1     -10.207  11.179  68.306  1.00  0.00    -0.197 C  
HETATM    2  C   UNL     1     -10.293  10.445  66.971  1.00  0.00    -0.240 C  
ENDROOT
BRANCH   2   3
HETATM    3  N   UNL     1     -10.287  11.320  65.783  1.00  0.00    -0.251 NA 
BRANCH   3   4
HETATM    4  C   UNL     1      -9.976  10.631  64.525  1.00  0.00    -0.345 C  
HETATM    5  C   UNL     1      -9.433  11.504  63.400  1.00  0.00    -0.270 C  
ENDBRANCH   3   4
BRANCH   3   6
HETATM    6  C   UNL     1     -11.536  12.117  65.750  1.00  0.00    -0.355 C  
BRANCH   6   7
HETATM    7  C   UNL     1     -11.328  13.616  65.480  1.00  0.00    -0.298 C  
BRANCH   7   8
HETATM    8  O   UNL     1      -9.991  14.079  65.764  1.00  0.00    -0.306 OA 
BRANCH   8   9
HETATM    9  C   UNL     1      -9.867  15.423  65.917  1.00  0.00    -0.356 C  
HETATM   10  O   UNL     1     -10.288  16.241  65.112  1.00  0.00    -0.587 OA 
BRANCH   9  11
HETATM   11  C   UNL     1      -9.169  15.812  67.248  1.00  0.00    -0.217 C  
HETATM   12  C   UNL     1      -9.390  14.708  68.316  1.00  0.00    -0.199 C  
HETATM   13  C   UNL     1      -9.889  17.116  67.725  1.00  0.00    -0.274 C  
HETATM   14  C   UNL     1     -11.339  16.905  68.173  1.00  0.00     0.043 C  
HETATM   15  C   UNL     1     -10.840  14.531  68.764  1.00  0.00    -0.256 C  
HETATM   16  C   UNL     1     -11.421  15.845  69.259  1.00  0.00    -0.374 C  
BRANCH  11  17
HETATM   17  C   UNL     1      -7.639  16.079  66.907  1.00  0.00    -0.268 C  
HETATM   18  C   UNL     1      -7.153  17.541  67.022  1.00  0.00    -0.210 C  
HETATM   19  C   UNL     1      -6.013  17.138  69.226  1.00  0.00    -0.207 C  
HETATM   20  C   UNL     1      -6.251  15.636  69.072  1.00  0.00    -0.113 C  
HETATM   21  C   UNL     1      -7.008  18.005  68.465  1.00  0.00    -0.245 C  
HETATM   22  C   UNL     1      -6.612  15.188  67.650  1.00  0.00    -0.195 C  
ENDBRANCH  11  17
ENDBRANCH   9  11
ENDBRANCH   8   9
ENDBRANCH   7   8
ENDBRANCH   6   7
ENDBRANCH   3   6
ENDBRANCH   2   3
TORSDOF 8
ENDMDL
MODEL      120
REMARK 921   NORMALIZED FREE ENERGY PREDICTED BY IDOCK:   -3.77 KCAL/MOL
REMARK 922        TOTAL FREE ENERGY PREDICTED BY IDOCK:   -6.12 KCAL/MOL
REMARK 923 INTER-LIGAND FREE ENERGY PREDICTED BY IDOCK:   -6.46 KCAL/MOL
REMARK 924 INTRA-LIGAND FREE ENERGY PREDICTED BY IDOCK:    0.34 KCAL/MOL
REMARK 927      BINDING AFFINITY PREDICTED BY RF-SCORE:    0.00 PKD
ROOT
HETATM    1  C   UNL     1      -7.044  17.557  69.126  1.00  0.00    -0.195 C  
HETATM    2  C   UNL     1      -7.939  18.357  68.183  1.00  0.00    -0.288 C  
ENDROOT
BRANCH   2   3
HETATM    3  N   UNL     1      -9.360  18.406  68.574  1.00  0.00    -0.327 NA 
BRANCH   3   4
HETATM    4  C   UNL     1      -9.919  19.761  68.660  1.00  0.00    -0.434 C  
HETATM    5  C   UNL     1      -9.793  20.616  67.406  1.00  0.00    -0.527 C  
ENDBRANCH   3   4
BRANCH   3   6
HETATM    6  C   UNL     1     -10.140  17.478  67.721  1.00  0.00    -0.330 C  
BRANCH   6   7
HETATM    7  C   UNL     1      -9.932  17.676  66.211  1.00  0.00    -0.318 C  
BRANCH   7   8
HETATM    8  O   UNL     1     -10.090  16.468  65.437  1.00  0.00    -0.570 OA 
BRANCH   8   9
HETATM    9  C   UNL     1      -9.520  15.360  65.976  1.00  0.00    -0.346 C  
HETATM   10  O   UNL     1      -8.417  15.351  66.505  1.00  0.00    -0.274 OA 
BRANCH   9  11
HETATM   11  C   UNL     1     -10.437  14.111  65.886  1.00  0.00    -0.313 C  
HETATM   12  C   UNL     1     -11.670  14.279  66.814  1.00  0.00    -0.424 C  
HETATM   13  C   UNL     1      -9.570  12.923  66.422  1.00  0.00    -0.252 C  
HETATM   14  C   UNL     1      -9.268  12.994  67.922  1.00  0.00    -0.208 C  
HETATM   15  C   UNL     1     -11.347  14.323  68.307  1.00  0.00    -0.314 C  
HETATM   16  C   UNL     1     -10.553  13.098  68.729  1.00  0.00    -0.225 C  
BRANCH  11  17
HETATM   17  C   UNL     1     -10.808  13.918  64.352  1.00  0.00    -0.306 C  
HETATM   18  C   UNL     1     -10.356  12.595  63.694  1.00  0.00    -0.284 C  
HETATM   19  C   UNL     1     -12.659  11.592  63.801  1.00  0.00    -0.261 C  
HETATM   20  C   UNL     1     -13.226  12.943  64.234  1.00  0.00     0.377 C  
HETATM   21  C   UNL     1     -11.186  11.399  64.141  1.00  0.00    -0.327 C  
HETATM   22  C   UNL     1     -12.296  14.138  63.981  1.00  0.00    -0.315 C  
ENDBRANCH  11  17
ENDBRANCH   9  11
ENDBRANCH   8   9
ENDBRANCH   7   8
ENDBRANCH   6   7
ENDBRANCH   3   6
ENDBRANCH   2   3
TORSDOF 8
ENDMDL
MODEL      121
REMARK 921   NORMALIZED FREE ENERGY PREDICTED BY IDOCK:   -3.77 KCAL/MOL
REMARK 922        TOTAL FREE ENERGY PREDICTED BY IDOCK:   -6.11 KCAL/MOL
REMARK 923 INTER-LIGAND FREE ENERGY PREDICTED BY IDOCK:   -5.76 KCAL/MOL
REMARK 924 INTRA-LIGAND FREE ENERGY PREDICTED BY IDOCK:   -0.35 KCAL/MOL
REMARK 927      BINDING AFFINITY PREDICTED BY RF-SCORE:    0.00 PKD
ROOT
HETATM    1  C   UNL     1     -11.967  15.013  69.529  1.00  0.00    -0.346 C  
HETATM    2  C   UNL     1     -11.078  15.509  68.391  1.00  0.00    -0.315 C  
ENDROOT
BRANCH   2   3
HETATM    3  N   UNL     1     -10.912  14.557  67.277  1.00  0.00    -0.297 NA 
BRANCH   3   4
HETATM    4  C   UNL     1     -10.490  15.173  66.012  1.00  0.00    -0.319 C  
HETATM    5  C   UNL     1     -11.419  14.963  64.823  1.00  0.00    -0.410 C  
ENDBRANCH   3   4
BRANCH   3   6
HETATM    6  C   UNL     1     -10.064  13.424  67.717  1.00  0.00    -0.232 C  
BRANCH   6   7
HETATM    7  C   UNL     1     -10.294  12.117  66.940  1.00  0.00    -0.212 C  
BRANCH   7   8
HETATM    8  O   UNL     1      -9.786  10.944  67.609  1.00  0.00    -0.168 OA 
BRANCH   8   9
HETATM    9  C   UNL     1     -10.731  10.154  68.183  1.00  0.00    -0.244 C  
HETATM   10  O   UNL     1     -11.862  10.532  68.453  1.00  0.00    -0.380 OA 
BRANCH   9  11
HETATM   11  C   UNL     1     -10.232   8.703  68.422  1.00  0.00    -0.232 C  
HETATM   12  C   UNL     1     -11.015   8.050  69.591  1.00  0.00    -0.106 C  
HETATM   13  C   UNL     1      -8.733   8.849  68.848  1.00  0.00    -0.136 C  
HETATM   14  C   UNL     1      -8.531   9.490  70.224  1.00  0.00    -0.237 C  
HETATM   15  C   UNL     1     -10.780   8.691  70.958  1.00  0.00    -0.284 C  
HETATM   16  C   UNL     1      -9.298   8.729  71.294  1.00  0.00    -0.319 C  
BRANCH  11  17
HETATM   17  C   UNL     1     -10.374   7.931  67.040  1.00  0.00    -0.411 C  
HETATM   18  C   UNL     1      -9.072   7.700  66.241  1.00  0.00    -0.204 C  
HETATM   19  C   UNL     1      -8.909   5.289  66.933  1.00  0.00    -0.110 C  
HETATM   20  C   UNL     1     -10.305   5.372  67.548  1.00  0.00    -0.246 C  
HETATM   21  C   UNL     1      -8.184   6.626  66.856  1.00  0.00    -0.113 C  
HETATM   22  C   UNL     1     -11.133   6.581  67.093  1.00  0.00    -0.434 C  
ENDBRANCH  11  17
ENDBRANCH   9  11
ENDBRANCH   8   9
ENDBRANCH   7   8
ENDBRANCH   6   7
ENDBRANCH   3   6
ENDBRANCH   2   3
TORSDOF 8
ENDMDL
MODEL      122
REMARK 921   NORMALIZED FREE ENERGY PREDICTED BY IDOCK:   -3.77 KCAL/MOL
REMARK 922        TOTAL FREE ENERGY PREDICTED BY IDOCK:   -6.11 KCAL/MOL
REMARK 923 INTER-LIGAND FREE ENERGY PREDICTED BY IDOCK:   -6.38 KCAL/MOL
REMARK 924 INTRA-LIGAND FREE ENERGY PREDICTED BY IDOCK:    0.27 KCAL/MOL
REMARK 927      BINDING AFFINITY PREDICTED BY RF-SCORE:    0.00 PKD
ROOT
HETATM    1  C   UNL     1      -7.900   9.905  69.643  1.00  0.00    -0.156 C  
HETATM    2  C   UNL     1      -9.367   9.678  69.999  1.00  0.00    -0.241 C  
ENDROOT
BRANCH   2   3
HETATM    3  N   UNL     1     -10.204   9.189  68.887  1.00  0.00    -0.201 NA 
BRANCH   3   4
HETATM    4  C   UNL     1     -10.572   7.771  68.984  1.00  0.00    -0.166 C  
HETATM    5  C   UNL     1     -10.804   7.235  70.391  1.00  0.00    -0.265 C  
ENDBRANCH   3   4
BRANCH   3   6
HETATM    6  C   UNL     1     -11.352  10.106  68.693  1.00  0.00    -0.112 C  
BRANCH   6   7
HETATM    7  C   UNL     1     -11.780  10.866  69.959  1.00  0.00    -0.345 C  
BRANCH   7   8
HETATM    8  O   UNL     1     -12.225  12.215  69.706  1.00  0.00    -0.237 OA 
BRANCH   8   9
HETATM    9  C   UNL     1     -12.389  12.985  70.813  1.00  0.00    -0.310 C  
HETATM   10  O   UNL     1     -12.619  12.535  71.926  1.00  0.00    -0.107 OA 
BRANCH   9  11
HETATM   11  C   UNL     1     -12.212  14.500  70.520  1.00  0.00    -0.399 C  
HETATM   12  C   UNL     1     -11.349  15.165  71.624  1.00  0.00    -0.394 C  
HETATM   13  C   UNL     1     -13.655  15.102  70.587  1.00  0.00    -0.176 C  
HETATM   14  C   UNL     1     -14.266  15.115  71.991  1.00  0.00    -0.673 C  
HETATM   15  C   UNL     1     -11.988  15.188  73.012  1.00  0.00    -0.467 C  
HETATM   16  C   UNL     1     -13.358  15.843  72.970  1.00  0.00    -0.663 C  
BRANCH  11  17
HETATM   17  C   UNL     1     -11.594  14.620  69.060  1.00  0.00    -0.328 C  
HETATM   18  C   UNL     1     -11.652  16.015  68.400  1.00  0.00    -0.279 C  
HETATM   19  C   UNL     1      -9.227  16.489  68.860  1.00  0.00    -0.258 C  
HETATM   20  C   UNL     1      -9.032  15.043  69.312  1.00  0.00    -0.158 C  
HETATM   21  C   UNL     1     -10.656  16.997  69.002  1.00  0.00    -0.314 C  
HETATM   22  C   UNL     1     -10.152  14.083  68.888  1.00  0.00    -0.133 C  
ENDBRANCH  11  17
ENDBRANCH   9  11
ENDBRANCH   8   9
ENDBRANCH   7   8
ENDBRANCH   6   7
ENDBRANCH   3   6
ENDBRANCH   2   3
TORSDOF 8
ENDMDL
MODEL      123
REMARK 921   NORMALIZED FREE ENERGY PREDICTED BY IDOCK:   -3.75 KCAL/MOL
REMARK 922        TOTAL FREE ENERGY PREDICTED BY IDOCK:   -6.09 KCAL/MOL
REMARK 923 INTER-LIGAND FREE ENERGY PREDICTED BY IDOCK:   -5.66 KCAL/MOL
REMARK 924 INTRA-LIGAND FREE ENERGY PREDICTED BY IDOCK:   -0.43 KCAL/MOL
REMARK 927      BINDING AFFINITY PREDICTED BY RF-SCORE:    0.00 PKD
ROOT
HETATM    1  C   UNL     1     -12.795  13.736  65.675  1.00  0.00    -0.456 C  
HETATM    2  C   UNL     1     -11.643  12.983  66.334  1.00  0.00    -0.363 C  
ENDROOT
BRANCH   2   3
HETATM    3  N   UNL     1     -11.043  13.665  67.497  1.00  0.00    -0.271 NA 
BRANCH   3   4
HETATM    4  C   UNL     1     -12.012  14.090  68.515  1.00  0.00    -0.348 C  
HETATM    5  C   UNL     1     -11.860  15.517  69.027  1.00  0.00    -0.373 C  
ENDBRANCH   3   4
BRANCH   3   6
HETATM    6  C   UNL     1      -9.922  12.851  68.023  1.00  0.00    -0.236 C  
BRANCH   6   7
HETATM    7  C   UNL     1     -10.082  11.336  67.812  1.00  0.00    -0.179 C  
BRANCH   7   8
HETATM    8  O   UNL     1      -9.821  10.552  68.995  1.00  0.00    -0.194 OA 
BRANCH   8   9
HETATM    9  C   UNL     1     -10.874   9.826  69.449  1.00  0.00    -0.232 C  
HETATM   10  O   UNL     1     -11.993  10.287  69.626  1.00  0.00    -0.174 OA 
BRANCH   9  11
HETATM   11  C   UNL     1     -10.516   8.333  69.682  1.00  0.00    -0.221 C  
HETATM   12  C   UNL     1     -11.538   7.677  70.647  1.00  0.00    -0.251 C  
HETATM   13  C   UNL     1      -9.115   8.350  70.379  1.00  0.00    -0.155 C  
HETATM   14  C   UNL     1      -9.131   8.904  71.807  1.00  0.00    -0.241 C  
HETATM   15  C   UNL     1     -11.520   8.228  72.072  1.00  0.00    -0.399 C  
HETATM   16  C   UNL     1     -10.126   8.145  72.670  1.00  0.00    -0.379 C  
BRANCH  11  17
HETATM   17  C   UNL     1     -10.449   7.644  68.250  1.00  0.00    -0.219 C  
HETATM   18  C   UNL     1      -9.078   7.668  67.537  1.00  0.00    -0.131 C  
HETATM   19  C   UNL     1      -8.587   5.267  68.098  1.00  0.00    -0.099 C  
HETATM   20  C   UNL     1     -10.016   5.096  68.612  1.00  0.00    -0.227 C  
HETATM   21  C   UNL     1      -8.075   6.701  68.152  1.00  0.00    -0.111 C  
HETATM   22  C   UNL     1     -10.991   6.196  68.168  1.00  0.00    -0.398 C  
ENDBRANCH  11  17
ENDBRANCH   9  11
ENDBRANCH   8   9
ENDBRANCH   7   8
ENDBRANCH   6   7
ENDBRANCH   3   6
ENDBRANCH   2   3
TORSDOF 8
ENDMDL
MODEL      124
REMARK 921   NORMALIZED FREE ENERGY PREDICTED BY IDOCK:   -3.72 KCAL/MOL
REMARK 922        TOTAL FREE ENERGY PREDICTED BY IDOCK:   -6.04 KCAL/MOL
REMARK 923 INTER-LIGAND FREE ENERGY PREDICTED BY IDOCK:   -5.62 KCAL/MOL
REMARK 924 INTRA-LIGAND FREE ENERGY PREDICTED BY IDOCK:   -0.42 KCAL/MOL
REMARK 927      BINDING AFFINITY PREDICTED BY RF-SCORE:    0.00 PKD
ROOT
HETATM    1  C   UNL     1     -12.514  13.847  65.887  1.00  0.00    -0.519 C  
HETATM    2  C   UNL     1     -11.704  14.377  67.068  1.00  0.00    -0.399 C  
ENDROOT
BRANCH   2   3
HETATM    3  N   UNL     1     -11.480  13.401  68.150  1.00  0.00    -0.284 NA 
BRANCH   3   4
HETATM    4  C   UNL     1     -12.159  13.728  69.411  1.00  0.00    -0.328 C  
HETATM    5  C   UNL     1     -12.233  12.608  70.441  1.00  0.00    -0.368 C  
ENDBRANCH   3   4
BRANCH   3   6
HETATM    6  C   UNL     1     -11.753  12.034  67.648  1.00  0.00    -0.294 C  
BRANCH   6   7
HETATM    7  C   UNL     1     -10.495  11.211  67.326  1.00  0.00    -0.226 C  
BRANCH   7   8
HETATM    8  O   UNL     1     -10.694   9.784  67.411  1.00  0.00    -0.268 OA 
BRANCH   8   9
HETATM    9  C   UNL     1     -10.015   9.051  66.491  1.00  0.00    -0.285 C  
HETATM   10  O   UNL     1      -9.888   9.378  65.320  1.00  0.00    -0.231 OA 
BRANCH   9  11
HETATM   11  C   UNL     1      -9.378   7.772  67.098  1.00  0.00    -0.185 C  
HETATM   12  C   UNL     1      -8.651   8.108  68.426  1.00  0.00    -0.130 C  
HETATM   13  C   UNL     1      -8.312   7.306  66.051  1.00  0.00    -0.140 C  
HETATM   14  C   UNL     1      -7.104   8.239  65.929  1.00  0.00    -0.071 C  
HETATM   15  C   UNL     1      -7.434   9.022  68.277  1.00  0.00    -0.083 C  
HETATM   16  C   UNL     1      -6.441   8.447  67.281  1.00  0.00    -0.058 C  
BRANCH  11  17
HETATM   17  C   UNL     1     -10.547   6.705  67.257  1.00  0.00    -0.387 C  
HETATM   18  C   UNL     1     -10.305   5.318  66.620  1.00  0.00    -0.330 C  
HETATM   19  C   UNL     1      -9.775   4.239  68.827  1.00  0.00    -0.184 C  
HETATM   20  C   UNL     1     -10.223   5.506  69.553  1.00  0.00    -0.331 C  
HETATM   21  C   UNL     1      -9.304   4.475  67.398  1.00  0.00    -0.168 C  
HETATM   22  C   UNL     1     -11.059   6.470  68.700  1.00  0.00    -0.348 C  
ENDBRANCH  11  17
ENDBRANCH   9  11
ENDBRANCH   8   9
ENDBRANCH   7   8
ENDBRANCH   6   7
ENDBRANCH   3   6
ENDBRANCH   2   3
TORSDOF 8
ENDMDL
MODEL      125
REMARK 921   NORMALIZED FREE ENERGY PREDICTED BY IDOCK:   -3.71 KCAL/MOL
REMARK 922        TOTAL FREE ENERGY PREDICTED BY IDOCK:   -6.03 KCAL/MOL
REMARK 923 INTER-LIGAND FREE ENERGY PREDICTED BY IDOCK:   -6.20 KCAL/MOL
REMARK 924 INTRA-LIGAND FREE ENERGY PREDICTED BY IDOCK:    0.18 KCAL/MOL
REMARK 927      BINDING AFFINITY PREDICTED BY RF-SCORE:    0.00 PKD
ROOT
HETATM    1  C   UNL     1     -10.902  19.569  67.342  1.00  0.00    -0.536 C  
HETATM    2  C   UNL     1     -10.352  19.046  66.018  1.00  0.00    -0.446 C  
ENDROOT
BRANCH   2   3
HETATM    3  N   UNL     1      -9.492  17.853  66.134  1.00  0.00    -0.502 NA 
BRANCH   3   4
HETATM    4  C   UNL     1      -8.582  17.872  67.287  1.00  0.00    -0.237 C  
HETATM    5  C   UNL     1      -7.111  18.116  66.973  1.00  0.00    -0.217 C  
ENDBRANCH   3   4
BRANCH   3   6
HETATM    6  C   UNL     1     -10.326  16.632  66.035  1.00  0.00    -0.340 C  
BRANCH   6   7
HETATM    7  C   UNL     1      -9.809  15.588  65.032  1.00  0.00     0.111 C  
BRANCH   7   8
HETATM    8  O   UNL     1     -10.562  14.357  65.032  1.00  0.00    -0.381 OA 
BRANCH   8   9
HETATM    9  C   UNL     1     -10.003  13.340  65.739  1.00  0.00    -0.251 C  
HETATM   10  O   UNL     1      -8.951  13.437  66.354  1.00  0.00    -0.120 OA 
BRANCH   9  11
HETATM   11  C   UNL     1     -10.868  12.050  65.716  1.00  0.00    -0.329 C  
HETATM   12  C   UNL     1      -9.981  10.803  65.970  1.00  0.00    -0.295 C  
HETATM   13  C   UNL     1     -11.441  11.966  64.262  1.00  0.00    -0.423 C  
HETATM   14  C   UNL     1     -10.390  11.668  63.189  1.00  0.00    -0.383 C  
HETATM   15  C   UNL     1      -8.955  10.511  64.875  1.00  0.00    -0.222 C  
HETATM   16  C   UNL     1      -9.627  10.394  63.517  1.00  0.00    -0.361 C  
BRANCH  11  17
HETATM   17  C   UNL     1     -12.023  12.248  66.790  1.00  0.00    -0.230 C  
HETATM   18  C   UNL     1     -12.028  11.269  67.985  1.00  0.00    -0.132 C  
HETATM   19  C   UNL     1     -11.041  12.962  69.558  1.00  0.00    -0.049 C  
HETATM   20  C   UNL     1     -11.221  14.049  68.500  1.00  0.00    -0.291 C  
HETATM   21  C   UNL     1     -10.920  11.554  68.989  1.00  0.00    -0.285 C  
HETATM   22  C   UNL     1     -12.181  13.679  67.361  1.00  0.00    -0.283 C  
ENDBRANCH  11  17
ENDBRANCH   9  11
ENDBRANCH   8   9
ENDBRANCH   7   8
ENDBRANCH   6   7
ENDBRANCH   3   6
ENDBRANCH   2   3
TORSDOF 8
ENDMDL
MODEL      126
REMARK 921   NORMALIZED FREE ENERGY PREDICTED BY IDOCK:   -3.69 KCAL/MOL
REMARK 922        TOTAL FREE ENERGY PREDICTED BY IDOCK:   -6.00 KCAL/MOL
REMARK 923 INTER-LIGAND FREE ENERGY PREDICTED BY IDOCK:   -5.63 KCAL/MOL
REMARK 924 INTRA-LIGAND FREE ENERGY PREDICTED BY IDOCK:   -0.37 KCAL/MOL
REMARK 927      BINDING AFFINITY PREDICTED BY RF-SCORE:    0.00 PKD
ROOT
HETATM    1  C   UNL     1     -12.393  15.460  70.842  1.00  0.00    -0.452 C  
HETATM    2  C   UNL     1     -11.810  14.810  69.590  1.00  0.00    -0.319 C  
ENDROOT
BRANCH   2   3
HETATM    3  N   UNL     1     -11.568  15.736  68.468  1.00  0.00    -0.377 NA 
BRANCH   3   4
HETATM    4  C   UNL     1     -10.470  16.685  68.692  1.00  0.00    -0.323 C  
HETATM    5  C   UNL     1      -9.132  16.077  69.093  1.00  0.00    -0.246 C  
ENDBRANCH   3   4
BRANCH   3   6
HETATM    6  C   UNL     1     -11.462  14.966  67.206  1.00  0.00    -0.340 C  
BRANCH   6   7
HETATM    7  C   UNL     1     -11.791  13.470  67.343  1.00  0.00    -0.384 C  
BRANCH   7   8
HETATM    8  O   UNL     1     -10.654  12.603  67.156  1.00  0.00    -0.233 OA 
BRANCH   8   9
HETATM    9  C   UNL     1     -10.870  11.296  67.457  1.00  0.00    -0.245 C  
HETATM   10  O   UNL     1     -11.933  10.862  67.876  1.00  0.00    -0.585 OA 
BRANCH   9  11
HETATM   11  C   UNL     1      -9.630  10.405  67.175  1.00  0.00    -0.192 C  
HETATM   12  C   UNL     1     -10.066   8.934  66.943  1.00  0.00    -0.343 C  
HETATM   13  C   UNL     1      -8.771  10.469  68.481  1.00  0.00    -0.140 C  
HETATM   14  C   UNL     1      -9.404   9.766  69.685  1.00  0.00    -0.237 C  
HETATM   15  C   UNL     1     -10.674   8.245  68.165  1.00  0.00    -0.093 C  
HETATM   16  C   UNL     1      -9.733   8.319  69.356  1.00  0.00    -0.177 C  
BRANCH  11  17
HETATM   17  C   UNL     1      -8.867  11.052  65.939  1.00  0.00    -0.204 C  
HETATM   18  C   UNL     1      -7.324  10.962  65.958  1.00  0.00    -0.081 C  
HETATM   19  C   UNL     1      -7.272   9.082  64.291  1.00  0.00    -0.091 C  
HETATM   20  C   UNL     1      -8.768   9.264  64.040  1.00  0.00    -0.198 C  
HETATM   21  C   UNL     1      -6.809   9.560  65.661  1.00  0.00    -0.087 C  
HETATM   22  C   UNL     1      -9.342  10.599  64.536  1.00  0.00    -0.284 C  
ENDBRANCH  11  17
ENDBRANCH   9  11
ENDBRANCH   8   9
ENDBRANCH   7   8
ENDBRANCH   6   7
ENDBRANCH   3   6
ENDBRANCH   2   3
TORSDOF 8
ENDMDL
MODEL      127
REMARK 921   NORMALIZED FREE ENERGY PREDICTED BY IDOCK:   -3.69 KCAL/MOL
REMARK 922        TOTAL FREE ENERGY PREDICTED BY IDOCK:   -5.99 KCAL/MOL
REMARK 923 INTER-LIGAND FREE ENERGY PREDICTED BY IDOCK:   -5.45 KCAL/MOL
REMARK 924 INTRA-LIGAND FREE ENERGY PREDICTED BY IDOCK:   -0.54 KCAL/MOL
REMARK 927      BINDING AFFINITY PREDICTED BY RF-SCORE:    0.00 PKD
ROOT
HETATM    1  C   UNL     1     -14.397   8.525  71.949  1.00  0.00    -0.536 C  
HETATM    2  C   UNL     1     -13.220   9.466  71.701  1.00  0.00    -0.397 C  
ENDROOT
BRANCH   2   3
HETATM    3  N   UNL     1     -11.924   8.793  71.498  1.00  0.00    -0.305 NA 
BRANCH   3   4
HETATM    4  C   UNL     1     -11.963   7.336  71.676  1.00  0.00    -0.308 C  
HETATM    5  C   UNL     1     -11.153   6.784  72.843  1.00  0.00    -0.277 C  
ENDBRANCH   3   4
BRANCH   3   6
HETATM    6  C   UNL     1     -11.336   9.234  70.211  1.00  0.00    -0.203 C  
BRANCH   6   7
HETATM    7  C   UNL     1      -9.800   9.310  70.206  1.00  0.00    -0.222 C  
BRANCH   7   8
HETATM    8  O   UNL     1      -9.272  10.380  69.394  1.00  0.00    -0.201 OA 
BRANCH   8   9
HETATM    9  C   UNL     1      -8.674   9.985  68.240  1.00  0.00    -0.119 C  
HETATM   10  O   UNL     1      -8.154   8.890  68.083  1.00  0.00    -0.105 OA 
BRANCH   9  11
HETATM   11  C   UNL     1      -8.759  11.062  67.125  1.00  0.00    -0.135 C  
HETATM   12  C   UNL     1      -7.603  10.877  66.107  1.00  0.00    -0.119 C  
HETATM   13  C   UNL     1      -8.560  12.431  67.859  1.00  0.00    -0.171 C  
HETATM   14  C   UNL     1      -7.148  12.648  68.410  1.00  0.00    -0.101 C  
HETATM   15  C   UNL     1      -6.204  11.122  66.673  1.00  0.00    -0.136 C  
HETATM   16  C   UNL     1      -6.108  12.498  67.310  1.00  0.00    -0.119 C  
BRANCH  11  17
HETATM   17  C   UNL     1     -10.208  10.949  66.480  1.00  0.00    -0.282 C  
HETATM   18  C   UNL     1     -11.013  12.262  66.361  1.00  0.00    -0.326 C  
HETATM   19  C   UNL     1     -10.547  12.489  63.901  1.00  0.00    -0.472 C  
HETATM   20  C   UNL     1      -9.939  11.087  63.888  1.00  0.00    -0.396 C  
HETATM   21  C   UNL     1     -10.494  13.176  65.259  1.00  0.00    -0.319 C  
HETATM   22  C   UNL     1     -10.287  10.228  65.112  1.00  0.00    -0.198 C  
ENDBRANCH  11  17
ENDBRANCH   9  11
ENDBRANCH   8   9
ENDBRANCH   7   8
ENDBRANCH   6   7
ENDBRANCH   3   6
ENDBRANCH   2   3
TORSDOF 8
ENDMDL
MODEL      128
REMARK 921   NORMALIZED FREE ENERGY PREDICTED BY IDOCK:   -3.67 KCAL/MOL
REMARK 922        TOTAL FREE ENERGY PREDICTED BY IDOCK:   -5.97 KCAL/MOL
REMARK 923 INTER-LIGAND FREE ENERGY PREDICTED BY IDOCK:   -5.42 KCAL/MOL
REMARK 924 INTRA-LIGAND FREE ENERGY PREDICTED BY IDOCK:   -0.55 KCAL/MOL
REMARK 927      BINDING AFFINITY PREDICTED BY RF-SCORE:    0.00 PKD
ROOT
HETATM    1  C   UNL     1     -11.314  12.773  64.161  1.00  0.00    -0.442 C  
HETATM    2  C   UNL     1     -10.908  11.301  64.157  1.00  0.00    -0.337 C  
ENDROOT
BRANCH   2   3
HETATM    3  N   UNL     1      -9.758  10.975  65.020  1.00  0.00    -0.237 NA 
BRANCH   3   4
HETATM    4  C   UNL     1      -8.618  10.378  64.312  1.00  0.00    -0.185 C  
HETATM    5  C   UNL     1      -8.925   9.759  62.954  1.00  0.00    -0.270 C  
ENDBRANCH   3   4
BRANCH   3   6
HETATM    6  C   UNL     1      -9.411  12.155  65.848  1.00  0.00    -0.179 C  
BRANCH   6   7
HETATM    7  C   UNL     1      -9.671  11.975  67.353  1.00  0.00    -0.182 C  
BRANCH   7   8
HETATM    8  O   UNL     1      -9.479  10.623  67.819  1.00  0.00    -0.151 OA 
BRANCH   8   9
HETATM    9  C   UNL     1     -10.597  10.013  68.292  1.00  0.00    -0.226 C  
HETATM   10  O   UNL     1     -11.700  10.540  68.318  1.00  0.00    -0.401 OA 
BRANCH   9  11
HETATM   11  C   UNL     1     -10.331   8.556  68.760  1.00  0.00    -0.233 C  
HETATM   12  C   UNL     1     -11.258   8.194  69.949  1.00  0.00    -0.030 C  
HETATM   13  C   UNL     1      -8.850   8.551  69.265  1.00  0.00    -0.142 C  
HETATM   14  C   UNL     1      -8.622   9.349  70.552  1.00  0.00    -0.265 C  
HETATM   15  C   UNL     1     -10.998   8.986  71.230  1.00  0.00    -0.384 C  
HETATM   16  C   UNL     1      -9.546   8.865  71.659  1.00  0.00    -0.363 C  
BRANCH  11  17
HETATM   17  C   UNL     1     -10.519   7.620  67.488  1.00  0.00    -0.336 C  
HETATM   18  C   UNL     1      -9.313   7.508  66.530  1.00  0.00    -0.231 C  
HETATM   19  C   UNL     1      -8.650   5.246  67.403  1.00  0.00    -0.104 C  
HETATM   20  C   UNL     1      -9.947   5.177  68.207  1.00  0.00    -0.208 C  
HETATM   21  C   UNL     1      -8.181   6.663  67.100  1.00  0.00    -0.113 C  
HETATM   22  C   UNL     1     -11.022   6.183  67.773  1.00  0.00    -0.400 C  
ENDBRANCH  11  17
ENDBRANCH   9  11
ENDBRANCH   8   9
ENDBRANCH   7   8
ENDBRANCH   6   7
ENDBRANCH   3   6
ENDBRANCH   2   3
TORSDOF 8
ENDMDL
MODEL      129
REMARK 921   NORMALIZED FREE ENERGY PREDICTED BY IDOCK:   -3.66 KCAL/MOL
REMARK 922        TOTAL FREE ENERGY PREDICTED BY IDOCK:   -5.95 KCAL/MOL
REMARK 923 INTER-LIGAND FREE ENERGY PREDICTED BY IDOCK:   -5.15 KCAL/MOL
REMARK 924 INTRA-LIGAND FREE ENERGY PREDICTED BY IDOCK:   -0.80 KCAL/MOL
REMARK 927      BINDING AFFINITY PREDICTED BY RF-SCORE:    0.00 PKD
ROOT
HETATM    1  C   UNL     1     -11.818  14.556  64.873  1.00  0.00    -0.417 C  
HETATM    2  C   UNL     1     -10.696  15.217  65.670  1.00  0.00    -0.365 C  
ENDROOT
BRANCH   2   3
HETATM    3  N   UNL     1     -10.784  15.033  67.131  1.00  0.00    -0.296 NA 
BRANCH   3   4
HETATM    4  C   UNL     1     -11.998  14.339  67.582  1.00  0.00    -0.365 C  
HETATM    5  C   UNL     1     -12.018  13.909  69.043  1.00  0.00    -0.402 C  
ENDBRANCH   3   4
BRANCH   3   6
HETATM    6  C   UNL     1      -9.521  14.440  67.630  1.00  0.00    -0.214 C  
BRANCH   6   7
HETATM    7  C   UNL     1      -9.101  13.143  66.918  1.00  0.00    -0.229 C  
BRANCH   7   8
HETATM    8  O   UNL     1      -9.215  11.963  67.740  1.00  0.00    -0.172 OA 
BRANCH   8   9
HETATM    9  C   UNL     1      -9.948  10.955  67.202  1.00  0.00    -0.189 C  
HETATM   10  O   UNL     1     -10.921  11.130  66.482  1.00  0.00    -0.271 OA 
BRANCH   9  11
HETATM   11  C   UNL     1      -9.393   9.551  67.566  1.00  0.00    -0.146 C  
HETATM   12  C   UNL     1      -7.858   9.618  67.782  1.00  0.00    -0.094 C  
HETATM   13  C   UNL     1      -9.679   8.658  66.313  1.00  0.00    -0.322 C  
HETATM   14  C   UNL     1      -8.849   9.022  65.079  1.00  0.00    -0.213 C  
HETATM   15  C   UNL     1      -7.048   9.961  66.532  1.00  0.00    -0.094 C  
HETATM   16  C   UNL     1      -7.363   8.998  65.399  1.00  0.00    -0.085 C  
BRANCH  11  17
HETATM   17  C   UNL     1     -10.201   9.049  68.840  1.00  0.00    -0.223 C  
HETATM   18  C   UNL     1     -10.266   7.521  69.057  1.00  0.00    -0.208 C  
HETATM   19  C   UNL     1      -8.526   7.562  70.870  1.00  0.00    -0.125 C  
HETATM   20  C   UNL     1      -8.575   9.089  70.881  1.00  0.00    -0.263 C  
HETATM   21  C   UNL     1      -8.949   6.936  69.547  1.00  0.00    -0.143 C  
HETATM   22  C   UNL     1      -9.805   9.694  70.191  1.00  0.00    -0.310 C  
ENDBRANCH  11  17
ENDBRANCH   9  11
ENDBRANCH   8   9
ENDBRANCH   7   8
ENDBRANCH   6   7
ENDBRANCH   3   6
ENDBRANCH   2   3
TORSDOF 8
ENDMDL
MODEL      130
REMARK 921   NORMALIZED FREE ENERGY PREDICTED BY IDOCK:   -3.65 KCAL/MOL
REMARK 922        TOTAL FREE ENERGY PREDICTED BY IDOCK:   -5.94 KCAL/MOL
REMARK 923 INTER-LIGAND FREE ENERGY PREDICTED BY IDOCK:   -5.89 KCAL/MOL
REMARK 924 INTRA-LIGAND FREE ENERGY PREDICTED BY IDOCK:   -0.05 KCAL/MOL
REMARK 927      BINDING AFFINITY PREDICTED BY RF-SCORE:    0.00 PKD
ROOT
HETATM    1  C   UNL     1      -8.645   9.373  64.590  1.00  0.00    -0.209 C  
HETATM    2  C   UNL     1      -9.344  10.370  65.510  1.00  0.00    -0.197 C  
ENDROOT
BRANCH   2   3
HETATM    3  N   UNL     1      -8.704  10.549  66.827  1.00  0.00    -0.131 NA 
BRANCH   3   4
HETATM    4  C   UNL     1      -7.256  10.788  66.769  1.00  0.00    -0.128 C  
HETATM    5  C   UNL     1      -6.383   9.788  67.517  1.00  0.00    -0.064 C  
ENDBRANCH   3   4
BRANCH   3   6
HETATM    6  C   UNL     1      -9.458  11.557  67.609  1.00  0.00    -0.168 C  
BRANCH   6   7
HETATM    7  C   UNL     1      -8.591  12.679  68.205  1.00  0.00    -0.188 C  
BRANCH   7   8
HETATM    8  O   UNL     1      -9.290  13.930  68.371  1.00  0.00    -0.205 OA 
BRANCH   8   9
HETATM    9  C   UNL     1      -9.073  14.846  67.392  1.00  0.00    -0.189 C  
HETATM   10  O   UNL     1      -8.079  14.858  66.680  1.00  0.00    -0.083 OA 
BRANCH   9  11
HETATM   11  C   UNL     1     -10.246  15.853  67.245  1.00  0.00    -0.278 C  
HETATM   12  C   UNL     1     -11.571  15.212  67.735  1.00  0.00    -0.303 C  
HETATM   13  C   UNL     1     -10.364  16.125  65.708  1.00  0.00    -0.398 C  
HETATM   14  C   UNL     1     -10.865  14.928  64.895  1.00  0.00    -0.431 C  
HETATM   15  C   UNL     1     -12.064  14.034  66.896  1.00  0.00    -0.465 C  
HETATM   16  C   UNL     1     -12.196  14.426  65.433  1.00  0.00    -0.362 C  
BRANCH  11  17
HETATM   17  C   UNL     1      -9.832  17.165  68.042  1.00  0.00    -0.283 C  
HETATM   18  C   UNL     1      -8.360  17.615  67.911  1.00  0.00    -0.235 C  
HETATM   19  C   UNL     1      -8.918  19.450  66.287  1.00  0.00    -0.374 C  
HETATM   20  C   UNL     1     -10.407  19.222  66.542  1.00  0.00    -0.538 C  
HETATM   21  C   UNL     1      -8.048  18.229  66.553  1.00  0.00    -0.293 C  
HETATM   22  C   UNL     1     -10.722  18.410  67.806  1.00  0.00    -0.371 C  
ENDBRANCH  11  17
ENDBRANCH   9  11
ENDBRANCH   8   9
ENDBRANCH   7   8
ENDBRANCH   6   7
ENDBRANCH   3   6
ENDBRANCH   2   3
TORSDOF 8
ENDMDL
MODEL      131
REMARK 921   NORMALIZED FREE ENERGY PREDICTED BY IDOCK:   -3.65 KCAL/MOL
REMARK 922        TOTAL FREE ENERGY PREDICTED BY IDOCK:   -5.93 KCAL/MOL
REMARK 923 INTER-LIGAND FREE ENERGY PREDICTED BY IDOCK:   -5.42 KCAL/MOL
REMARK 924 INTRA-LIGAND FREE ENERGY PREDICTED BY IDOCK:   -0.52 KCAL/MOL
REMARK 927      BINDING AFFINITY PREDICTED BY RF-SCORE:    0.00 PKD
ROOT
HETATM    1  C   UNL     1     -12.282  12.016  63.507  1.00  0.00    -0.653 C  
HETATM    2  C   UNL     1     -10.906  11.626  64.041  1.00  0.00    -0.392 C  
ENDROOT
BRANCH   2   3
HETATM    3  N   UNL     1     -10.662  11.994  65.448  1.00  0.00    -0.278 NA 
BRANCH   3   4
HETATM    4  C   UNL     1     -11.849  12.486  66.160  1.00  0.00    -0.397 C  
HETATM    5  C   UNL     1     -11.763  13.908  66.701  1.00  0.00    -0.417 C  
ENDBRANCH   3   4
BRANCH   3   6
HETATM    6  C   UNL     1      -9.955  10.887  66.133  1.00  0.00    -0.233 C  
BRANCH   6   7
HETATM    7  C   UNL     1     -10.706  10.304  67.342  1.00  0.00    -0.281 C  
BRANCH   7   8
HETATM    8  O   UNL     1      -9.906   9.419  68.153  1.00  0.00    -0.152 OA 
BRANCH   8   9
HETATM    9  C   UNL     1     -10.316   8.124  68.169  1.00  0.00    -0.201 C  
HETATM   10  O   UNL     1     -10.895   7.583  67.238  1.00  0.00    -0.299 OA 
BRANCH   9  11
HETATM   11  C   UNL     1      -9.933   7.391  69.483  1.00  0.00    -0.179 C  
HETATM   12  C   UNL     1     -11.042   6.383  69.882  1.00  0.00    -0.444 C  
HETATM   13  C   UNL     1      -9.864   8.512  70.574  1.00  0.00    -0.206 C  
HETATM   14  C   UNL     1     -11.222   9.124  70.931  1.00  0.00    -0.359 C  
HETATM   15  C   UNL     1     -12.381   7.017  70.256  1.00  0.00     0.042 C  
HETATM   16  C   UNL     1     -12.205   8.047  71.360  1.00  0.00    -0.335 C  
BRANCH  11  17
HETATM   17  C   UNL     1      -8.511   6.722  69.242  1.00  0.00    -0.129 C  
HETATM   18  C   UNL     1      -7.582   6.614  70.472  1.00  0.00    -0.099 C  
HETATM   19  C   UNL     1      -8.059   4.167  70.794  1.00  0.00    -0.063 C  
HETATM   20  C   UNL     1      -8.801   4.137  69.458  1.00  0.00    -0.139 C  
HETATM   21  C   UNL     1      -8.025   5.539  71.455  1.00  0.00    -0.116 C  
HETATM   22  C   UNL     1      -8.522   5.339  68.545  1.00  0.00    -0.092 C  
ENDBRANCH  11  17
ENDBRANCH   9  11
ENDBRANCH   8   9
ENDBRANCH   7   8
ENDBRANCH   6   7
ENDBRANCH   3   6
ENDBRANCH   2   3
TORSDOF 8
ENDMDL
MODEL      132
REMARK 921   NORMALIZED FREE ENERGY PREDICTED BY IDOCK:   -3.64 KCAL/MOL
REMARK 922        TOTAL FREE ENERGY PREDICTED BY IDOCK:   -5.93 KCAL/MOL
REMARK 923 INTER-LIGAND FREE ENERGY PREDICTED BY IDOCK:   -5.42 KCAL/MOL
REMARK 924 INTRA-LIGAND FREE ENERGY PREDICTED BY IDOCK:   -0.51 KCAL/MOL
REMARK 927      BINDING AFFINITY PREDICTED BY RF-SCORE:    0.00 PKD
ROOT
HETATM    1  C   UNL     1     -10.545  11.190  64.949  1.00  0.00    -0.356 C  
HETATM    2  C   UNL     1     -10.595  12.592  65.551  1.00  0.00    -0.275 C  
ENDROOT
BRANCH   2   3
HETATM    3  N   UNL     1     -10.965  12.638  66.978  1.00  0.00    -0.257 NA 
BRANCH   3   4
HETATM    4  C   UNL     1     -11.944  13.678  67.317  1.00  0.00    -0.381 C  
HETATM    5  C   UNL     1     -11.451  14.786  68.240  1.00  0.00    -0.338 C  
ENDBRANCH   3   4
BRANCH   3   6
HETATM    6  C   UNL     1     -11.336  11.278  67.436  1.00  0.00    -0.276 C  
BRANCH   6   7
HETATM    7  C   UNL     1     -10.833  10.922  68.845  1.00  0.00    -0.219 C  
BRANCH   7   8
HETATM    8  O   UNL     1     -10.865   9.509  69.135  1.00  0.00    -0.222 OA 
BRANCH   8   9
HETATM    9  C   UNL     1     -10.680   9.185  70.441  1.00  0.00    -0.238 C  
HETATM   10  O   UNL     1     -11.090   9.860  71.374  1.00  0.00    -0.325 OA 
BRANCH   9  11
HETATM   11  C   UNL     1      -9.927   7.839  70.622  1.00  0.00    -0.186 C  
HETATM   12  C   UNL     1      -9.161   7.827  71.972  1.00  0.00    -0.189 C  
HETATM   13  C   UNL     1      -8.881   7.794  69.458  1.00  0.00    -0.139 C  
HETATM   14  C   UNL     1      -7.750   8.817  69.590  1.00  0.00    -0.088 C  
HETATM   15  C   UNL     1      -8.022   8.840  72.072  1.00  0.00    -0.050 C  
HETATM   16  C   UNL     1      -7.039   8.669  70.926  1.00  0.00    -0.067 C  
BRANCH  11  17
HETATM   17  C   UNL     1     -11.007   6.681  70.485  1.00  0.00    -0.337 C  
HETATM   18  C   UNL     1     -10.480   5.295  70.050  1.00  0.00    -0.351 C  
HETATM   19  C   UNL     1     -10.595   4.363  72.381  1.00  0.00    -0.172 C  
HETATM   20  C   UNL     1     -11.337   5.616  72.844  1.00  0.00    -0.325 C  
HETATM   21  C   UNL     1      -9.717   4.579  71.156  1.00  0.00    -0.256 C  
HETATM   22  C   UNL     1     -11.929   6.465  71.710  1.00  0.00    -0.370 C  
ENDBRANCH  11  17
ENDBRANCH   9  11
ENDBRANCH   8   9
ENDBRANCH   7   8
ENDBRANCH   6   7
ENDBRANCH   3   6
ENDBRANCH   2   3
TORSDOF 8
ENDMDL
MODEL      133
REMARK 921   NORMALIZED FREE ENERGY PREDICTED BY IDOCK:   -3.64 KCAL/MOL
REMARK 922        TOTAL FREE ENERGY PREDICTED BY IDOCK:   -5.93 KCAL/MOL
REMARK 923 INTER-LIGAND FREE ENERGY PREDICTED BY IDOCK:   -5.46 KCAL/MOL
REMARK 924 INTRA-LIGAND FREE ENERGY PREDICTED BY IDOCK:   -0.47 KCAL/MOL
REMARK 927      BINDING AFFINITY PREDICTED BY RF-SCORE:    0.00 PKD
ROOT
HETATM    1  C   UNL     1     -11.062  16.326  69.939  1.00  0.00    -0.347 C  
HETATM    2  C   UNL     1     -11.554  15.607  71.192  1.00  0.00    -0.412 C  
ENDROOT
BRANCH   2   3
HETATM    3  N   UNL     1     -12.398  14.425  70.935  1.00  0.00    -0.325 NA 
BRANCH   3   4
HETATM    4  C   UNL     1     -13.803  14.585  71.331  1.00  0.00    -0.371 C  
HETATM    5  C   UNL     1     -14.070  15.567  72.465  1.00  0.00    -0.595 C  
ENDBRANCH   3   4
BRANCH   3   6
HETATM    6  C   UNL     1     -12.206  13.976  69.536  1.00  0.00    -0.308 C  
BRANCH   6   7
HETATM    7  C   UNL     1     -12.045  12.456  69.371  1.00  0.00    -0.180 C  
BRANCH   7   8
HETATM    8  O   UNL     1     -10.735  12.054  68.920  1.00  0.00    -0.219 OA 
BRANCH   8   9
HETATM    9  C   UNL     1     -10.391  10.774  69.217  1.00  0.00    -0.205 C  
HETATM   10  O   UNL     1     -10.834  10.155  70.174  1.00  0.00    -0.273 OA 
BRANCH   9  11
HETATM   11  C   UNL     1      -9.405  10.165  68.184  1.00  0.00    -0.140 C  
HETATM   12  C   UNL     1      -8.421   9.192  68.887  1.00  0.00    -0.129 C  
HETATM   13  C   UNL     1      -8.590  11.380  67.628  1.00  0.00    -0.130 C  
HETATM   14  C   UNL     1      -7.639  12.016  68.646  1.00  0.00    -0.112 C  
HETATM   15  C   UNL     1      -7.466   9.853  69.880  1.00  0.00    -0.156 C  
HETATM   16  C   UNL     1      -6.688  10.979  69.221  1.00  0.00    -0.099 C  
BRANCH  11  17
HETATM   17  C   UNL     1     -10.285   9.481  67.050  1.00  0.00    -0.321 C  
HETATM   18  C   UNL     1      -9.850   9.741  65.590  1.00  0.00    -0.371 C  
HETATM   19  C   UNL     1      -8.790   7.474  65.355  1.00  0.00     0.052 C  
HETATM   20  C   UNL     1      -9.387   7.057  66.698  1.00  0.00    -0.203 C  
HETATM   21  C   UNL     1      -8.591   8.977  65.203  1.00  0.00    -0.204 C  
HETATM   22  C   UNL     1     -10.522   7.958  67.201  1.00  0.00    -0.414 C  
ENDBRANCH  11  17
ENDBRANCH   9  11
ENDBRANCH   8   9
ENDBRANCH   7   8
ENDBRANCH   6   7
ENDBRANCH   3   6
ENDBRANCH   2   3
TORSDOF 8
ENDMDL
MODEL      134
REMARK 921   NORMALIZED FREE ENERGY PREDICTED BY IDOCK:   -3.64 KCAL/MOL
REMARK 922        TOTAL FREE ENERGY PREDICTED BY IDOCK:   -5.92 KCAL/MOL
REMARK 923 INTER-LIGAND FREE ENERGY PREDICTED BY IDOCK:   -5.57 KCAL/MOL
REMARK 924 INTRA-LIGAND FREE ENERGY PREDICTED BY IDOCK:   -0.36 KCAL/MOL
REMARK 927      BINDING AFFINITY PREDICTED BY RF-SCORE:    0.00 PKD
ROOT
HETATM    1  C   UNL     1      -8.798   6.418  71.402  1.00  0.00    -0.138 C  
HETATM    2  C   UNL     1     -10.057   6.994  70.759  1.00  0.00    -0.194 C  
ENDROOT
BRANCH   2   3
HETATM    3  N   UNL     1      -9.973   7.182  69.298  1.00  0.00    -0.165 NA 
BRANCH   3   4
HETATM    4  C   UNL     1     -10.541   6.078  68.513  1.00  0.00    -0.265 C  
HETATM    5  C   UNL     1     -10.813   6.374  67.043  1.00  0.00    -0.464 C  
ENDBRANCH   3   4
BRANCH   3   6
HETATM    6  C   UNL     1     -10.502   8.519  68.941  1.00  0.00    -0.188 C  
BRANCH   6   7
HETATM    7  C   UNL     1     -10.053   9.652  69.878  1.00  0.00    -0.246 C  
BRANCH   7   8
HETATM    8  O   UNL     1      -9.650  10.854  69.189  1.00  0.00    -0.186 OA 
BRANCH   8   9
HETATM    9  C   UNL     1     -10.670  11.657  68.788  1.00  0.00    -0.219 C  
HETATM   10  O   UNL     1     -11.701  11.817  69.426  1.00  0.00    -0.289 OA 
BRANCH   9  11
HETATM   11  C   UNL     1     -10.368  12.385  67.451  1.00  0.00    -0.217 C  
HETATM   12  C   UNL     1      -8.910  12.104  67.001  1.00  0.00    -0.203 C  
HETATM   13  C   UNL     1     -10.502  13.911  67.773  1.00  0.00    -0.243 C  
HETATM   14  C   UNL     1      -9.406  14.457  68.692  1.00  0.00    -0.188 C  
HETATM   15  C   UNL     1      -7.833  12.678  67.920  1.00  0.00    -0.154 C  
HETATM   16  C   UNL     1      -8.027  14.172  68.118  1.00  0.00    -0.143 C  
BRANCH  11  17
HETATM   17  C   UNL     1     -11.467  11.909  66.406  1.00  0.00    -0.371 C  
HETATM   18  C   UNL     1     -12.220  13.021  65.642  1.00  0.00    -0.521 C  
HETATM   19  C   UNL     1     -10.880  12.681  63.543  1.00  0.00    -0.373 C  
HETATM   20  C   UNL     1     -10.258  11.422  64.145  1.00  0.00    -0.376 C  
HETATM   21  C   UNL     1     -11.364  13.691  64.576  1.00  0.00    -0.393 C  
HETATM   22  C   UNL     1     -11.003  10.861  65.364  1.00  0.00    -0.032 C  
ENDBRANCH  11  17
ENDBRANCH   9  11
ENDBRANCH   8   9
ENDBRANCH   7   8
ENDBRANCH   6   7
ENDBRANCH   3   6
ENDBRANCH   2   3
TORSDOF 8
ENDMDL
MODEL      135
REMARK 921   NORMALIZED FREE ENERGY PREDICTED BY IDOCK:   -3.64 KCAL/MOL
REMARK 922        TOTAL FREE ENERGY PREDICTED BY IDOCK:   -5.92 KCAL/MOL
REMARK 923 INTER-LIGAND FREE ENERGY PREDICTED BY IDOCK:   -5.45 KCAL/MOL
REMARK 924 INTRA-LIGAND FREE ENERGY PREDICTED BY IDOCK:   -0.48 KCAL/MOL
REMARK 927      BINDING AFFINITY PREDICTED BY RF-SCORE:    0.00 PKD
ROOT
HETATM    1  C   UNL     1      -8.405  10.233  63.298  1.00  0.00    -0.168 C  
HETATM    2  C   UNL     1      -7.602   9.900  64.553  1.00  0.00    -0.139 C  
ENDROOT
BRANCH   2   3
HETATM    3  N   UNL     1      -8.245   8.930  65.458  1.00  0.00    -0.121 NA 
BRANCH   3   4
HETATM    4  C   UNL     1      -7.786   7.546  65.289  1.00  0.00    -0.120 C  
HETATM    5  C   UNL     1      -6.348   7.372  64.817  1.00  0.00    -0.037 C  
ENDBRANCH   3   4
BRANCH   3   6
HETATM    6  C   UNL     1      -8.171   9.431  66.851  1.00  0.00    -0.116 C  
BRANCH   6   7
HETATM    7  C   UNL     1      -9.435  10.162  67.333  1.00  0.00    -0.153 C  
BRANCH   7   8
HETATM    8  O   UNL     1      -9.578  11.494  66.796  1.00  0.00    -0.181 OA 
BRANCH   8   9
HETATM    9  C   UNL     1     -10.837  12.002  66.842  1.00  0.00    -0.259 C  
HETATM   10  O   UNL     1     -11.798  11.396  67.293  1.00  0.00    -0.594 OA 
BRANCH   9  11
HETATM   11  C   UNL     1     -10.917  13.453  66.296  1.00  0.00    -0.296 C  
HETATM   12  C   UNL     1     -12.387  13.829  65.976  1.00  0.00    -0.499 C  
HETATM   13  C   UNL     1     -10.105  13.434  64.958  1.00  0.00    -0.261 C  
HETATM   14  C   UNL     1     -10.767  12.631  63.834  1.00  0.00    -0.465 C  
HETATM   15  C   UNL     1     -13.019  13.030  64.835  1.00  0.00    -0.218 C  
HETATM   16  C   UNL     1     -12.179  13.128  63.573  1.00  0.00    -0.552 C  
BRANCH  11  17
HETATM   17  C   UNL     1     -10.234  14.394  67.381  1.00  0.00    -0.247 C  
HETATM   18  C   UNL     1      -8.836  14.949  67.030  1.00  0.00    -0.255 C  
HETATM   19  C   UNL     1      -9.731  17.221  66.437  1.00  0.00    -0.303 C  
HETATM   20  C   UNL     1     -11.100  16.824  66.985  1.00  0.00     0.175 C  
HETATM   21  C   UNL     1      -8.882  16.044  65.974  1.00  0.00    -0.314 C  
HETATM   22  C   UNL     1     -11.092  15.581  67.886  1.00  0.00    -0.321 C  
ENDBRANCH  11  17
ENDBRANCH   9  11
ENDBRANCH   8   9
ENDBRANCH   7   8
ENDBRANCH   6   7
ENDBRANCH   3   6
ENDBRANCH   2   3
TORSDOF 8
ENDMDL
MODEL      136
REMARK 921   NORMALIZED FREE ENERGY PREDICTED BY IDOCK:   -3.64 KCAL/MOL
REMARK 922        TOTAL FREE ENERGY PREDICTED BY IDOCK:   -5.92 KCAL/MOL
REMARK 923 INTER-LIGAND FREE ENERGY PREDICTED BY IDOCK:   -5.77 KCAL/MOL
REMARK 924 INTRA-LIGAND FREE ENERGY PREDICTED BY IDOCK:   -0.15 KCAL/MOL
REMARK 927      BINDING AFFINITY PREDICTED BY RF-SCORE:    0.00 PKD
ROOT
HETATM    1  C   UNL     1     -14.334  15.524  72.140  1.00  0.00    -0.598 C  
HETATM    2  C   UNL     1     -12.958  14.868  72.059  1.00  0.00    -0.333 C  
ENDROOT
BRANCH   2   3
HETATM    3  N   UNL     1     -12.795  13.910  70.949  1.00  0.00    -0.321 NA 
BRANCH   3   4
HETATM    4  C   UNL     1     -11.683  14.220  70.041  1.00  0.00    -0.298 C  
HETATM    5  C   UNL     1     -11.562  15.674  69.604  1.00  0.00    -0.364 C  
ENDBRANCH   3   4
BRANCH   3   6
HETATM    6  C   UNL     1     -12.777  12.529  71.487  1.00  0.00    -0.220 C  
BRANCH   6   7
HETATM    7  C   UNL     1     -12.356  11.456  70.470  1.00  0.00    -0.349 C  
BRANCH   7   8
HETATM    8  O   UNL     1     -11.522  10.419  71.028  1.00  0.00    -0.328 OA 
BRANCH   8   9
HETATM    9  C   UNL     1     -10.966   9.576  70.119  1.00  0.00    -0.262 C  
HETATM   10  O   UNL     1     -11.194   9.623  68.919  1.00  0.00    -0.115 OA 
BRANCH   9  11
HETATM   11  C   UNL     1      -9.976   8.569  70.765  1.00  0.00    -0.230 C  
HETATM   12  C   UNL     1      -9.981   7.230  69.982  1.00  0.00    -0.184 C  
HETATM   13  C   UNL     1     -10.537   8.307  72.203  1.00  0.00    -0.380 C  
HETATM   14  C   UNL     1     -11.853   7.525  72.230  1.00  0.00    -0.331 C  
HETATM   15  C   UNL     1     -11.298   6.456  70.043  1.00  0.00    -0.496 C  
HETATM   16  C   UNL     1     -11.718   6.209  71.482  1.00  0.00    -0.264 C  
BRANCH  11  17
HETATM   17  C   UNL     1      -8.556   9.282  70.812  1.00  0.00    -0.254 C  
HETATM   18  C   UNL     1      -7.335   8.371  71.071  1.00  0.00    -0.069 C  
HETATM   19  C   UNL     1      -6.639   8.380  68.656  1.00  0.00    -0.055 C  
HETATM   20  C   UNL     1      -7.675   9.464  68.362  1.00  0.00    -0.086 C  
HETATM   21  C   UNL     1      -6.970   7.516  69.865  1.00  0.00    -0.059 C  
HETATM   22  C   UNL     1      -8.212  10.189  69.604  1.00  0.00    -0.176 C  
ENDBRANCH  11  17
ENDBRANCH   9  11
ENDBRANCH   8   9
ENDBRANCH   7   8
ENDBRANCH   6   7
ENDBRANCH   3   6
ENDBRANCH   2   3
TORSDOF 8
ENDMDL
MODEL      137
REMARK 921   NORMALIZED FREE ENERGY PREDICTED BY IDOCK:   -3.61 KCAL/MOL
REMARK 922        TOTAL FREE ENERGY PREDICTED BY IDOCK:   -5.88 KCAL/MOL
REMARK 923 INTER-LIGAND FREE ENERGY PREDICTED BY IDOCK:   -5.36 KCAL/MOL
REMARK 924 INTRA-LIGAND FREE ENERGY PREDICTED BY IDOCK:   -0.52 KCAL/MOL
REMARK 927      BINDING AFFINITY PREDICTED BY RF-SCORE:    0.00 PKD
ROOT
HETATM    1  C   UNL     1      -8.971   8.769  69.184  1.00  0.00    -0.137 C  
HETATM    2  C   UNL     1      -9.862   9.427  68.134  1.00  0.00    -0.160 C  
ENDROOT
BRANCH   2   3
HETATM    3  N   UNL     1      -9.142   9.977  66.970  1.00  0.00    -0.141 NA 
BRANCH   3   4
HETATM    4  C   UNL     1      -7.833   9.361  66.721  1.00  0.00    -0.105 C  
HETATM    5  C   UNL     1      -7.089   9.849  65.484  1.00  0.00    -0.118 C  
ENDBRANCH   3   4
BRANCH   3   6
HETATM    6  C   UNL     1     -10.044   9.992  65.794  1.00  0.00    -0.250 C  
BRANCH   6   7
HETATM    7  C   UNL     1     -10.383  11.397  65.270  1.00  0.00    -0.282 C  
BRANCH   7   8
HETATM    8  O   UNL     1      -9.546  12.440  65.813  1.00  0.00    -0.236 OA 
BRANCH   8   9
HETATM    9  C   UNL     1     -10.063  13.693  65.734  1.00  0.00    -0.298 C  
HETATM   10  O   UNL     1     -10.726  14.097  64.789  1.00  0.00    -0.398 OA 
BRANCH   9  11
HETATM   11  C   UNL     1      -9.755  14.548  66.993  1.00  0.00    -0.247 C  
HETATM   12  C   UNL     1      -9.435  13.630  68.202  1.00  0.00    -0.217 C  
HETATM   13  C   UNL     1     -11.079  15.326  67.296  1.00  0.00    -0.325 C  
HETATM   14  C   UNL     1     -12.230  14.440  67.782  1.00  0.00    -0.190 C  
HETATM   15  C   UNL     1     -10.604  12.773  68.684  1.00  0.00    -0.256 C  
HETATM   16  C   UNL     1     -11.815  13.634  69.002  1.00  0.00    -0.393 C  
BRANCH  11  17
HETATM   17  C   UNL     1      -8.571  15.536  66.604  1.00  0.00    -0.325 C  
HETATM   18  C   UNL     1      -8.961  17.007  66.337  1.00  0.00    -0.308 C  
HETATM   19  C   UNL     1      -8.126  17.782  68.577  1.00  0.00    -0.297 C  
HETATM   20  C   UNL     1      -7.502  16.409  68.819  1.00  0.00    -0.207 C  
HETATM   21  C   UNL     1      -9.303  17.769  67.610  1.00  0.00    -0.250 C  
HETATM   22  C   UNL     1      -7.353  15.544  67.560  1.00  0.00    -0.216 C  
ENDBRANCH  11  17
ENDBRANCH   9  11
ENDBRANCH   8   9
ENDBRANCH   7   8
ENDBRANCH   6   7
ENDBRANCH   3   6
ENDBRANCH   2   3
TORSDOF 8
ENDMDL
MODEL      138
REMARK 921   NORMALIZED FREE ENERGY PREDICTED BY IDOCK:   -3.61 KCAL/MOL
REMARK 922        TOTAL FREE ENERGY PREDICTED BY IDOCK:   -5.88 KCAL/MOL
REMARK 923 INTER-LIGAND FREE ENERGY PREDICTED BY IDOCK:   -5.43 KCAL/MOL
REMARK 924 INTRA-LIGAND FREE ENERGY PREDICTED BY IDOCK:   -0.45 KCAL/MOL
REMARK 927      BINDING AFFINITY PREDICTED BY RF-SCORE:    0.00 PKD
ROOT
HETATM    1  C   UNL     1     -11.935  13.567  69.779  1.00  0.00    -0.405 C  
HETATM    2  C   UNL     1     -12.008  13.689  68.259  1.00  0.00    -0.350 C  
ENDROOT
BRANCH   2   3
HETATM    3  N   UNL     1     -10.701  13.702  67.577  1.00  0.00    -0.258 NA 
BRANCH   3   4
HETATM    4  C   UNL     1     -10.326  15.004  67.010  1.00  0.00    -0.269 C  
HETATM    5  C   UNL     1     -10.715  16.228  67.830  1.00  0.00    -0.329 C  
ENDBRANCH   3   4
BRANCH   3   6
HETATM    6  C   UNL     1      -9.675  13.105  68.465  1.00  0.00    -0.137 C  
BRANCH   6   7
HETATM    7  C   UNL     1      -9.324  11.644  68.140  1.00  0.00    -0.188 C  
BRANCH   7   8
HETATM    8  O   UNL     1      -9.821  10.696  69.107  1.00  0.00    -0.207 OA 
BRANCH   8   9
HETATM    9  C   UNL     1      -8.872   9.932  69.706  1.00  0.00    -0.211 C  
HETATM   10  O   UNL     1      -7.701  10.267  69.820  1.00  0.00    -0.155 OA 
BRANCH   9  11
HETATM   11  C   UNL     1      -9.441   8.601  70.267  1.00  0.00    -0.182 C  
HETATM   12  C   UNL     1      -8.376   7.477  70.175  1.00  0.00    -0.134 C  
HETATM   13  C   UNL     1     -10.635   8.234  69.323  1.00  0.00    -0.191 C  
HETATM   14  C   UNL     1     -10.214   7.832  67.907  1.00  0.00    -0.259 C  
HETATM   15  C   UNL     1      -7.989   7.075  68.752  1.00  0.00    -0.120 C  
HETATM   16  C   UNL     1      -9.215   6.686  67.944  1.00  0.00    -0.111 C  
BRANCH  11  17
HETATM   17  C   UNL     1      -9.937   8.898  71.748  1.00  0.00    -0.397 C  
HETATM   18  C   UNL     1     -11.402   8.529  72.072  1.00  0.00    -0.425 C  
HETATM   19  C   UNL     1     -10.751   6.438  73.305  1.00  0.00    -0.288 C  
HETATM   20  C   UNL     1      -9.282   6.854  73.232  1.00  0.00    -0.162 C  
HETATM   21  C   UNL     1     -11.619   7.027  72.202  1.00  0.00    -0.320 C  
HETATM   22  C   UNL     1      -9.052   8.331  72.886  1.00  0.00    -0.332 C  
ENDBRANCH  11  17
ENDBRANCH   9  11
ENDBRANCH   8   9
ENDBRANCH   7   8
ENDBRANCH   6   7
ENDBRANCH   3   6
ENDBRANCH   2   3
TORSDOF 8
ENDMDL
MODEL      139
REMARK 921   NORMALIZED FREE ENERGY PREDICTED BY IDOCK:   -3.60 KCAL/MOL
REMARK 922        TOTAL FREE ENERGY PREDICTED BY IDOCK:   -5.87 KCAL/MOL
REMARK 923 INTER-LIGAND FREE ENERGY PREDICTED BY IDOCK:   -5.75 KCAL/MOL
REMARK 924 INTRA-LIGAND FREE ENERGY PREDICTED BY IDOCK:   -0.11 KCAL/MOL
REMARK 927      BINDING AFFINITY PREDICTED BY RF-SCORE:    0.00 PKD
ROOT
HETATM    1  C   UNL     1     -10.424  20.118  66.169  1.00  0.00    -0.452 C  
HETATM    2  C   UNL     1      -8.930  19.810  66.214  1.00  0.00    -0.376 C  
ENDROOT
BRANCH   2   3
HETATM    3  N   UNL     1      -8.578  18.409  65.918  1.00  0.00    -0.473 NA 
BRANCH   3   4
HETATM    4  C   UNL     1      -7.165  18.079  66.141  1.00  0.00    -0.290 C  
HETATM    5  C   UNL     1      -6.692  18.110  67.589  1.00  0.00    -0.199 C  
ENDBRANCH   3   4
BRANCH   3   6
HETATM    6  C   UNL     1      -9.532  17.505  66.604  1.00  0.00    -0.275 C  
BRANCH   6   7
HETATM    7  C   UNL     1     -10.448  16.711  65.659  1.00  0.00    -0.297 C  
BRANCH   7   8
HETATM    8  O   UNL     1     -10.688  15.353  66.085  1.00  0.00    -0.304 OA 
BRANCH   8   9
HETATM    9  C   UNL     1     -11.123  15.220  67.365  1.00  0.00    -0.326 C  
HETATM   10  O   UNL     1     -11.868  16.017  67.916  1.00  0.00    -0.063 OA 
BRANCH   9  11
HETATM   11  C   UNL     1     -10.605  13.922  68.041  1.00  0.00    -0.252 C  
HETATM   12  C   UNL     1     -10.299  14.179  69.539  1.00  0.00     0.159 C  
HETATM   13  C   UNL     1      -9.263  13.585  67.310  1.00  0.00    -0.233 C  
HETATM   14  C   UNL     1      -8.128  14.572  67.597  1.00  0.00    -0.190 C  
HETATM   15  C   UNL     1      -9.148  15.149  69.802  1.00  0.00     0.025 C  
HETATM   16  C   UNL     1      -7.883  14.696  69.092  1.00  0.00    -0.107 C  
BRANCH  11  17
HETATM   17  C   UNL     1     -11.704  12.800  67.791  1.00  0.00    -0.412 C  
HETATM   18  C   UNL     1     -11.603  12.019  66.462  1.00  0.00    -0.384 C  
HETATM   19  C   UNL     1     -10.593   9.998  67.562  1.00  0.00    -0.336 C  
HETATM   20  C   UNL     1     -10.875  10.605  68.936  1.00  0.00    -0.272 C  
HETATM   21  C   UNL     1     -10.451  11.024  66.446  1.00  0.00    -0.312 C  
HETATM   22  C   UNL     1     -11.884  11.762  68.928  1.00  0.00    -0.381 C  
ENDBRANCH  11  17
ENDBRANCH   9  11
ENDBRANCH   8   9
ENDBRANCH   7   8
ENDBRANCH   6   7
ENDBRANCH   3   6
ENDBRANCH   2   3
TORSDOF 8
ENDMDL
MODEL      140
REMARK 921   NORMALIZED FREE ENERGY PREDICTED BY IDOCK:   -3.60 KCAL/MOL
REMARK 922        TOTAL FREE ENERGY PREDICTED BY IDOCK:   -5.86 KCAL/MOL
REMARK 923 INTER-LIGAND FREE ENERGY PREDICTED BY IDOCK:   -5.34 KCAL/MOL
REMARK 924 INTRA-LIGAND FREE ENERGY PREDICTED BY IDOCK:   -0.52 KCAL/MOL
REMARK 927      BINDING AFFINITY PREDICTED BY RF-SCORE:    0.00 PKD
ROOT
HETATM    1  C   UNL     1     -11.010  15.399  70.812  1.00  0.00    -0.349 C  
HETATM    2  C   UNL     1     -11.980  15.294  69.638  1.00  0.00    -0.338 C  
ENDROOT
BRANCH   2   3
HETATM    3  N   UNL     1     -11.438  15.752  68.345  1.00  0.00    -0.374 NA 
BRANCH   3   4
HETATM    4  C   UNL     1     -10.419  16.803  68.454  1.00  0.00    -0.339 C  
HETATM    5  C   UNL     1      -9.075  16.502  67.801  1.00  0.00    -0.204 C  
ENDBRANCH   3   4
BRANCH   3   6
HETATM    6  C   UNL     1     -11.022  14.579  67.541  1.00  0.00    -0.293 C  
BRANCH   6   7
HETATM    7  C   UNL     1     -12.067  13.454  67.468  1.00  0.00    -0.279 C  
BRANCH   7   8
HETATM    8  O   UNL     1     -11.596  12.187  67.971  1.00  0.00    -0.307 OA 
BRANCH   8   9
HETATM    9  C   UNL     1     -10.989  11.391  67.052  1.00  0.00    -0.292 C  
HETATM   10  O   UNL     1     -11.234  11.426  65.855  1.00  0.00    -0.230 OA 
BRANCH   9  11
HETATM   11  C   UNL     1      -9.918  10.460  67.682  1.00  0.00    -0.205 C  
HETATM   12  C   UNL     1      -8.813  11.300  68.376  1.00  0.00    -0.159 C  
HETATM   13  C   UNL     1      -9.278   9.695  66.476  1.00  0.00    -0.197 C  
HETATM   14  C   UNL     1      -8.434  10.576  65.551  1.00  0.00    -0.177 C  
HETATM   15  C   UNL     1      -7.968  12.153  67.431  1.00  0.00    -0.168 C  
HETATM   16  C   UNL     1      -7.351  11.302  66.334  1.00  0.00    -0.058 C  
BRANCH  11  17
HETATM   17  C   UNL     1     -10.685   9.470  68.663  1.00  0.00    -0.218 C  
HETATM   18  C   UNL     1     -10.448   7.960  68.441  1.00  0.00    -0.207 C  
HETATM   19  C   UNL     1      -8.871   7.777  70.390  1.00  0.00    -0.146 C  
HETATM   20  C   UNL     1      -9.234   9.199  70.815  1.00  0.00    -0.321 C  
HETATM   21  C   UNL     1      -9.072   7.502  68.905  1.00  0.00    -0.140 C  
HETATM   22  C   UNL     1     -10.516   9.750  70.177  1.00  0.00    -0.338 C  
ENDBRANCH  11  17
ENDBRANCH   9  11
ENDBRANCH   8   9
ENDBRANCH   7   8
ENDBRANCH   6   7
ENDBRANCH   3   6
ENDBRANCH   2   3
TORSDOF 8
ENDMDL
MODEL      141
REMARK 921   NORMALIZED FREE ENERGY PREDICTED BY IDOCK:   -3.59 KCAL/MOL
REMARK 922        TOTAL FREE ENERGY PREDICTED BY IDOCK:   -5.85 KCAL/MOL
REMARK 923 INTER-LIGAND FREE ENERGY PREDICTED BY IDOCK:   -5.78 KCAL/MOL
REMARK 924 INTRA-LIGAND FREE ENERGY PREDICTED BY IDOCK:   -0.07 KCAL/MOL
REMARK 927      BINDING AFFINITY PREDICTED BY RF-SCORE:    0.00 PKD
ROOT
HETATM    1  C   UNL     1      -8.779   7.545  70.232  1.00  0.00    -0.145 C  
HETATM    2  C   UNL     1      -8.041   8.525  69.324  1.00  0.00    -0.113 C  
ENDROOT
BRANCH   2   3
HETATM    3  N   UNL     1      -8.885   9.178  68.306  1.00  0.00    -0.129 NA 
BRANCH   3   4
HETATM    4  C   UNL     1      -8.568   8.800  66.922  1.00  0.00    -0.115 C  
HETATM    5  C   UNL     1      -8.864   7.355  66.541  1.00  0.00    -0.165 C  
ENDBRANCH   3   4
BRANCH   3   6
HETATM    6  C   UNL     1     -10.312   9.018  68.670  1.00  0.00    -0.209 C  
BRANCH   6   7
HETATM    7  C   UNL     1     -11.142  10.309  68.575  1.00  0.00    -0.242 C  
BRANCH   7   8
HETATM    8  O   UNL     1     -10.379  11.511  68.809  1.00  0.00    -0.203 OA 
BRANCH   8   9
HETATM    9  C   UNL     1     -11.116  12.645  68.934  1.00  0.00    -0.259 C  
HETATM   10  O   UNL     1     -11.995  12.796  69.770  1.00  0.00    -0.314 OA 
BRANCH   9  11
HETATM   11  C   UNL     1     -10.692  13.748  67.926  1.00  0.00    -0.256 C  
HETATM   12  C   UNL     1      -9.337  14.373  68.350  1.00  0.00    -0.206 C  
HETATM   13  C   UNL     1     -11.801  14.847  68.029  1.00  0.00    -0.296 C  
HETATM   14  C   UNL     1     -11.807  15.610  69.357  1.00  0.00    -0.391 C  
HETATM   15  C   UNL     1      -9.372  15.150  69.666  1.00  0.00    -0.091 C  
HETATM   16  C   UNL     1     -10.445  16.226  69.634  1.00  0.00    -0.294 C  
BRANCH  11  17
HETATM   17  C   UNL     1     -10.667  13.074  66.486  1.00  0.00    -0.290 C  
HETATM   18  C   UNL     1     -12.032  12.646  65.902  1.00  0.00    -0.497 C  
HETATM   19  C   UNL     1     -12.153  14.627  64.360  1.00  0.00    -0.481 C  
HETATM   20  C   UNL     1     -10.710  14.987  64.712  1.00  0.00    -0.354 C  
HETATM   21  C   UNL     1     -12.873  13.827  65.437  1.00  0.00    -0.455 C  
HETATM   22  C   UNL     1      -9.915  13.859  65.383  1.00  0.00    -0.274 C  
ENDBRANCH  11  17
ENDBRANCH   9  11
ENDBRANCH   8   9
ENDBRANCH   7   8
ENDBRANCH   6   7
ENDBRANCH   3   6
ENDBRANCH   2   3
TORSDOF 8
ENDMDL
MODEL      142
REMARK 921   NORMALIZED FREE ENERGY PREDICTED BY IDOCK:   -3.58 KCAL/MOL
REMARK 922        TOTAL FREE ENERGY PREDICTED BY IDOCK:   -5.84 KCAL/MOL
REMARK 923 INTER-LIGAND FREE ENERGY PREDICTED BY IDOCK:   -5.09 KCAL/MOL
REMARK 924 INTRA-LIGAND FREE ENERGY PREDICTED BY IDOCK:   -0.76 KCAL/MOL
REMARK 927      BINDING AFFINITY PREDICTED BY RF-SCORE:    0.00 PKD
ROOT
HETATM    1  C   UNL     1     -11.773  12.304  68.500  1.00  0.00    -0.381 C  
HETATM    2  C   UNL     1     -11.780  12.045  66.996  1.00  0.00    -0.267 C  
ENDROOT
BRANCH   2   3
HETATM    3  N   UNL     1     -10.454  12.102  66.353  1.00  0.00    -0.226 NA 
BRANCH   3   4
HETATM    4  C   UNL     1      -9.799  13.414  66.431  1.00  0.00    -0.296 C  
HETATM    5  C   UNL     1      -8.465  13.453  67.166  1.00  0.00    -0.179 C  
ENDBRANCH   3   4
BRANCH   3   6
HETATM    6  C   UNL     1      -9.622  10.975  66.837  1.00  0.00    -0.182 C  
BRANCH   6   7
HETATM    7  C   UNL     1     -10.132   9.585  66.424  1.00  0.00    -0.258 C  
BRANCH   7   8
HETATM    8  O   UNL     1     -10.455   8.728  67.539  1.00  0.00    -0.257 OA 
BRANCH   8   9
HETATM    9  C   UNL     1      -9.530   7.775  67.821  1.00  0.00    -0.143 C  
HETATM   10  O   UNL     1      -8.791   7.276  66.984  1.00  0.00    -0.123 OA 
BRANCH   9  11
HETATM   11  C   UNL     1      -9.483   7.415  69.330  1.00  0.00    -0.155 C  
HETATM   12  C   UNL     1      -9.788   8.667  70.194  1.00  0.00    -0.191 C  
HETATM   13  C   UNL     1      -8.006   6.972  69.602  1.00  0.00    -0.124 C  
HETATM   14  C   UNL     1      -6.983   8.109  69.510  1.00  0.00    -0.050 C  
HETATM   15  C   UNL     1      -8.743   9.778  70.104  1.00  0.00    -0.215 C  
HETATM   16  C   UNL     1      -7.358   9.251  70.441  1.00  0.00    -0.111 C  
BRANCH  11  17
HETATM   17  C   UNL     1     -10.503   6.215  69.553  1.00  0.00    -0.315 C  
HETATM   18  C   UNL     1      -9.995   5.025  70.397  1.00  0.00    -0.317 C  
HETATM   19  C   UNL     1     -11.267   5.750  72.440  1.00  0.00    -0.343 C  
HETATM   20  C   UNL     1     -11.993   6.809  71.611  1.00  0.00    -0.391 C  
HETATM   21  C   UNL     1      -9.908   5.349  71.882  1.00  0.00    -0.218 C  
HETATM   22  C   UNL     1     -11.901   6.606  70.093  1.00  0.00    -0.347 C  
ENDBRANCH  11  17
ENDBRANCH   9  11
ENDBRANCH   8   9
ENDBRANCH   7   8
ENDBRANCH   6   7
ENDBRANCH   3   6
ENDBRANCH   2   3
TORSDOF 8
ENDMDL
MODEL      143
REMARK 921   NORMALIZED FREE ENERGY PREDICTED BY IDOCK:   -3.58 KCAL/MOL
REMARK 922        TOTAL FREE ENERGY PREDICTED BY IDOCK:   -5.83 KCAL/MOL
REMARK 923 INTER-LIGAND FREE ENERGY PREDICTED BY IDOCK:   -5.18 KCAL/MOL
REMARK 924 INTRA-LIGAND FREE ENERGY PREDICTED BY IDOCK:   -0.65 KCAL/MOL
REMARK 927      BINDING AFFINITY PREDICTED BY RF-SCORE:    0.00 PKD
ROOT
HETATM    1  C   UNL     1      -9.333  16.394  67.872  1.00  0.00    -0.214 C  
HETATM    2  C   UNL     1     -10.081  15.510  66.878  1.00  0.00    -0.262 C  
ENDROOT
BRANCH   2   3
HETATM    3  N   UNL     1     -11.244  14.797  67.439  1.00  0.00    -0.328 NA 
BRANCH   3   4
HETATM    4  C   UNL     1     -11.904  15.494  68.550  1.00  0.00    -0.258 C  
HETATM    5  C   UNL     1     -11.985  14.730  69.865  1.00  0.00    -0.378 C  
ENDBRANCH   3   4
BRANCH   3   6
HETATM    6  C   UNL     1     -12.155  14.398  66.340  1.00  0.00    -0.369 C  
BRANCH   6   7
HETATM    7  C   UNL     1     -11.729  13.126  65.590  1.00  0.00    -0.364 C  
BRANCH   7   8
HETATM    8  O   UNL     1     -11.663  11.951  66.425  1.00  0.00    -0.522 OA 
BRANCH   8   9
HETATM    9  C   UNL     1     -10.633  11.108  66.153  1.00  0.00    -0.248 C  
HETATM   10  O   UNL     1     -10.523  10.483  65.108  1.00  0.00    -0.270 OA 
BRANCH   9  11
HETATM   11  C   UNL     1      -9.585  11.055  67.298  1.00  0.00    -0.183 C  
HETATM   12  C   UNL     1      -9.311   9.585  67.710  1.00  0.00    -0.143 C  
HETATM   13  C   UNL     1     -10.256  11.792  68.504  1.00  0.00    -0.215 C  
HETATM   14  C   UNL     1     -11.442  11.041  69.117  1.00  0.00    -0.370 C  
HETATM   15  C   UNL     1     -10.500   8.862  68.341  1.00  0.00    -0.230 C  
HETATM   16  C   UNL     1     -11.036   9.636  69.534  1.00  0.00    -0.198 C  
BRANCH  11  17
HETATM   17  C   UNL     1      -8.296  11.830  66.782  1.00  0.00    -0.165 C  
HETATM   18  C   UNL     1      -7.728  12.922  67.717  1.00  0.00    -0.151 C  
HETATM   19  C   UNL     1      -5.846  11.460  68.513  1.00  0.00    -0.042 C  
HETATM   20  C   UNL     1      -6.202  10.423  67.448  1.00  0.00    -0.057 C  
HETATM   21  C   UNL     1      -7.011  12.347  68.930  1.00  0.00    -0.091 C  
HETATM   22  C   UNL     1      -7.110  10.945  66.326  1.00  0.00    -0.119 C  
ENDBRANCH  11  17
ENDBRANCH   9  11
ENDBRANCH   8   9
ENDBRANCH   7   8
ENDBRANCH   6   7
ENDBRANCH   3   6
ENDBRANCH   2   3
TORSDOF 8
ENDMDL
MODEL      144
REMARK 921   NORMALIZED FREE ENERGY PREDICTED BY IDOCK:   -3.57 KCAL/MOL
REMARK 922        TOTAL FREE ENERGY PREDICTED BY IDOCK:   -5.83 KCAL/MOL
REMARK 923 INTER-LIGAND FREE ENERGY PREDICTED BY IDOCK:   -5.49 KCAL/MOL
REMARK 924 INTRA-LIGAND FREE ENERGY PREDICTED BY IDOCK:   -0.34 KCAL/MOL
REMARK 927      BINDING AFFINITY PREDICTED BY RF-SCORE:    0.00 PKD
ROOT
HETATM    1  C   UNL     1      -9.759   5.119  66.968  1.00  0.00    -0.173 C  
HETATM    2  C   UNL     1     -10.852   6.132  67.299  1.00  0.00    -0.352 C  
ENDROOT
BRANCH   2   3
HETATM    3  N   UNL     1     -10.360   7.447  67.750  1.00  0.00    -0.198 NA 
BRANCH   3   4
HETATM    4  C   UNL     1     -10.195   7.566  69.204  1.00  0.00    -0.202 C  
HETATM    5  C   UNL     1      -9.786   8.940  69.720  1.00  0.00    -0.180 C  
ENDBRANCH   3   4
BRANCH   3   6
HETATM    6  C   UNL     1      -9.157   7.819  66.967  1.00  0.00    -0.138 C  
BRANCH   6   7
HETATM    7  C   UNL     1      -9.447   8.668  65.719  1.00  0.00    -0.122 C  
BRANCH   7   8
HETATM    8  O   UNL     1     -10.101   9.922  66.006  1.00  0.00    -0.259 OA 
BRANCH   8   9
HETATM    9  C   UNL     1      -9.265  10.970  66.225  1.00  0.00    -0.182 C  
HETATM   10  O   UNL     1      -8.049  10.868  66.292  1.00  0.00    -0.157 OA 
BRANCH   9  11
HETATM   11  C   UNL     1     -10.020  12.322  66.341  1.00  0.00    -0.243 C  
HETATM   12  C   UNL     1      -9.423  13.176  67.491  1.00  0.00    -0.212 C  
HETATM   13  C   UNL     1     -11.491  11.942  66.716  1.00  0.00    -0.384 C  
HETATM   14  C   UNL     1     -11.650  11.363  68.125  1.00  0.00    -0.364 C  
HETATM   15  C   UNL     1      -9.614  12.591  68.890  1.00  0.00     0.209 C  
HETATM   16  C   UNL     1     -11.082  12.312  69.167  1.00  0.00    -0.261 C  
BRANCH  11  17
HETATM   17  C   UNL     1      -9.941  13.020  64.914  1.00  0.00    -0.151 C  
HETATM   18  C   UNL     1     -10.362  12.160  63.702  1.00  0.00    -0.482 C  
HETATM   19  C   UNL     1     -12.604  13.279  63.507  1.00  0.00    -0.172 C  
HETATM   20  C   UNL     1     -12.173  14.320  64.540  1.00  0.00    -0.476 C  
HETATM   21  C   UNL     1     -11.868  11.950  63.620  1.00  0.00    -0.573 C  
HETATM   22  C   UNL     1     -10.659  14.386  64.787  1.00  0.00    -0.417 C  
ENDBRANCH  11  17
ENDBRANCH   9  11
ENDBRANCH   8   9
ENDBRANCH   7   8
ENDBRANCH   6   7
ENDBRANCH   3   6
ENDBRANCH   2   3
TORSDOF 8
ENDMDL
MODEL      145
REMARK 921   NORMALIZED FREE ENERGY PREDICTED BY IDOCK:   -3.57 KCAL/MOL
REMARK 922        TOTAL FREE ENERGY PREDICTED BY IDOCK:   -5.82 KCAL/MOL
REMARK 923 INTER-LIGAND FREE ENERGY PREDICTED BY IDOCK:   -5.33 KCAL/MOL
REMARK 924 INTRA-LIGAND FREE ENERGY PREDICTED BY IDOCK:   -0.49 KCAL/MOL
REMARK 927      BINDING AFFINITY PREDICTED BY RF-SCORE:    0.00 PKD
ROOT
HETATM    1  C   UNL     1     -11.520   6.442  71.676  1.00  0.00    -0.354 C  
HETATM    2  C   UNL     1     -10.500   5.718  70.800  1.00  0.00    -0.258 C  
ENDROOT
BRANCH   2   3
HETATM    3  N   UNL     1      -9.516   6.598  70.142  1.00  0.00    -0.158 NA 
BRANCH   3   4
HETATM    4  C   UNL     1      -9.300   6.306  68.719  1.00  0.00    -0.124 C  
HETATM    5  C   UNL     1     -10.043   5.097  68.164  1.00  0.00    -0.192 C  
ENDBRANCH   3   4
BRANCH   3   6
HETATM    6  C   UNL     1      -9.848   8.013  70.430  1.00  0.00    -0.183 C  
BRANCH   6   7
HETATM    7  C   UNL     1      -9.236   9.023  69.446  1.00  0.00    -0.150 C  
BRANCH   7   8
HETATM    8  O   UNL     1     -10.191   9.957  68.901  1.00  0.00    -0.179 OA 
BRANCH   8   9
HETATM    9  C   UNL     1     -10.331   9.915  67.550  1.00  0.00    -0.236 C  
HETATM   10  O   UNL     1     -10.718   8.931  66.936  1.00  0.00    -0.230 OA 
BRANCH   9  11
HETATM   11  C   UNL     1      -9.985  11.268  66.871  1.00  0.00    -0.238 C  
HETATM   12  C   UNL     1     -10.557  11.310  65.430  1.00  0.00    -0.312 C  
HETATM   13  C   UNL     1      -8.422  11.298  66.787  1.00  0.00    -0.161 C  
HETATM   14  C   UNL     1      -7.827  10.284  65.805  1.00  0.00    -0.145 C  
HETATM   15  C   UNL     1      -9.932  10.305  64.462  1.00  0.00    -0.359 C  
HETATM   16  C   UNL     1      -8.421  10.461  64.417  1.00  0.00    -0.166 C  
BRANCH  11  17
HETATM   17  C   UNL     1     -10.542  12.417  67.818  1.00  0.00    -0.236 C  
HETATM   18  C   UNL     1      -9.696  13.707  67.907  1.00  0.00    -0.234 C  
HETATM   19  C   UNL     1     -11.232  14.987  66.383  1.00  0.00    -0.310 C  
HETATM   20  C   UNL     1     -12.238  13.837  66.434  1.00  0.00    -0.480 C  
HETATM   21  C   UNL     1      -9.794  14.566  66.653  1.00  0.00    -0.282 C  
HETATM   22  C   UNL     1     -12.012  12.840  67.578  1.00  0.00    -0.342 C  
ENDBRANCH  11  17
ENDBRANCH   9  11
ENDBRANCH   8   9
ENDBRANCH   7   8
ENDBRANCH   6   7
ENDBRANCH   3   6
ENDBRANCH   2   3
TORSDOF 8
ENDMDL
MODEL      146
REMARK 921   NORMALIZED FREE ENERGY PREDICTED BY IDOCK:   -3.56 KCAL/MOL
REMARK 922        TOTAL FREE ENERGY PREDICTED BY IDOCK:   -5.81 KCAL/MOL
REMARK 923 INTER-LIGAND FREE ENERGY PREDICTED BY IDOCK:   -5.32 KCAL/MOL
REMARK 924 INTRA-LIGAND FREE ENERGY PREDICTED BY IDOCK:   -0.48 KCAL/MOL
REMARK 927      BINDING AFFINITY PREDICTED BY RF-SCORE:    0.00 PKD
ROOT
HETATM    1  C   UNL     1     -10.067  15.303  68.007  1.00  0.00    -0.229 C  
HETATM    2  C   UNL     1     -10.937  15.185  66.758  1.00  0.00    -0.321 C  
ENDROOT
BRANCH   2   3
HETATM    3  N   UNL     1     -11.455  13.830  66.492  1.00  0.00    -0.334 NA 
BRANCH   3   4
HETATM    4  C   UNL     1     -12.551  13.782  65.515  1.00  0.00    -0.512 C  
HETATM    5  C   UNL     1     -12.401  14.685  64.297  1.00  0.00    -0.375 C  
ENDBRANCH   3   4
BRANCH   3   6
HETATM    6  C   UNL     1     -10.326  12.920  66.186  1.00  0.00    -0.276 C  
BRANCH   6   7
HETATM    7  C   UNL     1     -10.723  11.648  65.420  1.00  0.00    -0.287 C  
BRANCH   7   8
HETATM    8  O   UNL     1     -10.665  10.446  66.217  1.00  0.00    -0.151 OA 
BRANCH   8   9
HETATM    9  C   UNL     1      -9.624   9.620  65.938  1.00  0.00    -0.257 C  
HETATM   10  O   UNL     1      -9.019   9.623  64.875  1.00  0.00    -0.190 OA 
BRANCH   9  11
HETATM   11  C   UNL     1      -9.256   8.697  67.131  1.00  0.00    -0.175 C  
HETATM   12  C   UNL     1      -9.908   9.220  68.438  1.00  0.00    -0.173 C  
HETATM   13  C   UNL     1      -7.701   8.807  67.272  1.00  0.00    -0.096 C  
HETATM   14  C   UNL     1      -7.211  10.174  67.759  1.00  0.00    -0.087 C  
HETATM   15  C   UNL     1      -9.387  10.574  68.918  1.00  0.00    -0.192 C  
HETATM   16  C   UNL     1      -7.875  10.551  69.074  1.00  0.00    -0.129 C  
BRANCH  11  17
HETATM   17  C   UNL     1      -9.704   7.224  66.733  1.00  0.00    -0.260 C  
HETATM   18  C   UNL     1      -8.708   6.089  67.057  1.00  0.00    -0.110 C  
HETATM   19  C   UNL     1     -10.003   5.338  69.076  1.00  0.00    -0.260 C  
HETATM   20  C   UNL     1     -11.147   6.275  68.690  1.00  0.00    -0.409 C  
HETATM   21  C   UNL     1      -8.642   5.767  68.544  1.00  0.00    -0.109 C  
HETATM   22  C   UNL     1     -11.098   6.779  67.241  1.00  0.00    -0.394 C  
ENDBRANCH  11  17
ENDBRANCH   9  11
ENDBRANCH   8   9
ENDBRANCH   7   8
ENDBRANCH   6   7
ENDBRANCH   3   6
ENDBRANCH   2   3
TORSDOF 8
ENDMDL
MODEL      147
REMARK 921   NORMALIZED FREE ENERGY PREDICTED BY IDOCK:   -3.55 KCAL/MOL
REMARK 922        TOTAL FREE ENERGY PREDICTED BY IDOCK:   -5.79 KCAL/MOL
REMARK 923 INTER-LIGAND FREE ENERGY PREDICTED BY IDOCK:   -5.27 KCAL/MOL
REMARK 924 INTRA-LIGAND FREE ENERGY PREDICTED BY IDOCK:   -0.52 KCAL/MOL
REMARK 927      BINDING AFFINITY PREDICTED BY RF-SCORE:    0.00 PKD
ROOT
HETATM    1  C   UNL     1     -12.439  11.264  70.955  1.00  0.00    -0.503 C  
HETATM    2  C   UNL     1     -12.253  10.780  69.519  1.00  0.00    -0.221 C  
ENDROOT
BRANCH   2   3
HETATM    3  N   UNL     1     -10.851  10.569  69.115  1.00  0.00    -0.220 NA 
BRANCH   3   4
HETATM    4  C   UNL     1     -10.237   9.355  69.669  1.00  0.00    -0.212 C  
HETATM    5  C   UNL     1      -8.826   9.511  70.220  1.00  0.00    -0.281 C  
ENDBRANCH   3   4
BRANCH   3   6
HETATM    6  C   UNL     1     -10.738  10.692  67.642  1.00  0.00    -0.267 C  
BRANCH   6   7
HETATM    7  C   UNL     1     -10.250  12.066  67.154  1.00  0.00    -0.202 C  
BRANCH   7   8
HETATM    8  O   UNL     1     -10.503  13.138  68.085  1.00  0.00    -0.234 OA 
BRANCH   8   9
HETATM    9  C   UNL     1     -11.353  14.100  67.640  1.00  0.00    -0.319 C  
HETATM   10  O   UNL     1     -12.389  13.864  67.036  1.00  0.00    -0.391 OA 
BRANCH   9  11
HETATM   11  C   UNL     1     -10.887  15.532  68.017  1.00  0.00    -0.300 C  
HETATM   12  C   UNL     1      -9.697  15.468  69.011  1.00  0.00    -0.237 C  
HETATM   13  C   UNL     1     -12.109  16.183  68.747  1.00  0.00     0.197 C  
HETATM   14  C   UNL     1     -12.419  15.574  70.117  1.00  0.00    -0.351 C  
HETATM   15  C   UNL     1     -10.035  14.878  70.379  1.00  0.00     0.470 C  
HETATM   16  C   UNL     1     -11.197  15.620  71.020  1.00  0.00    -0.411 C  
BRANCH  11  17
HETATM   17  C   UNL     1     -10.550  16.283  66.657  1.00  0.00    -0.252 C  
HETATM   18  C   UNL     1     -10.398  17.818  66.736  1.00  0.00    -0.343 C  
HETATM   19  C   UNL     1      -7.888  17.716  66.653  1.00  0.00    -0.283 C  
HETATM   20  C   UNL     1      -7.961  16.223  66.335  1.00  0.00    -0.299 C  
HETATM   21  C   UNL     1      -9.100  18.251  67.404  1.00  0.00    -0.253 C  
HETATM   22  C   UNL     1      -9.337  15.736  65.863  1.00  0.00    -0.356 C  
ENDBRANCH  11  17
ENDBRANCH   9  11
ENDBRANCH   8   9
ENDBRANCH   7   8
ENDBRANCH   6   7
ENDBRANCH   3   6
ENDBRANCH   2   3
TORSDOF 8
ENDMDL
MODEL      148
REMARK 921   NORMALIZED FREE ENERGY PREDICTED BY IDOCK:   -3.54 KCAL/MOL
REMARK 922        TOTAL FREE ENERGY PREDICTED BY IDOCK:   -5.78 KCAL/MOL
REMARK 923 INTER-LIGAND FREE ENERGY PREDICTED BY IDOCK:   -5.48 KCAL/MOL
REMARK 924 INTRA-LIGAND FREE ENERGY PREDICTED BY IDOCK:   -0.30 KCAL/MOL
REMARK 927      BINDING AFFINITY PREDICTED BY RF-SCORE:    0.00 PKD
ROOT
HETATM    1  C   UNL     1      -9.228   9.204  67.792  1.00  0.00    -0.145 C  
HETATM    2  C   UNL     1      -7.864   9.880  67.905  1.00  0.00    -0.090 C  
ENDROOT
BRANCH   2   3
HETATM    3  N   UNL     1      -7.792  10.963  68.903  1.00  0.00    -0.134 NA 
BRANCH   3   4
HETATM    4  C   UNL     1      -6.518  11.033  69.631  1.00  0.00    -0.123 C  
HETATM    5  C   UNL     1      -6.359  10.062  70.794  1.00  0.00    -0.074 C  
ENDBRANCH   3   4
BRANCH   3   6
HETATM    6  C   UNL     1      -8.207  12.240  68.277  1.00  0.00    -0.167 C  
BRANCH   6   7
HETATM    7  C   UNL     1      -7.406  13.468  68.742  1.00  0.00    -0.086 C  
BRANCH   7   8
HETATM    8  O   UNL     1      -8.147  14.704  68.681  1.00  0.00    -0.138 OA 
BRANCH   8   9
HETATM    9  C   UNL     1      -7.837  15.510  67.632  1.00  0.00    -0.155 C  
HETATM   10  O   UNL     1      -6.802  15.419  66.987  1.00  0.00    -0.247 OA 
BRANCH   9  11
HETATM   11  C   UNL     1      -8.959  16.535  67.314  1.00  0.00    -0.212 C  
HETATM   12  C   UNL     1     -10.136  16.374  68.312  1.00  0.00    -0.248 C  
HETATM   13  C   UNL     1      -9.466  16.157  65.882  1.00  0.00    -0.337 C  
HETATM   14  C   UNL     1     -10.218  14.825  65.814  1.00  0.00    -0.359 C  
HETATM   15  C   UNL     1     -10.886  15.047  68.210  1.00  0.00    -0.259 C  
HETATM   16  C   UNL     1     -11.381  14.809  66.793  1.00  0.00    -0.347 C  
BRANCH  11  17
HETATM   17  C   UNL     1      -8.289  17.977  67.335  1.00  0.00    -0.233 C  
HETATM   18  C   UNL     1      -8.632  18.914  66.156  1.00  0.00    -0.185 C  
HETATM   19  C   UNL     1     -10.259  20.262  67.517  1.00  0.00    -0.486 C  
HETATM   20  C   UNL     1      -9.802  19.536  68.781  1.00  0.00    -0.532 C  
HETATM   21  C   UNL     1     -10.048  19.469  66.234  1.00  0.00    -0.560 C  
HETATM   22  C   UNL     1      -8.469  18.788  68.642  1.00  0.00    -0.364 C  
ENDBRANCH  11  17
ENDBRANCH   9  11
ENDBRANCH   8   9
ENDBRANCH   7   8
ENDBRANCH   6   7
ENDBRANCH   3   6
ENDBRANCH   2   3
TORSDOF 8
ENDMDL
MODEL      149
REMARK 921   NORMALIZED FREE ENERGY PREDICTED BY IDOCK:   -3.52 KCAL/MOL
REMARK 922        TOTAL FREE ENERGY PREDICTED BY IDOCK:   -5.75 KCAL/MOL
REMARK 923 INTER-LIGAND FREE ENERGY PREDICTED BY IDOCK:   -5.21 KCAL/MOL
REMARK 924 INTRA-LIGAND FREE ENERGY PREDICTED BY IDOCK:   -0.54 KCAL/MOL
REMARK 927      BINDING AFFINITY PREDICTED BY RF-SCORE:    0.00 PKD
ROOT
HETATM    1  C   UNL     1     -11.955  13.772  68.348  1.00  0.00    -0.395 C  
HETATM    2  C   UNL     1     -12.259  13.764  66.852  1.00  0.00    -0.366 C  
ENDROOT
BRANCH   2   3
HETATM    3  N   UNL     1     -12.076  12.459  66.191  1.00  0.00    -0.641 NA 
BRANCH   3   4
HETATM    4  C   UNL     1     -12.161  12.505  64.726  1.00  0.00    -0.465 C  
HETATM    5  C   UNL     1     -12.255  13.893  64.105  1.00  0.00    -0.436 C  
ENDBRANCH   3   4
BRANCH   3   6
HETATM    6  C   UNL     1     -10.849  11.810  66.711  1.00  0.00    -0.270 C  
BRANCH   6   7
HETATM    7  C   UNL     1     -10.864  10.274  66.643  1.00  0.00    -0.045 C  
BRANCH   7   8
HETATM    8  O   UNL     1     -11.195   9.639  67.895  1.00  0.00    -0.143 OA 
BRANCH   8   9
HETATM    9  C   UNL     1     -10.423   8.569  68.220  1.00  0.00    -0.171 C  
HETATM   10  O   UNL     1     -10.443   7.507  67.615  1.00  0.00    -0.223 OA 
BRANCH   9  11
HETATM   11  C   UNL     1      -9.481   8.855  69.421  1.00  0.00    -0.161 C  
HETATM   12  C   UNL     1      -9.362   7.598  70.323  1.00  0.00    -0.157 C  
HETATM   13  C   UNL     1     -10.187   9.988  70.237  1.00  0.00    -0.266 C  
HETATM   14  C   UNL     1     -11.475   9.548  70.937  1.00  0.00    -0.405 C  
HETATM   15  C   UNL     1     -10.654   7.191  71.030  1.00  0.00    -0.239 C  
HETATM   16  C   UNL     1     -11.221   8.348  71.836  1.00  0.00    -0.379 C  
BRANCH  11  17
HETATM   17  C   UNL     1      -8.095   9.346  68.815  1.00  0.00    -0.103 C  
HETATM   18  C   UNL     1      -7.308  10.383  69.647  1.00  0.00    -0.156 C  
HETATM   19  C   UNL     1      -5.686   8.669  70.511  1.00  0.00    -0.027 C  
HETATM   20  C   UNL     1      -6.260   7.638  69.540  1.00  0.00    -0.031 C  
HETATM   21  C   UNL     1      -6.659   9.779  70.885  1.00  0.00    -0.048 C  
HETATM   22  C   UNL     1      -7.102   8.231  68.402  1.00  0.00    -0.081 C  
ENDBRANCH  11  17
ENDBRANCH   9  11
ENDBRANCH   8   9
ENDBRANCH   7   8
ENDBRANCH   6   7
ENDBRANCH   3   6
ENDBRANCH   2   3
TORSDOF 8
ENDMDL
MODEL      150
REMARK 921   NORMALIZED FREE ENERGY PREDICTED BY IDOCK:   -3.51 KCAL/MOL
REMARK 922        TOTAL FREE ENERGY PREDICTED BY IDOCK:   -5.73 KCAL/MOL
REMARK 923 INTER-LIGAND FREE ENERGY PREDICTED BY IDOCK:   -5.24 KCAL/MOL
REMARK 924 INTRA-LIGAND FREE ENERGY PREDICTED BY IDOCK:   -0.49 KCAL/MOL
REMARK 927      BINDING AFFINITY PREDICTED BY RF-SCORE:    0.00 PKD
ROOT
HETATM    1  C   UNL     1      -9.481   3.978  67.043  1.00  0.00    -0.223 C  
HETATM    2  C   UNL     1     -10.589   4.891  66.523  1.00  0.00    -0.184 C  
ENDROOT
BRANCH   2   3
HETATM    3  N   UNL     1     -10.611   6.239  67.121  1.00  0.00    -0.268 NA 
BRANCH   3   4
HETATM    4  C   UNL     1     -11.082   6.277  68.512  1.00  0.00    -0.308 C  
HETATM    5  C   UNL     1     -10.273   7.143  69.469  1.00  0.00    -0.201 C  
ENDBRANCH   3   4
BRANCH   3   6
HETATM    6  C   UNL     1      -9.301   6.897  66.903  1.00  0.00    -0.148 C  
BRANCH   6   7
HETATM    7  C   UNL     1      -9.350   8.117  65.969  1.00  0.00    -0.117 C  
BRANCH   7   8
HETATM    8  O   UNL     1      -9.939   9.289  66.571  1.00  0.00    -0.234 OA 
BRANCH   8   9
HETATM    9  C   UNL     1      -9.480  10.474  66.093  1.00  0.00    -0.180 C  
HETATM   10  O   UNL     1      -8.829  10.587  65.064  1.00  0.00    -0.179 OA 
BRANCH   9  11
HETATM   11  C   UNL     1      -9.908  11.680  66.973  1.00  0.00    -0.211 C  
HETATM   12  C   UNL     1      -8.908  12.854  66.802  1.00  0.00    -0.152 C  
HETATM   13  C   UNL     1      -9.820  11.163  68.448  1.00  0.00    -0.188 C  
HETATM   14  C   UNL     1      -8.393  10.898  68.936  1.00  0.00    -0.139 C  
HETATM   15  C   UNL     1      -7.497  12.575  67.317  1.00  0.00    -0.125 C  
HETATM   16  C   UNL     1      -7.525  12.136  68.772  1.00  0.00    -0.075 C  
BRANCH  11  17
HETATM   17  C   UNL     1     -11.402  12.042  66.568  1.00  0.00    -0.413 C  
HETATM   18  C   UNL     1     -11.971  13.359  67.141  1.00  0.00    -0.415 C  
HETATM   19  C   UNL     1     -11.674  14.596  64.973  1.00  0.00    -0.385 C  
HETATM   20  C   UNL     1     -11.325  13.283  64.273  1.00  0.00    -0.428 C  
HETATM   21  C   UNL     1     -11.391  14.597  66.470  1.00  0.00    -0.353 C  
HETATM   22  C   UNL     1     -11.718  12.020  65.052  1.00  0.00    -0.316 C  
ENDBRANCH  11  17
ENDBRANCH   9  11
ENDBRANCH   8   9
ENDBRANCH   7   8
ENDBRANCH   6   7
ENDBRANCH   3   6
ENDBRANCH   2   3
TORSDOF 8
ENDMDL
MODEL      151
REMARK 921   NORMALIZED FREE ENERGY PREDICTED BY IDOCK:   -3.49 KCAL/MOL
REMARK 922        TOTAL FREE ENERGY PREDICTED BY IDOCK:   -5.70 KCAL/MOL
REMARK 923 INTER-LIGAND FREE ENERGY PREDICTED BY IDOCK:   -5.30 KCAL/MOL
REMARK 924 INTRA-LIGAND FREE ENERGY PREDICTED BY IDOCK:   -0.40 KCAL/MOL
REMARK 927      BINDING AFFINITY PREDICTED BY RF-SCORE:    0.00 PKD
ROOT
HETATM    1  C   UNL     1      -8.937   5.455  69.961  1.00  0.00    -0.152 C  
HETATM    2  C   UNL     1     -10.111   5.895  69.090  1.00  0.00    -0.190 C  
ENDROOT
BRANCH   2   3
HETATM    3  N   UNL     1      -9.809   5.994  67.650  1.00  0.00    -0.117 NA 
BRANCH   3   4
HETATM    4  C   UNL     1     -10.100   4.775  66.884  1.00  0.00    -0.210 C  
HETATM    5  C   UNL     1      -8.972   3.756  66.795  1.00  0.00    -0.150 C  
ENDBRANCH   3   4
BRANCH   3   6
HETATM    6  C   UNL     1     -10.427   7.223  67.099  1.00  0.00    -0.324 C  
BRANCH   6   7
HETATM    7  C   UNL     1     -10.594   8.363  68.117  1.00  0.00    -0.118 C  
BRANCH   7   8
HETATM    8  O   UNL     1     -10.924   9.634  67.520  1.00  0.00    -0.260 OA 
BRANCH   8   9
HETATM    9  C   UNL     1     -10.137  10.673  67.904  1.00  0.00    -0.168 C  
HETATM   10  O   UNL     1      -9.623  10.764  69.009  1.00  0.00    -0.197 OA 
BRANCH   9  11
HETATM   11  C   UNL     1      -9.927  11.714  66.771  1.00  0.00    -0.229 C  
HETATM   12  C   UNL     1     -10.446  11.155  65.421  1.00  0.00    -0.321 C  
HETATM   13  C   UNL     1      -8.377  11.903  66.669  1.00  0.00    -0.117 C  
HETATM   14  C   UNL     1      -7.631  10.681  66.125  1.00  0.00    -0.138 C  
HETATM   15  C   UNL     1      -9.672   9.950  64.886  1.00  0.00    -0.332 C  
HETATM   16  C   UNL     1      -8.189  10.262  64.774  1.00  0.00    -0.163 C  
BRANCH  11  17
HETATM   17  C   UNL     1     -10.650  13.053  67.233  1.00  0.00    -0.247 C  
HETATM   18  C   UNL     1     -10.043  14.377  66.717  1.00  0.00    -0.266 C  
HETATM   19  C   UNL     1     -11.825  14.677  64.971  1.00  0.00    -0.377 C  
HETATM   20  C   UNL     1     -12.610  13.513  65.573  1.00  0.00    -0.531 C  
HETATM   21  C   UNL     1     -10.327  14.623  65.242  1.00  0.00    -0.425 C  
HETATM   22  C   UNL     1     -12.178  13.117  66.992  1.00  0.00    -0.271 C  
ENDBRANCH  11  17
ENDBRANCH   9  11
ENDBRANCH   8   9
ENDBRANCH   7   8
ENDBRANCH   6   7
ENDBRANCH   3   6
ENDBRANCH   2   3
TORSDOF 8
ENDMDL
MODEL      152
REMARK 921   NORMALIZED FREE ENERGY PREDICTED BY IDOCK:   -3.48 KCAL/MOL
REMARK 922        TOTAL FREE ENERGY PREDICTED BY IDOCK:   -5.69 KCAL/MOL
REMARK 923 INTER-LIGAND FREE ENERGY PREDICTED BY IDOCK:   -5.17 KCAL/MOL
REMARK 924 INTRA-LIGAND FREE ENERGY PREDICTED BY IDOCK:   -0.52 KCAL/MOL
REMARK 927      BINDING AFFINITY PREDICTED BY RF-SCORE:    0.00 PKD
ROOT
HETATM    1  C   UNL     1     -12.282  11.723  69.747  1.00  0.00    -0.270 C  
HETATM    2  C   UNL     1     -11.219  12.324  68.831  1.00  0.00    -0.273 C  
ENDROOT
BRANCH   2   3
HETATM    3  N   UNL     1     -10.951  11.551  67.604  1.00  0.00    -0.226 NA 
BRANCH   3   4
HETATM    4  C   UNL     1      -9.680  11.880  66.946  1.00  0.00    -0.200 C  
HETATM    5  C   UNL     1      -9.669  13.156  66.113  1.00  0.00    -0.254 C  
ENDBRANCH   3   4
BRANCH   3   6
HETATM    6  C   UNL     1     -11.139  10.107  67.880  1.00  0.00    -0.238 C  
BRANCH   6   7
HETATM    7  C   UNL     1      -9.841   9.343  68.187  1.00  0.00    -0.160 C  
BRANCH   7   8
HETATM    8  O   UNL     1      -9.804   8.764  69.508  1.00  0.00    -0.174 OA 
BRANCH   8   9
HETATM    9  C   UNL     1     -10.352   7.526  69.609  1.00  0.00    -0.225 C  
HETATM   10  O   UNL     1     -10.814   6.907  68.661  1.00  0.00    -0.219 OA 
BRANCH   9  11
HETATM   11  C   UNL     1     -10.293   6.962  71.055  1.00  0.00    -0.224 C  
HETATM   12  C   UNL     1     -11.609   6.216  71.397  1.00  0.00    -0.283 C  
HETATM   13  C   UNL     1     -10.178   8.218  71.982  1.00  0.00    -0.339 C  
HETATM   14  C   UNL     1     -11.441   9.083  72.025  1.00  0.00    -0.408 C  
HETATM   15  C   UNL     1     -12.852   7.103  71.458  1.00  0.00    -0.434 C  
HETATM   16  C   UNL     1     -12.651   8.256  72.428  1.00  0.00    -0.323 C  
BRANCH  11  17
HETATM   17  C   UNL     1      -8.994   6.049  71.143  1.00  0.00    -0.142 C  
HETATM   18  C   UNL     1      -8.169   6.148  72.445  1.00  0.00    -0.108 C  
HETATM   19  C   UNL     1      -9.072   3.984  73.349  1.00  0.00    -0.108 C  
HETATM   20  C   UNL     1      -9.731   3.697  72.001  1.00  0.00    -0.238 C  
HETATM   21  C   UNL     1      -8.843   5.463  73.626  1.00  0.00    -0.125 C  
HETATM   22  C   UNL     1      -9.201   4.544  70.836  1.00  0.00    -0.201 C  
ENDBRANCH  11  17
ENDBRANCH   9  11
ENDBRANCH   8   9
ENDBRANCH   7   8
ENDBRANCH   6   7
ENDBRANCH   3   6
ENDBRANCH   2   3
TORSDOF 8
ENDMDL
MODEL      153
REMARK 921   NORMALIZED FREE ENERGY PREDICTED BY IDOCK:   -3.47 KCAL/MOL
REMARK 922        TOTAL FREE ENERGY PREDICTED BY IDOCK:   -5.68 KCAL/MOL
REMARK 923 INTER-LIGAND FREE ENERGY PREDICTED BY IDOCK:   -4.97 KCAL/MOL
REMARK 924 INTRA-LIGAND FREE ENERGY PREDICTED BY IDOCK:   -0.71 KCAL/MOL
REMARK 927      BINDING AFFINITY PREDICTED BY RF-SCORE:    0.00 PKD
ROOT
HETATM    1  C   UNL     1     -11.312  11.531  67.347  1.00  0.00    -0.367 C  
HETATM    2  C   UNL     1     -10.411  11.486  66.116  1.00  0.00    -0.251 C  
ENDROOT
BRANCH   2   3
HETATM    3  N   UNL     1      -9.045  10.990  66.368  1.00  0.00    -0.172 NA 
BRANCH   3   4
HETATM    4  C   UNL     1      -8.271  10.706  65.153  1.00  0.00    -0.092 C  
HETATM    5  C   UNL     1      -7.230   9.599  65.268  1.00  0.00    -0.113 C  
ENDBRANCH   3   4
BRANCH   3   6
HETATM    6  C   UNL     1      -8.364  11.889  67.330  1.00  0.00    -0.169 C  
BRANCH   6   7
HETATM    7  C   UNL     1      -7.755  11.174  68.547  1.00  0.00    -0.129 C  
BRANCH   7   8
HETATM    8  O   UNL     1      -8.726  10.786  69.541  1.00  0.00    -0.041 OA 
BRANCH   8   9
HETATM    9  C   UNL     1      -8.428   9.652  70.227  1.00  0.00    -0.188 C  
HETATM   10  O   UNL     1      -7.478   9.549  70.990  1.00  0.00    -0.300 OA 
BRANCH   9  11
HETATM   11  C   UNL     1      -9.448   8.511  69.968  1.00  0.00    -0.165 C  
HETATM   12  C   UNL     1     -10.831   9.101  69.586  1.00  0.00    -0.210 C  
HETATM   13  C   UNL     1      -9.587   7.765  71.338  1.00  0.00    -0.182 C  
HETATM   14  C   UNL     1     -10.286   8.581  72.429  1.00  0.00    -0.369 C  
HETATM   15  C   UNL     1     -11.521   9.891  70.698  1.00  0.00    -0.411 C  
HETATM   16  C   UNL     1     -11.653   9.054  71.960  1.00  0.00    -0.413 C  
BRANCH  11  17
HETATM   17  C   UNL     1      -8.819   7.571  68.851  1.00  0.00    -0.135 C  
HETATM   18  C   UNL     1      -8.991   6.049  69.053  1.00  0.00    -0.124 C  
HETATM   19  C   UNL     1     -10.838   5.891  67.356  1.00  0.00    -0.341 C  
HETATM   20  C   UNL     1     -10.570   7.334  66.931  1.00  0.00    -0.375 C  
HETATM   21  C   UNL     1     -10.413   5.574  68.783  1.00  0.00    -0.261 C  
HETATM   22  C   UNL     1      -9.217   7.895  67.390  1.00  0.00    -0.160 C  
ENDBRANCH  11  17
ENDBRANCH   9  11
ENDBRANCH   8   9
ENDBRANCH   7   8
ENDBRANCH   6   7
ENDBRANCH   3   6
ENDBRANCH   2   3
TORSDOF 8
ENDMDL
MODEL      154
REMARK 921   NORMALIZED FREE ENERGY PREDICTED BY IDOCK:   -3.47 KCAL/MOL
REMARK 922        TOTAL FREE ENERGY PREDICTED BY IDOCK:   -5.68 KCAL/MOL
REMARK 923 INTER-LIGAND FREE ENERGY PREDICTED BY IDOCK:   -5.36 KCAL/MOL
REMARK 924 INTRA-LIGAND FREE ENERGY PREDICTED BY IDOCK:   -0.32 KCAL/MOL
REMARK 927      BINDING AFFINITY PREDICTED BY RF-SCORE:    0.00 PKD
ROOT
HETATM    1  C   UNL     1      -8.362  14.676  68.612  1.00  0.00    -0.165 C  
HETATM    2  C   UNL     1      -9.717  14.318  68.005  1.00  0.00    -0.223 C  
ENDROOT
BRANCH   2   3
HETATM    3  N   UNL     1     -10.338  13.099  68.556  1.00  0.00    -0.250 NA 
BRANCH   3   4
HETATM    4  C   UNL     1     -11.787  13.201  68.771  1.00  0.00    -0.324 C  
HETATM    5  C   UNL     1     -12.229  13.596  70.175  1.00  0.00    -0.413 C  
ENDBRANCH   3   4
BRANCH   3   6
HETATM    6  C   UNL     1      -9.921  11.926  67.751  1.00  0.00    -0.186 C  
BRANCH   6   7
HETATM    7  C   UNL     1     -11.073  10.994  67.343  1.00  0.00    -0.305 C  
BRANCH   7   8
HETATM    8  O   UNL     1     -11.251   9.866  68.224  1.00  0.00    -0.195 OA 
BRANCH   8   9
HETATM    9  C   UNL     1     -10.293   8.907  68.134  1.00  0.00    -0.212 C  
HETATM   10  O   UNL     1      -9.762   8.574  67.084  1.00  0.00    -0.163 OA 
BRANCH   9  11
HETATM   11  C   UNL     1      -9.915   8.307  69.515  1.00  0.00    -0.187 C  
HETATM   12  C   UNL     1      -9.158   9.356  70.370  1.00  0.00    -0.302 C  
HETATM   13  C   UNL     1      -8.938   7.127  69.197  1.00  0.00    -0.138 C  
HETATM   14  C   UNL     1      -7.576   7.569  68.654  1.00  0.00    -0.110 C  
HETATM   15  C   UNL     1      -7.792   9.765  69.822  1.00  0.00    -0.159 C  
HETATM   16  C   UNL     1      -6.907   8.549  69.604  1.00  0.00    -0.043 C  
BRANCH  11  17
HETATM   17  C   UNL     1     -11.264   7.787  70.179  1.00  0.00    -0.168 C  
HETATM   18  C   UNL     1     -11.393   6.260  70.372  1.00  0.00    -0.440 C  
HETATM   19  C   UNL     1     -10.886   6.386  72.830  1.00  0.00    -0.286 C  
HETATM   20  C   UNL     1     -10.974   7.910  72.769  1.00  0.00    -0.456 C  
HETATM   21  C   UNL     1     -10.523   5.731  71.504  1.00  0.00    -0.291 C  
HETATM   22  C   UNL     1     -11.665   8.461  71.514  1.00  0.00    -0.341 C  
ENDBRANCH  11  17
ENDBRANCH   9  11
ENDBRANCH   8   9
ENDBRANCH   7   8
ENDBRANCH   6   7
ENDBRANCH   3   6
ENDBRANCH   2   3
TORSDOF 8
ENDMDL
MODEL      155
REMARK 921   NORMALIZED FREE ENERGY PREDICTED BY IDOCK:   -3.46 KCAL/MOL
REMARK 922        TOTAL FREE ENERGY PREDICTED BY IDOCK:   -5.66 KCAL/MOL
REMARK 923 INTER-LIGAND FREE ENERGY PREDICTED BY IDOCK:   -5.24 KCAL/MOL
REMARK 924 INTRA-LIGAND FREE ENERGY PREDICTED BY IDOCK:   -0.41 KCAL/MOL
REMARK 927      BINDING AFFINITY PREDICTED BY RF-SCORE:    0.00 PKD
ROOT
HETATM    1  C   UNL     1      -8.116   6.791  71.373  1.00  0.00    -0.110 C  
HETATM    2  C   UNL     1      -9.446   7.260  71.957  1.00  0.00    -0.132 C  
ENDROOT
BRANCH   2   3
HETATM    3  N   UNL     1     -10.364   7.879  70.983  1.00  0.00    -0.201 NA 
BRANCH   3   4
HETATM    4  C   UNL     1     -11.445   6.998  70.523  1.00  0.00    -0.319 C  
HETATM    5  C   UNL     1     -11.182   6.236  69.230  1.00  0.00    -0.458 C  
ENDBRANCH   3   4
BRANCH   3   6
HETATM    6  C   UNL     1     -10.825   9.189  71.502  1.00  0.00    -0.366 C  
BRANCH   6   7
HETATM    7  C   UNL     1     -11.954   9.837  70.684  1.00  0.00    -0.259 C  
BRANCH   7   8
HETATM    8  O   UNL     1     -11.559  11.045  70.001  1.00  0.00    -0.291 OA 
BRANCH   8   9
HETATM    9  C   UNL     1     -11.217  10.884  68.696  1.00  0.00    -0.267 C  
HETATM   10  O   UNL     1     -11.659   9.996  67.982  1.00  0.00    -0.166 OA 
BRANCH   9  11
HETATM   11  C   UNL     1     -10.231  11.976  68.198  1.00  0.00    -0.203 C  
HETATM   12  C   UNL     1     -10.723  13.383  68.628  1.00  0.00    -0.275 C  
HETATM   13  C   UNL     1     -10.278  11.889  66.636  1.00  0.00    -0.236 C  
HETATM   14  C   UNL     1     -11.604  12.347  66.021  1.00  0.00    -0.455 C  
HETATM   15  C   UNL     1     -12.036  13.828  67.984  1.00  0.00    -0.390 C  
HETATM   16  C   UNL     1     -11.950  13.758  66.468  1.00  0.00    -0.470 C  
BRANCH  11  17
HETATM   17  C   UNL     1      -8.794  11.596  68.763  1.00  0.00    -0.017 C  
HETATM   18  C   UNL     1      -8.536  10.098  69.039  1.00  0.00    -0.156 C  
HETATM   19  C   UNL     1      -7.177   9.801  66.945  1.00  0.00    -0.090 C  
HETATM   20  C   UNL     1      -7.188  11.314  66.726  1.00  0.00    -0.142 C  
HETATM   21  C   UNL     1      -8.353   9.284  67.765  1.00  0.00    -0.116 C  
HETATM   22  C   UNL     1      -7.586  12.136  67.959  1.00  0.00    -0.123 C  
ENDBRANCH  11  17
ENDBRANCH   9  11
ENDBRANCH   8   9
ENDBRANCH   7   8
ENDBRANCH   6   7
ENDBRANCH   3   6
ENDBRANCH   2   3
TORSDOF 8
ENDMDL
MODEL      156
REMARK 921   NORMALIZED FREE ENERGY PREDICTED BY IDOCK:   -3.44 KCAL/MOL
REMARK 922        TOTAL FREE ENERGY PREDICTED BY IDOCK:   -5.63 KCAL/MOL
REMARK 923 INTER-LIGAND FREE ENERGY PREDICTED BY IDOCK:   -5.39 KCAL/MOL
REMARK 924 INTRA-LIGAND FREE ENERGY PREDICTED BY IDOCK:   -0.24 KCAL/MOL
REMARK 927      BINDING AFFINITY PREDICTED BY RF-SCORE:    0.00 PKD
ROOT
HETATM    1  C   UNL     1      -8.245   5.350  64.370  1.00  0.00    -0.133 C  
HETATM    2  C   UNL     1      -8.003   5.799  65.809  1.00  0.00    -0.110 C  
ENDROOT
BRANCH   2   3
HETATM    3  N   UNL     1      -9.168   5.662  66.703  1.00  0.00    -0.130 NA 
BRANCH   3   4
HETATM    4  C   UNL     1      -9.405   4.295  67.184  1.00  0.00    -0.167 C  
HETATM    5  C   UNL     1      -9.344   4.097  68.693  1.00  0.00    -0.219 C  
ENDBRANCH   3   4
BRANCH   3   6
HETATM    6  C   UNL     1      -9.088   6.681  67.777  1.00  0.00    -0.113 C  
BRANCH   6   7
HETATM    7  C   UNL     1     -10.337   7.569  67.905  1.00  0.00    -0.210 C  
BRANCH   7   8
HETATM    8  O   UNL     1     -10.536   8.107  69.228  1.00  0.00    -0.220 OA 
BRANCH   8   9
HETATM    9  C   UNL     1     -11.275   7.330  70.062  1.00  0.00    -0.209 C  
HETATM   10  O   UNL     1     -11.895   6.341  69.698  1.00  0.00    -0.290 OA 
BRANCH   9  11
HETATM   11  C   UNL     1     -11.214   7.809  71.537  1.00  0.00    -0.278 C  
HETATM   12  C   UNL     1     -12.645   7.947  72.119  1.00  0.00    -0.283 C  
HETATM   13  C   UNL     1     -10.561   9.230  71.481  1.00  0.00    -0.405 C  
HETATM   14  C   UNL     1     -11.443  10.301  70.832  1.00  0.00    -0.425 C  
HETATM   15  C   UNL     1     -13.499   9.037  71.472  1.00  0.00    -0.397 C  
HETATM   16  C   UNL     1     -12.794  10.382  71.523  1.00  0.00    -0.569 C  
BRANCH  11  17
HETATM   17  C   UNL     1     -10.297   6.774  72.323  1.00  0.00    -0.219 C  
HETATM   18  C   UNL     1      -9.074   6.218  71.558  1.00  0.00    -0.145 C  
HETATM   19  C   UNL     1      -7.459   7.715  72.768  1.00  0.00    -0.101 C  
HETATM   20  C   UNL     1      -8.572   8.143  73.724  1.00  0.00    -0.307 C  
HETATM   21  C   UNL     1      -7.955   7.239  71.409  1.00  0.00    -0.097 C  
HETATM   22  C   UNL     1      -9.805   7.228  73.719  1.00  0.00    -0.358 C  
ENDBRANCH  11  17
ENDBRANCH   9  11
ENDBRANCH   8   9
ENDBRANCH   7   8
ENDBRANCH   6   7
ENDBRANCH   3   6
ENDBRANCH   2   3
TORSDOF 8
ENDMDL
MODEL      157
REMARK 921   NORMALIZED FREE ENERGY PREDICTED BY IDOCK:   -3.44 KCAL/MOL
REMARK 922        TOTAL FREE ENERGY PREDICTED BY IDOCK:   -5.63 KCAL/MOL
REMARK 923 INTER-LIGAND FREE ENERGY PREDICTED BY IDOCK:   -5.04 KCAL/MOL
REMARK 924 INTRA-LIGAND FREE ENERGY PREDICTED BY IDOCK:   -0.59 KCAL/MOL
REMARK 927      BINDING AFFINITY PREDICTED BY RF-SCORE:    0.00 PKD
ROOT
HETATM    1  C   UNL     1      -9.854   8.465  67.435  1.00  0.00    -0.249 C  
HETATM    2  C   UNL     1     -10.021   8.877  65.974  1.00  0.00    -0.129 C  
ENDROOT
BRANCH   2   3
HETATM    3  N   UNL     1      -8.918   9.690  65.431  1.00  0.00    -0.176 NA 
BRANCH   3   4
HETATM    4  C   UNL     1      -7.632   8.985  65.343  1.00  0.00    -0.090 C  
HETATM    5  C   UNL     1      -7.107   8.726  63.936  1.00  0.00    -0.091 C  
ENDBRANCH   3   4
BRANCH   3   6
HETATM    6  C   UNL     1      -9.351  10.330  64.167  1.00  0.00    -0.287 C  
BRANCH   6   7
HETATM    7  C   UNL     1     -10.544  11.288  64.314  1.00  0.00    -0.358 C  
BRANCH   7   8
HETATM    8  O   UNL     1     -10.267  12.440  65.138  1.00  0.00    -0.278 OA 
BRANCH   8   9
HETATM    9  C   UNL     1     -10.970  12.500  66.299  1.00  0.00    -0.277 C  
HETATM   10  O   UNL     1     -11.968  11.830  66.525  1.00  0.00    -0.545 OA 
BRANCH   9  11
HETATM   11  C   UNL     1     -10.344  13.481  67.327  1.00  0.00    -0.241 C  
HETATM   12  C   UNL     1      -8.881  13.815  66.933  1.00  0.00    -0.203 C  
HETATM   13  C   UNL     1     -10.328  12.700  68.683  1.00  0.00    -0.192 C  
HETATM   14  C   UNL     1      -9.345  11.526  68.720  1.00  0.00    -0.088 C  
HETATM   15  C   UNL     1      -7.914  12.633  66.999  1.00  0.00    -0.063 C  
HETATM   16  C   UNL     1      -7.938  11.987  68.375  1.00  0.00    -0.152 C  
BRANCH  11  17
HETATM   17  C   UNL     1     -11.298  14.751  67.394  1.00  0.00    -0.361 C  
HETATM   18  C   UNL     1     -12.406  14.725  68.471  1.00  0.00     0.023 C  
HETATM   19  C   UNL     1     -11.154  16.280  69.998  1.00  0.00    -0.351 C  
HETATM   20  C   UNL     1     -10.134  16.543  68.892  1.00  0.00    -0.266 C  
HETATM   21  C   UNL     1     -11.868  14.940  69.879  1.00  0.00    -0.355 C  
HETATM   22  C   UNL     1     -10.591  16.126  67.487  1.00  0.00    -0.314 C  
ENDBRANCH  11  17
ENDBRANCH   9  11
ENDBRANCH   8   9
ENDBRANCH   7   8
ENDBRANCH   6   7
ENDBRANCH   3   6
ENDBRANCH   2   3
TORSDOF 8
ENDMDL
MODEL      158
REMARK 921   NORMALIZED FREE ENERGY PREDICTED BY IDOCK:   -3.41 KCAL/MOL
REMARK 922        TOTAL FREE ENERGY PREDICTED BY IDOCK:   -5.59 KCAL/MOL
REMARK 923 INTER-LIGAND FREE ENERGY PREDICTED BY IDOCK:   -5.16 KCAL/MOL
REMARK 924 INTRA-LIGAND FREE ENERGY PREDICTED BY IDOCK:   -0.43 KCAL/MOL
REMARK 927      BINDING AFFINITY PREDICTED BY RF-SCORE:    0.00 PKD
ROOT
HETATM    1  C   UNL     1      -7.794  15.890  69.154  1.00  0.00    -0.227 C  
HETATM    2  C   UNL     1      -9.125  16.097  68.435  1.00  0.00    -0.199 C  
ENDROOT
BRANCH   2   3
HETATM    3  N   UNL     1     -10.097  15.002  68.607  1.00  0.00    -0.226 NA 
BRANCH   3   4
HETATM    4  C   UNL     1     -11.350  15.402  69.260  1.00  0.00    -0.315 C  
HETATM    5  C   UNL     1     -11.846  14.486  70.373  1.00  0.00    -0.378 C  
ENDBRANCH   3   4
BRANCH   3   6
HETATM    6  C   UNL     1     -10.281  14.296  67.317  1.00  0.00    -0.252 C  
BRANCH   6   7
HETATM    7  C   UNL     1     -10.837  12.869  67.446  1.00  0.00    -0.251 C  
BRANCH   7   8
HETATM    8  O   UNL     1      -9.938  11.950  68.100  1.00  0.00    -0.185 OA 
BRANCH   8   9
HETATM    9  C   UNL     1     -10.539  10.921  68.752  1.00  0.00    -0.201 C  
HETATM   10  O   UNL     1     -11.548  11.044  69.432  1.00  0.00    -0.256 OA 
BRANCH   9  11
HETATM   11  C   UNL     1      -9.831   9.561  68.507  1.00  0.00    -0.172 C  
HETATM   12  C   UNL     1     -10.015   8.628  69.733  1.00  0.00    -0.190 C  
HETATM   13  C   UNL     1      -8.311   9.909  68.371  1.00  0.00    -0.107 C  
HETATM   14  C   UNL     1      -7.656  10.383  69.671  1.00  0.00    -0.158 C  
HETATM   15  C   UNL     1      -9.334   9.110  71.014  1.00  0.00    -0.333 C  
HETATM   16  C   UNL     1      -7.853   9.362  70.781  1.00  0.00    -0.151 C  
BRANCH  11  17
HETATM   17  C   UNL     1     -10.420   8.969  67.154  1.00  0.00    -0.333 C  
HETATM   18  C   UNL     1      -9.606   9.244  65.870  1.00  0.00    -0.345 C  
HETATM   19  C   UNL     1      -8.644   6.923  65.814  1.00  0.00    -0.139 C  
HETATM   20  C   UNL     1      -9.592   6.504  66.937  1.00  0.00    -0.191 C  
HETATM   21  C   UNL     1      -8.332   8.413  65.787  1.00  0.00    -0.150 C  
HETATM   22  C   UNL     1     -10.770   7.461  67.169  1.00  0.00    -0.400 C  
ENDBRANCH  11  17
ENDBRANCH   9  11
ENDBRANCH   8   9
ENDBRANCH   7   8
ENDBRANCH   6   7
ENDBRANCH   3   6
ENDBRANCH   2   3
TORSDOF 8
ENDMDL
MODEL      159
REMARK 921   NORMALIZED FREE ENERGY PREDICTED BY IDOCK:   -3.39 KCAL/MOL
REMARK 922        TOTAL FREE ENERGY PREDICTED BY IDOCK:   -5.56 KCAL/MOL
REMARK 923 INTER-LIGAND FREE ENERGY PREDICTED BY IDOCK:   -4.84 KCAL/MOL
REMARK 924 INTRA-LIGAND FREE ENERGY PREDICTED BY IDOCK:   -0.72 KCAL/MOL
REMARK 927      BINDING AFFINITY PREDICTED BY RF-SCORE:    0.00 PKD
ROOT
HETATM    1  C   UNL     1      -9.179  15.253  68.455  1.00  0.00    -0.200 C  
HETATM    2  C   UNL     1     -10.638  15.326  68.014  1.00  0.00    -0.261 C  
ENDROOT
BRANCH   2   3
HETATM    3  N   UNL     1     -11.502  14.263  68.560  1.00  0.00    -0.280 NA 
BRANCH   3   4
HETATM    4  C   UNL     1     -12.397  14.703  69.638  1.00  0.00    -0.230 C  
HETATM    5  C   UNL     1     -11.735  14.998  70.978  1.00  0.00    -0.379 C  
ENDBRANCH   3   4
BRANCH   3   6
HETATM    6  C   UNL     1     -12.186  13.563  67.447  1.00  0.00    -0.235 C  
BRANCH   6   7
HETATM    7  C   UNL     1     -11.259  12.709  66.567  1.00  0.00    -0.296 C  
BRANCH   7   8
HETATM    8  O   UNL     1     -11.093  11.356  67.038  1.00  0.00    -0.281 OA 
BRANCH   8   9
HETATM    9  C   UNL     1      -9.821  11.015  67.375  1.00  0.00    -0.173 C  
HETATM   10  O   UNL     1      -9.068  11.740  68.009  1.00  0.00    -0.166 OA 
BRANCH   9  11
HETATM   11  C   UNL     1      -9.440   9.586  66.902  1.00  0.00    -0.204 C  
HETATM   12  C   UNL     1      -7.900   9.398  66.944  1.00  0.00    -0.105 C  
HETATM   13  C   UNL     1      -9.910   9.507  65.411  1.00  0.00    -0.248 C  
HETATM   14  C   UNL     1      -9.105  10.389  64.452  1.00  0.00    -0.267 C  
HETATM   15  C   UNL     1      -7.120  10.271  65.962  1.00  0.00    -0.128 C  
HETATM   16  C   UNL     1      -7.621  10.073  64.541  1.00  0.00    -0.142 C  
BRANCH  11  17
HETATM   17  C   UNL     1     -10.239   8.565  67.823  1.00  0.00    -0.283 C  
HETATM   18  C   UNL     1     -10.822   7.317  67.123  1.00  0.00    -0.378 C  
HETATM   19  C   UNL     1      -9.005   5.810  67.987  1.00  0.00    -0.111 C  
HETATM   20  C   UNL     1      -8.505   6.935  68.893  1.00  0.00    -0.125 C  
HETATM   21  C   UNL     1      -9.756   6.294  66.754  1.00  0.00    -0.193 C  
HETATM   22  C   UNL     1      -9.503   8.083  69.098  1.00  0.00    -0.155 C  
ENDBRANCH  11  17
ENDBRANCH   9  11
ENDBRANCH   8   9
ENDBRANCH   7   8
ENDBRANCH   6   7
ENDBRANCH   3   6
ENDBRANCH   2   3
TORSDOF 8
ENDMDL
MODEL      160
REMARK 921   NORMALIZED FREE ENERGY PREDICTED BY IDOCK:   -3.38 KCAL/MOL
REMARK 922        TOTAL FREE ENERGY PREDICTED BY IDOCK:   -5.55 KCAL/MOL
REMARK 923 INTER-LIGAND FREE ENERGY PREDICTED BY IDOCK:   -4.71 KCAL/MOL
REMARK 924 INTRA-LIGAND FREE ENERGY PREDICTED BY IDOCK:   -0.84 KCAL/MOL
REMARK 927      BINDING AFFINITY PREDICTED BY RF-SCORE:    0.00 PKD
ROOT
HETATM    1  C   UNL     1     -10.982  16.125  69.836  1.00  0.00    -0.362 C  
HETATM    2  C   UNL     1     -10.667  15.123  68.729  1.00  0.00    -0.239 C  
ENDROOT
BRANCH   2   3
HETATM    3  N   UNL     1     -11.072  15.550  67.376  1.00  0.00    -0.311 NA 
BRANCH   3   4
HETATM    4  C   UNL     1      -9.966  16.025  66.535  1.00  0.00    -0.279 C  
HETATM    5  C   UNL     1      -8.690  15.193  66.574  1.00  0.00    -0.280 C  
ENDBRANCH   3   4
BRANCH   3   6
HETATM    6  C   UNL     1     -11.902  14.492  66.753  1.00  0.00    -0.371 C  
BRANCH   6   7
HETATM    7  C   UNL     1     -11.800  13.118  67.435  1.00  0.00    -0.361 C  
BRANCH   7   8
HETATM    8  O   UNL     1     -10.808  12.249  66.851  1.00  0.00    -0.236 OA 
BRANCH   8   9
HETATM    9  C   UNL     1     -10.664  11.045  67.463  1.00  0.00    -0.244 C  
HETATM   10  O   UNL     1     -11.595  10.403  67.927  1.00  0.00    -0.406 OA 
BRANCH   9  11
HETATM   11  C   UNL     1      -9.192  10.553  67.475  1.00  0.00    -0.152 C  
HETATM   12  C   UNL     1      -8.473  10.971  66.165  1.00  0.00    -0.168 C  
HETATM   13  C   UNL     1      -9.281   8.991  67.516  1.00  0.00    -0.152 C  
HETATM   14  C   UNL     1      -9.822   8.359  66.230  1.00  0.00    -0.257 C  
HETATM   15  C   UNL     1      -9.013  10.311  64.897  1.00  0.00    -0.231 C  
HETATM   16  C   UNL     1      -9.003   8.796  65.026  1.00  0.00    -0.113 C  
BRANCH  11  17
HETATM   17  C   UNL     1      -8.519  11.135  68.793  1.00  0.00    -0.134 C  
HETATM   18  C   UNL     1      -7.840  10.112  69.730  1.00  0.00    -0.175 C  
HETATM   19  C   UNL     1      -5.529  10.719  68.952  1.00  0.00    -0.040 C  
HETATM   20  C   UNL     1      -6.102  11.906  68.179  1.00  0.00    -0.051 C  
HETATM   21  C   UNL     1      -6.522   9.587  69.178  1.00  0.00    -0.045 C  
HETATM   22  C   UNL     1      -7.527  12.306  68.586  1.00  0.00    -0.100 C  
ENDBRANCH  11  17
ENDBRANCH   9  11
ENDBRANCH   8   9
ENDBRANCH   7   8
ENDBRANCH   6   7
ENDBRANCH   3   6
ENDBRANCH   2   3
TORSDOF 8
ENDMDL
MODEL      161
REMARK 921   NORMALIZED FREE ENERGY PREDICTED BY IDOCK:   -3.38 KCAL/MOL
REMARK 922        TOTAL FREE ENERGY PREDICTED BY IDOCK:   -5.55 KCAL/MOL
REMARK 923 INTER-LIGAND FREE ENERGY PREDICTED BY IDOCK:   -4.82 KCAL/MOL
REMARK 924 INTRA-LIGAND FREE ENERGY PREDICTED BY IDOCK:   -0.73 KCAL/MOL
REMARK 927      BINDING AFFINITY PREDICTED BY RF-SCORE:    0.00 PKD
ROOT
HETATM    1  C   UNL     1     -11.023   6.289  67.806  1.00  0.00    -0.427 C  
HETATM    2  C   UNL     1      -9.562   6.444  68.220  1.00  0.00    -0.123 C  
ENDROOT
BRANCH   2   3
HETATM    3  N   UNL     1      -8.587   6.220  67.137  1.00  0.00    -0.108 NA 
BRANCH   3   4
HETATM    4  C   UNL     1      -9.093   5.405  66.024  1.00  0.00    -0.154 C  
HETATM    5  C   UNL     1      -8.434   4.044  65.838  1.00  0.00    -0.109 C  
ENDBRANCH   3   4
BRANCH   3   6
HETATM    6  C   UNL     1      -7.999   7.516  66.725  1.00  0.00    -0.115 C  
BRANCH   6   7
HETATM    7  C   UNL     1      -8.863   8.323  65.741  1.00  0.00    -0.155 C  
BRANCH   7   8
HETATM    8  O   UNL     1      -9.754   9.260  66.382  1.00  0.00    -0.214 OA 
BRANCH   8   9
HETATM    9  C   UNL     1      -9.374  10.562  66.303  1.00  0.00    -0.170 C  
HETATM   10  O   UNL     1      -8.836  11.055  65.323  1.00  0.00    -0.191 OA 
BRANCH   9  11
HETATM   11  C   UNL     1      -9.736  11.368  67.579  1.00  0.00    -0.191 C  
HETATM   12  C   UNL     1      -8.972  12.718  67.599  1.00  0.00    -0.191 C  
HETATM   13  C   UNL     1      -9.232  10.494  68.775  1.00  0.00    -0.177 C  
HETATM   14  C   UNL     1      -7.707  10.393  68.879  1.00  0.00    -0.111 C  
HETATM   15  C   UNL     1      -7.454  12.594  67.727  1.00  0.00    -0.131 C  
HETATM   16  C   UNL     1      -7.076  11.774  68.950  1.00  0.00    -0.114 C  
BRANCH  11  17
HETATM   17  C   UNL     1     -11.318  11.525  67.596  1.00  0.00    -0.358 C  
HETATM   18  C   UNL     1     -12.025  11.245  68.941  1.00  0.00    -0.378 C  
HETATM   19  C   UNL     1     -12.337  13.688  69.446  1.00  0.00    -0.199 C  
HETATM   20  C   UNL     1     -11.865  14.038  68.035  1.00  0.00    -0.403 C  
HETATM   21  C   UNL     1     -11.812  12.354  69.962  1.00  0.00    -0.363 C  
HETATM   22  C   UNL     1     -11.873  12.863  67.048  1.00  0.00    -0.437 C  
ENDBRANCH  11  17
ENDBRANCH   9  11
ENDBRANCH   8   9
ENDBRANCH   7   8
ENDBRANCH   6   7
ENDBRANCH   3   6
ENDBRANCH   2   3
TORSDOF 8
ENDMDL
MODEL      162
REMARK 921   NORMALIZED FREE ENERGY PREDICTED BY IDOCK:   -3.36 KCAL/MOL
REMARK 922        TOTAL FREE ENERGY PREDICTED BY IDOCK:   -5.51 KCAL/MOL
REMARK 923 INTER-LIGAND FREE ENERGY PREDICTED BY IDOCK:   -5.15 KCAL/MOL
REMARK 924 INTRA-LIGAND FREE ENERGY PREDICTED BY IDOCK:   -0.36 KCAL/MOL
REMARK 927      BINDING AFFINITY PREDICTED BY RF-SCORE:    0.00 PKD
ROOT
HETATM    1  C   UNL     1     -11.294   6.306  69.928  1.00  0.00    -0.504 C  
HETATM    2  C   UNL     1     -11.263   7.801  70.236  1.00  0.00    -0.206 C  
ENDROOT
BRANCH   2   3
HETATM    3  N   UNL     1     -11.661   8.157  71.611  1.00  0.00    -0.266 NA 
BRANCH   3   4
HETATM    4  C   UNL     1     -10.818   7.566  72.658  1.00  0.00    -0.315 C  
HETATM    5  C   UNL     1      -9.494   8.271  72.928  1.00  0.00    -0.321 C  
ENDBRANCH   3   4
BRANCH   3   6
HETATM    6  C   UNL     1     -11.820   9.627  71.714  1.00  0.00    -0.320 C  
BRANCH   6   7
HETATM    7  C   UNL     1     -12.165  10.324  70.387  1.00  0.00    -0.261 C  
BRANCH   7   8
HETATM    8  O   UNL     1     -11.051  11.019  69.788  1.00  0.00    -0.259 OA 
BRANCH   8   9
HETATM    9  C   UNL     1     -11.110  11.143  68.436  1.00  0.00    -0.247 C  
HETATM   10  O   UNL     1     -12.153  11.150  67.799  1.00  0.00    -0.606 OA 
BRANCH   9  11
HETATM   11  C   UNL     1      -9.708  11.318  67.791  1.00  0.00    -0.184 C  
HETATM   12  C   UNL     1      -9.839  11.962  66.385  1.00  0.00    -0.234 C  
HETATM   13  C   UNL     1      -9.149   9.866  67.623  1.00  0.00    -0.140 C  
HETATM   14  C   UNL     1      -9.885   9.028  66.573  1.00  0.00    -0.338 C  
HETATM   15  C   UNL     1     -10.556  11.098  65.348  1.00  0.00    -0.291 C  
HETATM   16  C   UNL     1      -9.897   9.734  65.227  1.00  0.00    -0.335 C  
BRANCH  11  17
HETATM   17  C   UNL     1      -8.832  12.169  68.809  1.00  0.00     0.108 C  
HETATM   18  C   UNL     1      -7.512  11.524  69.288  1.00  0.00     0.033 C  
HETATM   19  C   UNL     1      -6.103  12.938  67.761  1.00  0.00    -0.143 C  
HETATM   20  C   UNL     1      -7.329  13.780  67.412  1.00  0.00    -0.125 C  
HETATM   21  C   UNL     1      -6.431  11.522  68.216  1.00  0.00    -0.054 C  
HETATM   22  C   UNL     1      -8.511  13.621  68.378  1.00  0.00    -0.147 C  
ENDBRANCH  11  17
ENDBRANCH   9  11
ENDBRANCH   8   9
ENDBRANCH   7   8
ENDBRANCH   6   7
ENDBRANCH   3   6
ENDBRANCH   2   3
TORSDOF 8
ENDMDL
MODEL      163
REMARK 921   NORMALIZED FREE ENERGY PREDICTED BY IDOCK:   -3.36 KCAL/MOL
REMARK 922        TOTAL FREE ENERGY PREDICTED BY IDOCK:   -5.51 KCAL/MOL
REMARK 923 INTER-LIGAND FREE ENERGY PREDICTED BY IDOCK:   -4.83 KCAL/MOL
REMARK 924 INTRA-LIGAND FREE ENERGY PREDICTED BY IDOCK:   -0.69 KCAL/MOL
REMARK 927      BINDING AFFINITY PREDICTED BY RF-SCORE:    0.00 PKD
ROOT
HETATM    1  C   UNL     1      -6.631  14.233  69.032  1.00  0.00    -0.105 C  
HETATM    2  C   UNL     1      -7.762  15.099  68.484  1.00  0.00    -0.122 C  
ENDROOT
BRANCH   2   3
HETATM    3  N   UNL     1      -9.115  14.551  68.692  1.00  0.00    -0.192 NA 
BRANCH   3   4
HETATM    4  C   UNL     1     -10.071  15.502  69.276  1.00  0.00    -0.256 C  
HETATM    5  C   UNL     1     -11.357  14.902  69.829  1.00  0.00    -0.314 C  
ENDBRANCH   3   4
BRANCH   3   6
HETATM    6  C   UNL     1      -9.584  13.906  67.443  1.00  0.00    -0.235 C  
BRANCH   6   7
HETATM    7  C   UNL     1      -9.293  12.398  67.358  1.00  0.00    -0.181 C  
BRANCH   7   8
HETATM    8  O   UNL     1      -9.697  11.660  68.530  1.00  0.00    -0.195 OA 
BRANCH   8   9
HETATM    9  C   UNL     1      -8.870  10.643  68.884  1.00  0.00    -0.157 C  
HETATM   10  O   UNL     1      -7.652  10.742  68.930  1.00  0.00    -0.102 OA 
BRANCH   9  11
HETATM   11  C   UNL     1      -9.640   9.349  69.263  1.00  0.00    -0.171 C  
HETATM   12  C   UNL     1      -8.713   8.112  69.135  1.00  0.00    -0.140 C  
HETATM   13  C   UNL     1     -10.784   9.226  68.203  1.00  0.00    -0.205 C  
HETATM   14  C   UNL     1     -10.296   8.906  66.787  1.00  0.00    -0.317 C  
HETATM   15  C   UNL     1      -8.258   7.797  67.710  1.00  0.00    -0.126 C  
HETATM   16  C   UNL     1      -9.449   7.643  66.779  1.00  0.00    -0.244 C  
BRANCH  11  17
HETATM   17  C   UNL     1     -10.220   9.569  70.727  1.00  0.00    -0.363 C  
HETATM   18  C   UNL     1     -11.706   9.204  70.942  1.00  0.00    -0.341 C  
HETATM   19  C   UNL     1     -11.154   7.037  72.089  1.00  0.00    -0.279 C  
HETATM   20  C   UNL     1      -9.679   7.434  72.127  1.00  0.00    -0.182 C  
HETATM   21  C   UNL     1     -11.948   7.701  70.972  1.00  0.00    -0.296 C  
HETATM   22  C   UNL     1      -9.412   8.925  71.881  1.00  0.00    -0.301 C  
ENDBRANCH  11  17
ENDBRANCH   9  11
ENDBRANCH   8   9
ENDBRANCH   7   8
ENDBRANCH   6   7
ENDBRANCH   3   6
ENDBRANCH   2   3
TORSDOF 8
ENDMDL
MODEL      164
REMARK 921   NORMALIZED FREE ENERGY PREDICTED BY IDOCK:   -3.36 KCAL/MOL
REMARK 922        TOTAL FREE ENERGY PREDICTED BY IDOCK:   -5.51 KCAL/MOL
REMARK 923 INTER-LIGAND FREE ENERGY PREDICTED BY IDOCK:   -5.48 KCAL/MOL
REMARK 924 INTRA-LIGAND FREE ENERGY PREDICTED BY IDOCK:   -0.03 KCAL/MOL
REMARK 927      BINDING AFFINITY PREDICTED BY RF-SCORE:    0.00 PKD
ROOT
HETATM    1  C   UNL     1     -11.038  12.335  67.445  1.00  0.00    -0.333 C  
HETATM    2  C   UNL     1     -10.645  11.610  68.729  1.00  0.00    -0.212 C  
ENDROOT
BRANCH   2   3
HETATM    3  N   UNL     1     -11.400  12.020  69.927  1.00  0.00    -0.141 NA 
BRANCH   3   4
HETATM    4  C   UNL     1     -12.141  13.279  69.774  1.00  0.00    -0.290 C  
HETATM    5  C   UNL     1     -12.598  13.947  71.065  1.00  0.00    -0.444 C  
ENDBRANCH   3   4
BRANCH   3   6
HETATM    6  C   UNL     1     -12.222  10.884  70.406  1.00  0.00    -0.365 C  
BRANCH   6   7
HETATM    7  C   UNL     1     -11.506   9.523  70.373  1.00  0.00    -0.242 C  
BRANCH   7   8
HETATM    8  O   UNL     1     -10.941   9.132  71.641  1.00  0.00    -0.335 OA 
BRANCH   8   9
HETATM    9  C   UNL     1      -9.625   8.797  71.607  1.00  0.00    -0.293 C  
HETATM   10  O   UNL     1      -8.747   9.534  71.183  1.00  0.00    -0.259 OA 
BRANCH   9  11
HETATM   11  C   UNL     1      -9.350   7.390  72.202  1.00  0.00    -0.164 C  
HETATM   12  C   UNL     1      -9.069   7.494  73.724  1.00  0.00    -0.311 C  
HETATM   13  C   UNL     1      -8.049   6.889  71.490  1.00  0.00    -0.109 C  
HETATM   14  C   UNL     1      -6.783   7.657  71.881  1.00  0.00    -0.054 C  
HETATM   15  C   UNL     1      -7.789   8.244  74.090  1.00  0.00    -0.276 C  
HETATM   16  C   UNL     1      -6.584   7.640  73.388  1.00  0.00    -0.073 C  
BRANCH  11  17
HETATM   17  C   UNL     1     -10.603   6.480  71.840  1.00  0.00    -0.239 C  
HETATM   18  C   UNL     1     -10.358   5.342  70.824  1.00  0.00    -0.322 C  
HETATM   19  C   UNL     1     -10.294   3.573  72.607  1.00  0.00    -0.222 C  
HETATM   20  C   UNL     1     -10.766   4.597  73.639  1.00  0.00    -0.346 C  
HETATM   21  C   UNL     1      -9.569   4.182  71.414  1.00  0.00    -0.238 C  
HETATM   22  C   UNL     1     -11.371   5.874  73.041  1.00  0.00    -0.211 C  
ENDBRANCH  11  17
ENDBRANCH   9  11
ENDBRANCH   8   9
ENDBRANCH   7   8
ENDBRANCH   6   7
ENDBRANCH   3   6
ENDBRANCH   2   3
TORSDOF 8
ENDMDL
MODEL      165
REMARK 921   NORMALIZED FREE ENERGY PREDICTED BY IDOCK:   -3.35 KCAL/MOL
REMARK 922        TOTAL FREE ENERGY PREDICTED BY IDOCK:   -5.50 KCAL/MOL
REMARK 923 INTER-LIGAND FREE ENERGY PREDICTED BY IDOCK:   -4.95 KCAL/MOL
REMARK 924 INTRA-LIGAND FREE ENERGY PREDICTED BY IDOCK:   -0.55 KCAL/MOL
REMARK 927      BINDING AFFINITY PREDICTED BY RF-SCORE:    0.00 PKD
ROOT
HETATM    1  C   UNL     1      -9.072  10.733  65.434  1.00  0.00    -0.216 C  
HETATM    2  C   UNL     1      -8.482   9.709  66.401  1.00  0.00    -0.123 C  
ENDROOT
BRANCH   2   3
HETATM    3  N   UNL     1      -7.545  10.266  67.394  1.00  0.00    -0.094 NA 
BRANCH   3   4
HETATM    4  C   UNL     1      -6.808  11.450  66.935  1.00  0.00    -0.142 C  
HETATM    5  C   UNL     1      -5.480  11.181  66.238  1.00  0.00    -0.142 C  
ENDBRANCH   3   4
BRANCH   3   6
HETATM    6  C   UNL     1      -8.247  10.448  68.687  1.00  0.00    -0.121 C  
BRANCH   6   7
HETATM    7  C   UNL     1      -7.381  10.167  69.926  1.00  0.00    -0.165 C  
BRANCH   7   8
HETATM    8  O   UNL     1      -8.092   9.514  70.998  1.00  0.00    -0.312 OA 
BRANCH   8   9
HETATM    9  C   UNL     1      -8.271   8.176  70.840  1.00  0.00    -0.109 C  
HETATM   10  O   UNL     1      -7.472   7.446  70.273  1.00  0.00    -0.079 OA 
BRANCH   9  11
HETATM   11  C   UNL     1      -9.584   7.667  71.494  1.00  0.00    -0.179 C  
HETATM   12  C   UNL     1      -9.792   8.337  72.878  1.00  0.00    -0.303 C  
HETATM   13  C   UNL     1      -9.367   6.133  71.711  1.00  0.00    -0.159 C  
HETATM   14  C   UNL     1      -8.323   5.792  72.778  1.00  0.00    -0.119 C  
HETATM   15  C   UNL     1      -8.752   7.964  73.933  1.00  0.00    -0.332 C  
HETATM   16  C   UNL     1      -8.665   6.456  74.102  1.00  0.00    -0.141 C  
BRANCH  11  17
HETATM   17  C   UNL     1     -10.757   7.951  70.459  1.00  0.00    -0.233 C  
HETATM   18  C   UNL     1     -11.946   6.964  70.476  1.00  0.00    -0.358 C  
HETATM   19  C   UNL     1     -13.429   8.552  71.740  1.00  0.00    -0.400 C  
HETATM   20  C   UNL     1     -12.394   9.661  71.559  1.00  0.00    -0.477 C  
HETATM   21  C   UNL     1     -12.848   7.145  71.689  1.00  0.00    -0.420 C  
HETATM   22  C   UNL     1     -11.343   9.385  70.475  1.00  0.00    -0.328 C  
ENDBRANCH  11  17
ENDBRANCH   9  11
ENDBRANCH   8   9
ENDBRANCH   7   8
ENDBRANCH   6   7
ENDBRANCH   3   6
ENDBRANCH   2   3
TORSDOF 8
ENDMDL
MODEL      166
REMARK 921   NORMALIZED FREE ENERGY PREDICTED BY IDOCK:   -3.34 KCAL/MOL
REMARK 922        TOTAL FREE ENERGY PREDICTED BY IDOCK:   -5.49 KCAL/MOL
REMARK 923 INTER-LIGAND FREE ENERGY PREDICTED BY IDOCK:   -5.02 KCAL/MOL
REMARK 924 INTRA-LIGAND FREE ENERGY PREDICTED BY IDOCK:   -0.47 KCAL/MOL
REMARK 927      BINDING AFFINITY PREDICTED BY RF-SCORE:    0.00 PKD
ROOT
HETATM    1  C   UNL     1     -11.915  10.840  71.196  1.00  0.00    -0.361 C  
HETATM    2  C   UNL     1     -11.629   9.929  70.006  1.00  0.00    -0.175 C  
ENDROOT
BRANCH   2   3
HETATM    3  N   UNL     1     -10.208   9.844  69.620  1.00  0.00    -0.221 NA 
BRANCH   3   4
HETATM    4  C   UNL     1      -9.471   8.746  70.260  1.00  0.00    -0.174 C  
HETATM    5  C   UNL     1      -8.450   9.153  71.316  1.00  0.00    -0.115 C  
ENDBRANCH   3   4
BRANCH   3   6
HETATM    6  C   UNL     1     -10.094   9.875  68.143  1.00  0.00    -0.165 C  
BRANCH   6   7
HETATM    7  C   UNL     1      -9.507  11.179  67.577  1.00  0.00    -0.168 C  
BRANCH   7   8
HETATM    8  O   UNL     1      -9.661  12.315  68.453  1.00  0.00    -0.213 OA 
BRANCH   8   9
HETATM    9  C   UNL     1     -10.688  13.148  68.141  1.00  0.00    -0.242 C  
HETATM   10  O   UNL     1     -11.856  12.793  68.081  1.00  0.00    -0.332 OA 
BRANCH   9  11
HETATM   11  C   UNL     1     -10.222  14.611  67.910  1.00  0.00    -0.226 C  
HETATM   12  C   UNL     1      -9.277  15.063  69.054  1.00  0.00    -0.205 C  
HETATM   13  C   UNL     1     -11.527  15.472  67.974  1.00  0.00    -0.313 C  
HETATM   14  C   UNL     1     -12.159  15.552  69.367  1.00  0.00    -0.302 C  
HETATM   15  C   UNL     1      -9.934  15.157  70.430  1.00  0.00     0.255 C  
HETATM   16  C   UNL     1     -11.155  16.061  70.389  1.00  0.00    -0.376 C  
BRANCH  11  17
HETATM   17  C   UNL     1      -9.557  14.663  66.467  1.00  0.00    -0.308 C  
HETATM   18  C   UNL     1     -10.288  13.896  65.343  1.00  0.00    -0.364 C  
HETATM   19  C   UNL     1     -11.266  15.990  64.356  1.00  0.00    -0.218 C  
HETATM   20  C   UNL     1     -10.392  16.834  65.283  1.00  0.00    -0.077 C  
HETATM   21  C   UNL     1     -11.562  14.592  64.883  1.00  0.00    -0.401 C  
HETATM   22  C   UNL     1      -9.222  16.075  65.925  1.00  0.00    -0.321 C  
ENDBRANCH  11  17
ENDBRANCH   9  11
ENDBRANCH   8   9
ENDBRANCH   7   8
ENDBRANCH   6   7
ENDBRANCH   3   6
ENDBRANCH   2   3
TORSDOF 8
ENDMDL
MODEL      167
REMARK 921   NORMALIZED FREE ENERGY PREDICTED BY IDOCK:   -3.34 KCAL/MOL
REMARK 922        TOTAL FREE ENERGY PREDICTED BY IDOCK:   -5.48 KCAL/MOL
REMARK 923 INTER-LIGAND FREE ENERGY PREDICTED BY IDOCK:   -4.63 KCAL/MOL
REMARK 924 INTRA-LIGAND FREE ENERGY PREDICTED BY IDOCK:   -0.85 KCAL/MOL
REMARK 927      BINDING AFFINITY PREDICTED BY RF-SCORE:    0.00 PKD
ROOT
HETATM    1  C   UNL     1      -5.948  14.074  71.129  1.00  0.00    -0.160 C  
HETATM    2  C   UNL     1      -5.127  13.908  69.853  1.00  0.00    -0.092 C  
ENDROOT
BRANCH   2   3
HETATM    3  N   UNL     1      -5.737  13.033  68.835  1.00  0.00    -0.071 NA 
BRANCH   3   4
HETATM    4  C   UNL     1      -6.238  11.755  69.357  1.00  0.00    -0.103 C  
HETATM    5  C   UNL     1      -7.457  11.176  68.649  1.00  0.00    -0.119 C  
ENDBRANCH   3   4
BRANCH   3   6
HETATM    6  C   UNL     1      -6.732  13.804  68.052  1.00  0.00    -0.139 C  
BRANCH   6   7
HETATM    7  C   UNL     1      -6.249  15.193  67.601  1.00  0.00    -0.120 C  
BRANCH   7   8
HETATM    8  O   UNL     1      -7.098  16.275  68.036  1.00  0.00    -0.126 OA 
BRANCH   8   9
HETATM    9  C   UNL     1      -8.283  16.376  67.379  1.00  0.00    -0.158 C  
HETATM   10  O   UNL     1      -8.409  16.214  66.174  1.00  0.00    -0.318 OA 
BRANCH   9  11
HETATM   11  C   UNL     1      -9.470  16.681  68.332  1.00  0.00    -0.231 C  
HETATM   12  C   UNL     1     -10.718  17.116  67.518  1.00  0.00    -0.276 C  
HETATM   13  C   UNL     1      -8.998  17.893  69.202  1.00  0.00     0.108 C  
HETATM   14  C   UNL     1      -8.862  19.207  68.427  1.00  0.00    -0.386 C  
HETATM   15  C   UNL     1     -10.567  18.441  66.772  1.00  0.00    -0.367 C  
HETATM   16  C   UNL     1     -10.162  19.557  67.721  1.00  0.00    -0.550 C  
BRANCH  11  17
HETATM   17  C   UNL     1      -9.701  15.380  69.217  1.00  0.00    -0.268 C  
HETATM   18  C   UNL     1     -10.438  15.581  70.559  1.00  0.00    -0.147 C  
HETATM   19  C   UNL     1     -12.606  14.678  69.665  1.00  0.00    -0.105 C  
HETATM   20  C   UNL     1     -11.893  14.232  68.389  1.00  0.00    -0.373 C  
HETATM   21  C   UNL     1     -11.929  15.837  70.383  1.00  0.00    -0.385 C  
HETATM   22  C   UNL     1     -10.363  14.179  68.497  1.00  0.00    -0.249 C  
ENDBRANCH  11  17
ENDBRANCH   9  11
ENDBRANCH   8   9
ENDBRANCH   7   8
ENDBRANCH   6   7
ENDBRANCH   3   6
ENDBRANCH   2   3
TORSDOF 8
ENDMDL
MODEL      168
REMARK 921   NORMALIZED FREE ENERGY PREDICTED BY IDOCK:   -3.34 KCAL/MOL
REMARK 922        TOTAL FREE ENERGY PREDICTED BY IDOCK:   -5.48 KCAL/MOL
REMARK 923 INTER-LIGAND FREE ENERGY PREDICTED BY IDOCK:   -4.46 KCAL/MOL
REMARK 924 INTRA-LIGAND FREE ENERGY PREDICTED BY IDOCK:   -1.03 KCAL/MOL
REMARK 927      BINDING AFFINITY PREDICTED BY RF-SCORE:    0.00 PKD
ROOT
HETATM    1  C   UNL     1      -6.297   3.359  66.560  1.00  0.00    -0.032 C  
HETATM    2  C   UNL     1      -6.795   4.626  67.250  1.00  0.00    -0.056 C  
ENDROOT
BRANCH   2   3
HETATM    3  N   UNL     1      -8.261   4.725  67.376  1.00  0.00    -0.105 NA 
BRANCH   3   4
HETATM    4  C   UNL     1      -8.961   4.992  66.113  1.00  0.00    -0.131 C  
HETATM    5  C   UNL     1     -10.483   4.943  66.169  1.00  0.00    -0.346 C  
ENDBRANCH   3   4
BRANCH   3   6
HETATM    6  C   UNL     1      -8.773   3.551  68.121  1.00  0.00    -0.106 C  
BRANCH   6   7
HETATM    7  C   UNL     1      -9.167   3.844  69.578  1.00  0.00    -0.156 C  
BRANCH   7   8
HETATM    8  O   UNL     1      -9.959   5.039  69.738  1.00  0.00    -0.207 OA 
BRANCH   8   9
HETATM    9  C   UNL     1      -9.364   6.035  70.445  1.00  0.00    -0.160 C  
HETATM   10  O   UNL     1      -8.423   5.860  71.205  1.00  0.00    -0.122 OA 
BRANCH   9  11
HETATM   11  C   UNL     1      -9.983   7.428  70.153  1.00  0.00    -0.184 C  
HETATM   12  C   UNL     1      -9.608   8.431  71.275  1.00  0.00    -0.239 C  
HETATM   13  C   UNL     1     -11.532   7.205  70.183  1.00  0.00    -0.245 C  
HETATM   14  C   UNL     1     -12.093   6.888  71.572  1.00  0.00    -0.401 C  
HETATM   15  C   UNL     1     -10.198   8.108  72.648  1.00  0.00    -0.388 C  
HETATM   16  C   UNL     1     -11.710   7.969  72.571  1.00  0.00    -0.446 C  
BRANCH  11  17
HETATM   17  C   UNL     1      -9.483   7.863  68.708  1.00  0.00    -0.147 C  
HETATM   18  C   UNL     1     -10.529   8.533  67.789  1.00  0.00    -0.287 C  
HETATM   19  C   UNL     1      -9.612  10.839  68.189  1.00  0.00    -0.167 C  
HETATM   20  C   UNL     1      -8.412  10.234  68.916  1.00  0.00    -0.138 C  
HETATM   21  C   UNL     1     -10.856   9.960  68.206  1.00  0.00    -0.275 C  
HETATM   22  C   UNL     1      -8.202   8.734  68.667  1.00  0.00    -0.117 C  
ENDBRANCH  11  17
ENDBRANCH   9  11
ENDBRANCH   8   9
ENDBRANCH   7   8
ENDBRANCH   6   7
ENDBRANCH   3   6
ENDBRANCH   2   3
TORSDOF 8
ENDMDL
MODEL      169
REMARK 921   NORMALIZED FREE ENERGY PREDICTED BY IDOCK:   -3.33 KCAL/MOL
REMARK 922        TOTAL FREE ENERGY PREDICTED BY IDOCK:   -5.47 KCAL/MOL
REMARK 923 INTER-LIGAND FREE ENERGY PREDICTED BY IDOCK:   -4.52 KCAL/MOL
REMARK 924 INTRA-LIGAND FREE ENERGY PREDICTED BY IDOCK:   -0.95 KCAL/MOL
REMARK 927      BINDING AFFINITY PREDICTED BY RF-SCORE:    0.00 PKD
ROOT
HETATM    1  C   UNL     1     -11.674  10.558  70.745  1.00  0.00    -0.454 C  
HETATM    2  C   UNL     1     -12.177  11.162  69.437  1.00  0.00    -0.259 C  
ENDROOT
BRANCH   2   3
HETATM    3  N   UNL     1     -11.177  11.211  68.354  1.00  0.00    -0.238 NA 
BRANCH   3   4
HETATM    4  C   UNL     1     -11.518  12.125  67.255  1.00  0.00    -0.345 C  
HETATM    5  C   UNL     1     -10.879  13.507  67.312  1.00  0.00    -0.285 C  
ENDBRANCH   3   4
BRANCH   3   6
HETATM    6  C   UNL     1      -9.832  11.431  68.934  1.00  0.00    -0.112 C  
BRANCH   6   7
HETATM    7  C   UNL     1      -8.762  10.436  68.455  1.00  0.00    -0.129 C  
BRANCH   7   8
HETATM    8  O   UNL     1      -9.300   9.179  67.994  1.00  0.00    -0.137 OA 
BRANCH   8   9
HETATM    9  C   UNL     1      -8.581   8.081  68.345  1.00  0.00    -0.127 C  
HETATM   10  O   UNL     1      -7.378   7.968  68.160  1.00  0.00    -0.091 OA 
BRANCH   9  11
HETATM   11  C   UNL     1      -9.447   6.999  69.046  1.00  0.00    -0.138 C  
HETATM   12  C   UNL     1      -8.865   5.586  68.777  1.00  0.00    -0.109 C  
HETATM   13  C   UNL     1     -10.854   7.095  68.368  1.00  0.00    -0.148 C  
HETATM   14  C   UNL     1     -10.880   6.632  66.908  1.00  0.00    -0.415 C  
HETATM   15  C   UNL     1      -8.923   5.136  67.318  1.00  0.00    -0.112 C  
HETATM   16  C   UNL     1     -10.342   5.216  66.780  1.00  0.00    -0.306 C  
BRANCH  11  17
HETATM   17  C   UNL     1      -9.512   7.386  70.587  1.00  0.00    -0.164 C  
HETATM   18  C   UNL     1     -10.791   6.969  71.349  1.00  0.00    -0.253 C  
HETATM   19  C   UNL     1      -9.663   5.016  72.459  1.00  0.00    -0.190 C  
HETATM   20  C   UNL     1      -8.312   5.499  71.933  1.00  0.00    -0.119 C  
HETATM   21  C   UNL     1     -10.853   5.473  71.626  1.00  0.00    -0.271 C  
HETATM   22  C   UNL     1      -8.298   6.955  71.447  1.00  0.00    -0.115 C  
ENDBRANCH  11  17
ENDBRANCH   9  11
ENDBRANCH   8   9
ENDBRANCH   7   8
ENDBRANCH   6   7
ENDBRANCH   3   6
ENDBRANCH   2   3
TORSDOF 8
ENDMDL
MODEL      170
REMARK 921   NORMALIZED FREE ENERGY PREDICTED BY IDOCK:   -3.33 KCAL/MOL
REMARK 922        TOTAL FREE ENERGY PREDICTED BY IDOCK:   -5.47 KCAL/MOL
REMARK 923 INTER-LIGAND FREE ENERGY PREDICTED BY IDOCK:   -4.78 KCAL/MOL
REMARK 924 INTRA-LIGAND FREE ENERGY PREDICTED BY IDOCK:   -0.69 KCAL/MOL
REMARK 927      BINDING AFFINITY PREDICTED BY RF-SCORE:    0.00 PKD
ROOT
HETATM    1  C   UNL     1     -12.763  13.265  65.237  1.00  0.00    -0.474 C  
HETATM    2  C   UNL     1     -11.854  12.822  66.381  1.00  0.00    -0.408 C  
ENDROOT
BRANCH   2   3
HETATM    3  N   UNL     1     -10.896  13.844  66.839  1.00  0.00    -0.284 NA 
BRANCH   3   4
HETATM    4  C   UNL     1     -11.301  14.549  68.063  1.00  0.00    -0.306 C  
HETATM    5  C   UNL     1     -11.616  13.671  69.267  1.00  0.00    -0.363 C  
ENDBRANCH   3   4
BRANCH   3   6
HETATM    6  C   UNL     1      -9.536  13.256  66.896  1.00  0.00    -0.249 C  
BRANCH   6   7
HETATM    7  C   UNL     1      -9.438  11.826  66.341  1.00  0.00    -0.221 C  
BRANCH   7   8
HETATM    8  O   UNL     1      -8.493  10.992  67.043  1.00  0.00    -0.134 OA 
BRANCH   8   9
HETATM    9  C   UNL     1      -9.020  10.245  68.049  1.00  0.00    -0.132 C  
HETATM   10  O   UNL     1      -9.784  10.687  68.895  1.00  0.00    -0.186 OA 
BRANCH   9  11
HETATM   11  C   UNL     1      -8.579   8.758  67.984  1.00  0.00    -0.134 C  
HETATM   12  C   UNL     1      -8.831   8.061  69.346  1.00  0.00    -0.144 C  
HETATM   13  C   UNL     1      -7.036   8.798  67.723  1.00  0.00    -0.083 C  
HETATM   14  C   UNL     1      -6.214   9.326  68.902  1.00  0.00    -0.043 C  
HETATM   15  C   UNL     1      -7.982   8.588  70.503  1.00  0.00    -0.095 C  
HETATM   16  C   UNL     1      -6.502   8.529  70.164  1.00  0.00    -0.038 C  
BRANCH  11  17
HETATM   17  C   UNL     1      -9.361   8.096  66.768  1.00  0.00    -0.233 C  
HETATM   18  C   UNL     1      -8.614   6.992  65.987  1.00  0.00    -0.154 C  
HETATM   19  C   UNL     1      -9.901   5.140  67.097  1.00  0.00    -0.191 C  
HETATM   20  C   UNL     1     -10.838   6.170  67.726  1.00  0.00    -0.413 C  
HETATM   21  C   UNL     1      -8.519   5.683  66.759  1.00  0.00    -0.111 C  
HETATM   22  C   UNL     1     -10.781   7.563  67.084  1.00  0.00    -0.379 C  
ENDBRANCH  11  17
ENDBRANCH   9  11
ENDBRANCH   8   9
ENDBRANCH   7   8
ENDBRANCH   6   7
ENDBRANCH   3   6
ENDBRANCH   2   3
TORSDOF 8
ENDMDL
MODEL      171
REMARK 921   NORMALIZED FREE ENERGY PREDICTED BY IDOCK:   -3.32 KCAL/MOL
REMARK 922        TOTAL FREE ENERGY PREDICTED BY IDOCK:   -5.46 KCAL/MOL
REMARK 923 INTER-LIGAND FREE ENERGY PREDICTED BY IDOCK:   -5.33 KCAL/MOL
REMARK 924 INTRA-LIGAND FREE ENERGY PREDICTED BY IDOCK:   -0.13 KCAL/MOL
REMARK 927      BINDING AFFINITY PREDICTED BY RF-SCORE:    0.00 PKD
ROOT
HETATM    1  C   UNL     1     -10.757   9.136  69.482  1.00  0.00    -0.226 C  
HETATM    2  C   UNL     1      -9.621   8.350  68.834  1.00  0.00    -0.153 C  
ENDROOT
BRANCH   2   3
HETATM    3  N   UNL     1      -8.413   9.141  68.535  1.00  0.00    -0.127 NA 
BRANCH   3   4
HETATM    4  C   UNL     1      -7.317   8.370  67.936  1.00  0.00    -0.096 C  
HETATM    5  C   UNL     1      -7.725   7.147  67.124  1.00  0.00    -0.108 C  
ENDBRANCH   3   4
BRANCH   3   6
HETATM    6  C   UNL     1      -8.794  10.354  67.773  1.00  0.00    -0.128 C  
BRANCH   6   7
HETATM    7  C   UNL     1      -8.254  11.669  68.359  1.00  0.00    -0.155 C  
BRANCH   7   8
HETATM    8  O   UNL     1      -9.250  12.706  68.478  1.00  0.00    -0.168 OA 
BRANCH   8   9
HETATM    9  C   UNL     1      -9.142  13.714  67.574  1.00  0.00    -0.213 C  
HETATM   10  O   UNL     1      -8.121  13.961  66.950  1.00  0.00    -0.067 OA 
BRANCH   9  11
HETATM   11  C   UNL     1     -10.471  14.496  67.390  1.00  0.00    -0.264 C  
HETATM   12  C   UNL     1     -10.249  15.729  66.474  1.00  0.00    -0.294 C  
HETATM   13  C   UNL     1     -10.852  15.003  68.820  1.00  0.00    -0.249 C  
HETATM   14  C   UNL     1      -9.918  16.082  69.374  1.00  0.00    -0.262 C  
HETATM   15  C   UNL     1      -9.332  16.804  67.056  1.00  0.00    -0.244 C  
HETATM   16  C   UNL     1      -9.826  17.261  68.418  1.00  0.00    -0.309 C  
BRANCH  11  17
HETATM   17  C   UNL     1     -11.542  13.463  66.830  1.00  0.00    -0.404 C  
HETATM   18  C   UNL     1     -12.757  14.064  66.088  1.00  0.00    -0.309 C  
HETATM   19  C   UNL     1     -11.838  13.485  63.821  1.00  0.00    -0.429 C  
HETATM   20  C   UNL     1     -10.728  12.667  64.481  1.00  0.00    -0.368 C  
HETATM   21  C   UNL     1     -12.404  14.590  64.703  1.00  0.00    -0.419 C  
HETATM   22  C   UNL     1     -10.983  12.315  65.953  1.00  0.00    -0.338 C  
ENDBRANCH  11  17
ENDBRANCH   9  11
ENDBRANCH   8   9
ENDBRANCH   7   8
ENDBRANCH   6   7
ENDBRANCH   3   6
ENDBRANCH   2   3
TORSDOF 8
ENDMDL
MODEL      172
REMARK 921   NORMALIZED FREE ENERGY PREDICTED BY IDOCK:   -3.31 KCAL/MOL
REMARK 922        TOTAL FREE ENERGY PREDICTED BY IDOCK:   -5.45 KCAL/MOL
REMARK 923 INTER-LIGAND FREE ENERGY PREDICTED BY IDOCK:   -4.65 KCAL/MOL
REMARK 924 INTRA-LIGAND FREE ENERGY PREDICTED BY IDOCK:   -0.80 KCAL/MOL
REMARK 927      BINDING AFFINITY PREDICTED BY RF-SCORE:    0.00 PKD
ROOT
HETATM    1  C   UNL     1      -6.153  12.979  69.833  1.00  0.00    -0.125 C  
HETATM    2  C   UNL     1      -7.048  13.204  68.617  1.00  0.00    -0.103 C  
ENDROOT
BRANCH   2   3
HETATM    3  N   UNL     1      -8.099  12.187  68.427  1.00  0.00    -0.156 NA 
BRANCH   3   4
HETATM    4  C   UNL     1      -9.399  12.730  68.014  1.00  0.00    -0.213 C  
HETATM    5  C   UNL     1     -10.615  11.869  68.333  1.00  0.00    -0.239 C  
ENDBRANCH   3   4
BRANCH   3   6
HETATM    6  C   UNL     1      -7.586  11.103  67.557  1.00  0.00    -0.108 C  
BRANCH   6   7
HETATM    7  C   UNL     1      -7.195   9.818  68.304  1.00  0.00    -0.078 C  
BRANCH   7   8
HETATM    8  O   UNL     1      -8.300   9.169  68.966  1.00  0.00    -0.121 OA 
BRANCH   8   9
HETATM    9  C   UNL     1      -8.234   9.159  70.323  1.00  0.00    -0.159 C  
HETATM   10  O   UNL     1      -7.457   9.845  70.971  1.00  0.00    -0.289 OA 
BRANCH   9  11
HETATM   11  C   UNL     1      -9.281   8.210  70.966  1.00  0.00    -0.178 C  
HETATM   12  C   UNL     1      -9.352   8.444  72.498  1.00  0.00    -0.346 C  
HETATM   13  C   UNL     1      -8.738   6.764  70.709  1.00  0.00    -0.146 C  
HETATM   14  C   UNL     1      -7.468   6.422  71.494  1.00  0.00    -0.090 C  
HETATM   15  C   UNL     1      -8.083   8.074  73.264  1.00  0.00    -0.240 C  
HETATM   16  C   UNL     1      -7.679   6.636  72.985  1.00  0.00    -0.095 C  
BRANCH  11  17
HETATM   17  C   UNL     1     -10.658   8.460  70.211  1.00  0.00    -0.234 C  
HETATM   18  C   UNL     1     -11.495   7.207  69.871  1.00  0.00    -0.154 C  
HETATM   19  C   UNL     1     -13.103   7.594  71.763  1.00  0.00    -0.359 C  
HETATM   20  C   UNL     1     -12.474   8.963  72.016  1.00  0.00    -0.461 C  
HETATM   21  C   UNL     1     -12.169   6.596  71.092  1.00  0.00    -0.357 C  
HETATM   22  C   UNL     1     -11.610   9.493  70.863  1.00  0.00    -0.398 C  
ENDBRANCH  11  17
ENDBRANCH   9  11
ENDBRANCH   8   9
ENDBRANCH   7   8
ENDBRANCH   6   7
ENDBRANCH   3   6
ENDBRANCH   2   3
TORSDOF 8
ENDMDL
MODEL      173
REMARK 921   NORMALIZED FREE ENERGY PREDICTED BY IDOCK:   -3.31 KCAL/MOL
REMARK 922        TOTAL FREE ENERGY PREDICTED BY IDOCK:   -5.44 KCAL/MOL
REMARK 923 INTER-LIGAND FREE ENERGY PREDICTED BY IDOCK:   -4.81 KCAL/MOL
REMARK 924 INTRA-LIGAND FREE ENERGY PREDICTED BY IDOCK:   -0.63 KCAL/MOL
REMARK 927      BINDING AFFINITY PREDICTED BY RF-SCORE:    0.00 PKD
ROOT
HETATM    1  C   UNL     1      -8.853   3.656  70.510  1.00  0.00    -0.139 C  
HETATM    2  C   UNL     1      -9.268   3.647  71.979  1.00  0.00    -0.114 C  
ENDROOT
BRANCH   2   3
HETATM    3  N   UNL     1      -8.479   4.540  72.848  1.00  0.00    -0.106 NA 
BRANCH   3   4
HETATM    4  C   UNL     1      -7.931   3.890  74.045  1.00  0.00    -0.083 C  
HETATM    5  C   UNL     1      -6.891   2.804  73.799  1.00  0.00    -0.031 C  
ENDBRANCH   3   4
BRANCH   3   6
HETATM    6  C   UNL     1      -7.475   5.263  72.033  1.00  0.00    -0.097 C  
BRANCH   6   7
HETATM    7  C   UNL     1      -7.377   6.768  72.332  1.00  0.00    -0.087 C  
BRANCH   7   8
HETATM    8  O   UNL     1      -8.017   7.602  71.344  1.00  0.00    -0.091 OA 
BRANCH   8   9
HETATM    9  C   UNL     1      -9.060   8.342  71.804  1.00  0.00    -0.218 C  
HETATM   10  O   UNL     1      -9.143   8.762  72.949  1.00  0.00    -0.311 OA 
BRANCH   9  11
HETATM   11  C   UNL     1     -10.116   8.634  70.704  1.00  0.00    -0.237 C  
HETATM   12  C   UNL     1     -11.365   9.316  71.324  1.00  0.00    -0.423 C  
HETATM   13  C   UNL     1     -10.538   7.230  70.156  1.00  0.00    -0.245 C  
HETATM   14  C   UNL     1     -11.334   6.381  71.151  1.00  0.00    -0.376 C  
HETATM   15  C   UNL     1     -12.157   8.442  72.295  1.00  0.00    -0.456 C  
HETATM   16  C   UNL     1     -12.562   7.131  71.642  1.00  0.00    -0.410 C  
BRANCH  11  17
HETATM   17  C   UNL     1      -9.394   9.506  69.588  1.00  0.00    -0.213 C  
HETATM   18  C   UNL     1      -8.950   8.759  68.310  1.00  0.00    -0.141 C  
HETATM   19  C   UNL     1     -10.878   9.636  66.957  1.00  0.00    -0.148 C  
HETATM   20  C   UNL     1     -11.246  10.584  68.098  1.00  0.00    -0.357 C  
HETATM   21  C   UNL     1     -10.117   8.394  67.402  1.00  0.00    -0.301 C  
HETATM   22  C   UNL     1     -10.140  10.789  69.142  1.00  0.00    -0.224 C  
ENDBRANCH  11  17
ENDBRANCH   9  11
ENDBRANCH   8   9
ENDBRANCH   7   8
ENDBRANCH   6   7
ENDBRANCH   3   6
ENDBRANCH   2   3
TORSDOF 8
ENDMDL
MODEL      174
REMARK 921   NORMALIZED FREE ENERGY PREDICTED BY IDOCK:   -3.31 KCAL/MOL
REMARK 922        TOTAL FREE ENERGY PREDICTED BY IDOCK:   -5.43 KCAL/MOL
REMARK 923 INTER-LIGAND FREE ENERGY PREDICTED BY IDOCK:   -4.99 KCAL/MOL
REMARK 924 INTRA-LIGAND FREE ENERGY PREDICTED BY IDOCK:   -0.45 KCAL/MOL
REMARK 927      BINDING AFFINITY PREDICTED BY RF-SCORE:    0.00 PKD
ROOT
HETATM    1  C   UNL     1     -10.021  19.647  68.748  1.00  0.00    -0.542 C  
HETATM    2  C   UNL     1      -9.065  18.655  69.405  1.00  0.00     0.325 C  
ENDROOT
BRANCH   2   3
HETATM    3  N   UNL     1      -8.088  18.039  68.489  1.00  0.00    -0.296 NA 
BRANCH   3   4
HETATM    4  C   UNL     1      -6.710  18.516  68.664  1.00  0.00    -0.259 C  
HETATM    5  C   UNL     1      -5.619  17.648  68.048  1.00  0.00    -0.146 C  
ENDBRANCH   3   4
BRANCH   3   6
HETATM    6  C   UNL     1      -8.233  16.564  68.531  1.00  0.00    -0.212 C  
BRANCH   6   7
HETATM    7  C   UNL     1      -9.469  16.025  67.793  1.00  0.00    -0.217 C  
BRANCH   7   8
HETATM    8  O   UNL     1      -9.793  14.658  68.121  1.00  0.00    -0.214 OA 
BRANCH   8   9
HETATM    9  C   UNL     1      -9.430  13.740  67.188  1.00  0.00    -0.244 C  
HETATM   10  O   UNL     1      -8.452  13.856  66.464  1.00  0.00     0.046 OA 
BRANCH   9  11
HETATM   11  C   UNL     1     -10.371  12.505  67.167  1.00  0.00    -0.230 C  
HETATM   12  C   UNL     1     -10.142  11.675  65.876  1.00  0.00    -0.267 C  
HETATM   13  C   UNL     1     -11.821  13.093  67.128  1.00  0.00    -0.424 C  
HETATM   14  C   UNL     1     -12.180  13.794  65.814  1.00  0.00    -0.495 C  
HETATM   15  C   UNL     1     -10.529  12.385  64.579  1.00  0.00    -0.352 C  
HETATM   16  C   UNL     1     -11.970  12.864  64.630  1.00  0.00    -0.445 C  
BRANCH  11  17
HETATM   17  C   UNL     1     -10.104  11.696  68.509  1.00  0.00    -0.210 C  
HETATM   18  C   UNL     1     -11.103  10.566  68.843  1.00  0.00    -0.312 C  
HETATM   19  C   UNL     1      -9.525   8.758  68.096  1.00  0.00    -0.152 C  
HETATM   20  C   UNL     1      -8.406   9.790  67.964  1.00  0.00    -0.110 C  
HETATM   21  C   UNL     1     -10.926   9.339  67.959  1.00  0.00    -0.076 C  
HETATM   22  C   UNL     1      -8.676  11.120  68.680  1.00  0.00    -0.153 C  
ENDBRANCH  11  17
ENDBRANCH   9  11
ENDBRANCH   8   9
ENDBRANCH   7   8
ENDBRANCH   6   7
ENDBRANCH   3   6
ENDBRANCH   2   3
TORSDOF 8
ENDMDL
MODEL      175
REMARK 921   NORMALIZED FREE ENERGY PREDICTED BY IDOCK:   -3.29 KCAL/MOL
REMARK 922        TOTAL FREE ENERGY PREDICTED BY IDOCK:   -5.42 KCAL/MOL
REMARK 923 INTER-LIGAND FREE ENERGY PREDICTED BY IDOCK:   -5.14 KCAL/MOL
REMARK 924 INTRA-LIGAND FREE ENERGY PREDICTED BY IDOCK:   -0.28 KCAL/MOL
REMARK 927      BINDING AFFINITY PREDICTED BY RF-SCORE:    0.00 PKD
ROOT
HETATM    1  C   UNL     1     -10.825   5.776  68.781  1.00  0.00    -0.285 C  
HETATM    2  C   UNL     1     -10.677   5.983  67.276  1.00  0.00    -0.318 C  
ENDROOT
BRANCH   2   3
HETATM    3  N   UNL     1      -9.572   6.875  66.880  1.00  0.00    -0.156 NA 
BRANCH   3   4
HETATM    4  C   UNL     1      -8.840   6.440  65.684  1.00  0.00    -0.058 C  
HETATM    5  C   UNL     1      -9.131   5.024  65.201  1.00  0.00    -0.127 C  
ENDBRANCH   3   4
BRANCH   3   6
HETATM    6  C   UNL     1     -10.063   8.272  66.819  1.00  0.00    -0.303 C  
BRANCH   6   7
HETATM    7  C   UNL     1      -9.409   9.130  65.723  1.00  0.00    -0.245 C  
BRANCH   7   8
HETATM    8  O   UNL     1      -8.998  10.437  66.174  1.00  0.00    -0.150 OA 
BRANCH   8   9
HETATM    9  C   UNL     1      -9.949  11.403  66.082  1.00  0.00    -0.227 C  
HETATM   10  O   UNL     1     -10.813  11.427  65.218  1.00  0.00    -0.284 OA 
BRANCH   9  11
HETATM   11  C   UNL     1      -9.845  12.454  67.221  1.00  0.00    -0.207 C  
HETATM   12  C   UNL     1      -9.027  11.883  68.409  1.00  0.00    -0.163 C  
HETATM   13  C   UNL     1     -11.317  12.690  67.698  1.00  0.00    -0.362 C  
HETATM   14  C   UNL     1     -11.942  11.493  68.421  1.00  0.00    -0.268 C  
HETATM   15  C   UNL     1      -9.681  10.704  69.130  1.00  0.00    -0.205 C  
HETATM   16  C   UNL     1     -11.082  11.062  69.598  1.00  0.00    -0.320 C  
BRANCH  11  17
HETATM   17  C   UNL     1      -9.219  13.769  66.582  1.00  0.00    -0.238 C  
HETATM   18  C   UNL     1     -10.213  14.886  66.193  1.00  0.00    -0.314 C  
HETATM   19  C   UNL     1      -9.658  16.276  68.213  1.00  0.00    -0.218 C  
HETATM   20  C   UNL     1      -8.496  15.338  68.538  1.00  0.00    -0.162 C  
HETATM   21  C   UNL     1     -10.771  15.627  67.400  1.00  0.00    -0.309 C  
HETATM   22  C   UNL     1      -8.066  14.427  67.379  1.00  0.00    -0.217 C  
ENDBRANCH  11  17
ENDBRANCH   9  11
ENDBRANCH   8   9
ENDBRANCH   7   8
ENDBRANCH   6   7
ENDBRANCH   3   6
ENDBRANCH   2   3
TORSDOF 8
ENDMDL
MODEL      176
REMARK 921   NORMALIZED FREE ENERGY PREDICTED BY IDOCK:   -3.29 KCAL/MOL
REMARK 922        TOTAL FREE ENERGY PREDICTED BY IDOCK:   -5.41 KCAL/MOL
REMARK 923 INTER-LIGAND FREE ENERGY PREDICTED BY IDOCK:   -6.69 KCAL/MOL
REMARK 924 INTRA-LIGAND FREE ENERGY PREDICTED BY IDOCK:    1.28 KCAL/MOL
REMARK 927      BINDING AFFINITY PREDICTED BY RF-SCORE:    0.00 PKD
ROOT
HETATM    1  C   UNL     1     -12.961  11.597  71.365  1.00  0.00    -0.426 C  
HETATM    2  C   UNL     1     -12.626  10.118  71.544  1.00  0.00    -0.434 C  
ENDROOT
BRANCH   2   3
HETATM    3  N   UNL     1     -11.246   9.749  71.179  1.00  0.00    -0.370 NA 
BRANCH   3   4
HETATM    4  C   UNL     1     -10.711   8.598  71.919  1.00  0.00    -0.344 C  
HETATM    5  C   UNL     1     -11.719   7.804  72.740  1.00  0.00    -0.312 C  
ENDBRANCH   3   4
BRANCH   3   6
HETATM    6  C   UNL     1     -11.140   9.629  69.706  1.00  0.00    -0.217 C  
BRANCH   6   7
HETATM    7  C   UNL     1      -9.886  10.284  69.103  1.00  0.00    -0.216 C  
BRANCH   7   8
HETATM    8  O   UNL     1     -10.100  11.632  68.635  1.00  0.00    -0.211 OA 
BRANCH   8   9
HETATM    9  C   UNL     1     -10.890  11.740  67.535  1.00  0.00    -0.239 C  
HETATM   10  O   UNL     1     -12.026  11.294  67.467  1.00  0.00    -0.612 OA 
BRANCH   9  11
HETATM   11  C   UNL     1     -10.209  12.531  66.385  1.00  0.00    -0.260 C  
HETATM   12  C   UNL     1     -10.605  11.932  65.010  1.00  0.00    -0.335 C  
HETATM   13  C   UNL     1      -8.673  12.321  66.596  1.00  0.00    -0.132 C  
HETATM   14  C   UNL     1      -8.193  10.891  66.331  1.00  0.00    -0.163 C  
HETATM   15  C   UNL     1     -10.096  10.513  64.758  1.00  0.00    -0.406 C  
HETATM   16  C   UNL     1      -8.588  10.437  64.935  1.00  0.00    -0.190 C  
BRANCH  11  17
HETATM   17  C   UNL     1     -10.621  14.057  66.565  1.00  0.00    -0.279 C  
HETATM   18  C   UNL     1     -11.952  14.329  67.300  1.00  0.00    -0.439 C  
HETATM   19  C   UNL     1     -10.802  14.966  69.442  1.00  0.00    -0.274 C  
HETATM   20  C   UNL     1      -9.454  14.947  68.722  1.00  0.00    -0.214 C  
HETATM   21  C   UNL     1     -11.861  14.081  68.800  1.00  0.00    -0.396 C  
HETATM   22  C   UNL     1      -9.546  14.980  67.191  1.00  0.00    -0.222 C  
ENDBRANCH  11  17
ENDBRANCH   9  11
ENDBRANCH   8   9
ENDBRANCH   7   8
ENDBRANCH   6   7
ENDBRANCH   3   6
ENDBRANCH   2   3
TORSDOF 8
ENDMDL
MODEL      177
REMARK 921   NORMALIZED FREE ENERGY PREDICTED BY IDOCK:   -3.29 KCAL/MOL
REMARK 922        TOTAL FREE ENERGY PREDICTED BY IDOCK:   -5.41 KCAL/MOL
REMARK 923 INTER-LIGAND FREE ENERGY PREDICTED BY IDOCK:   -5.42 KCAL/MOL
REMARK 924 INTRA-LIGAND FREE ENERGY PREDICTED BY IDOCK:    0.01 KCAL/MOL
REMARK 927      BINDING AFFINITY PREDICTED BY RF-SCORE:    0.00 PKD
ROOT
HETATM    1  C   UNL     1     -11.413  11.887  63.458  1.00  0.00    -0.523 C  
HETATM    2  C   UNL     1     -10.382  11.575  64.540  1.00  0.00    -0.302 C  
ENDROOT
BRANCH   2   3
HETATM    3  N   UNL     1     -10.605  12.266  65.823  1.00  0.00    -0.247 NA 
BRANCH   3   4
HETATM    4  C   UNL     1     -11.976  12.756  66.017  1.00  0.00    -0.432 C  
HETATM    5  C   UNL     1     -12.122  14.252  66.268  1.00  0.00    -0.433 C  
ENDBRANCH   3   4
BRANCH   3   6
HETATM    6  C   UNL     1     -10.095  11.426  66.932  1.00  0.00    -0.214 C  
BRANCH   6   7
HETATM    7  C   UNL     1     -11.190  10.784  67.800  1.00  0.00    -0.316 C  
BRANCH   7   8
HETATM    8  O   UNL     1     -10.679  10.001  68.898  1.00  0.00    -0.203 OA 
BRANCH   8   9
HETATM    9  C   UNL     1     -10.265   8.749  68.570  1.00  0.00    -0.195 C  
HETATM   10  O   UNL     1     -10.327   8.287  67.440  1.00  0.00    -0.235 OA 
BRANCH   9  11
HETATM   11  C   UNL     1      -9.666   7.981  69.779  1.00  0.00    -0.176 C  
HETATM   12  C   UNL     1      -8.472   7.103  69.322  1.00  0.00    -0.133 C  
HETATM   13  C   UNL     1     -10.813   7.040  70.277  1.00  0.00    -0.283 C  
HETATM   14  C   UNL     1     -11.156   5.903  69.311  1.00  0.00    -0.352 C  
HETATM   15  C   UNL     1      -8.841   5.960  68.377  1.00  0.00    -0.111 C  
HETATM   16  C   UNL     1      -9.921   5.079  68.983  1.00  0.00    -0.251 C  
BRANCH  11  17
HETATM   17  C   UNL     1      -9.284   9.068  70.875  1.00  0.00    -0.320 C  
HETATM   18  C   UNL     1      -9.545   8.683  72.348  1.00  0.00    -0.305 C  
HETATM   19  C   UNL     1      -7.121   8.190  72.796  1.00  0.00    -0.120 C  
HETATM   20  C   UNL     1      -6.751   8.777  71.434  1.00  0.00    -0.081 C  
HETATM   21  C   UNL     1      -8.547   7.662  72.879  1.00  0.00    -0.190 C  
HETATM   22  C   UNL     1      -7.846   9.638  70.791  1.00  0.00     0.000 C  
ENDBRANCH  11  17
ENDBRANCH   9  11
ENDBRANCH   8   9
ENDBRANCH   7   8
ENDBRANCH   6   7
ENDBRANCH   3   6
ENDBRANCH   2   3
TORSDOF 8
ENDMDL
MODEL      178
REMARK 921   NORMALIZED FREE ENERGY PREDICTED BY IDOCK:   -3.29 KCAL/MOL
REMARK 922        TOTAL FREE ENERGY PREDICTED BY IDOCK:   -5.41 KCAL/MOL
REMARK 923 INTER-LIGAND FREE ENERGY PREDICTED BY IDOCK:   -5.29 KCAL/MOL
REMARK 924 INTRA-LIGAND FREE ENERGY PREDICTED BY IDOCK:   -0.11 KCAL/MOL
REMARK 927      BINDING AFFINITY PREDICTED BY RF-SCORE:    0.00 PKD
ROOT
HETATM    1  C   UNL     1      -5.736   6.382  72.107  1.00  0.00    -0.037 C  
HETATM    2  C   UNL     1      -7.063   5.627  72.094  1.00  0.00    -0.087 C  
ENDROOT
BRANCH   2   3
HETATM    3  N   UNL     1      -7.812   5.672  73.364  1.00  0.00    -0.109 NA 
BRANCH   3   4
HETATM    4  C   UNL     1      -7.348   4.713  74.375  1.00  0.00    -0.077 C  
HETATM    5  C   UNL     1      -7.265   3.259  73.929  1.00  0.00    -0.047 C  
ENDBRANCH   3   4
BRANCH   3   6
HETATM    6  C   UNL     1      -7.889   7.073  73.842  1.00  0.00    -0.106 C  
BRANCH   6   7
HETATM    7  C   UNL     1      -8.710   8.009  72.940  1.00  0.00    -0.213 C  
BRANCH   7   8
HETATM    8  O   UNL     1     -10.119   8.027  73.247  1.00  0.00    -0.310 OA 
BRANCH   8   9
HETATM    9  C   UNL     1     -10.865   7.104  72.586  1.00  0.00    -0.279 C  
HETATM   10  O   UNL     1     -11.216   6.039  73.073  1.00  0.00    -0.254 OA 
BRANCH   9  11
HETATM   11  C   UNL     1     -11.259   7.564  71.157  1.00  0.00    -0.277 C  
HETATM   12  C   UNL     1     -11.650   9.066  71.163  1.00  0.00    -0.372 C  
HETATM   13  C   UNL     1     -12.525   6.722  70.788  1.00  0.00    -0.212 C  
HETATM   14  C   UNL     1     -13.775   7.080  71.597  1.00  0.00    -0.348 C  
HETATM   15  C   UNL     1     -12.914   9.396  71.958  1.00  0.00    -0.508 C  
HETATM   16  C   UNL     1     -14.091   8.562  71.479  1.00  0.00    -0.428 C  
BRANCH  11  17
HETATM   17  C   UNL     1     -10.031   7.224  70.206  1.00  0.00    -0.188 C  
HETATM   18  C   UNL     1     -10.204   6.011  69.265  1.00  0.00    -0.263 C  
HETATM   19  C   UNL     1     -10.642   7.454  67.254  1.00  0.00    -0.393 C  
HETATM   20  C   UNL     1     -10.255   8.693  68.061  1.00  0.00    -0.261 C  
HETATM   21  C   UNL     1     -11.146   6.294  68.102  1.00  0.00    -0.364 C  
HETATM   22  C   UNL     1      -9.486   8.398  69.356  1.00  0.00    -0.158 C  
ENDBRANCH  11  17
ENDBRANCH   9  11
ENDBRANCH   8   9
ENDBRANCH   7   8
ENDBRANCH   6   7
ENDBRANCH   3   6
ENDBRANCH   2   3
TORSDOF 8
ENDMDL
MODEL      179
REMARK 921   NORMALIZED FREE ENERGY PREDICTED BY IDOCK:   -3.28 KCAL/MOL
REMARK 922        TOTAL FREE ENERGY PREDICTED BY IDOCK:   -5.40 KCAL/MOL
REMARK 923 INTER-LIGAND FREE ENERGY PREDICTED BY IDOCK:   -4.84 KCAL/MOL
REMARK 924 INTRA-LIGAND FREE ENERGY PREDICTED BY IDOCK:   -0.56 KCAL/MOL
REMARK 927      BINDING AFFINITY PREDICTED BY RF-SCORE:    0.00 PKD
ROOT
HETATM    1  C   UNL     1      -9.566  10.377  64.086  1.00  0.00    -0.381 C  
HETATM    2  C   UNL     1     -10.282  10.285  65.431  1.00  0.00    -0.242 C  
ENDROOT
BRANCH   2   3
HETATM    3  N   UNL     1      -9.983  11.384  66.367  1.00  0.00    -0.208 NA 
BRANCH   3   4
HETATM    4  C   UNL     1     -11.166  11.982  66.997  1.00  0.00    -0.320 C  
HETATM    5  C   UNL     1     -11.281  13.499  66.900  1.00  0.00    -0.329 C  
ENDBRANCH   3   4
BRANCH   3   6
HETATM    6  C   UNL     1      -8.937  10.948  67.323  1.00  0.00    -0.137 C  
BRANCH   6   7
HETATM    7  C   UNL     1      -9.446  10.700  68.752  1.00  0.00    -0.183 C  
BRANCH   7   8
HETATM    8  O   UNL     1      -9.835   9.333  69.003  1.00  0.00    -0.159 OA 
BRANCH   8   9
HETATM    9  C   UNL     1      -8.886   8.564  69.597  1.00  0.00    -0.137 C  
HETATM   10  O   UNL     1      -7.685   8.762  69.489  1.00  0.00    -0.084 OA 
BRANCH   9  11
HETATM   11  C   UNL     1      -9.494   7.427  70.462  1.00  0.00    -0.161 C  
HETATM   12  C   UNL     1      -8.448   6.303  70.688  1.00  0.00    -0.134 C  
HETATM   13  C   UNL     1     -10.672   6.847  69.611  1.00  0.00    -0.276 C  
HETATM   14  C   UNL     1     -10.226   6.092  68.355  1.00  0.00    -0.220 C  
HETATM   15  C   UNL     1      -8.036   5.548  69.425  1.00  0.00    -0.094 C  
HETATM   16  C   UNL     1      -9.250   4.981  68.709  1.00  0.00    -0.160 C  
BRANCH  11  17
HETATM   17  C   UNL     1     -10.017   8.097  71.806  1.00  0.00    -0.264 C  
HETATM   18  C   UNL     1     -11.394   7.623  72.322  1.00  0.00    -0.355 C  
HETATM   19  C   UNL     1     -10.382   6.165  74.101  1.00  0.00    -0.308 C  
HETATM   20  C   UNL     1      -9.007   6.763  73.808  1.00  0.00    -0.171 C  
HETATM   21  C   UNL     1     -11.350   6.226  72.927  1.00  0.00    -0.187 C  
HETATM   22  C   UNL     1      -9.037   8.070  73.004  1.00  0.00    -0.331 C  
ENDBRANCH  11  17
ENDBRANCH   9  11
ENDBRANCH   8   9
ENDBRANCH   7   8
ENDBRANCH   6   7
ENDBRANCH   3   6
ENDBRANCH   2   3
TORSDOF 8
ENDMDL
MODEL      180
REMARK 921   NORMALIZED FREE ENERGY PREDICTED BY IDOCK:   -3.27 KCAL/MOL
REMARK 922        TOTAL FREE ENERGY PREDICTED BY IDOCK:   -5.39 KCAL/MOL
REMARK 923 INTER-LIGAND FREE ENERGY PREDICTED BY IDOCK:   -5.63 KCAL/MOL
REMARK 924 INTRA-LIGAND FREE ENERGY PREDICTED BY IDOCK:    0.24 KCAL/MOL
REMARK 927      BINDING AFFINITY PREDICTED BY RF-SCORE:    0.00 PKD
ROOT
HETATM    1  C   UNL     1     -10.941  16.126  69.849  1.00  0.00    -0.362 C  
HETATM    2  C   UNL     1     -11.123  15.084  68.748  1.00  0.00    -0.261 C  
ENDROOT
BRANCH   2   3
HETATM    3  N   UNL     1     -10.070  15.087  67.715  1.00  0.00    -0.233 NA 
BRANCH   3   4
HETATM    4  C   UNL     1     -10.156  16.204  66.765  1.00  0.00    -0.271 C  
HETATM    5  C   UNL     1     -10.640  15.853  65.363  1.00  0.00    -0.439 C  
ENDBRANCH   3   4
BRANCH   3   6
HETATM    6  C   UNL     1      -8.744  14.937  68.360  1.00  0.00    -0.172 C  
BRANCH   6   7
HETATM    7  C   UNL     1      -8.154  13.519  68.278  1.00  0.00    -0.155 C  
BRANCH   7   8
HETATM    8  O   UNL     1      -9.108  12.512  67.883  1.00  0.00    -0.183 OA 
BRANCH   8   9
HETATM    9  C   UNL     1      -8.650  11.608  66.979  1.00  0.00    -0.169 C  
HETATM   10  O   UNL     1      -7.517  11.619  66.520  1.00  0.00    -0.086 OA 
BRANCH   9  11
HETATM   11  C   UNL     1      -9.709  10.530  66.621  1.00  0.00    -0.232 C  
HETATM   12  C   UNL     1      -9.795  10.348  65.083  1.00  0.00    -0.378 C  
HETATM   13  C   UNL     1     -11.072  11.109  67.130  1.00  0.00    -0.352 C  
HETATM   14  C   UNL     1     -11.571  12.324  66.344  1.00  0.00    -0.445 C  
HETATM   15  C   UNL     1     -10.318  11.566  64.321  1.00  0.00    -0.376 C  
HETATM   16  C   UNL     1     -11.669  12.007  64.860  1.00  0.00    -0.321 C  
BRANCH  11  17
HETATM   17  C   UNL     1      -9.306   9.207  67.404  1.00  0.00    -0.161 C  
HETATM   18  C   UNL     1      -8.122   9.322  68.390  1.00  0.00    -0.106 C  
HETATM   19  C   UNL     1      -9.623   9.391  70.405  1.00  0.00    -0.319 C  
HETATM   20  C   UNL     1     -10.822   9.043  69.523  1.00  0.00    -0.177 C  
HETATM   21  C   UNL     1      -8.484  10.076  69.663  1.00  0.00    -0.193 C  
HETATM   22  C   UNL     1     -10.457   8.479  68.143  1.00  0.00    -0.236 C  
ENDBRANCH  11  17
ENDBRANCH   9  11
ENDBRANCH   8   9
ENDBRANCH   7   8
ENDBRANCH   6   7
ENDBRANCH   3   6
ENDBRANCH   2   3
TORSDOF 8
ENDMDL
MODEL      181
REMARK 921   NORMALIZED FREE ENERGY PREDICTED BY IDOCK:   -3.26 KCAL/MOL
REMARK 922        TOTAL FREE ENERGY PREDICTED BY IDOCK:   -5.37 KCAL/MOL
REMARK 923 INTER-LIGAND FREE ENERGY PREDICTED BY IDOCK:   -5.10 KCAL/MOL
REMARK 924 INTRA-LIGAND FREE ENERGY PREDICTED BY IDOCK:   -0.26 KCAL/MOL
REMARK 927      BINDING AFFINITY PREDICTED BY RF-SCORE:    0.00 PKD
ROOT
HETATM    1  C   UNL     1      -7.422   5.993  72.911  1.00  0.00    -0.094 C  
HETATM    2  C   UNL     1      -8.668   5.991  72.029  1.00  0.00    -0.136 C  
ENDROOT
BRANCH   2   3
HETATM    3  N   UNL     1      -9.878   6.539  72.669  1.00  0.00    -0.168 NA 
BRANCH   3   4
HETATM    4  C   UNL     1     -10.394   5.730  73.781  1.00  0.00    -0.257 C  
HETATM    5  C   UNL     1     -11.279   4.551  73.396  1.00  0.00    -0.404 C  
ENDBRANCH   3   4
BRANCH   3   6
HETATM    6  C   UNL     1      -9.658   7.966  73.004  1.00  0.00    -0.276 C  
BRANCH   6   7
HETATM    7  C   UNL     1      -9.173   8.828  71.827  1.00  0.00    -0.262 C  
BRANCH   7   8
HETATM    8  O   UNL     1     -10.241   9.433  71.069  1.00  0.00    -0.287 OA 
BRANCH   8   9
HETATM    9  C   UNL     1     -10.588   8.774  69.934  1.00  0.00    -0.224 C  
HETATM   10  O   UNL     1     -11.340   7.810  69.910  1.00  0.00    -0.139 OA 
BRANCH   9  11
HETATM   11  C   UNL     1      -9.958   9.401  68.661  1.00  0.00    -0.187 C  
HETATM   12  C   UNL     1     -10.658   8.857  67.388  1.00  0.00    -0.305 C  
HETATM   13  C   UNL     1      -8.470   8.914  68.657  1.00  0.00    -0.128 C  
HETATM   14  C   UNL     1      -8.301   7.415  68.394  1.00  0.00    -0.125 C  
HETATM   15  C   UNL     1     -10.456   7.364  67.133  1.00  0.00    -0.403 C  
HETATM   16  C   UNL     1      -8.978   7.013  67.093  1.00  0.00    -0.123 C  
BRANCH  11  17
HETATM   17  C   UNL     1     -10.056  10.979  68.825  1.00  0.00    -0.214 C  
HETATM   18  C   UNL     1      -8.853  11.802  68.312  1.00  0.00    -0.172 C  
HETATM   19  C   UNL     1     -10.048  12.505  66.216  1.00  0.00    -0.264 C  
HETATM   20  C   UNL     1     -11.348  11.915  66.760  1.00  0.00    -0.393 C  
HETATM   21  C   UNL     1      -8.789  11.872  66.793  1.00  0.00    -0.193 C  
HETATM   22  C   UNL     1     -11.343  11.640  68.270  1.00  0.00    -0.348 C  
ENDBRANCH  11  17
ENDBRANCH   9  11
ENDBRANCH   8   9
ENDBRANCH   7   8
ENDBRANCH   6   7
ENDBRANCH   3   6
ENDBRANCH   2   3
TORSDOF 8
ENDMDL
MODEL      182
REMARK 921   NORMALIZED FREE ENERGY PREDICTED BY IDOCK:   -3.26 KCAL/MOL
REMARK 922        TOTAL FREE ENERGY PREDICTED BY IDOCK:   -5.37 KCAL/MOL
REMARK 923 INTER-LIGAND FREE ENERGY PREDICTED BY IDOCK:   -4.80 KCAL/MOL
REMARK 924 INTRA-LIGAND FREE ENERGY PREDICTED BY IDOCK:   -0.57 KCAL/MOL
REMARK 927      BINDING AFFINITY PREDICTED BY RF-SCORE:    0.00 PKD
ROOT
HETATM    1  C   UNL     1      -8.899   9.307  70.296  1.00  0.00    -0.254 C  
HETATM    2  C   UNL     1      -8.750   8.995  68.809  1.00  0.00    -0.136 C  
ENDROOT
BRANCH   2   3
HETATM    3  N   UNL     1      -9.358   9.990  67.906  1.00  0.00    -0.140 NA 
BRANCH   3   4
HETATM    4  C   UNL     1     -10.206   9.414  66.854  1.00  0.00    -0.248 C  
HETATM    5  C   UNL     1     -10.428   7.909  66.923  1.00  0.00    -0.388 C  
ENDBRANCH   3   4
BRANCH   3   6
HETATM    6  C   UNL     1     -10.015  11.049  68.708  1.00  0.00    -0.207 C  
BRANCH   6   7
HETATM    7  C   UNL     1     -10.710  12.139  67.875  1.00  0.00    -0.207 C  
BRANCH   7   8
HETATM    8  O   UNL     1      -9.838  13.221  67.488  1.00  0.00    -0.213 OA 
BRANCH   8   9
HETATM    9  C   UNL     1     -10.036  14.387  68.155  1.00  0.00    -0.226 C  
HETATM   10  O   UNL     1     -10.973  14.586  68.914  1.00  0.00    -0.238 OA 
BRANCH   9  11
HETATM   11  C   UNL     1      -8.920  15.431  67.879  1.00  0.00    -0.173 C  
HETATM   12  C   UNL     1      -9.248  16.772  68.587  1.00  0.00    -0.257 C  
HETATM   13  C   UNL     1      -8.948  15.665  66.332  1.00  0.00    -0.362 C  
HETATM   14  C   UNL     1     -10.199  16.393  65.831  1.00  0.00    -0.379 C  
HETATM   15  C   UNL     1     -10.487  17.491  68.055  1.00  0.00    -0.387 C  
HETATM   16  C   UNL     1     -10.383  17.717  66.555  1.00  0.00    -0.337 C  
BRANCH  11  17
HETATM   17  C   UNL     1      -7.548  14.776  68.347  1.00  0.00    -0.116 C  
HETATM   18  C   UNL     1      -6.345  14.940  67.391  1.00  0.00     0.056 C  
HETATM   19  C   UNL     1      -5.308  16.757  68.783  1.00  0.00    -0.124 C  
HETATM   20  C   UNL     1      -6.330  16.493  69.888  1.00  0.00    -0.111 C  
HETATM   21  C   UNL     1      -5.777  16.353  67.392  1.00  0.00    -0.183 C  
HETATM   22  C   UNL     1      -7.067  15.152  69.770  1.00  0.00    -0.169 C  
ENDBRANCH  11  17
ENDBRANCH   9  11
ENDBRANCH   8   9
ENDBRANCH   7   8
ENDBRANCH   6   7
ENDBRANCH   3   6
ENDBRANCH   2   3
TORSDOF 8
ENDMDL
MODEL      183
REMARK 921   NORMALIZED FREE ENERGY PREDICTED BY IDOCK:   -3.25 KCAL/MOL
REMARK 922        TOTAL FREE ENERGY PREDICTED BY IDOCK:   -5.36 KCAL/MOL
REMARK 923 INTER-LIGAND FREE ENERGY PREDICTED BY IDOCK:   -5.87 KCAL/MOL
REMARK 924 INTRA-LIGAND FREE ENERGY PREDICTED BY IDOCK:    0.51 KCAL/MOL
REMARK 927      BINDING AFFINITY PREDICTED BY RF-SCORE:    0.00 PKD
ROOT
HETATM    1  C   UNL     1     -10.411  20.577  69.278  1.00  0.00     0.248 C  
HETATM    2  C   UNL     1      -9.967  20.303  67.844  1.00  0.00    -0.352 C  
ENDROOT
BRANCH   2   3
HETATM    3  N   UNL     1      -8.846  19.353  67.714  1.00  0.00    -0.306 NA 
BRANCH   3   4
HETATM    4  C   UNL     1      -7.653  19.714  68.490  1.00  0.00    -0.337 C  
HETATM    5  C   UNL     1      -6.729  18.564  68.870  1.00  0.00    -0.284 C  
ENDBRANCH   3   4
BRANCH   3   6
HETATM    6  C   UNL     1      -9.337  17.975  67.955  1.00  0.00    -0.272 C  
BRANCH   6   7
HETATM    7  C   UNL     1     -10.549  17.572  67.100  1.00  0.00    -0.264 C  
BRANCH   7   8
HETATM    8  O   UNL     1     -10.919  16.184  67.231  1.00  0.00    -0.283 OA 
BRANCH   8   9
HETATM    9  C   UNL     1     -10.420  15.362  66.272  1.00  0.00    -0.303 C  
HETATM   10  O   UNL     1      -9.819  15.756  65.284  1.00  0.00    -0.375 OA 
BRANCH   9  11
HETATM   11  C   UNL     1     -10.660  13.860  66.588  1.00  0.00    -0.274 C  
HETATM   12  C   UNL     1     -10.100  12.973  65.445  1.00  0.00    -0.265 C  
HETATM   13  C   UNL     1     -12.215  13.693  66.631  1.00  0.00    -0.437 C  
HETATM   14  C   UNL     1     -12.902  13.849  65.271  1.00  0.00    -0.437 C  
HETATM   15  C   UNL     1     -10.815  13.129  64.103  1.00  0.00    -0.407 C  
HETATM   16  C   UNL     1     -12.309  12.890  64.251  1.00  0.00    -0.458 C  
BRANCH  11  17
HETATM   17  C   UNL     1     -10.001  13.574  68.006  1.00  0.00    -0.248 C  
HETATM   18  C   UNL     1      -9.225  12.246  68.150  1.00  0.00    -0.197 C  
HETATM   19  C   UNL     1      -6.985  13.370  67.959  1.00  0.00    -0.127 C  
HETATM   20  C   UNL     1      -7.664  14.736  68.047  1.00  0.00    -0.130 C  
HETATM   21  C   UNL     1      -7.885  12.262  67.427  1.00  0.00    -0.171 C  
HETATM   22  C   UNL     1      -9.104  14.701  68.577  1.00  0.00    -0.188 C  
ENDBRANCH  11  17
ENDBRANCH   9  11
ENDBRANCH   8   9
ENDBRANCH   7   8
ENDBRANCH   6   7
ENDBRANCH   3   6
ENDBRANCH   2   3
TORSDOF 8
ENDMDL
MODEL      184
REMARK 921   NORMALIZED FREE ENERGY PREDICTED BY IDOCK:   -3.23 KCAL/MOL
REMARK 922        TOTAL FREE ENERGY PREDICTED BY IDOCK:   -5.32 KCAL/MOL
REMARK 923 INTER-LIGAND FREE ENERGY PREDICTED BY IDOCK:   -4.77 KCAL/MOL
REMARK 924 INTRA-LIGAND FREE ENERGY PREDICTED BY IDOCK:   -0.54 KCAL/MOL
REMARK 927      BINDING AFFINITY PREDICTED BY RF-SCORE:    0.00 PKD
ROOT
HETATM    1  C   UNL     1     -10.567  15.817  66.039  1.00  0.00    -0.334 C  
HETATM    2  C   UNL     1     -10.594  14.306  65.830  1.00  0.00    -0.302 C  
ENDROOT
BRANCH   2   3
HETATM    3  N   UNL     1     -11.835  13.643  66.272  1.00  0.00    -0.370 NA 
BRANCH   3   4
HETATM    4  C   UNL     1     -12.484  12.824  65.240  1.00  0.00    -0.465 C  
HETATM    5  C   UNL     1     -11.700  12.630  63.948  1.00  0.00    -0.532 C  
ENDBRANCH   3   4
BRANCH   3   6
HETATM    6  C   UNL     1     -11.589  12.933  67.549  1.00  0.00    -0.356 C  
BRANCH   6   7
HETATM    7  C   UNL     1     -10.103  12.766  67.908  1.00  0.00    -0.231 C  
BRANCH   7   8
HETATM    8  O   UNL     1      -9.833  11.629  68.754  1.00  0.00    -0.193 OA 
BRANCH   8   9
HETATM    9  C   UNL     1      -8.645  11.011  68.526  1.00  0.00    -0.158 C  
HETATM   10  O   UNL     1      -7.621  11.600  68.211  1.00  0.00    -0.105 OA 
BRANCH   9  11
HETATM   11  C   UNL     1      -8.717   9.476  68.750  1.00  0.00    -0.128 C  
HETATM   12  C   UNL     1      -7.818   8.738  67.723  1.00  0.00    -0.102 C  
HETATM   13  C   UNL     1     -10.209   9.090  68.472  1.00  0.00    -0.224 C  
HETATM   14  C   UNL     1     -10.629   9.222  67.006  1.00  0.00    -0.263 C  
HETATM   15  C   UNL     1      -8.270   8.864  66.268  1.00  0.00    -0.111 C  
HETATM   16  C   UNL     1      -9.711   8.411  66.104  1.00  0.00    -0.223 C  
BRANCH  11  17
HETATM   17  C   UNL     1      -8.316   9.209  70.265  1.00  0.00    -0.187 C  
HETATM   18  C   UNL     1      -9.098   8.097  71.000  1.00  0.00    -0.176 C  
HETATM   19  C   UNL     1      -7.217   6.443  70.793  1.00  0.00    -0.074 C  
HETATM   20  C   UNL     1      -6.301   7.551  70.275  1.00  0.00    -0.034 C  
HETATM   21  C   UNL     1      -8.698   6.698  70.551  1.00  0.00    -0.144 C  
HETATM   22  C   UNL     1      -6.809   8.976  70.536  1.00  0.00    -0.061 C  
ENDBRANCH  11  17
ENDBRANCH   9  11
ENDBRANCH   8   9
ENDBRANCH   7   8
ENDBRANCH   6   7
ENDBRANCH   3   6
ENDBRANCH   2   3
TORSDOF 8
ENDMDL
MODEL      185
REMARK 921   NORMALIZED FREE ENERGY PREDICTED BY IDOCK:   -3.22 KCAL/MOL
REMARK 922        TOTAL FREE ENERGY PREDICTED BY IDOCK:   -5.31 KCAL/MOL
REMARK 923 INTER-LIGAND FREE ENERGY PREDICTED BY IDOCK:   -4.81 KCAL/MOL
REMARK 924 INTRA-LIGAND FREE ENERGY PREDICTED BY IDOCK:   -0.49 KCAL/MOL
REMARK 927      BINDING AFFINITY PREDICTED BY RF-SCORE:    0.00 PKD
ROOT
HETATM    1  C   UNL     1     -11.818  12.571  69.908  1.00  0.00    -0.373 C  
HETATM    2  C   UNL     1     -11.463  12.876  68.455  1.00  0.00    -0.310 C  
ENDROOT
BRANCH   2   3
HETATM    3  N   UNL     1     -11.386  11.694  67.577  1.00  0.00    -0.327 NA 
BRANCH   3   4
HETATM    4  C   UNL     1     -11.457  12.000  66.142  1.00  0.00    -0.339 C  
HETATM    5  C   UNL     1     -10.123  12.110  65.416  1.00  0.00    -0.282 C  
ENDBRANCH   3   4
BRANCH   3   6
HETATM    6  C   UNL     1     -10.222  10.864  67.967  1.00  0.00    -0.178 C  
BRANCH   6   7
HETATM    7  C   UNL     1     -10.538   9.369  68.145  1.00  0.00    -0.212 C  
BRANCH   7   8
HETATM    8  O   UNL     1     -10.612   8.950  69.523  1.00  0.00    -0.230 OA 
BRANCH   8   9
HETATM    9  C   UNL     1     -10.589   7.606  69.719  1.00  0.00    -0.244 C  
HETATM   10  O   UNL     1     -11.394   6.833  69.220  1.00  0.00    -0.237 OA 
BRANCH   9  11
HETATM   11  C   UNL     1      -9.403   7.151  70.612  1.00  0.00    -0.158 C  
HETATM   12  C   UNL     1      -9.676   5.738  71.192  1.00  0.00    -0.210 C  
HETATM   13  C   UNL     1      -9.363   8.175  71.795  1.00  0.00    -0.241 C  
HETATM   14  C   UNL     1     -10.550   8.069  72.757  1.00  0.00    -0.420 C  
HETATM   15  C   UNL     1     -10.850   5.661  72.168  1.00  0.00    -0.300 C  
HETATM   16  C   UNL     1     -10.680   6.657  73.303  1.00  0.00    -0.315 C  
BRANCH  11  17
HETATM   17  C   UNL     1      -8.091   7.237  69.718  1.00  0.00    -0.128 C  
HETATM   18  C   UNL     1      -6.745   7.026  70.448  1.00  0.00    -0.053 C  
HETATM   19  C   UNL     1      -6.494   4.673  69.601  1.00  0.00    -0.032 C  
HETATM   20  C   UNL     1      -7.687   4.883  68.668  1.00  0.00    -0.077 C  
HETATM   21  C   UNL     1      -6.501   5.572  70.830  1.00  0.00    -0.035 C  
HETATM   22  C   UNL     1      -8.076   6.351  68.448  1.00  0.00    -0.113 C  
ENDBRANCH  11  17
ENDBRANCH   9  11
ENDBRANCH   8   9
ENDBRANCH   7   8
ENDBRANCH   6   7
ENDBRANCH   3   6
ENDBRANCH   2   3
TORSDOF 8
ENDMDL
MODEL      186
REMARK 921   NORMALIZED FREE ENERGY PREDICTED BY IDOCK:   -3.22 KCAL/MOL
REMARK 922        TOTAL FREE ENERGY PREDICTED BY IDOCK:   -5.31 KCAL/MOL
REMARK 923 INTER-LIGAND FREE ENERGY PREDICTED BY IDOCK:   -5.30 KCAL/MOL
REMARK 924 INTRA-LIGAND FREE ENERGY PREDICTED BY IDOCK:   -0.00 KCAL/MOL
REMARK 927      BINDING AFFINITY PREDICTED BY RF-SCORE:    0.00 PKD
ROOT
HETATM    1  C   UNL     1      -8.871   7.807  70.072  1.00  0.00    -0.142 C  
HETATM    2  C   UNL     1      -8.045   8.905  69.407  1.00  0.00    -0.105 C  
ENDROOT
BRANCH   2   3
HETATM    3  N   UNL     1      -8.702   9.565  68.264  1.00  0.00    -0.120 NA 
BRANCH   3   4
HETATM    4  C   UNL     1      -8.090   9.274  66.961  1.00  0.00    -0.112 C  
HETATM    5  C   UNL     1      -6.892  10.135  66.578  1.00  0.00    -0.090 C  
ENDBRANCH   3   4
BRANCH   3   6
HETATM    6  C   UNL     1     -10.162   9.315  68.321  1.00  0.00    -0.201 C  
BRANCH   6   7
HETATM    7  C   UNL     1     -11.030  10.506  67.882  1.00  0.00    -0.295 C  
BRANCH   7   8
HETATM    8  O   UNL     1     -10.371  11.784  68.006  1.00  0.00    -0.187 OA 
BRANCH   8   9
HETATM    9  C   UNL     1     -11.187  12.824  68.320  1.00  0.00    -0.271 C  
HETATM   10  O   UNL     1     -12.005  12.796  69.228  1.00  0.00    -0.289 OA 
BRANCH   9  11
HETATM   11  C   UNL     1     -10.938  14.069  67.427  1.00  0.00    -0.302 C  
HETATM   12  C   UNL     1     -12.239  14.466  66.681  1.00  0.00    -0.340 C  
HETATM   13  C   UNL     1      -9.879  13.612  66.369  1.00  0.00    -0.302 C  
HETATM   14  C   UNL     1     -10.404  12.589  65.357  1.00  0.00    -0.305 C  
HETATM   15  C   UNL     1     -12.731  13.442  65.660  1.00  0.00    -0.432 C  
HETATM   16  C   UNL     1     -11.644  13.114  64.650  1.00  0.00    -0.384 C  
BRANCH  11  17
HETATM   17  C   UNL     1     -10.365  15.211  68.373  1.00  0.00    -0.229 C  
HETATM   18  C   UNL     1      -8.869  15.110  68.747  1.00  0.00    -0.196 C  
HETATM   19  C   UNL     1      -8.196  16.899  67.114  1.00  0.00    -0.215 C  
HETATM   20  C   UNL     1      -9.668  17.222  66.862  1.00  0.00    -0.275 C  
HETATM   21  C   UNL     1      -7.945  15.475  67.592  1.00  0.00    -0.168 C  
HETATM   22  C   UNL     1     -10.634  16.667  67.919  1.00  0.00    -0.342 C  
ENDBRANCH  11  17
ENDBRANCH   9  11
ENDBRANCH   8   9
ENDBRANCH   7   8
ENDBRANCH   6   7
ENDBRANCH   3   6
ENDBRANCH   2   3
TORSDOF 8
ENDMDL
MODEL      187
REMARK 921   NORMALIZED FREE ENERGY PREDICTED BY IDOCK:   -3.21 KCAL/MOL
REMARK 922        TOTAL FREE ENERGY PREDICTED BY IDOCK:   -5.29 KCAL/MOL
REMARK 923 INTER-LIGAND FREE ENERGY PREDICTED BY IDOCK:   -4.52 KCAL/MOL
REMARK 924 INTRA-LIGAND FREE ENERGY PREDICTED BY IDOCK:   -0.76 KCAL/MOL
REMARK 927      BINDING AFFINITY PREDICTED BY RF-SCORE:    0.00 PKD
ROOT
HETATM    1  C   UNL     1     -10.536   5.140  66.552  1.00  0.00    -0.320 C  
HETATM    2  C   UNL     1      -9.656   4.002  67.062  1.00  0.00    -0.201 C  
ENDROOT
BRANCH   2   3
HETATM    3  N   UNL     1      -8.208   4.206  66.865  1.00  0.00    -0.101 NA 
BRANCH   3   4
HETATM    4  C   UNL     1      -7.820   4.490  65.477  1.00  0.00    -0.094 C  
HETATM    5  C   UNL     1      -7.877   3.312  64.512  1.00  0.00    -0.078 C  
ENDBRANCH   3   4
BRANCH   3   6
HETATM    6  C   UNL     1      -7.709   5.192  67.852  1.00  0.00    -0.087 C  
BRANCH   6   7
HETATM    7  C   UNL     1      -7.153   6.485  67.234  1.00  0.00    -0.077 C  
BRANCH   7   8
HETATM    8  O   UNL     1      -8.039   7.617  67.354  1.00  0.00    -0.116 OA 
BRANCH   8   9
HETATM    9  C   UNL     1      -8.079   8.189  68.586  1.00  0.00    -0.124 C  
HETATM   10  O   UNL     1      -7.088   8.567  69.193  1.00  0.00    -0.061 OA 
BRANCH   9  11
HETATM   11  C   UNL     1      -9.527   8.348  69.124  1.00  0.00    -0.155 C  
HETATM   12  C   UNL     1     -10.536   8.409  67.948  1.00  0.00    -0.218 C  
HETATM   13  C   UNL     1      -9.541   9.727  69.864  1.00  0.00    -0.269 C  
HETATM   14  C   UNL     1      -9.408  10.938  68.936  1.00  0.00    -0.169 C  
HETATM   15  C   UNL     1     -10.400   9.637  67.049  1.00  0.00    -0.315 C  
HETATM   16  C   UNL     1     -10.484  10.919  67.862  1.00  0.00    -0.227 C  
BRANCH  11  17
HETATM   17  C   UNL     1      -9.782   7.143  70.130  1.00  0.00    -0.171 C  
HETATM   18  C   UNL     1      -9.299   7.343  71.583  1.00  0.00    -0.162 C  
HETATM   19  C   UNL     1     -11.615   7.814  72.438  1.00  0.00    -0.410 C  
HETATM   20  C   UNL     1     -12.197   7.402  71.086  1.00  0.00    -0.357 C  
HETATM   21  C   UNL     1     -10.176   8.307  72.371  1.00  0.00    -0.397 C  
HETATM   22  C   UNL     1     -11.235   6.608  70.192  1.00  0.00    -0.416 C  
ENDBRANCH  11  17
ENDBRANCH   9  11
ENDBRANCH   8   9
ENDBRANCH   7   8
ENDBRANCH   6   7
ENDBRANCH   3   6
ENDBRANCH   2   3
TORSDOF 8
ENDMDL
MODEL      188
REMARK 921   NORMALIZED FREE ENERGY PREDICTED BY IDOCK:   -3.19 KCAL/MOL
REMARK 922        TOTAL FREE ENERGY PREDICTED BY IDOCK:   -5.27 KCAL/MOL
REMARK 923 INTER-LIGAND FREE ENERGY PREDICTED BY IDOCK:   -5.48 KCAL/MOL
REMARK 924 INTRA-LIGAND FREE ENERGY PREDICTED BY IDOCK:    0.21 KCAL/MOL
REMARK 927      BINDING AFFINITY PREDICTED BY RF-SCORE:    0.00 PKD
ROOT
HETATM    1  C   UNL     1      -9.353   7.666  68.251  1.00  0.00    -0.145 C  
HETATM    2  C   UNL     1     -10.574   8.387  68.817  1.00  0.00    -0.125 C  
ENDROOT
BRANCH   2   3
HETATM    3  N   UNL     1     -10.278   9.660  69.499  1.00  0.00    -0.204 NA 
BRANCH   3   4
HETATM    4  C   UNL     1      -9.946   9.521  70.923  1.00  0.00    -0.238 C  
HETATM    5  C   UNL     1     -11.105   9.177  71.850  1.00  0.00    -0.385 C  
ENDBRANCH   3   4
BRANCH   3   6
HETATM    6  C   UNL     1      -9.281  10.423  68.712  1.00  0.00    -0.172 C  
BRANCH   6   7
HETATM    7  C   UNL     1      -9.870  11.209  67.529  1.00  0.00    -0.177 C  
BRANCH   7   8
HETATM    8  O   UNL     1     -10.217  12.572  67.851  1.00  0.00    -0.207 OA 
BRANCH   8   9
HETATM    9  C   UNL     1      -9.720  13.509  67.002  1.00  0.00    -0.251 C  
HETATM   10  O   UNL     1      -8.556  13.540  66.629  1.00  0.00    -0.090 OA 
BRANCH   9  11
HETATM   11  C   UNL     1     -10.801  14.515  66.523  1.00  0.00    -0.314 C  
HETATM   12  C   UNL     1     -12.207  13.862  66.576  1.00  0.00    -0.482 C  
HETATM   13  C   UNL     1     -10.448  14.816  65.028  1.00  0.00    -0.443 C  
HETATM   14  C   UNL     1     -10.668  13.632  64.081  1.00  0.00    -0.141 C  
HETATM   15  C   UNL     1     -12.411  12.698  65.607  1.00  0.00    -0.390 C  
HETATM   16  C   UNL     1     -12.095  13.117  64.180  1.00  0.00    -0.496 C  
BRANCH  11  17
HETATM   17  C   UNL     1     -10.659  15.814  67.429  1.00  0.00    -0.313 C  
HETATM   18  C   UNL     1     -11.861  16.154  68.339  1.00  0.00     0.018 C  
HETATM   19  C   UNL     1     -10.730  15.270  70.402  1.00  0.00    -0.268 C  
HETATM   20  C   UNL     1      -9.424  15.123  69.622  1.00  0.00    -0.104 C  
HETATM   21  C   UNL     1     -11.981  15.219  69.535  1.00  0.00    -0.356 C  
HETATM   22  C   UNL     1      -9.380  15.898  68.298  1.00  0.00    -0.194 C  
ENDBRANCH  11  17
ENDBRANCH   9  11
ENDBRANCH   8   9
ENDBRANCH   7   8
ENDBRANCH   6   7
ENDBRANCH   3   6
ENDBRANCH   2   3
TORSDOF 8
ENDMDL
MODEL      189
REMARK 921   NORMALIZED FREE ENERGY PREDICTED BY IDOCK:   -3.19 KCAL/MOL
REMARK 922        TOTAL FREE ENERGY PREDICTED BY IDOCK:   -5.26 KCAL/MOL
REMARK 923 INTER-LIGAND FREE ENERGY PREDICTED BY IDOCK:   -5.02 KCAL/MOL
REMARK 924 INTRA-LIGAND FREE ENERGY PREDICTED BY IDOCK:   -0.24 KCAL/MOL
REMARK 927      BINDING AFFINITY PREDICTED BY RF-SCORE:    0.00 PKD
ROOT
HETATM    1  C   UNL     1     -11.218  14.741  64.715  1.00  0.00    -0.392 C  
HETATM    2  C   UNL     1     -10.452  15.885  65.373  1.00  0.00    -0.405 C  
ENDROOT
BRANCH   2   3
HETATM    3  N   UNL     1      -9.546  15.476  66.463  1.00  0.00    -0.254 NA 
BRANCH   3   4
HETATM    4  C   UNL     1      -9.621  16.320  67.662  1.00  0.00    -0.227 C  
HETATM    5  C   UNL     1     -10.099  17.751  67.444  1.00  0.00    -0.338 C  
ENDBRANCH   3   4
BRANCH   3   6
HETATM    6  C   UNL     1      -9.713  14.027  66.726  1.00  0.00    -0.278 C  
BRANCH   6   7
HETATM    7  C   UNL     1      -9.590  13.631  68.206  1.00  0.00    -0.215 C  
BRANCH   7   8
HETATM    8  O   UNL     1      -9.766  12.219  68.448  1.00  0.00    -0.213 OA 
BRANCH   8   9
HETATM    9  C   UNL     1      -8.665  11.455  68.226  1.00  0.00    -0.160 C  
HETATM   10  O   UNL     1      -7.519  11.876  68.301  1.00  0.00    -0.090 OA 
BRANCH   9  11
HETATM   11  C   UNL     1      -9.017   9.977  67.907  1.00  0.00    -0.131 C  
HETATM   12  C   UNL     1      -8.240   9.497  66.652  1.00  0.00    -0.116 C  
HETATM   13  C   UNL     1     -10.546   9.982  67.573  1.00  0.00    -0.336 C  
HETATM   14  C   UNL     1     -10.900  10.688  66.261  1.00  0.00    -0.097 C  
HETATM   15  C   UNL     1      -8.626  10.199  65.351  1.00  0.00    -0.165 C  
HETATM   16  C   UNL     1     -10.121  10.093  65.098  1.00  0.00    -0.329 C  
BRANCH  11  17
HETATM   17  C   UNL     1      -8.706   9.133  69.218  1.00  0.00    -0.139 C  
HETATM   18  C   UNL     1      -9.638   9.371  70.427  1.00  0.00    -0.319 C  
HETATM   19  C   UNL     1     -10.921   7.245  70.036  1.00  0.00    -0.273 C  
HETATM   20  C   UNL     1      -9.899   6.824  68.980  1.00  0.00    -0.152 C  
HETATM   21  C   UNL     1     -11.017   8.751  70.242  1.00  0.00    -0.255 C  
HETATM   22  C   UNL     1      -8.577   7.602  69.024  1.00  0.00    -0.136 C  
ENDBRANCH  11  17
ENDBRANCH   9  11
ENDBRANCH   8   9
ENDBRANCH   7   8
ENDBRANCH   6   7
ENDBRANCH   3   6
ENDBRANCH   2   3
TORSDOF 8
ENDMDL
MODEL      190
REMARK 921   NORMALIZED FREE ENERGY PREDICTED BY IDOCK:   -3.16 KCAL/MOL
REMARK 922        TOTAL FREE ENERGY PREDICTED BY IDOCK:   -5.23 KCAL/MOL
REMARK 923 INTER-LIGAND FREE ENERGY PREDICTED BY IDOCK:   -5.18 KCAL/MOL
REMARK 924 INTRA-LIGAND FREE ENERGY PREDICTED BY IDOCK:   -0.05 KCAL/MOL
REMARK 927      BINDING AFFINITY PREDICTED BY RF-SCORE:    0.00 PKD
ROOT
HETATM    1  C   UNL     1      -5.829  11.466  69.916  1.00  0.00    -0.109 C  
HETATM    2  C   UNL     1      -5.360  11.357  68.468  1.00  0.00    -0.042 C  
ENDROOT
BRANCH   2   3
HETATM    3  N   UNL     1      -6.445  11.246  67.474  1.00  0.00    -0.067 NA 
BRANCH   3   4
HETATM    4  C   UNL     1      -6.304  10.115  66.548  1.00  0.00    -0.074 C  
HETATM    5  C   UNL     1      -6.256  10.467  65.066  1.00  0.00    -0.105 C  
ENDBRANCH   3   4
BRANCH   3   6
HETATM    6  C   UNL     1      -7.755  11.309  68.164  1.00  0.00    -0.112 C  
BRANCH   6   7
HETATM    7  C   UNL     1      -8.937  10.781  67.335  1.00  0.00    -0.139 C  
BRANCH   7   8
HETATM    8  O   UNL     1     -10.227  11.208  67.821  1.00  0.00    -0.174 OA 
BRANCH   8   9
HETATM    9  C   UNL     1     -10.989  11.878  66.918  1.00  0.00    -0.289 C  
HETATM   10  O   UNL     1     -11.680  11.330  66.072  1.00  0.00    -0.132 OA 
BRANCH   9  11
HETATM   11  C   UNL     1     -10.920  13.418  67.103  1.00  0.00    -0.292 C  
HETATM   12  C   UNL     1     -12.301  14.059  66.807  1.00  0.00    -0.368 C  
HETATM   13  C   UNL     1      -9.900  13.916  66.025  1.00  0.00    -0.306 C  
HETATM   14  C   UNL     1     -10.398  13.787  64.583  1.00  0.00    -0.393 C  
HETATM   15  C   UNL     1     -12.767  13.939  65.356  1.00  0.00    -0.525 C  
HETATM   16  C   UNL     1     -11.728  14.502  64.402  1.00  0.00    -0.381 C  
BRANCH  11  17
HETATM   17  C   UNL     1     -10.389  13.684  68.578  1.00  0.00    -0.244 C  
HETATM   18  C   UNL     1      -9.185  14.642  68.715  1.00  0.00    -0.184 C  
HETATM   19  C   UNL     1     -10.616  16.560  69.482  1.00  0.00    -0.321 C  
HETATM   20  C   UNL     1     -11.813  15.618  69.599  1.00  0.00    -0.377 C  
HETATM   21  C   UNL     1      -9.559  16.100  68.487  1.00  0.00    -0.215 C  
HETATM   22  C   UNL     1     -11.454  14.126  69.612  1.00  0.00    -0.329 C  
ENDBRANCH  11  17
ENDBRANCH   9  11
ENDBRANCH   8   9
ENDBRANCH   7   8
ENDBRANCH   6   7
ENDBRANCH   3   6
ENDBRANCH   2   3
TORSDOF 8
ENDMDL
MODEL      191
REMARK 921   NORMALIZED FREE ENERGY PREDICTED BY IDOCK:   -3.16 KCAL/MOL
REMARK 922        TOTAL FREE ENERGY PREDICTED BY IDOCK:   -5.23 KCAL/MOL
REMARK 923 INTER-LIGAND FREE ENERGY PREDICTED BY IDOCK:   -4.89 KCAL/MOL
REMARK 924 INTRA-LIGAND FREE ENERGY PREDICTED BY IDOCK:   -0.33 KCAL/MOL
REMARK 927      BINDING AFFINITY PREDICTED BY RF-SCORE:    0.00 PKD
ROOT
HETATM    1  C   UNL     1     -12.029  13.682  64.086  1.00  0.00    -0.488 C  
HETATM    2  C   UNL     1     -10.607  13.642  64.640  1.00  0.00    -0.430 C  
ENDROOT
BRANCH   2   3
HETATM    3  N   UNL     1     -10.507  13.239  66.055  1.00  0.00    -0.281 NA 
BRANCH   3   4
HETATM    4  C   UNL     1     -10.896  14.283  67.012  1.00  0.00    -0.297 C  
HETATM    5  C   UNL     1      -9.908  15.429  67.190  1.00  0.00    -0.221 C  
ENDBRANCH   3   4
BRANCH   3   6
HETATM    6  C   UNL     1     -11.200  11.944  66.249  1.00  0.00    -0.337 C  
BRANCH   6   7
HETATM    7  C   UNL     1     -10.657  11.100  67.414  1.00  0.00    -0.234 C  
BRANCH   7   8
HETATM    8  O   UNL     1     -10.866   9.681  67.253  1.00  0.00    -0.254 OA 
BRANCH   8   9
HETATM    9  C   UNL     1      -9.819   9.002  66.716  1.00  0.00    -0.234 C  
HETATM   10  O   UNL     1      -9.395   9.189  65.585  1.00  0.00    -0.224 OA 
BRANCH   9  11
HETATM   11  C   UNL     1      -9.192   7.988  67.711  1.00  0.00    -0.142 C  
HETATM   12  C   UNL     1      -8.324   6.952  66.949  1.00  0.00    -0.114 C  
HETATM   13  C   UNL     1     -10.405   7.241  68.357  1.00  0.00    -0.213 C  
HETATM   14  C   UNL     1     -11.161   6.321  67.394  1.00  0.00    -0.384 C  
HETATM   15  C   UNL     1      -9.102   6.030  66.011  1.00  0.00    -0.143 C  
HETATM   16  C   UNL     1     -10.218   5.314  66.754  1.00  0.00    -0.287 C  
BRANCH  11  17
HETATM   17  C   UNL     1      -8.385   8.835  68.788  1.00  0.00    -0.124 C  
HETATM   18  C   UNL     1      -8.928   8.807  70.234  1.00  0.00    -0.174 C  
HETATM   19  C   UNL     1      -7.172   7.187  71.013  1.00  0.00    -0.074 C  
HETATM   20  C   UNL     1      -6.440   7.342  69.681  1.00  0.00    -0.036 C  
HETATM   21  C   UNL     1      -8.664   7.484  70.940  1.00  0.00    -0.142 C  
HETATM   22  C   UNL     1      -6.861   8.567  68.858  1.00  0.00    -0.061 C  
ENDBRANCH  11  17
ENDBRANCH   9  11
ENDBRANCH   8   9
ENDBRANCH   7   8
ENDBRANCH   6   7
ENDBRANCH   3   6
ENDBRANCH   2   3
TORSDOF 8
ENDMDL
MODEL      192
REMARK 921   NORMALIZED FREE ENERGY PREDICTED BY IDOCK:   -3.16 KCAL/MOL
REMARK 922        TOTAL FREE ENERGY PREDICTED BY IDOCK:   -5.23 KCAL/MOL
REMARK 923 INTER-LIGAND FREE ENERGY PREDICTED BY IDOCK:   -4.39 KCAL/MOL
REMARK 924 INTRA-LIGAND FREE ENERGY PREDICTED BY IDOCK:   -0.83 KCAL/MOL
REMARK 927      BINDING AFFINITY PREDICTED BY RF-SCORE:    0.00 PKD
ROOT
HETATM    1  C   UNL     1      -6.206  12.901  69.730  1.00  0.00    -0.105 C  
HETATM    2  C   UNL     1      -7.063  12.838  68.469  1.00  0.00    -0.101 C  
ENDROOT
BRANCH   2   3
HETATM    3  N   UNL     1      -7.989  11.692  68.409  1.00  0.00    -0.135 NA 
BRANCH   3   4
HETATM    4  C   UNL     1      -9.367  12.044  68.041  1.00  0.00    -0.196 C  
HETATM    5  C   UNL     1      -9.912  11.386  66.780  1.00  0.00    -0.238 C  
ENDBRANCH   3   4
BRANCH   3   6
HETATM    6  C   UNL     1      -7.393  10.618  67.580  1.00  0.00    -0.091 C  
BRANCH   6   7
HETATM    7  C   UNL     1      -6.875   9.411  68.378  1.00  0.00    -0.063 C  
BRANCH   7   8
HETATM    8  O   UNL     1      -7.831   8.880  69.319  1.00  0.00    -0.091 OA 
BRANCH   8   9
HETATM    9  C   UNL     1      -8.130   7.565  69.157  1.00  0.00    -0.123 C  
HETATM   10  O   UNL     1      -7.335   6.733  68.745  1.00  0.00    -0.089 OA 
BRANCH   9  11
HETATM   11  C   UNL     1      -9.581   7.223  69.593  1.00  0.00    -0.155 C  
HETATM   12  C   UNL     1      -9.943   5.775  69.171  1.00  0.00    -0.232 C  
HETATM   13  C   UNL     1     -10.493   8.216  68.798  1.00  0.00    -0.198 C  
HETATM   14  C   UNL     1     -10.540   7.954  67.290  1.00  0.00    -0.365 C  
HETATM   15  C   UNL     1     -10.007   5.543  67.662  1.00  0.00    -0.187 C  
HETATM   16  C   UNL     1     -10.963   6.522  67.001  1.00  0.00    -0.466 C  
BRANCH  11  17
HETATM   17  C   UNL     1      -9.666   7.478  71.160  1.00  0.00    -0.168 C  
HETATM   18  C   UNL     1     -11.032   7.946  71.709  1.00  0.00    -0.290 C  
HETATM   19  C   UNL     1     -11.609   5.672  72.610  1.00  0.00    -0.307 C  
HETATM   20  C   UNL     1     -10.189   5.194  72.310  1.00  0.00    -0.255 C  
HETATM   21  C   UNL     1     -12.071   6.834  71.740  1.00  0.00    -0.393 C  
HETATM   22  C   UNL     1      -9.174   6.319  72.063  1.00  0.00    -0.145 C  
ENDBRANCH  11  17
ENDBRANCH   9  11
ENDBRANCH   8   9
ENDBRANCH   7   8
ENDBRANCH   6   7
ENDBRANCH   3   6
ENDBRANCH   2   3
TORSDOF 8
ENDMDL
MODEL      193
REMARK 921   NORMALIZED FREE ENERGY PREDICTED BY IDOCK:   -3.15 KCAL/MOL
REMARK 922        TOTAL FREE ENERGY PREDICTED BY IDOCK:   -5.21 KCAL/MOL
REMARK 923 INTER-LIGAND FREE ENERGY PREDICTED BY IDOCK:   -4.79 KCAL/MOL
REMARK 924 INTRA-LIGAND FREE ENERGY PREDICTED BY IDOCK:   -0.42 KCAL/MOL
REMARK 927      BINDING AFFINITY PREDICTED BY RF-SCORE:    0.00 PKD
ROOT
HETATM    1  C   UNL     1      -7.609  10.415  67.942  1.00  0.00    -0.088 C  
HETATM    2  C   UNL     1      -8.944  10.582  67.222  1.00  0.00    -0.139 C  
ENDROOT
BRANCH   2   3
HETATM    3  N   UNL     1     -10.125  10.184  68.010  1.00  0.00    -0.152 NA 
BRANCH   3   4
HETATM    4  C   UNL     1      -9.889  10.105  69.457  1.00  0.00    -0.232 C  
HETATM    5  C   UNL     1     -11.133  10.052  70.335  1.00  0.00    -0.393 C  
ENDBRANCH   3   4
BRANCH   3   6
HETATM    6  C   UNL     1     -11.282  11.027  67.625  1.00  0.00    -0.305 C  
BRANCH   6   7
HETATM    7  C   UNL     1     -10.917  12.268  66.794  1.00  0.00    -0.276 C  
BRANCH   7   8
HETATM    8  O   UNL     1     -10.424  13.372  67.580  1.00  0.00    -0.236 OA 
BRANCH   8   9
HETATM    9  C   UNL     1     -10.007  14.449  66.864  1.00  0.00    -0.261 C  
HETATM   10  O   UNL     1     -10.328  14.659  65.703  1.00  0.00    -0.309 OA 
BRANCH   9  11
HETATM   11  C   UNL     1      -9.111  15.407  67.693  1.00  0.00    -0.183 C  
HETATM   12  C   UNL     1      -9.118  14.995  69.189  1.00  0.00    -0.183 C  
HETATM   13  C   UNL     1      -9.783  16.815  67.563  1.00  0.00    -0.252 C  
HETATM   14  C   UNL     1     -11.131  16.935  68.279  1.00  0.00    -0.213 C  
HETATM   15  C   UNL     1     -10.468  15.145  69.889  1.00  0.00    -0.234 C  
HETATM   16  C   UNL     1     -11.000  16.561  69.747  1.00  0.00    -0.292 C  
BRANCH  11  17
HETATM   17  C   UNL     1      -7.667  15.384  67.026  1.00  0.00    -0.220 C  
HETATM   18  C   UNL     1      -6.986  16.754  66.809  1.00  0.00    -0.269 C  
HETATM   19  C   UNL     1      -5.464  16.470  68.789  1.00  0.00    -0.121 C  
HETATM   20  C   UNL     1      -5.918  15.017  68.928  1.00  0.00    -0.089 C  
HETATM   21  C   UNL     1      -6.480  17.375  68.104  1.00  0.00    -0.168 C  
HETATM   22  C   UNL     1      -6.628  14.448  67.692  1.00  0.00    -0.172 C  
ENDBRANCH  11  17
ENDBRANCH   9  11
ENDBRANCH   8   9
ENDBRANCH   7   8
ENDBRANCH   6   7
ENDBRANCH   3   6
ENDBRANCH   2   3
TORSDOF 8
ENDMDL
MODEL      194
REMARK 921   NORMALIZED FREE ENERGY PREDICTED BY IDOCK:   -3.14 KCAL/MOL
REMARK 922        TOTAL FREE ENERGY PREDICTED BY IDOCK:   -5.19 KCAL/MOL
REMARK 923 INTER-LIGAND FREE ENERGY PREDICTED BY IDOCK:   -4.81 KCAL/MOL
REMARK 924 INTRA-LIGAND FREE ENERGY PREDICTED BY IDOCK:   -0.38 KCAL/MOL
REMARK 927      BINDING AFFINITY PREDICTED BY RF-SCORE:    0.00 PKD
ROOT
HETATM    1  C   UNL     1     -11.790  12.996  68.988  1.00  0.00    -0.362 C  
HETATM    2  C   UNL     1     -11.331  13.115  67.537  1.00  0.00    -0.298 C  
ENDROOT
BRANCH   2   3
HETATM    3  N   UNL     1     -11.701  11.976  66.676  1.00  0.00    -0.577 NA 
BRANCH   3   4
HETATM    4  C   UNL     1     -11.397  12.169  65.253  1.00  0.00    -0.336 C  
HETATM    5  C   UNL     1     -12.532  12.712  64.394  1.00  0.00    -0.509 C  
ENDBRANCH   3   4
BRANCH   3   6
HETATM    6  C   UNL     1     -11.157  10.724  67.253  1.00  0.00    -0.270 C  
BRANCH   6   7
HETATM    7  C   UNL     1     -10.029  10.082  66.429  1.00  0.00    -0.237 C  
BRANCH   7   8
HETATM    8  O   UNL     1      -9.924   8.653  66.598  1.00  0.00    -0.241 OA 
BRANCH   8   9
HETATM    9  C   UNL     1      -8.830   8.233  67.284  1.00  0.00    -0.130 C  
HETATM   10  O   UNL     1      -7.766   8.833  67.301  1.00  0.00    -0.095 OA 
BRANCH   9  11
HETATM   11  C   UNL     1      -9.089   6.925  68.081  1.00  0.00    -0.124 C  
HETATM   12  C   UNL     1     -10.510   6.947  68.705  1.00  0.00    -0.217 C  
HETATM   13  C   UNL     1      -8.038   6.935  69.240  1.00  0.00    -0.120 C  
HETATM   14  C   UNL     1      -8.282   8.012  70.301  1.00  0.00    -0.123 C  
HETATM   15  C   UNL     1     -10.724   8.014  69.777  1.00  0.00    -0.231 C  
HETATM   16  C   UNL     1      -9.684   7.896  70.879  1.00  0.00    -0.177 C  
BRANCH  11  17
HETATM   17  C   UNL     1      -8.845   5.716  67.079  1.00  0.00    -0.111 C  
HETATM   18  C   UNL     1      -7.389   5.217  66.943  1.00  0.00    -0.086 C  
HETATM   19  C   UNL     1      -7.795   3.204  68.393  1.00  0.00    -0.059 C  
HETATM   20  C   UNL     1      -9.294   3.499  68.382  1.00  0.00    -0.228 C  
HETATM   21  C   UNL     1      -6.918   4.427  68.157  1.00  0.00    -0.056 C  
HETATM   22  C   UNL     1      -9.745   4.472  67.284  1.00  0.00    -0.221 C  
ENDBRANCH  11  17
ENDBRANCH   9  11
ENDBRANCH   8   9
ENDBRANCH   7   8
ENDBRANCH   6   7
ENDBRANCH   3   6
ENDBRANCH   2   3
TORSDOF 8
ENDMDL
MODEL      195
REMARK 921   NORMALIZED FREE ENERGY PREDICTED BY IDOCK:   -3.13 KCAL/MOL
REMARK 922        TOTAL FREE ENERGY PREDICTED BY IDOCK:   -5.17 KCAL/MOL
REMARK 923 INTER-LIGAND FREE ENERGY PREDICTED BY IDOCK:   -4.33 KCAL/MOL
REMARK 924 INTRA-LIGAND FREE ENERGY PREDICTED BY IDOCK:   -0.85 KCAL/MOL
REMARK 927      BINDING AFFINITY PREDICTED BY RF-SCORE:    0.00 PKD
ROOT
HETATM    1  C   UNL     1      -7.332   9.358  70.357  1.00  0.00    -0.124 C  
HETATM    2  C   UNL     1      -7.811   8.093  71.063  1.00  0.00    -0.090 C  
ENDROOT
BRANCH   2   3
HETATM    3  N   UNL     1      -9.258   7.833  70.949  1.00  0.00    -0.152 NA 
BRANCH   3   4
HETATM    4  C   UNL     1     -10.097   8.689  71.798  1.00  0.00    -0.310 C  
HETATM    5  C   UNL     1     -10.982   7.969  72.807  1.00  0.00    -0.449 C  
ENDBRANCH   3   4
BRANCH   3   6
HETATM    6  C   UNL     1      -9.647   7.823  69.519  1.00  0.00    -0.160 C  
BRANCH   6   7
HETATM    7  C   UNL     1     -10.904   8.646  69.196  1.00  0.00    -0.039 C  
BRANCH   7   8
HETATM    8  O   UNL     1     -10.826   9.364  67.947  1.00  0.00    -0.236 OA 
BRANCH   8   9
HETATM    9  C   UNL     1     -10.122  10.525  67.993  1.00  0.00    -0.165 C  
HETATM   10  O   UNL     1     -10.066  11.248  68.977  1.00  0.00    -0.198 OA 
BRANCH   9  11
HETATM   11  C   UNL     1      -9.361  10.816  66.671  1.00  0.00    -0.188 C  
HETATM   12  C   UNL     1      -8.613  12.172  66.767  1.00  0.00    -0.163 C  
HETATM   13  C   UNL     1     -10.472  10.938  65.575  1.00  0.00    -0.286 C  
HETATM   14  C   UNL     1     -11.359  12.179  65.716  1.00  0.00    -0.402 C  
HETATM   15  C   UNL     1      -9.518  13.398  66.883  1.00  0.00    -0.253 C  
HETATM   16  C   UNL     1     -10.518  13.445  65.740  1.00  0.00    -0.291 C  
BRANCH  11  17
HETATM   17  C   UNL     1      -8.408   9.572  66.402  1.00  0.00    -0.120 C  
HETATM   18  C   UNL     1      -8.654   8.784  65.097  1.00  0.00    -0.209 C  
HETATM   19  C   UNL     1      -6.691   9.832  63.928  1.00  0.00    -0.120 C  
HETATM   20  C   UNL     1      -6.245  10.463  65.245  1.00  0.00    -0.122 C  
HETATM   21  C   UNL     1      -8.183   9.531  63.857  1.00  0.00    -0.161 C  
HETATM   22  C   UNL     1      -6.887   9.851  66.498  1.00  0.00    -0.085 C  
ENDBRANCH  11  17
ENDBRANCH   9  11
ENDBRANCH   8   9
ENDBRANCH   7   8
ENDBRANCH   6   7
ENDBRANCH   3   6
ENDBRANCH   2   3
TORSDOF 8
ENDMDL
MODEL      196
REMARK 921   NORMALIZED FREE ENERGY PREDICTED BY IDOCK:   -3.12 KCAL/MOL
REMARK 922        TOTAL FREE ENERGY PREDICTED BY IDOCK:   -5.17 KCAL/MOL
REMARK 923 INTER-LIGAND FREE ENERGY PREDICTED BY IDOCK:   -4.52 KCAL/MOL
REMARK 924 INTRA-LIGAND FREE ENERGY PREDICTED BY IDOCK:   -0.65 KCAL/MOL
REMARK 927      BINDING AFFINITY PREDICTED BY RF-SCORE:    0.00 PKD
ROOT
HETATM    1  C   UNL     1     -10.723   5.202  66.305  1.00  0.00    -0.272 C  
HETATM    2  C   UNL     1      -9.351   5.091  66.965  1.00  0.00    -0.128 C  
ENDROOT
BRANCH   2   3
HETATM    3  N   UNL     1      -8.220   5.509  66.116  1.00  0.00    -0.110 NA 
BRANCH   3   4
HETATM    4  C   UNL     1      -8.355   5.137  64.702  1.00  0.00    -0.140 C  
HETATM    5  C   UNL     1      -7.185   4.370  64.097  1.00  0.00    -0.054 C  
ENDBRANCH   3   4
BRANCH   3   6
HETATM    6  C   UNL     1      -7.936   6.945  66.344  1.00  0.00    -0.106 C  
BRANCH   6   7
HETATM    7  C   UNL     1      -8.279   7.858  65.155  1.00  0.00    -0.141 C  
BRANCH   7   8
HETATM    8  O   UNL     1      -9.204   8.917  65.481  1.00  0.00    -0.220 OA 
BRANCH   8   9
HETATM    9  C   UNL     1      -8.673  10.167  65.476  1.00  0.00    -0.158 C  
HETATM   10  O   UNL     1      -7.739  10.507  64.764  1.00  0.00    -0.109 OA 
BRANCH   9  11
HETATM   11  C   UNL     1      -9.408  11.133  66.444  1.00  0.00    -0.207 C  
HETATM   12  C   UNL     1      -8.445  12.249  66.928  1.00  0.00    -0.159 C  
HETATM   13  C   UNL     1      -9.809  10.254  67.676  1.00  0.00    -0.199 C  
HETATM   14  C   UNL     1      -8.624   9.787  68.526  1.00  0.00    -0.120 C  
HETATM   15  C   UNL     1      -7.283  11.762  67.794  1.00  0.00    -0.097 C  
HETATM   16  C   UNL     1      -7.789  10.970  68.988  1.00  0.00    -0.126 C  
BRANCH  11  17
HETATM   17  C   UNL     1     -10.687  11.678  65.673  1.00  0.00    -0.330 C  
HETATM   18  C   UNL     1     -11.846  12.207  66.547  1.00  0.00    -0.322 C  
HETATM   19  C   UNL     1     -11.255  14.613  66.121  1.00  0.00    -0.341 C  
HETATM   20  C   UNL     1     -10.244  14.176  65.062  1.00  0.00    -0.399 C  
HETATM   21  C   UNL     1     -11.540  13.557  67.181  1.00  0.00    -0.393 C  
HETATM   22  C   UNL     1     -10.416  12.732  64.571  1.00  0.00    -0.392 C  
ENDBRANCH  11  17
ENDBRANCH   9  11
ENDBRANCH   8   9
ENDBRANCH   7   8
ENDBRANCH   6   7
ENDBRANCH   3   6
ENDBRANCH   2   3
TORSDOF 8
ENDMDL
MODEL      197
REMARK 921   NORMALIZED FREE ENERGY PREDICTED BY IDOCK:   -3.12 KCAL/MOL
REMARK 922        TOTAL FREE ENERGY PREDICTED BY IDOCK:   -5.17 KCAL/MOL
REMARK 923 INTER-LIGAND FREE ENERGY PREDICTED BY IDOCK:   -5.30 KCAL/MOL
REMARK 924 INTRA-LIGAND FREE ENERGY PREDICTED BY IDOCK:    0.13 KCAL/MOL
REMARK 927      BINDING AFFINITY PREDICTED BY RF-SCORE:    0.00 PKD
ROOT
HETATM    1  C   UNL     1      -7.154  19.635  68.817  1.00  0.00    -0.381 C  
HETATM    2  C   UNL     1      -8.263  18.659  68.433  1.00  0.00    -0.334 C  
ENDROOT
BRANCH   2   3
HETATM    3  N   UNL     1      -8.600  18.640  66.998  1.00  0.00    -0.269 NA 
BRANCH   3   4
HETATM    4  C   UNL     1      -7.820  19.579  66.180  1.00  0.00    -0.316 C  
HETATM    5  C   UNL     1      -6.704  18.968  65.342  1.00  0.00    -0.263 C  
ENDBRANCH   3   4
BRANCH   3   6
HETATM    6  C   UNL     1      -8.583  17.243  66.505  1.00  0.00    -0.264 C  
BRANCH   6   7
HETATM    7  C   UNL     1      -9.769  16.387  66.978  1.00  0.00    -0.248 C  
BRANCH   7   8
HETATM    8  O   UNL     1      -9.549  14.966  66.852  1.00  0.00    -0.228 OA 
BRANCH   8   9
HETATM    9  C   UNL     1     -10.652  14.194  67.036  1.00  0.00    -0.276 C  
HETATM   10  O   UNL     1     -11.726  14.626  67.429  1.00  0.00    -0.379 OA 
BRANCH   9  11
HETATM   11  C   UNL     1     -10.412  12.709  66.655  1.00  0.00    -0.261 C  
HETATM   12  C   UNL     1     -11.623  11.839  67.085  1.00  0.00    -0.342 C  
HETATM   13  C   UNL     1      -9.162  12.267  67.487  1.00  0.00    -0.181 C  
HETATM   14  C   UNL     1      -9.413  12.176  68.995  1.00  0.00     0.309 C  
HETATM   15  C   UNL     1     -11.839  11.744  68.595  1.00  0.00    -0.369 C  
HETATM   16  C   UNL     1     -10.583  11.253  69.295  1.00  0.00    -0.187 C  
BRANCH  11  17
HETATM   17  C   UNL     1     -10.117  12.673  65.093  1.00  0.00    -0.257 C  
HETATM   18  C   UNL     1     -10.608  11.424  64.327  1.00  0.00    -0.416 C  
HETATM   19  C   UNL     1     -12.593  12.626  63.359  1.00  0.00    -0.369 C  
HETATM   20  C   UNL     1     -12.048  13.951  63.889  1.00  0.00    -0.387 C  
HETATM   21  C   UNL     1     -12.119  11.404  64.136  1.00  0.00     0.203 C  
HETATM   22  C   UNL     1     -10.566  13.919  64.290  1.00  0.00    -0.083 C  
ENDBRANCH  11  17
ENDBRANCH   9  11
ENDBRANCH   8   9
ENDBRANCH   7   8
ENDBRANCH   6   7
ENDBRANCH   3   6
ENDBRANCH   2   3
TORSDOF 8
ENDMDL
MODEL      198
REMARK 921   NORMALIZED FREE ENERGY PREDICTED BY IDOCK:   -3.12 KCAL/MOL
REMARK 922        TOTAL FREE ENERGY PREDICTED BY IDOCK:   -5.17 KCAL/MOL
REMARK 923 INTER-LIGAND FREE ENERGY PREDICTED BY IDOCK:   -4.66 KCAL/MOL
REMARK 924 INTRA-LIGAND FREE ENERGY PREDICTED BY IDOCK:   -0.50 KCAL/MOL
REMARK 927      BINDING AFFINITY PREDICTED BY RF-SCORE:    0.00 PKD
ROOT
HETATM    1  C   UNL     1      -6.103  11.484  70.081  1.00  0.00    -0.156 C  
HETATM    2  C   UNL     1      -5.835  10.831  68.728  1.00  0.00    -0.040 C  
ENDROOT
BRANCH   2   3
HETATM    3  N   UNL     1      -6.971  10.070  68.174  1.00  0.00    -0.075 NA 
BRANCH   3   4
HETATM    4  C   UNL     1      -6.598   8.792  67.554  1.00  0.00    -0.062 C  
HETATM    5  C   UNL     1      -6.575   8.769  66.031  1.00  0.00    -0.057 C  
ENDBRANCH   3   4
BRANCH   3   6
HETATM    6  C   UNL     1      -8.039   9.965  69.195  1.00  0.00    -0.118 C  
BRANCH   6   7
HETATM    7  C   UNL     1      -9.058   8.842  68.936  1.00  0.00    -0.140 C  
BRANCH   7   8
HETATM    8  O   UNL     1      -8.985   7.759  69.886  1.00  0.00    -0.145 OA 
BRANCH   8   9
HETATM    9  C   UNL     1     -10.150   7.088  70.085  1.00  0.00    -0.187 C  
HETATM   10  O   UNL     1     -10.821   6.610  69.182  1.00  0.00    -0.241 OA 
BRANCH   9  11
HETATM   11  C   UNL     1     -10.515   6.956  71.588  1.00  0.00    -0.224 C  
HETATM   12  C   UNL     1     -11.941   6.365  71.746  1.00  0.00    -0.370 C  
HETATM   13  C   UNL     1     -10.520   8.420  72.140  1.00  0.00    -0.396 C  
HETATM   14  C   UNL     1     -11.662   9.289  71.606  1.00  0.00    -0.462 C  
HETATM   15  C   UNL     1     -13.067   7.260  71.228  1.00  0.00    -0.363 C  
HETATM   16  C   UNL     1     -13.009   8.635  71.870  1.00  0.00    -0.409 C  
BRANCH  11  17
HETATM   17  C   UNL     1      -9.376   6.078  72.266  1.00  0.00    -0.149 C  
HETATM   18  C   UNL     1      -9.268   6.159  73.805  1.00  0.00    -0.133 C  
HETATM   19  C   UNL     1     -10.403   3.942  74.143  1.00  0.00    -0.252 C  
HETATM   20  C   UNL     1     -10.336   3.679  72.639  1.00  0.00    -0.224 C  
HETATM   21  C   UNL     1     -10.392   5.418  74.517  1.00  0.00    -0.272 C  
HETATM   22  C   UNL     1      -9.353   4.579  71.876  1.00  0.00    -0.189 C  
ENDBRANCH  11  17
ENDBRANCH   9  11
ENDBRANCH   8   9
ENDBRANCH   7   8
ENDBRANCH   6   7
ENDBRANCH   3   6
ENDBRANCH   2   3
TORSDOF 8
ENDMDL
MODEL      199
REMARK 921   NORMALIZED FREE ENERGY PREDICTED BY IDOCK:   -3.11 KCAL/MOL
REMARK 922        TOTAL FREE ENERGY PREDICTED BY IDOCK:   -5.15 KCAL/MOL
REMARK 923 INTER-LIGAND FREE ENERGY PREDICTED BY IDOCK:   -5.38 KCAL/MOL
REMARK 924 INTRA-LIGAND FREE ENERGY PREDICTED BY IDOCK:    0.23 KCAL/MOL
REMARK 927      BINDING AFFINITY PREDICTED BY RF-SCORE:    0.00 PKD
ROOT
HETATM    1  C   UNL     1     -10.838  16.374  67.677  1.00  0.00    -0.280 C  
HETATM    2  C   UNL     1     -11.513  15.307  68.536  1.00  0.00    -0.342 C  
ENDROOT
BRANCH   2   3
HETATM    3  N   UNL     1     -11.770  14.030  67.845  1.00  0.00    -0.342 NA 
BRANCH   3   4
HETATM    4  C   UNL     1     -11.489  14.053  66.404  1.00  0.00    -0.352 C  
HETATM    5  C   UNL     1     -12.690  13.867  65.485  1.00  0.00    -0.536 C  
ENDBRANCH   3   4
BRANCH   3   6
HETATM    6  C   UNL     1     -11.103  12.928  68.578  1.00  0.00    -0.267 C  
BRANCH   6   7
HETATM    7  C   UNL     1     -11.629  11.525  68.234  1.00  0.00    -0.308 C  
BRANCH   7   8
HETATM    8  O   UNL     1     -10.730  10.750  67.415  1.00  0.00    -0.231 OA 
BRANCH   8   9
HETATM    9  C   UNL     1      -9.631  10.275  68.057  1.00  0.00    -0.145 C  
HETATM   10  O   UNL     1      -9.199  10.741  69.101  1.00  0.00    -0.184 OA 
BRANCH   9  11
HETATM   11  C   UNL     1      -9.004   9.047  67.341  1.00  0.00    -0.135 C  
HETATM   12  C   UNL     1      -7.503   9.304  67.046  1.00  0.00    -0.091 C  
HETATM   13  C   UNL     1      -9.766   8.933  65.979  1.00  0.00    -0.308 C  
HETATM   14  C   UNL     1      -9.466  10.067  64.995  1.00  0.00    -0.339 C  
HETATM   15  C   UNL     1      -7.228  10.424  66.043  1.00  0.00    -0.134 C  
HETATM   16  C   UNL     1      -7.972  10.182  64.740  1.00  0.00    -0.146 C  
BRANCH  11  17
HETATM   17  C   UNL     1      -9.271   7.784  68.269  1.00  0.00    -0.139 C  
HETATM   18  C   UNL     1     -10.720   7.248  68.304  1.00  0.00    -0.174 C  
HETATM   19  C   UNL     1     -10.192   5.319  66.782  1.00  0.00    -0.287 C  
HETATM   20  C   UNL     1      -8.703   5.646  66.886  1.00  0.00    -0.113 C  
HETATM   21  C   UNL     1     -11.108   6.510  67.031  1.00  0.00    -0.411 C  
HETATM   22  C   UNL     1      -8.332   6.572  68.052  1.00  0.00    -0.116 C  
ENDBRANCH  11  17
ENDBRANCH   9  11
ENDBRANCH   8   9
ENDBRANCH   7   8
ENDBRANCH   6   7
ENDBRANCH   3   6
ENDBRANCH   2   3
TORSDOF 8
ENDMDL
MODEL      200
REMARK 921   NORMALIZED FREE ENERGY PREDICTED BY IDOCK:   -3.10 KCAL/MOL
REMARK 922        TOTAL FREE ENERGY PREDICTED BY IDOCK:   -5.13 KCAL/MOL
REMARK 923 INTER-LIGAND FREE ENERGY PREDICTED BY IDOCK:   -5.13 KCAL/MOL
REMARK 924 INTRA-LIGAND FREE ENERGY PREDICTED BY IDOCK:    0.00 KCAL/MOL
REMARK 927      BINDING AFFINITY PREDICTED BY RF-SCORE:    0.00 PKD
ROOT
HETATM    1  C   UNL     1      -9.159   8.170  67.605  1.00  0.00    -0.142 C  
HETATM    2  C   UNL     1      -8.673   9.341  66.755  1.00  0.00    -0.127 C  
ENDROOT
BRANCH   2   3
HETATM    3  N   UNL     1      -7.546  10.097  67.332  1.00  0.00    -0.094 NA 
BRANCH   3   4
HETATM    4  C   UNL     1      -6.691  10.761  66.340  1.00  0.00    -0.131 C  
HETATM    5  C   UNL     1      -6.834  10.276  64.902  1.00  0.00    -0.100 C  
ENDBRANCH   3   4
BRANCH   3   6
HETATM    6  C   UNL     1      -8.047  10.992  68.402  1.00  0.00    -0.134 C  
BRANCH   6   7
HETATM    7  C   UNL     1      -7.989  12.489  68.058  1.00  0.00    -0.153 C  
BRANCH   7   8
HETATM    8  O   UNL     1      -9.257  13.166  68.186  1.00  0.00    -0.206 OA 
BRANCH   8   9
HETATM    9  C   UNL     1      -9.501  14.114  67.245  1.00  0.00    -0.229 C  
HETATM   10  O   UNL     1      -8.627  14.767  66.695  1.00  0.00    -0.229 OA 
BRANCH   9  11
HETATM   11  C   UNL     1     -11.012  14.252  66.913  1.00  0.00    -0.304 C  
HETATM   12  C   UNL     1     -11.740  12.902  67.144  1.00  0.00    -0.437 C  
HETATM   13  C   UNL     1     -11.067  14.592  65.386  1.00  0.00    -0.345 C  
HETATM   14  C   UNL     1     -10.640  13.441  64.471  1.00  0.00    -0.441 C  
HETATM   15  C   UNL     1     -11.314  11.774  66.204  1.00  0.00    -0.342 C  
HETATM   16  C   UNL     1     -11.462  12.192  64.750  1.00  0.00    -0.377 C  
BRANCH  11  17
HETATM   17  C   UNL     1     -11.574  15.446  67.799  1.00  0.00    -0.237 C  
HETATM   18  C   UNL     1     -12.519  15.059  68.958  1.00  0.00     0.072 C  
HETATM   19  C   UNL     1     -10.731  15.348  70.700  1.00  0.00    -0.255 C  
HETATM   20  C   UNL     1      -9.808  15.964  69.649  1.00  0.00    -0.238 C  
HETATM   21  C   UNL     1     -11.788  14.413  70.127  1.00  0.00    -0.380 C  
HETATM   22  C   UNL     1     -10.517  16.425  68.368  1.00  0.00    -0.298 C  
ENDBRANCH  11  17
ENDBRANCH   9  11
ENDBRANCH   8   9
ENDBRANCH   7   8
ENDBRANCH   6   7
ENDBRANCH   3   6
ENDBRANCH   2   3
TORSDOF 8
ENDMDL
MODEL      201
REMARK 921   NORMALIZED FREE ENERGY PREDICTED BY IDOCK:   -3.09 KCAL/MOL
REMARK 922        TOTAL FREE ENERGY PREDICTED BY IDOCK:   -5.12 KCAL/MOL
REMARK 923 INTER-LIGAND FREE ENERGY PREDICTED BY IDOCK:   -4.71 KCAL/MOL
REMARK 924 INTRA-LIGAND FREE ENERGY PREDICTED BY IDOCK:   -0.41 KCAL/MOL
REMARK 927      BINDING AFFINITY PREDICTED BY RF-SCORE:    0.00 PKD
ROOT
HETATM    1  C   UNL     1     -14.144   8.651  72.250  1.00  0.00    -0.491 C  
HETATM    2  C   UNL     1     -13.409   9.712  71.435  1.00  0.00    -0.368 C  
ENDROOT
BRANCH   2   3
HETATM    3  N   UNL     1     -11.946   9.535  71.367  1.00  0.00    -0.358 NA 
BRANCH   3   4
HETATM    4  C   UNL     1     -11.431   8.433  72.190  1.00  0.00    -0.372 C  
HETATM    5  C   UNL     1     -10.422   7.512  71.516  1.00  0.00    -0.226 C  
ENDBRANCH   3   4
BRANCH   3   6
HETATM    6  C   UNL     1     -11.519   9.490  69.949  1.00  0.00    -0.062 C  
BRANCH   6   7
HETATM    7  C   UNL     1     -10.734  10.725  69.481  1.00  0.00    -0.226 C  
BRANCH   7   8
HETATM    8  O   UNL     1      -9.964  10.506  68.280  1.00  0.00    -0.153 OA 
BRANCH   8   9
HETATM    9  C   UNL     1      -8.993   9.561  68.383  1.00  0.00    -0.127 C  
HETATM   10  O   UNL     1      -8.418   9.287  69.427  1.00  0.00    -0.124 OA 
BRANCH   9  11
HETATM   11  C   UNL     1      -8.720   8.836  67.038  1.00  0.00    -0.131 C  
HETATM   12  C   UNL     1     -10.043   8.287  66.442  1.00  0.00    -0.222 C  
HETATM   13  C   UNL     1      -7.800   7.624  67.404  1.00  0.00    -0.118 C  
HETATM   14  C   UNL     1      -8.495   6.532  68.222  1.00  0.00    -0.116 C  
HETATM   15  C   UNL     1     -10.707   7.183  67.263  1.00  0.00    -0.399 C  
HETATM   16  C   UNL     1      -9.744   6.034  67.511  1.00  0.00    -0.122 C  
BRANCH  11  17
HETATM   17  C   UNL     1      -7.971   9.875  66.095  1.00  0.00    -0.109 C  
HETATM   18  C   UNL     1      -6.981   9.284  65.067  1.00  0.00    -0.086 C  
HETATM   19  C   UNL     1      -8.587   9.554  63.153  1.00  0.00    -0.218 C  
HETATM   20  C   UNL     1      -9.523  10.359  64.054  1.00  0.00    -0.351 C  
HETATM   21  C   UNL     1      -7.678   8.590  63.905  1.00  0.00    -0.141 C  
HETATM   22  C   UNL     1      -8.876  10.882  65.343  1.00  0.00    -0.192 C  
ENDBRANCH  11  17
ENDBRANCH   9  11
ENDBRANCH   8   9
ENDBRANCH   7   8
ENDBRANCH   6   7
ENDBRANCH   3   6
ENDBRANCH   2   3
TORSDOF 8
ENDMDL
MODEL      202
REMARK 921   NORMALIZED FREE ENERGY PREDICTED BY IDOCK:   -3.09 KCAL/MOL
REMARK 922        TOTAL FREE ENERGY PREDICTED BY IDOCK:   -5.11 KCAL/MOL
REMARK 923 INTER-LIGAND FREE ENERGY PREDICTED BY IDOCK:   -4.32 KCAL/MOL
REMARK 924 INTRA-LIGAND FREE ENERGY PREDICTED BY IDOCK:   -0.79 KCAL/MOL
REMARK 927      BINDING AFFINITY PREDICTED BY RF-SCORE:    0.00 PKD
ROOT
HETATM    1  C   UNL     1      -9.693   6.957  69.706  1.00  0.00    -0.166 C  
HETATM    2  C   UNL     1     -10.171   7.543  68.380  1.00  0.00    -0.185 C  
ENDROOT
BRANCH   2   3
HETATM    3  N   UNL     1      -9.219   8.463  67.732  1.00  0.00    -0.131 NA 
BRANCH   3   4
HETATM    4  C   UNL     1      -7.822   8.280  68.147  1.00  0.00    -0.118 C  
HETATM    5  C   UNL     1      -6.887   7.682  67.102  1.00  0.00    -0.068 C  
ENDBRANCH   3   4
BRANCH   3   6
HETATM    6  C   UNL     1      -9.428   8.438  66.265  1.00  0.00    -0.224 C  
BRANCH   6   7
HETATM    7  C   UNL     1      -9.469   9.825  65.604  1.00  0.00    -0.246 C  
BRANCH   7   8
HETATM    8  O   UNL     1     -10.135  10.829  66.398  1.00  0.00    -0.212 OA 
BRANCH   8   9
HETATM    9  C   UNL     1      -9.946  12.109  65.985  1.00  0.00    -0.236 C  
HETATM   10  O   UNL     1     -10.161  12.495  64.845  1.00  0.00    -0.275 OA 
BRANCH   9  11
HETATM   11  C   UNL     1      -9.466  13.042  67.130  1.00  0.00    -0.230 C  
HETATM   12  C   UNL     1      -9.915  12.483  68.505  1.00  0.00    -0.170 C  
HETATM   13  C   UNL     1     -10.197  14.404  66.884  1.00  0.00    -0.265 C  
HETATM   14  C   UNL     1     -11.709  14.356  67.121  1.00  0.00    -0.424 C  
HETATM   15  C   UNL     1     -11.427  12.466  68.729  1.00  0.00    -0.350 C  
HETATM   16  C   UNL     1     -12.023  13.848  68.519  1.00  0.00    -0.394 C  
BRANCH  11  17
HETATM   17  C   UNL     1      -7.890  13.188  66.977  1.00  0.00     0.034 C  
HETATM   18  C   UNL     1      -7.266  14.501  67.500  1.00  0.00    -0.210 C  
HETATM   19  C   UNL     1      -6.403  13.421  69.599  1.00  0.00    -0.093 C  
HETATM   20  C   UNL     1      -6.781  12.048  69.046  1.00  0.00    -0.100 C  
HETATM   21  C   UNL     1      -7.218  14.570  69.021  1.00  0.00    -0.130 C  
HETATM   22  C   UNL     1      -7.043  12.017  67.534  1.00  0.00    -0.129 C  
ENDBRANCH  11  17
ENDBRANCH   9  11
ENDBRANCH   8   9
ENDBRANCH   7   8
ENDBRANCH   6   7
ENDBRANCH   3   6
ENDBRANCH   2   3
TORSDOF 8
ENDMDL
MODEL      203
REMARK 921   NORMALIZED FREE ENERGY PREDICTED BY IDOCK:   -3.07 KCAL/MOL
REMARK 922        TOTAL FREE ENERGY PREDICTED BY IDOCK:   -5.09 KCAL/MOL
REMARK 923 INTER-LIGAND FREE ENERGY PREDICTED BY IDOCK:   -5.05 KCAL/MOL
REMARK 924 INTRA-LIGAND FREE ENERGY PREDICTED BY IDOCK:   -0.04 KCAL/MOL
REMARK 927      BINDING AFFINITY PREDICTED BY RF-SCORE:    0.00 PKD
ROOT
HETATM    1  C   UNL     1     -12.025   6.766  71.114  1.00  0.00    -0.421 C  
HETATM    2  C   UNL     1     -11.031   7.236  70.055  1.00  0.00    -0.253 C  
ENDROOT
BRANCH   2   3
HETATM    3  N   UNL     1      -9.849   6.370  69.889  1.00  0.00    -0.166 NA 
BRANCH   3   4
HETATM    4  C   UNL     1      -9.762   5.709  68.580  1.00  0.00    -0.137 C  
HETATM    5  C   UNL     1     -10.842   6.079  67.571  1.00  0.00    -0.393 C  
ENDBRANCH   3   4
BRANCH   3   6
HETATM    6  C   UNL     1      -8.630   7.117  70.278  1.00  0.00    -0.143 C  
BRANCH   6   7
HETATM    7  C   UNL     1      -7.742   7.545  69.097  1.00  0.00    -0.113 C  
BRANCH   7   8
HETATM    8  O   UNL     1      -8.382   8.469  68.192  1.00  0.00    -0.124 OA 
BRANCH   8   9
HETATM    9  C   UNL     1      -8.424   9.757  68.620  1.00  0.00    -0.116 C  
HETATM   10  O   UNL     1      -8.195  10.100  69.770  1.00  0.00    -0.172 OA 
BRANCH   9  11
HETATM   11  C   UNL     1      -8.757  10.755  67.478  1.00  0.00    -0.125 C  
HETATM   12  C   UNL     1      -7.668  10.694  66.374  1.00  0.00    -0.141 C  
HETATM   13  C   UNL     1      -8.711  12.171  68.143  1.00  0.00    -0.185 C  
HETATM   14  C   UNL     1      -7.310  12.621  68.566  1.00  0.00    -0.115 C  
HETATM   15  C   UNL     1      -6.283  11.170  66.812  1.00  0.00    -0.122 C  
HETATM   16  C   UNL     1      -6.348  12.574  67.390  1.00  0.00    -0.157 C  
BRANCH  11  17
HETATM   17  C   UNL     1     -10.218  10.399  66.961  1.00  0.00    -0.277 C  
HETATM   18  C   UNL     1     -11.396  11.019  67.743  1.00  0.00    -0.365 C  
HETATM   19  C   UNL     1     -11.813  12.778  65.998  1.00  0.00    -0.495 C  
HETATM   20  C   UNL     1     -10.824  12.084  65.063  1.00  0.00    -0.351 C  
HETATM   21  C   UNL     1     -11.565  12.508  67.476  1.00  0.00    -0.424 C  
HETATM   22  C   UNL     1     -10.481  10.640  65.454  1.00  0.00    -0.254 C  
ENDBRANCH  11  17
ENDBRANCH   9  11
ENDBRANCH   8   9
ENDBRANCH   7   8
ENDBRANCH   6   7
ENDBRANCH   3   6
ENDBRANCH   2   3
TORSDOF 8
ENDMDL
MODEL      204
REMARK 921   NORMALIZED FREE ENERGY PREDICTED BY IDOCK:   -3.07 KCAL/MOL
REMARK 922        TOTAL FREE ENERGY PREDICTED BY IDOCK:   -5.08 KCAL/MOL
REMARK 923 INTER-LIGAND FREE ENERGY PREDICTED BY IDOCK:   -5.18 KCAL/MOL
REMARK 924 INTRA-LIGAND FREE ENERGY PREDICTED BY IDOCK:    0.10 KCAL/MOL
REMARK 927      BINDING AFFINITY PREDICTED BY RF-SCORE:    0.00 PKD
ROOT
HETATM    1  C   UNL     1      -9.538  16.159  67.499  1.00  0.00    -0.229 C  
HETATM    2  C   UNL     1     -10.292  15.297  66.489  1.00  0.00    -0.286 C  
ENDROOT
BRANCH   2   3
HETATM    3  N   UNL     1     -11.290  14.385  67.079  1.00  0.00    -0.332 NA 
BRANCH   3   4
HETATM    4  C   UNL     1     -11.958  14.912  68.276  1.00  0.00    -0.212 C  
HETATM    5  C   UNL     1     -12.048  13.962  69.464  1.00  0.00    -0.393 C  
ENDBRANCH   3   4
BRANCH   3   6
HETATM    6  C   UNL     1     -12.215  13.914  66.021  1.00  0.00    -0.462 C  
BRANCH   6   7
HETATM    7  C   UNL     1     -11.535  13.142  64.879  1.00  0.00    -0.309 C  
BRANCH   7   8
HETATM    8  O   UNL     1     -11.203  11.778  65.213  1.00  0.00    -0.307 OA 
BRANCH   8   9
HETATM    9  C   UNL     1     -10.082  11.295  64.619  1.00  0.00    -0.290 C  
HETATM   10  O   UNL     1      -9.698  11.639  63.510  1.00  0.00    -0.319 OA 
BRANCH   9  11
HETATM   11  C   UNL     1      -9.314  10.288  65.518  1.00  0.00    -0.250 C  
HETATM   12  C   UNL     1     -10.271   9.667  66.570  1.00  0.00    -0.294 C  
HETATM   13  C   UNL     1      -8.239  11.144  66.268  1.00  0.00    -0.153 C  
HETATM   14  C   UNL     1      -8.819  12.118  67.298  1.00  0.00    -0.186 C  
HETATM   15  C   UNL     1     -10.819  10.653  67.601  1.00  0.00    -0.346 C  
HETATM   16  C   UNL     1      -9.690  11.386  68.307  1.00  0.00    -0.202 C  
BRANCH  11  17
HETATM   17  C   UNL     1      -8.642   9.222  64.550  1.00  0.00    -0.217 C  
HETATM   18  C   UNL     1      -7.280   9.611  63.935  1.00  0.00    -0.115 C  
HETATM   19  C   UNL     1      -5.986   8.156  65.524  1.00  0.00    -0.045 C  
HETATM   20  C   UNL     1      -7.293   7.545  66.027  1.00  0.00    -0.081 C  
HETATM   21  C   UNL     1      -6.138   9.555  64.941  1.00  0.00    -0.078 C  
HETATM   22  C   UNL     1      -8.504   7.786  65.114  1.00  0.00    -0.075 C  
ENDBRANCH  11  17
ENDBRANCH   9  11
ENDBRANCH   8   9
ENDBRANCH   7   8
ENDBRANCH   6   7
ENDBRANCH   3   6
ENDBRANCH   2   3
TORSDOF 8
ENDMDL
MODEL      205
REMARK 921   NORMALIZED FREE ENERGY PREDICTED BY IDOCK:   -3.06 KCAL/MOL
REMARK 922        TOTAL FREE ENERGY PREDICTED BY IDOCK:   -5.07 KCAL/MOL
REMARK 923 INTER-LIGAND FREE ENERGY PREDICTED BY IDOCK:   -4.52 KCAL/MOL
REMARK 924 INTRA-LIGAND FREE ENERGY PREDICTED BY IDOCK:   -0.54 KCAL/MOL
REMARK 927      BINDING AFFINITY PREDICTED BY RF-SCORE:    0.00 PKD
ROOT
HETATM    1  C   UNL     1     -11.527  15.943  69.214  1.00  0.00    -0.374 C  
HETATM    2  C   UNL     1     -11.797  14.859  68.174  1.00  0.00    -0.278 C  
ENDROOT
BRANCH   2   3
HETATM    3  N   UNL     1     -10.725  14.677  67.178  1.00  0.00    -0.287 NA 
BRANCH   3   4
HETATM    4  C   UNL     1     -11.008  15.274  65.867  1.00  0.00    -0.325 C  
HETATM    5  C   UNL     1     -10.896  14.340  64.668  1.00  0.00    -0.384 C  
ENDBRANCH   3   4
BRANCH   3   6
HETATM    6  C   UNL     1      -9.429  15.087  67.768  1.00  0.00    -0.195 C  
BRANCH   6   7
HETATM    7  C   UNL     1      -8.414  13.943  67.932  1.00  0.00    -0.177 C  
BRANCH   7   8
HETATM    8  O   UNL     1      -8.654  12.821  67.057  1.00  0.00    -0.199 OA 
BRANCH   8   9
HETATM    9  C   UNL     1      -7.628  11.937  66.959  1.00  0.00    -0.134 C  
HETATM   10  O   UNL     1      -6.455  12.266  66.856  1.00  0.00    -0.105 OA 
BRANCH   9  11
HETATM   11  C   UNL     1      -8.101  10.460  67.032  1.00  0.00    -0.116 C  
HETATM   12  C   UNL     1      -7.191   9.558  66.157  1.00  0.00    -0.093 C  
HETATM   13  C   UNL     1      -9.540  10.459  66.417  1.00  0.00    -0.225 C  
HETATM   14  C   UNL     1      -9.580  10.736  64.911  1.00  0.00    -0.307 C  
HETATM   15  C   UNL     1      -7.264   9.836  64.656  1.00  0.00    -0.131 C  
HETATM   16  C   UNL     1      -8.697   9.754  64.157  1.00  0.00    -0.233 C  
BRANCH  11  17
HETATM   17  C   UNL     1      -8.121  10.056  68.569  1.00  0.00    -0.103 C  
HETATM   18  C   UNL     1      -9.333  10.543  69.394  1.00  0.00    -0.139 C  
HETATM   19  C   UNL     1     -10.442   8.287  69.361  1.00  0.00    -0.224 C  
HETATM   20  C   UNL     1      -9.179   7.677  68.753  1.00  0.00    -0.142 C  
HETATM   21  C   UNL     1     -10.610   9.774  69.080  1.00  0.00    -0.237 C  
HETATM   22  C   UNL     1      -7.923   8.551  68.877  1.00  0.00    -0.118 C  
ENDBRANCH  11  17
ENDBRANCH   9  11
ENDBRANCH   8   9
ENDBRANCH   7   8
ENDBRANCH   6   7
ENDBRANCH   3   6
ENDBRANCH   2   3
TORSDOF 8
ENDMDL
MODEL      206
REMARK 921   NORMALIZED FREE ENERGY PREDICTED BY IDOCK:   -3.05 KCAL/MOL
REMARK 922        TOTAL FREE ENERGY PREDICTED BY IDOCK:   -5.06 KCAL/MOL
REMARK 923 INTER-LIGAND FREE ENERGY PREDICTED BY IDOCK:   -4.30 KCAL/MOL
REMARK 924 INTRA-LIGAND FREE ENERGY PREDICTED BY IDOCK:   -0.76 KCAL/MOL
REMARK 927      BINDING AFFINITY PREDICTED BY RF-SCORE:    0.00 PKD
ROOT
HETATM    1  C   UNL     1      -6.634   9.751  70.441  1.00  0.00    -0.114 C  
HETATM    2  C   UNL     1      -6.552   8.228  70.367  1.00  0.00    -0.036 C  
ENDROOT
BRANCH   2   3
HETATM    3  N   UNL     1      -7.841   7.551  70.131  1.00  0.00    -0.096 NA 
BRANCH   3   4
HETATM    4  C   UNL     1      -8.879   7.862  71.123  1.00  0.00    -0.138 C  
HETATM    5  C   UNL     1      -8.963   6.922  72.319  1.00  0.00    -0.142 C  
ENDBRANCH   3   4
BRANCH   3   6
HETATM    6  C   UNL     1      -8.259   7.761  68.725  1.00  0.00    -0.128 C  
BRANCH   6   7
HETATM    7  C   UNL     1      -9.750   8.092  68.547  1.00  0.00    -0.159 C  
BRANCH   7   8
HETATM    8  O   UNL     1     -10.009   9.084  67.531  1.00  0.00    -0.180 OA 
BRANCH   8   9
HETATM    9  C   UNL     1      -9.966  10.372  67.960  1.00  0.00    -0.155 C  
HETATM   10  O   UNL     1     -10.156  10.709  69.120  1.00  0.00    -0.206 OA 
BRANCH   9  11
HETATM   11  C   UNL     1      -9.610  11.369  66.825  1.00  0.00    -0.207 C  
HETATM   12  C   UNL     1      -8.416  10.833  65.992  1.00  0.00    -0.169 C  
HETATM   13  C   UNL     1      -9.160  12.679  67.554  1.00  0.00    -0.192 C  
HETATM   14  C   UNL     1      -7.830  12.554  68.302  1.00  0.00    -0.144 C  
HETATM   15  C   UNL     1      -7.094  10.740  66.753  1.00  0.00    -0.127 C  
HETATM   16  C   UNL     1      -6.726  12.078  67.371  1.00  0.00    -0.131 C  
BRANCH  11  17
HETATM   17  C   UNL     1     -10.935  11.597  65.976  1.00  0.00    -0.338 C  
HETATM   18  C   UNL     1     -12.048  12.432  66.647  1.00  0.00    -0.148 C  
HETATM   19  C   UNL     1     -11.504  14.491  65.312  1.00  0.00    -0.355 C  
HETATM   20  C   UNL     1     -10.550  13.674  64.443  1.00  0.00    -0.360 C  
HETATM   21  C   UNL     1     -11.719  13.918  66.707  1.00  0.00    -0.423 C  
HETATM   22  C   UNL     1     -10.736  12.153  64.544  1.00  0.00    -0.353 C  
ENDBRANCH  11  17
ENDBRANCH   9  11
ENDBRANCH   8   9
ENDBRANCH   7   8
ENDBRANCH   6   7
ENDBRANCH   3   6
ENDBRANCH   2   3
TORSDOF 8
ENDMDL
MODEL      207
REMARK 921   NORMALIZED FREE ENERGY PREDICTED BY IDOCK:   -3.03 KCAL/MOL
REMARK 922        TOTAL FREE ENERGY PREDICTED BY IDOCK:   -5.03 KCAL/MOL
REMARK 923 INTER-LIGAND FREE ENERGY PREDICTED BY IDOCK:   -4.61 KCAL/MOL
REMARK 924 INTRA-LIGAND FREE ENERGY PREDICTED BY IDOCK:   -0.42 KCAL/MOL
REMARK 927      BINDING AFFINITY PREDICTED BY RF-SCORE:    0.00 PKD
ROOT
HETATM    1  C   UNL     1     -14.137   7.386  71.419  1.00  0.00    -0.491 C  
HETATM    2  C   UNL     1     -12.677   6.946  71.346  1.00  0.00    -0.334 C  
ENDROOT
BRANCH   2   3
HETATM    3  N   UNL     1     -11.815   7.484  72.415  1.00  0.00    -0.286 NA 
BRANCH   3   4
HETATM    4  C   UNL     1     -10.872   6.510  72.981  1.00  0.00    -0.261 C  
HETATM    5  C   UNL     1     -11.331   5.057  72.980  1.00  0.00    -0.374 C  
ENDBRANCH   3   4
BRANCH   3   6
HETATM    6  C   UNL     1     -11.187   8.745  71.956  1.00  0.00    -0.373 C  
BRANCH   6   7
HETATM    7  C   UNL     1      -9.653   8.697  71.867  1.00  0.00    -0.307 C  
BRANCH   7   8
HETATM    8  O   UNL     1      -9.158   7.966  70.726  1.00  0.00    -0.149 OA 
BRANCH   8   9
HETATM    9  C   UNL     1      -8.681   8.735  69.712  1.00  0.00    -0.133 C  
HETATM   10  O   UNL     1      -8.638   9.957  69.748  1.00  0.00    -0.183 OA 
BRANCH   9  11
HETATM   11  C   UNL     1      -8.157   7.893  68.518  1.00  0.00    -0.123 C  
HETATM   12  C   UNL     1      -7.764   6.470  68.993  1.00  0.00    -0.109 C  
HETATM   13  C   UNL     1      -6.865   8.629  68.031  1.00  0.00    -0.070 C  
HETATM   14  C   UNL     1      -5.693   8.557  69.014  1.00  0.00    -0.039 C  
HETATM   15  C   UNL     1      -6.578   6.420  69.955  1.00  0.00    -0.048 C  
HETATM   16  C   UNL     1      -5.364   7.113  69.359  1.00  0.00    -0.015 C  
BRANCH  11  17
HETATM   17  C   UNL     1      -9.294   7.909  67.406  1.00  0.00    -0.169 C  
HETATM   18  C   UNL     1      -8.875   7.470  65.985  1.00  0.00    -0.179 C  
HETATM   19  C   UNL     1      -9.920   5.197  66.227  1.00  0.00    -0.232 C  
HETATM   20  C   UNL     1     -10.569   5.636  67.538  1.00  0.00    -0.296 C  
HETATM   21  C   UNL     1      -8.655   5.968  65.871  1.00  0.00    -0.150 C  
HETATM   22  C   UNL     1     -10.599   7.154  67.760  1.00  0.00    -0.293 C  
ENDBRANCH  11  17
ENDBRANCH   9  11
ENDBRANCH   8   9
ENDBRANCH   7   8
ENDBRANCH   6   7
ENDBRANCH   3   6
ENDBRANCH   2   3
TORSDOF 8
ENDMDL
MODEL      208
REMARK 921   NORMALIZED FREE ENERGY PREDICTED BY IDOCK:   -2.99 KCAL/MOL
REMARK 922        TOTAL FREE ENERGY PREDICTED BY IDOCK:   -4.97 KCAL/MOL
REMARK 923 INTER-LIGAND FREE ENERGY PREDICTED BY IDOCK:   -4.65 KCAL/MOL
REMARK 924 INTRA-LIGAND FREE ENERGY PREDICTED BY IDOCK:   -0.32 KCAL/MOL
REMARK 927      BINDING AFFINITY PREDICTED BY RF-SCORE:    0.00 PKD
ROOT
HETATM    1  C   UNL     1     -10.879  16.385  69.356  1.00  0.00    -0.327 C  
HETATM    2  C   UNL     1     -11.320  15.612  70.596  1.00  0.00    -0.368 C  
ENDROOT
BRANCH   2   3
HETATM    3  N   UNL     1     -11.787  14.238  70.334  1.00  0.00    -0.304 NA 
BRANCH   3   4
HETATM    4  C   UNL     1     -13.110  13.931  70.893  1.00  0.00    -0.192 C  
HETATM    5  C   UNL     1     -13.129  12.967  72.073  1.00  0.00    -0.481 C  
ENDBRANCH   3   4
BRANCH   3   6
HETATM    6  C   UNL     1     -11.650  13.938  68.889  1.00  0.00    -0.316 C  
BRANCH   6   7
HETATM    7  C   UNL     1     -10.767  12.719  68.573  1.00  0.00    -0.253 C  
BRANCH   7   8
HETATM    8  O   UNL     1     -11.063  11.560  69.380  1.00  0.00    -0.247 OA 
BRANCH   8   9
HETATM    9  C   UNL     1     -11.028  10.374  68.719  1.00  0.00    -0.245 C  
HETATM   10  O   UNL     1     -11.907   9.992  67.960  1.00  0.00     0.074 OA 
BRANCH   9  11
HETATM   11  C   UNL     1      -9.728   9.572  68.999  1.00  0.00    -0.170 C  
HETATM   12  C   UNL     1      -9.955   8.063  68.717  1.00  0.00    -0.196 C  
HETATM   13  C   UNL     1      -9.453   9.756  70.529  1.00  0.00    -0.140 C  
HETATM   14  C   UNL     1     -10.467   9.054  71.437  1.00  0.00    -0.395 C  
HETATM   15  C   UNL     1     -10.952   7.378  69.650  1.00  0.00    -0.186 C  
HETATM   16  C   UNL     1     -10.558   7.573  71.105  1.00  0.00    -0.234 C  
BRANCH  11  17
HETATM   17  C   UNL     1      -8.580  10.227  68.115  1.00  0.00    -0.119 C  
HETATM   18  C   UNL     1      -7.158   9.649  68.294  1.00  0.00    -0.078 C  
HETATM   19  C   UNL     1      -7.275   8.324  66.162  1.00  0.00    -0.070 C  
HETATM   20  C   UNL     1      -8.580   9.030  65.796  1.00  0.00    -0.180 C  
HETATM   21  C   UNL     1      -6.993   8.276  67.658  1.00  0.00    -0.079 C  
HETATM   22  C   UNL     1      -8.860  10.311  66.594  1.00  0.00    -0.148 C  
ENDBRANCH  11  17
ENDBRANCH   9  11
ENDBRANCH   8   9
ENDBRANCH   7   8
ENDBRANCH   6   7
ENDBRANCH   3   6
ENDBRANCH   2   3
TORSDOF 8
ENDMDL
MODEL      209
REMARK 921   NORMALIZED FREE ENERGY PREDICTED BY IDOCK:   -2.99 KCAL/MOL
REMARK 922        TOTAL FREE ENERGY PREDICTED BY IDOCK:   -4.97 KCAL/MOL
REMARK 923 INTER-LIGAND FREE ENERGY PREDICTED BY IDOCK:   -4.48 KCAL/MOL
REMARK 924 INTRA-LIGAND FREE ENERGY PREDICTED BY IDOCK:   -0.49 KCAL/MOL
REMARK 927      BINDING AFFINITY PREDICTED BY RF-SCORE:    0.00 PKD
ROOT
HETATM    1  C   UNL     1     -10.483  15.384  64.840  1.00  0.00    -0.323 C  
HETATM    2  C   UNL     1     -10.548  13.860  64.779  1.00  0.00    -0.426 C  
ENDROOT
BRANCH   2   3
HETATM    3  N   UNL     1     -10.110  13.173  66.008  1.00  0.00    -0.282 NA 
BRANCH   3   4
HETATM    4  C   UNL     1     -10.697  13.709  67.243  1.00  0.00    -0.279 C  
HETATM    5  C   UNL     1     -12.195  13.495  67.420  1.00  0.00    -0.278 C  
ENDBRANCH   3   4
BRANCH   3   6
HETATM    6  C   UNL     1     -10.272  11.710  65.841  1.00  0.00    -0.238 C  
BRANCH   6   7
HETATM    7  C   UNL     1      -9.421  11.100  64.715  1.00  0.00    -0.218 C  
BRANCH   7   8
HETATM    8  O   UNL     1      -9.136   9.697  64.895  1.00  0.00    -0.206 OA 
BRANCH   8   9
HETATM    9  C   UNL     1      -8.237   9.412  65.872  1.00  0.00    -0.115 C  
HETATM   10  O   UNL     1      -7.298  10.137  66.165  1.00  0.00    -0.104 OA 
BRANCH   9  11
HETATM   11  C   UNL     1      -8.556   8.082  66.608  1.00  0.00    -0.141 C  
HETATM   12  C   UNL     1      -7.483   7.795  67.692  1.00  0.00    -0.104 C  
HETATM   13  C   UNL     1      -8.462   6.971  65.510  1.00  0.00    -0.120 C  
HETATM   14  C   UNL     1      -7.043   6.720  64.991  1.00  0.00    -0.064 C  
HETATM   15  C   UNL     1      -6.080   7.524  67.150  1.00  0.00    -0.051 C  
HETATM   16  C   UNL     1      -6.097   6.393  66.136  1.00  0.00    -0.033 C  
BRANCH  11  17
HETATM   17  C   UNL     1     -10.032   8.213  67.183  1.00  0.00    -0.304 C  
HETATM   18  C   UNL     1     -10.737   6.897  67.580  1.00  0.00    -0.344 C  
HETATM   19  C   UNL     1     -10.346   7.263  70.036  1.00  0.00    -0.222 C  
HETATM   20  C   UNL     1      -9.851   8.679  69.745  1.00  0.00    -0.183 C  
HETATM   21  C   UNL     1     -10.189   6.298  68.869  1.00  0.00    -0.219 C  
HETATM   22  C   UNL     1     -10.219   9.211  68.353  1.00  0.00    -0.230 C  
ENDBRANCH  11  17
ENDBRANCH   9  11
ENDBRANCH   8   9
ENDBRANCH   7   8
ENDBRANCH   6   7
ENDBRANCH   3   6
ENDBRANCH   2   3
TORSDOF 8
ENDMDL
MODEL      210
REMARK 921   NORMALIZED FREE ENERGY PREDICTED BY IDOCK:   -2.98 KCAL/MOL
REMARK 922        TOTAL FREE ENERGY PREDICTED BY IDOCK:   -4.95 KCAL/MOL
REMARK 923 INTER-LIGAND FREE ENERGY PREDICTED BY IDOCK:   -5.91 KCAL/MOL
REMARK 924 INTRA-LIGAND FREE ENERGY PREDICTED BY IDOCK:    0.96 KCAL/MOL
REMARK 927      BINDING AFFINITY PREDICTED BY RF-SCORE:    0.00 PKD
ROOT
HETATM    1  C   UNL     1     -10.926   6.464  67.337  1.00  0.00    -0.463 C  
HETATM    2  C   UNL     1     -10.496   6.935  68.723  1.00  0.00    -0.205 C  
ENDROOT
BRANCH   2   3
HETATM    3  N   UNL     1      -9.937   8.299  68.767  1.00  0.00    -0.178 NA 
BRANCH   3   4
HETATM    4  C   UNL     1      -8.630   8.397  69.430  1.00  0.00    -0.129 C  
HETATM    5  C   UNL     1      -8.006   7.080  69.874  1.00  0.00    -0.123 C  
ENDBRANCH   3   4
BRANCH   3   6
HETATM    6  C   UNL     1      -9.978   8.893  67.410  1.00  0.00    -0.209 C  
BRANCH   6   7
HETATM    7  C   UNL     1     -10.968  10.060  67.256  1.00  0.00    -0.156 C  
BRANCH   7   8
HETATM    8  O   UNL     1     -10.349  11.300  66.854  1.00  0.00    -0.217 OA 
BRANCH   8   9
HETATM    9  C   UNL     1     -11.190  12.363  66.773  1.00  0.00    -0.310 C  
HETATM   10  O   UNL     1     -12.384  12.308  67.030  1.00  0.00    -0.393 OA 
BRANCH   9  11
HETATM   11  C   UNL     1     -10.463  13.670  66.357  1.00  0.00    -0.288 C  
HETATM   12  C   UNL     1      -8.996  13.655  66.863  1.00  0.00    -0.229 C  
HETATM   13  C   UNL     1     -11.230  14.820  67.093  1.00  0.00    -0.346 C  
HETATM   14  C   UNL     1     -11.050  14.821  68.614  1.00  0.00    -0.274 C  
HETATM   15  C   UNL     1      -8.841  13.681  68.383  1.00  0.00    -0.152 C  
HETATM   16  C   UNL     1      -9.577  14.866  68.985  1.00  0.00    -0.204 C  
BRANCH  11  17
HETATM   17  C   UNL     1     -10.598  13.794  64.778  1.00  0.00    -0.444 C  
HETATM   18  C   UNL     1     -10.107  12.587  63.948  1.00  0.00    -0.308 C  
HETATM   19  C   UNL     1     -12.439  11.751  63.523  1.00  0.00    -0.504 C  
HETATM   20  C   UNL     1     -13.008  13.035  64.124  1.00  0.00     0.083 C  
HETATM   21  C   UNL     1     -11.047  11.392  64.028  1.00  0.00    -0.400 C  
HETATM   22  C   UNL     1     -11.999  14.185  64.246  1.00  0.00    -0.460 C  
ENDBRANCH  11  17
ENDBRANCH   9  11
ENDBRANCH   8   9
ENDBRANCH   7   8
ENDBRANCH   6   7
ENDBRANCH   3   6
ENDBRANCH   2   3
TORSDOF 8
ENDMDL
MODEL      211
REMARK 921   NORMALIZED FREE ENERGY PREDICTED BY IDOCK:   -2.93 KCAL/MOL
REMARK 922        TOTAL FREE ENERGY PREDICTED BY IDOCK:   -4.88 KCAL/MOL
REMARK 923 INTER-LIGAND FREE ENERGY PREDICTED BY IDOCK:   -4.80 KCAL/MOL
REMARK 924 INTRA-LIGAND FREE ENERGY PREDICTED BY IDOCK:   -0.08 KCAL/MOL
REMARK 927      BINDING AFFINITY PREDICTED BY RF-SCORE:    0.00 PKD
ROOT
HETATM    1  C   UNL     1     -11.222  15.310  66.632  1.00  0.00    -0.232 C  
HETATM    2  C   UNL     1     -12.240  14.181  66.490  1.00  0.00    -0.433 C  
ENDROOT
BRANCH   2   3
HETATM    3  N   UNL     1     -11.671  12.884  66.082  1.00  0.00    -0.376 NA 
BRANCH   3   4
HETATM    4  C   UNL     1     -12.228  12.344  64.834  1.00  0.00    -0.418 C  
HETATM    5  C   UNL     1     -11.249  12.192  63.676  1.00  0.00    -0.540 C  
ENDBRANCH   3   4
BRANCH   3   6
HETATM    6  C   UNL     1     -10.192  12.963  66.106  1.00  0.00    -0.278 C  
BRANCH   6   7
HETATM    7  C   UNL     1      -9.549  12.468  67.412  1.00  0.00    -0.192 C  
BRANCH   7   8
HETATM    8  O   UNL     1      -8.449  11.557  67.210  1.00  0.00    -0.141 OA 
BRANCH   8   9
HETATM    9  C   UNL     1      -8.088  10.838  68.306  1.00  0.00    -0.121 C  
HETATM   10  O   UNL     1      -7.553  11.324  69.292  1.00  0.00    -0.107 OA 
BRANCH   9  11
HETATM   11  C   UNL     1      -8.466   9.337  68.187  1.00  0.00    -0.121 C  
HETATM   12  C   UNL     1      -7.460   8.463  68.981  1.00  0.00    -0.093 C  
HETATM   13  C   UNL     1      -8.326   8.997  66.666  1.00  0.00    -0.118 C  
HETATM   14  C   UNL     1      -6.884   9.007  66.150  1.00  0.00    -0.081 C  
HETATM   15  C   UNL     1      -6.033   8.470  68.435  1.00  0.00    -0.042 C  
HETATM   16  C   UNL     1      -6.009   8.072  66.969  1.00  0.00    -0.052 C  
BRANCH  11  17
HETATM   17  C   UNL     1      -9.971   9.198  68.682  1.00  0.00    -0.185 C  
HETATM   18  C   UNL     1     -10.508   7.760  68.857  1.00  0.00    -0.208 C  
HETATM   19  C   UNL     1     -10.278   7.828  71.359  1.00  0.00    -0.211 C  
HETATM   20  C   UNL     1      -9.966   9.322  71.289  1.00  0.00    -0.341 C  
HETATM   21  C   UNL     1      -9.942   7.062  70.087  1.00  0.00    -0.189 C  
HETATM   22  C   UNL     1     -10.340   9.992  69.959  1.00  0.00    -0.323 C  
ENDBRANCH  11  17
ENDBRANCH   9  11
ENDBRANCH   8   9
ENDBRANCH   7   8
ENDBRANCH   6   7
ENDBRANCH   3   6
ENDBRANCH   2   3
TORSDOF 8
ENDMDL
MODEL      212
REMARK 921   NORMALIZED FREE ENERGY PREDICTED BY IDOCK:   -2.92 KCAL/MOL
REMARK 922        TOTAL FREE ENERGY PREDICTED BY IDOCK:   -4.86 KCAL/MOL
REMARK 923 INTER-LIGAND FREE ENERGY PREDICTED BY IDOCK:   -4.47 KCAL/MOL
REMARK 924 INTRA-LIGAND FREE ENERGY PREDICTED BY IDOCK:   -0.39 KCAL/MOL
REMARK 927      BINDING AFFINITY PREDICTED BY RF-SCORE:    0.00 PKD
ROOT
HETATM    1  C   UNL     1      -6.819   4.431  66.909  1.00  0.00    -0.052 C  
HETATM    2  C   UNL     1      -7.615   3.646  65.870  1.00  0.00    -0.081 C  
ENDROOT
BRANCH   2   3
HETATM    3  N   UNL     1      -8.827   4.325  65.378  1.00  0.00    -0.125 NA 
BRANCH   3   4
HETATM    4  C   UNL     1      -9.316   3.831  64.084  1.00  0.00    -0.146 C  
HETATM    5  C   UNL     1      -9.098   4.752  62.890  1.00  0.00    -0.061 C  
ENDBRANCH   3   4
BRANCH   3   6
HETATM    6  C   UNL     1      -9.851   4.347  66.449  1.00  0.00    -0.230 C  
BRANCH   6   7
HETATM    7  C   UNL     1     -10.845   5.516  66.356  1.00  0.00    -0.122 C  
BRANCH   7   8
HETATM    8  O   UNL     1     -11.145   6.128  67.628  1.00  0.00    -0.328 OA 
BRANCH   8   9
HETATM    9  C   UNL     1     -10.680   7.395  67.782  1.00  0.00    -0.179 C  
HETATM   10  O   UNL     1     -10.692   8.236  66.895  1.00  0.00    -0.299 OA 
BRANCH   9  11
HETATM   11  C   UNL     1     -10.167   7.673  69.221  1.00  0.00    -0.210 C  
HETATM   12  C   UNL     1     -10.337   9.174  69.573  1.00  0.00    -0.220 C  
HETATM   13  C   UNL     1      -8.638   7.342  69.183  1.00  0.00    -0.133 C  
HETATM   14  C   UNL     1      -7.804   8.319  68.350  1.00  0.00    -0.118 C  
HETATM   15  C   UNL     1      -9.478  10.129  68.745  1.00  0.00    -0.171 C  
HETATM   16  C   UNL     1      -8.009   9.749  68.826  1.00  0.00    -0.087 C  
BRANCH  11  17
HETATM   17  C   UNL     1     -10.955   6.691  70.191  1.00  0.00    -0.358 C  
HETATM   18  C   UNL     1     -10.128   6.015  71.308  1.00  0.00    -0.237 C  
HETATM   19  C   UNL     1     -10.997   7.568  73.084  1.00  0.00    -0.420 C  
HETATM   20  C   UNL     1     -12.015   8.130  72.092  1.00  0.00    -0.413 C  
HETATM   21  C   UNL     1      -9.756   6.975  72.431  1.00  0.00    -0.171 C  
HETATM   22  C   UNL     1     -12.237   7.266  70.844  1.00  0.00    -0.308 C  
ENDBRANCH  11  17
ENDBRANCH   9  11
ENDBRANCH   8   9
ENDBRANCH   7   8
ENDBRANCH   6   7
ENDBRANCH   3   6
ENDBRANCH   2   3
TORSDOF 8
ENDMDL
MODEL      213
REMARK 921   NORMALIZED FREE ENERGY PREDICTED BY IDOCK:   -2.90 KCAL/MOL
REMARK 922        TOTAL FREE ENERGY PREDICTED BY IDOCK:   -4.84 KCAL/MOL
REMARK 923 INTER-LIGAND FREE ENERGY PREDICTED BY IDOCK:   -4.17 KCAL/MOL
REMARK 924 INTRA-LIGAND FREE ENERGY PREDICTED BY IDOCK:   -0.67 KCAL/MOL
REMARK 927      BINDING AFFINITY PREDICTED BY RF-SCORE:    0.00 PKD
ROOT
HETATM    1  C   UNL     1      -8.966   1.475  66.863  1.00  0.00    -0.119 C  
HETATM    2  C   UNL     1      -9.231   2.917  67.289  1.00  0.00    -0.173 C  
ENDROOT
BRANCH   2   3
HETATM    3  N   UNL     1      -8.454   3.931  66.553  1.00  0.00    -0.104 NA 
BRANCH   3   4
HETATM    4  C   UNL     1      -9.267   4.993  65.945  1.00  0.00    -0.157 C  
HETATM    5  C   UNL     1     -10.586   5.306  66.639  1.00  0.00    -0.334 C  
ENDBRANCH   3   4
BRANCH   3   6
HETATM    6  C   UNL     1      -7.349   4.424  67.408  1.00  0.00    -0.069 C  
BRANCH   6   7
HETATM    7  C   UNL     1      -7.748   4.701  68.867  1.00  0.00    -0.071 C  
BRANCH   7   8
HETATM    8  O   UNL     1      -8.012   6.092  69.145  1.00  0.00    -0.100 OA 
BRANCH   8   9
HETATM    9  C   UNL     1      -7.712   6.494  70.407  1.00  0.00    -0.098 C  
HETATM   10  O   UNL     1      -6.789   6.037  71.065  1.00  0.00    -0.061 OA 
BRANCH   9  11
HETATM   11  C   UNL     1      -8.645   7.629  70.910  1.00  0.00    -0.129 C  
HETATM   12  C   UNL     1      -9.298   8.362  69.710  1.00  0.00    -0.158 C  
HETATM   13  C   UNL     1      -7.704   8.635  71.654  1.00  0.00    -0.146 C  
HETATM   14  C   UNL     1      -6.742   9.393  70.734  1.00  0.00    -0.105 C  
HETATM   15  C   UNL     1      -8.323   9.131  68.819  1.00  0.00    -0.121 C  
HETATM   16  C   UNL     1      -7.502  10.116  69.634  1.00  0.00    -0.147 C  
BRANCH  11  17
HETATM   17  C   UNL     1      -9.691   6.962  71.904  1.00  0.00    -0.166 C  
HETATM   18  C   UNL     1     -10.499   7.925  72.802  1.00  0.00    -0.412 C  
HETATM   19  C   UNL     1     -12.567   7.735  71.386  1.00  0.00    -0.339 C  
HETATM   20  C   UNL     1     -11.918   6.603  70.592  1.00  0.00    -0.404 C  
HETATM   21  C   UNL     1     -11.572   8.688  72.037  1.00  0.00    -0.440 C  
HETATM   22  C   UNL     1     -10.694   5.969  71.267  1.00  0.00    -0.320 C  
ENDBRANCH  11  17
ENDBRANCH   9  11
ENDBRANCH   8   9
ENDBRANCH   7   8
ENDBRANCH   6   7
ENDBRANCH   3   6
ENDBRANCH   2   3
TORSDOF 8
ENDMDL
MODEL      214
REMARK 921   NORMALIZED FREE ENERGY PREDICTED BY IDOCK:   -2.90 KCAL/MOL
REMARK 922        TOTAL FREE ENERGY PREDICTED BY IDOCK:   -4.84 KCAL/MOL
REMARK 923 INTER-LIGAND FREE ENERGY PREDICTED BY IDOCK:   -4.72 KCAL/MOL
REMARK 924 INTRA-LIGAND FREE ENERGY PREDICTED BY IDOCK:   -0.12 KCAL/MOL
REMARK 927      BINDING AFFINITY PREDICTED BY RF-SCORE:    0.00 PKD
ROOT
HETATM    1  C   UNL     1     -13.843   9.039  72.038  1.00  0.00    -0.501 C  
HETATM    2  C   UNL     1     -12.652   8.223  71.544  1.00  0.00    -0.309 C  
ENDROOT
BRANCH   2   3
HETATM    3  N   UNL     1     -11.396   8.983  71.408  1.00  0.00    -0.295 NA 
BRANCH   3   4
HETATM    4  C   UNL     1     -10.266   8.425  72.163  1.00  0.00    -0.320 C  
HETATM    5  C   UNL     1     -10.625   7.496  73.315  1.00  0.00    -0.438 C  
ENDBRANCH   3   4
BRANCH   3   6
HETATM    6  C   UNL     1     -11.113   9.217  69.972  1.00  0.00    -0.205 C  
BRANCH   6   7
HETATM    7  C   UNL     1     -10.229   8.146  69.314  1.00  0.00    -0.214 C  
BRANCH   7   8
HETATM    8  O   UNL     1     -10.938   6.938  68.966  1.00  0.00    -0.225 OA 
BRANCH   8   9
HETATM    9  C   UNL     1     -10.349   5.785  69.378  1.00  0.00    -0.262 C  
HETATM   10  O   UNL     1     -10.488   5.312  70.496  1.00  0.00    -0.264 OA 
BRANCH   9  11
HETATM   11  C   UNL     1      -9.511   5.110  68.259  1.00  0.00    -0.164 C  
HETATM   12  C   UNL     1      -9.715   3.572  68.286  1.00  0.00    -0.061 C  
HETATM   13  C   UNL     1      -8.020   5.420  68.618  1.00  0.00    -0.087 C  
HETATM   14  C   UNL     1      -7.515   4.704  69.875  1.00  0.00    -0.054 C  
HETATM   15  C   UNL     1      -9.183   2.876  69.538  1.00  0.00    -0.211 C  
HETATM   16  C   UNL     1      -7.715   3.201  69.759  1.00  0.00    -0.044 C  
BRANCH  11  17
HETATM   17  C   UNL     1      -9.936   5.791  66.886  1.00  0.00    -0.200 C  
HETATM   18  C   UNL     1      -8.843   6.598  66.150  1.00  0.00    -0.160 C  
HETATM   19  C   UNL     1      -8.429   4.772  64.472  1.00  0.00    -0.140 C  
HETATM   20  C   UNL     1      -9.650   4.017  64.994  1.00  0.00    -0.180 C  
HETATM   21  C   UNL     1      -7.796   5.710  65.491  1.00  0.00    -0.100 C  
HETATM   22  C   UNL     1     -10.608   4.860  65.847  1.00  0.00    -0.280 C  
ENDBRANCH  11  17
ENDBRANCH   9  11
ENDBRANCH   8   9
ENDBRANCH   7   8
ENDBRANCH   6   7
ENDBRANCH   3   6
ENDBRANCH   2   3
TORSDOF 8
ENDMDL
MODEL      215
REMARK 921   NORMALIZED FREE ENERGY PREDICTED BY IDOCK:   -2.88 KCAL/MOL
REMARK 922        TOTAL FREE ENERGY PREDICTED BY IDOCK:   -4.81 KCAL/MOL
REMARK 923 INTER-LIGAND FREE ENERGY PREDICTED BY IDOCK:   -4.99 KCAL/MOL
REMARK 924 INTRA-LIGAND FREE ENERGY PREDICTED BY IDOCK:    0.17 KCAL/MOL
REMARK 927      BINDING AFFINITY PREDICTED BY RF-SCORE:    0.00 PKD
ROOT
HETATM    1  C   UNL     1     -11.877  13.045  68.735  1.00  0.00    -0.355 C  
HETATM    2  C   UNL     1     -10.840  12.467  67.775  1.00  0.00    -0.225 C  
ENDROOT
BRANCH   2   3
HETATM    3  N   UNL     1     -10.821  10.995  67.700  1.00  0.00    -0.237 NA 
BRANCH   3   4
HETATM    4  C   UNL     1      -9.585  10.433  67.140  1.00  0.00    -0.164 C  
HETATM    5  C   UNL     1      -9.758   9.467  65.974  1.00  0.00    -0.341 C  
ENDBRANCH   3   4
BRANCH   3   6
HETATM    6  C   UNL     1     -11.208  10.428  69.014  1.00  0.00    -0.234 C  
BRANCH   6   7
HETATM    7  C   UNL     1     -10.025   9.981  69.887  1.00  0.00    -0.237 C  
BRANCH   7   8
HETATM    8  O   UNL     1     -10.114   8.611  70.332  1.00  0.00    -0.180 OA 
BRANCH   8   9
HETATM    9  C   UNL     1      -9.019   7.850  70.076  1.00  0.00    -0.145 C  
HETATM   10  O   UNL     1      -7.897   8.306  69.910  1.00  0.00    -0.097 OA 
BRANCH   9  11
HETATM   11  C   UNL     1      -9.337   6.330  70.058  1.00  0.00    -0.164 C  
HETATM   12  C   UNL     1      -8.556   5.629  68.916  1.00  0.00    -0.101 C  
HETATM   13  C   UNL     1     -10.868   6.235  69.746  1.00  0.00    -0.399 C  
HETATM   14  C   UNL     1     -11.245   6.659  68.323  1.00  0.00    -0.208 C  
HETATM   15  C   UNL     1      -8.966   6.051  67.505  1.00  0.00    -0.111 C  
HETATM   16  C   UNL     1     -10.459   5.864  67.294  1.00  0.00    -0.325 C  
BRANCH  11  17
HETATM   17  C   UNL     1      -9.000   5.769  71.507  1.00  0.00    -0.146 C  
HETATM   18  C   UNL     1      -8.535   6.804  72.556  1.00  0.00    -0.122 C  
HETATM   19  C   UNL     1     -10.771   6.852  73.705  1.00  0.00    -0.304 C  
HETATM   20  C   UNL     1     -11.229   5.665  72.859  1.00  0.00    -0.338 C  
HETATM   21  C   UNL     1      -9.670   7.685  73.060  1.00  0.00    -0.301 C  
HETATM   22  C   UNL     1     -10.095   4.896  72.168  1.00  0.00    -0.250 C  
ENDBRANCH  11  17
ENDBRANCH   9  11
ENDBRANCH   8   9
ENDBRANCH   7   8
ENDBRANCH   6   7
ENDBRANCH   3   6
ENDBRANCH   2   3
TORSDOF 8
ENDMDL
MODEL      216
REMARK 921   NORMALIZED FREE ENERGY PREDICTED BY IDOCK:   -2.88 KCAL/MOL
REMARK 922        TOTAL FREE ENERGY PREDICTED BY IDOCK:   -4.81 KCAL/MOL
REMARK 923 INTER-LIGAND FREE ENERGY PREDICTED BY IDOCK:   -4.19 KCAL/MOL
REMARK 924 INTRA-LIGAND FREE ENERGY PREDICTED BY IDOCK:   -0.62 KCAL/MOL
REMARK 927      BINDING AFFINITY PREDICTED BY RF-SCORE:    0.00 PKD
ROOT
HETATM    1  C   UNL     1      -9.231   9.742  63.674  1.00  0.00    -0.229 C  
HETATM    2  C   UNL     1      -9.937  11.090  63.559  1.00  0.00    -0.370 C  
ENDROOT
BRANCH   2   3
HETATM    3  N   UNL     1      -9.924  11.902  64.790  1.00  0.00    -0.252 NA 
BRANCH   3   4
HETATM    4  C   UNL     1     -10.758  13.109  64.729  1.00  0.00    -0.364 C  
HETATM    5  C   UNL     1     -12.263  12.886  64.806  1.00  0.00    -0.499 C  
ENDBRANCH   3   4
BRANCH   3   6
HETATM    6  C   UNL     1     -10.195  11.031  65.958  1.00  0.00    -0.252 C  
BRANCH   6   7
HETATM    7  C   UNL     1      -9.369  11.371  67.210  1.00  0.00    -0.167 C  
BRANCH   7   8
HETATM    8  O   UNL     1      -8.370  10.381  67.535  1.00  0.00    -0.114 OA 
BRANCH   8   9
HETATM    9  C   UNL     1      -8.677   9.577  68.585  1.00  0.00    -0.127 C  
HETATM   10  O   UNL     1      -9.127   9.985  69.646  1.00  0.00    -0.206 OA 
BRANCH   9  11
HETATM   11  C   UNL     1      -8.431   8.074  68.280  1.00  0.00    -0.123 C  
HETATM   12  C   UNL     1      -7.692   7.397  69.463  1.00  0.00    -0.108 C  
HETATM   13  C   UNL     1      -7.489   8.058  67.030  1.00  0.00    -0.092 C  
HETATM   14  C   UNL     1      -6.071   8.566  67.307  1.00  0.00    -0.055 C  
HETATM   15  C   UNL     1      -6.270   7.903  69.706  1.00  0.00    -0.026 C  
HETATM   16  C   UNL     1      -5.430   7.789  68.445  1.00  0.00    -0.028 C  
BRANCH  11  17
HETATM   17  C   UNL     1      -9.848   7.431  67.953  1.00  0.00    -0.177 C  
HETATM   18  C   UNL     1      -9.883   6.378  66.823  1.00  0.00    -0.209 C  
HETATM   19  C   UNL     1     -10.001   4.450  68.431  1.00  0.00    -0.070 C  
HETATM   20  C   UNL     1     -10.209   5.428  69.587  1.00  0.00    -0.345 C  
HETATM   21  C   UNL     1      -9.270   5.046  67.236  1.00  0.00    -0.127 C  
HETATM   22  C   UNL     1     -10.621   6.843  69.160  1.00  0.00    -0.245 C  
ENDBRANCH  11  17
ENDBRANCH   9  11
ENDBRANCH   8   9
ENDBRANCH   7   8
ENDBRANCH   6   7
ENDBRANCH   3   6
ENDBRANCH   2   3
TORSDOF 8
ENDMDL
MODEL      217
REMARK 921   NORMALIZED FREE ENERGY PREDICTED BY IDOCK:   -2.87 KCAL/MOL
REMARK 922        TOTAL FREE ENERGY PREDICTED BY IDOCK:   -4.80 KCAL/MOL
REMARK 923 INTER-LIGAND FREE ENERGY PREDICTED BY IDOCK:   -4.35 KCAL/MOL
REMARK 924 INTRA-LIGAND FREE ENERGY PREDICTED BY IDOCK:   -0.45 KCAL/MOL
REMARK 927      BINDING AFFINITY PREDICTED BY RF-SCORE:    0.00 PKD
ROOT
HETATM    1  C   UNL     1     -10.952  15.211  65.812  1.00  0.00    -0.350 C  
HETATM    2  C   UNL     1     -12.153  14.338  66.166  1.00  0.00    -0.406 C  
ENDROOT
BRANCH   2   3
HETATM    3  N   UNL     1     -11.951  12.893  65.951  1.00  0.00    -0.428 NA 
BRANCH   3   4
HETATM    4  C   UNL     1     -12.438  12.400  64.656  1.00  0.00    -0.420 C  
HETATM    5  C   UNL     1     -11.409  12.340  63.534  1.00  0.00    -0.549 C  
ENDBRANCH   3   4
BRANCH   3   6
HETATM    6  C   UNL     1     -10.542  12.542  66.247  1.00  0.00    -0.248 C  
BRANCH   6   7
HETATM    7  C   UNL     1     -10.296  12.053  67.684  1.00  0.00    -0.198 C  
BRANCH   7   8
HETATM    8  O   UNL     1      -9.809  10.698  67.763  1.00  0.00    -0.162 OA 
BRANCH   8   9
HETATM    9  C   UNL     1      -8.490  10.542  67.477  1.00  0.00    -0.118 C  
HETATM   10  O   UNL     1      -7.636  11.381  67.726  1.00  0.00    -0.098 OA 
BRANCH   9  11
HETATM   11  C   UNL     1      -8.176   9.163  66.836  1.00  0.00    -0.116 C  
HETATM   12  C   UNL     1      -6.662   9.048  66.518  1.00  0.00    -0.075 C  
HETATM   13  C   UNL     1      -8.970   9.146  65.488  1.00  0.00    -0.252 C  
HETATM   14  C   UNL     1      -8.437  10.121  64.433  1.00  0.00    -0.179 C  
HETATM   15  C   UNL     1      -6.157  10.014  65.446  1.00  0.00    -0.093 C  
HETATM   16  C   UNL     1      -6.961   9.873  64.164  1.00  0.00    -0.128 C  
BRANCH  11  17
HETATM   17  C   UNL     1      -8.708   8.052  67.842  1.00  0.00    -0.128 C  
HETATM   18  C   UNL     1      -8.372   6.586  67.490  1.00  0.00    -0.121 C  
HETATM   19  C   UNL     1      -6.529   6.452  69.194  1.00  0.00    -0.043 C  
HETATM   20  C   UNL     1      -6.952   7.807  69.758  1.00  0.00    -0.047 C  
HETATM   21  C   UNL     1      -6.909   6.239  67.735  1.00  0.00    -0.066 C  
HETATM   22  C   UNL     1      -8.355   8.265  69.335  1.00  0.00    -0.122 C  
ENDBRANCH  11  17
ENDBRANCH   9  11
ENDBRANCH   8   9
ENDBRANCH   7   8
ENDBRANCH   6   7
ENDBRANCH   3   6
ENDBRANCH   2   3
TORSDOF 8
ENDMDL
MODEL      218
REMARK 921   NORMALIZED FREE ENERGY PREDICTED BY IDOCK:   -2.87 KCAL/MOL
REMARK 922        TOTAL FREE ENERGY PREDICTED BY IDOCK:   -4.80 KCAL/MOL
REMARK 923 INTER-LIGAND FREE ENERGY PREDICTED BY IDOCK:   -4.63 KCAL/MOL
REMARK 924 INTRA-LIGAND FREE ENERGY PREDICTED BY IDOCK:   -0.17 KCAL/MOL
REMARK 927      BINDING AFFINITY PREDICTED BY RF-SCORE:    0.00 PKD
ROOT
HETATM    1  C   UNL     1     -12.180   6.596  71.686  1.00  0.00    -0.401 C  
HETATM    2  C   UNL     1     -10.987   7.298  71.044  1.00  0.00    -0.251 C  
ENDROOT
BRANCH   2   3
HETATM    3  N   UNL     1     -11.262   8.662  70.556  1.00  0.00    -0.253 NA 
BRANCH   3   4
HETATM    4  C   UNL     1     -11.410   9.667  71.616  1.00  0.00    -0.265 C  
HETATM    5  C   UNL     1     -12.812  10.229  71.815  1.00  0.00    -0.565 C  
ENDBRANCH   3   4
BRANCH   3   6
HETATM    6  C   UNL     1     -10.276   9.021  69.509  1.00  0.00    -0.203 C  
BRANCH   6   7
HETATM    7  C   UNL     1      -8.945   9.570  70.050  1.00  0.00    -0.223 C  
BRANCH   7   8
HETATM    8  O   UNL     1      -8.596  10.869  69.530  1.00  0.00     0.014 OA 
BRANCH   8   9
HETATM    9  C   UNL     1      -8.562  10.957  68.175  1.00  0.00    -0.133 C  
HETATM   10  O   UNL     1      -8.242  10.032  67.441  1.00  0.00    -0.117 OA 
BRANCH   9  11
HETATM   11  C   UNL     1      -9.012  12.349  67.654  1.00  0.00    -0.183 C  
HETATM   12  C   UNL     1      -9.976  13.018  68.668  1.00  0.00    -0.114 C  
HETATM   13  C   UNL     1      -9.802  12.058  66.334  1.00  0.00    -0.238 C  
HETATM   14  C   UNL     1     -11.141  11.346  66.548  1.00  0.00    -0.312 C  
HETATM   15  C   UNL     1     -11.315  12.304  68.848  1.00  0.00    -0.337 C  
HETATM   16  C   UNL     1     -12.020  12.125  67.514  1.00  0.00    -0.175 C  
BRANCH  11  17
HETATM   17  C   UNL     1      -7.691  13.187  67.372  1.00  0.00    -0.151 C  
HETATM   18  C   UNL     1      -7.847  14.723  67.319  1.00  0.00    -0.223 C  
HETATM   19  C   UNL     1      -6.890  15.041  69.621  1.00  0.00    -0.183 C  
HETATM   20  C   UNL     1      -6.487  13.568  69.656  1.00  0.00    -0.072 C  
HETATM   21  C   UNL     1      -8.059  15.344  68.693  1.00  0.00    -0.156 C  
HETATM   22  C   UNL     1      -6.481  12.874  68.287  1.00  0.00    -0.086 C  
ENDBRANCH  11  17
ENDBRANCH   9  11
ENDBRANCH   8   9
ENDBRANCH   7   8
ENDBRANCH   6   7
ENDBRANCH   3   6
ENDBRANCH   2   3
TORSDOF 8
ENDMDL
MODEL      219
REMARK 921   NORMALIZED FREE ENERGY PREDICTED BY IDOCK:   -2.86 KCAL/MOL
REMARK 922        TOTAL FREE ENERGY PREDICTED BY IDOCK:   -4.78 KCAL/MOL
REMARK 923 INTER-LIGAND FREE ENERGY PREDICTED BY IDOCK:   -5.51 KCAL/MOL
REMARK 924 INTRA-LIGAND FREE ENERGY PREDICTED BY IDOCK:    0.73 KCAL/MOL
REMARK 927      BINDING AFFINITY PREDICTED BY RF-SCORE:    0.00 PKD
ROOT
HETATM    1  C   UNL     1      -9.980  19.675  69.157  1.00  0.00    -0.416 C  
HETATM    2  C   UNL     1     -10.020  18.252  68.605  1.00  0.00    -0.389 C  
ENDROOT
BRANCH   2   3
HETATM    3  N   UNL     1      -9.551  18.116  67.214  1.00  0.00    -0.275 NA 
BRANCH   3   4
HETATM    4  C   UNL     1      -9.413  19.389  66.494  1.00  0.00    -0.364 C  
HETATM    5  C   UNL     1     -10.652  19.876  65.753  1.00  0.00    -0.490 C  
ENDBRANCH   3   4
BRANCH   3   6
HETATM    6  C   UNL     1      -8.340  17.263  67.182  1.00  0.00    -0.201 C  
BRANCH   6   7
HETATM    7  C   UNL     1      -8.479  15.992  66.329  1.00  0.00    -0.302 C  
BRANCH   7   8
HETATM    8  O   UNL     1      -8.164  14.776  67.039  1.00  0.00    -0.210 OA 
BRANCH   8   9
HETATM    9  C   UNL     1      -9.128  14.342  67.893  1.00  0.00    -0.190 C  
HETATM   10  O   UNL     1      -9.431  14.920  68.927  1.00  0.00    -0.204 OA 
BRANCH   9  11
HETATM   11  C   UNL     1      -9.832  13.051  67.394  1.00  0.00    -0.215 C  
HETATM   12  C   UNL     1      -9.747  11.939  68.472  1.00  0.00    -0.173 C  
HETATM   13  C   UNL     1      -9.011  12.593  66.142  1.00  0.00     0.103 C  
HETATM   14  C   UNL     1      -7.603  12.087  66.466  1.00  0.00     0.197 C  
HETATM   15  C   UNL     1      -8.334  11.433  68.762  1.00  0.00    -0.096 C  
HETATM   16  C   UNL     1      -7.653  10.962  67.488  1.00  0.00    -0.101 C  
BRANCH  11  17
HETATM   17  C   UNL     1     -11.319  13.456  67.003  1.00  0.00    -0.346 C  
HETATM   18  C   UNL     1     -11.492  14.786  66.236  1.00  0.00    -0.316 C  
HETATM   19  C   UNL     1     -11.819  13.631  64.027  1.00  0.00    -0.444 C  
HETATM   20  C   UNL     1     -11.895  12.284  64.744  1.00  0.00    -0.428 C  
HETATM   21  C   UNL     1     -11.037  14.695  64.785  1.00  0.00    -0.394 C  
HETATM   22  C   UNL     1     -12.141  12.377  66.256  1.00  0.00    -0.256 C  
ENDBRANCH  11  17
ENDBRANCH   9  11
ENDBRANCH   8   9
ENDBRANCH   7   8
ENDBRANCH   6   7
ENDBRANCH   3   6
ENDBRANCH   2   3
TORSDOF 8
ENDMDL
MODEL      220
REMARK 921   NORMALIZED FREE ENERGY PREDICTED BY IDOCK:   -2.85 KCAL/MOL
REMARK 922        TOTAL FREE ENERGY PREDICTED BY IDOCK:   -4.77 KCAL/MOL
REMARK 923 INTER-LIGAND FREE ENERGY PREDICTED BY IDOCK:   -4.92 KCAL/MOL
REMARK 924 INTRA-LIGAND FREE ENERGY PREDICTED BY IDOCK:    0.15 KCAL/MOL
REMARK 927      BINDING AFFINITY PREDICTED BY RF-SCORE:    0.00 PKD
ROOT
HETATM    1  C   UNL     1     -10.193   9.885  67.704  1.00  0.00    -0.255 C  
HETATM    2  C   UNL     1      -9.885  10.889  66.597  1.00  0.00    -0.198 C  
ENDROOT
BRANCH   2   3
HETATM    3  N   UNL     1     -10.544  12.200  66.750  1.00  0.00    -0.222 NA 
BRANCH   3   4
HETATM    4  C   UNL     1     -11.989  12.186  66.487  1.00  0.00    -0.117 C  
HETATM    5  C   UNL     1     -12.408  12.432  65.043  1.00  0.00    -0.441 C  
ENDBRANCH   3   4
BRANCH   3   6
HETATM    6  C   UNL     1     -10.167  12.792  68.056  1.00  0.00    -0.228 C  
BRANCH   6   7
HETATM    7  C   UNL     1      -8.687  13.190  68.170  1.00  0.00    -0.193 C  
BRANCH   7   8
HETATM    8  O   UNL     1      -8.478  14.603  68.375  1.00  0.00    -0.147 OA 
BRANCH   8   9
HETATM    9  C   UNL     1      -9.611  15.346  68.467  1.00  0.00    -0.201 C  
HETATM   10  O   UNL     1     -10.538  15.083  69.220  1.00  0.00    -0.232 OA 
BRANCH   9  11
HETATM   11  C   UNL     1      -9.587  16.592  67.540  1.00  0.00    -0.231 C  
HETATM   12  C   UNL     1     -11.029  16.979  67.120  1.00  0.00     0.031 C  
HETATM   13  C   UNL     1      -8.802  16.139  66.264  1.00  0.00    -0.371 C  
HETATM   14  C   UNL     1      -9.542  15.112  65.403  1.00  0.00    -0.127 C  
HETATM   15  C   UNL     1     -11.740  15.950  66.242  1.00  0.00     0.702 C  
HETATM   16  C   UNL     1     -10.917  15.627  65.006  1.00  0.00    -0.445 C  
BRANCH  11  17
HETATM   17  C   UNL     1      -8.815  17.738  68.326  1.00  0.00    -0.277 C  
HETATM   18  C   UNL     1      -7.736  18.510  67.534  1.00  0.00    -0.236 C  
HETATM   19  C   UNL     1      -9.218  20.512  67.192  1.00  0.00    -0.485 C  
HETATM   20  C   UNL     1     -10.242  19.917  68.157  1.00  0.00    -0.564 C  
HETATM   21  C   UNL     1      -8.327  19.477  66.517  1.00  0.00    -0.352 C  
HETATM   22  C   UNL     1      -9.704  18.785  69.043  1.00  0.00    -0.328 C  
ENDBRANCH  11  17
ENDBRANCH   9  11
ENDBRANCH   8   9
ENDBRANCH   7   8
ENDBRANCH   6   7
ENDBRANCH   3   6
ENDBRANCH   2   3
TORSDOF 8
ENDMDL
MODEL      221
REMARK 921   NORMALIZED FREE ENERGY PREDICTED BY IDOCK:   -2.85 KCAL/MOL
REMARK 922        TOTAL FREE ENERGY PREDICTED BY IDOCK:   -4.76 KCAL/MOL
REMARK 923 INTER-LIGAND FREE ENERGY PREDICTED BY IDOCK:   -5.09 KCAL/MOL
REMARK 924 INTRA-LIGAND FREE ENERGY PREDICTED BY IDOCK:    0.33 KCAL/MOL
REMARK 927      BINDING AFFINITY PREDICTED BY RF-SCORE:    0.00 PKD
ROOT
HETATM    1  C   UNL     1     -14.370   8.560  72.165  1.00  0.00    -0.529 C  
HETATM    2  C   UNL     1     -13.184   9.503  71.979  1.00  0.00    -0.452 C  
ENDROOT
BRANCH   2   3
HETATM    3  N   UNL     1     -11.887   8.833  71.773  1.00  0.00    -0.319 NA 
BRANCH   3   4
HETATM    4  C   UNL     1     -11.811   7.476  72.331  1.00  0.00    -0.261 C  
HETATM    5  C   UNL     1     -10.685   7.225  73.326  1.00  0.00    -0.428 C  
ENDBRANCH   3   4
BRANCH   3   6
HETATM    6  C   UNL     1     -11.504   8.927  70.344  1.00  0.00    -0.157 C  
BRANCH   6   7
HETATM    7  C   UNL     1     -10.032   9.303  70.104  1.00  0.00    -0.215 C  
BRANCH   7   8
HETATM    8  O   UNL     1      -9.433   8.622  68.982  1.00  0.00    -0.152 OA 
BRANCH   8   9
HETATM    9  C   UNL     1      -9.809   9.083  67.761  1.00  0.00    -0.168 C  
HETATM   10  O   UNL     1     -10.726   8.607  67.107  1.00  0.00    -0.270 OA 
BRANCH   9  11
HETATM   11  C   UNL     1      -8.975  10.309  67.301  1.00  0.00    -0.140 C  
HETATM   12  C   UNL     1      -9.755  11.623  67.568  1.00  0.00    -0.185 C  
HETATM   13  C   UNL     1      -8.807  10.136  65.755  1.00  0.00    -0.177 C  
HETATM   14  C   UNL     1     -10.104  10.313  64.959  1.00  0.00    -0.353 C  
HETATM   15  C   UNL     1     -11.033  11.789  66.746  1.00  0.00    -0.336 C  
HETATM   16  C   UNL     1     -10.745  11.658  65.260  1.00  0.00    -0.346 C  
BRANCH  11  17
HETATM   17  C   UNL     1      -7.577  10.227  68.054  1.00  0.00    -0.088 C  
HETATM   18  C   UNL     1      -6.334   9.962  67.174  1.00  0.00    -0.068 C  
HETATM   19  C   UNL     1      -5.599  12.365  67.245  1.00  0.00    -0.099 C  
HETATM   20  C   UNL     1      -6.662  12.658  68.303  1.00  0.00    -0.081 C  
HETATM   21  C   UNL     1      -5.924  11.176  66.351  1.00  0.00    -0.145 C  
HETATM   22  C   UNL     1      -7.240  11.413  68.990  1.00  0.00    -0.118 C  
ENDBRANCH  11  17
ENDBRANCH   9  11
ENDBRANCH   8   9
ENDBRANCH   7   8
ENDBRANCH   6   7
ENDBRANCH   3   6
ENDBRANCH   2   3
TORSDOF 8
ENDMDL
MODEL      222
REMARK 921   NORMALIZED FREE ENERGY PREDICTED BY IDOCK:   -2.83 KCAL/MOL
REMARK 922        TOTAL FREE ENERGY PREDICTED BY IDOCK:   -4.73 KCAL/MOL
REMARK 923 INTER-LIGAND FREE ENERGY PREDICTED BY IDOCK:   -4.34 KCAL/MOL
REMARK 924 INTRA-LIGAND FREE ENERGY PREDICTED BY IDOCK:   -0.39 KCAL/MOL
REMARK 927      BINDING AFFINITY PREDICTED BY RF-SCORE:    0.00 PKD
ROOT
HETATM    1  C   UNL     1     -11.714  11.842  67.813  1.00  0.00    -0.362 C  
HETATM    2  C   UNL     1     -10.848  12.044  66.572  1.00  0.00    -0.277 C  
ENDROOT
BRANCH   2   3
HETATM    3  N   UNL     1      -9.641  11.199  66.517  1.00  0.00    -0.192 NA 
BRANCH   3   4
HETATM    4  C   UNL     1      -9.013  11.126  65.191  1.00  0.00    -0.093 C  
HETATM    5  C   UNL     1      -8.390   9.787  64.819  1.00  0.00    -0.159 C  
ENDBRANCH   3   4
BRANCH   3   6
HETATM    6  C   UNL     1      -8.717  11.584  67.609  1.00  0.00    -0.142 C  
BRANCH   6   7
HETATM    7  C   UNL     1      -8.279  10.420  68.513  1.00  0.00    -0.119 C  
BRANCH   7   8
HETATM    8  O   UNL     1      -9.348   9.863  69.305  1.00  0.00    -0.181 OA 
BRANCH   8   9
HETATM    9  C   UNL     1      -8.951   9.042  70.312  1.00  0.00    -0.198 C  
HETATM   10  O   UNL     1      -8.113   9.347  71.148  1.00  0.00    -0.322 OA 
BRANCH   9  11
HETATM   11  C   UNL     1      -9.709   7.687  70.313  1.00  0.00    -0.179 C  
HETATM   12  C   UNL     1     -11.234   7.922  70.150  1.00  0.00    -0.157 C  
HETATM   13  C   UNL     1      -9.450   7.071  71.728  1.00  0.00    -0.157 C  
HETATM   14  C   UNL     1     -10.133   7.823  72.875  1.00  0.00    -0.363 C  
HETATM   15  C   UNL     1     -11.899   8.653  71.316  1.00  0.00    -0.344 C  
HETATM   16  C   UNL     1     -11.629   7.939  72.631  1.00  0.00    -0.435 C  
BRANCH  11  17
HETATM   17  C   UNL     1      -9.069   6.797  69.161  1.00  0.00    -0.138 C  
HETATM   18  C   UNL     1      -7.526   6.770  69.089  1.00  0.00    -0.095 C  
HETATM   19  C   UNL     1      -7.375   4.501  70.159  1.00  0.00    -0.050 C  
HETATM   20  C   UNL     1      -8.892   4.351  70.051  1.00  0.00    -0.126 C  
HETATM   21  C   UNL     1      -6.896   5.946  70.203  1.00  0.00    -0.053 C  
HETATM   22  C   UNL     1      -9.564   5.332  69.082  1.00  0.00    -0.201 C  
ENDBRANCH  11  17
ENDBRANCH   9  11
ENDBRANCH   8   9
ENDBRANCH   7   8
ENDBRANCH   6   7
ENDBRANCH   3   6
ENDBRANCH   2   3
TORSDOF 8
ENDMDL
MODEL      223
REMARK 921   NORMALIZED FREE ENERGY PREDICTED BY IDOCK:   -2.82 KCAL/MOL
REMARK 922        TOTAL FREE ENERGY PREDICTED BY IDOCK:   -4.73 KCAL/MOL
REMARK 923 INTER-LIGAND FREE ENERGY PREDICTED BY IDOCK:   -4.75 KCAL/MOL
REMARK 924 INTRA-LIGAND FREE ENERGY PREDICTED BY IDOCK:    0.03 KCAL/MOL
REMARK 927      BINDING AFFINITY PREDICTED BY RF-SCORE:    0.00 PKD
ROOT
HETATM    1  C   UNL     1     -11.896  11.107  69.015  1.00  0.00    -0.418 C  
HETATM    2  C   UNL     1     -11.195  10.317  70.117  1.00  0.00    -0.318 C  
ENDROOT
BRANCH   2   3
HETATM    3  N   UNL     1     -11.923  10.263  71.398  1.00  0.00    -0.359 NA 
BRANCH   3   4
HETATM    4  C   UNL     1     -13.194  11.000  71.404  1.00  0.00    -0.229 C  
HETATM    5  C   UNL     1     -13.176  12.357  72.097  1.00  0.00    -0.491 C  
ENDBRANCH   3   4
BRANCH   3   6
HETATM    6  C   UNL     1     -12.034   8.854  71.844  1.00  0.00    -0.371 C  
BRANCH   6   7
HETATM    7  C   UNL     1     -11.352   7.837  70.915  1.00  0.00    -0.275 C  
BRANCH   7   8
HETATM    8  O   UNL     1     -11.385   6.482  71.409  1.00  0.00    -0.268 OA 
BRANCH   8   9
HETATM    9  C   UNL     1     -10.445   6.187  72.344  1.00  0.00    -0.199 C  
HETATM   10  O   UNL     1     -10.541   6.489  73.525  1.00  0.00    -0.264 OA 
BRANCH   9  11
HETATM   11  C   UNL     1      -9.250   5.386  71.758  1.00  0.00    -0.160 C  
HETATM   12  C   UNL     1      -8.369   4.819  72.902  1.00  0.00    -0.101 C  
HETATM   13  C   UNL     1      -8.409   6.432  70.954  1.00  0.00    -0.126 C  
HETATM   14  C   UNL     1      -7.702   7.473  71.827  1.00  0.00    -0.085 C  
HETATM   15  C   UNL     1      -7.654   5.875  73.745  1.00  0.00    -0.096 C  
HETATM   16  C   UNL     1      -6.824   6.799  72.870  1.00  0.00    -0.071 C  
BRANCH  11  17
HETATM   17  C   UNL     1      -9.863   4.271  70.805  1.00  0.00    -0.265 C  
HETATM   18  C   UNL     1      -9.497   4.367  69.307  1.00  0.00    -0.249 C  
HETATM   19  C   UNL     1      -7.804   2.516  69.457  1.00  0.00    -0.050 C  
HETATM   20  C   UNL     1      -8.275   2.202  70.876  1.00  0.00    -0.066 C  
HETATM   21  C   UNL     1      -8.060   3.953  69.021  1.00  0.00    -0.068 C  
HETATM   22  C   UNL     1      -9.638   2.803  71.245  1.00  0.00    -0.227 C  
ENDBRANCH  11  17
ENDBRANCH   9  11
ENDBRANCH   8   9
ENDBRANCH   7   8
ENDBRANCH   6   7
ENDBRANCH   3   6
ENDBRANCH   2   3
TORSDOF 8
ENDMDL
MODEL      224
REMARK 921   NORMALIZED FREE ENERGY PREDICTED BY IDOCK:   -2.82 KCAL/MOL
REMARK 922        TOTAL FREE ENERGY PREDICTED BY IDOCK:   -4.72 KCAL/MOL
REMARK 923 INTER-LIGAND FREE ENERGY PREDICTED BY IDOCK:   -4.66 KCAL/MOL
REMARK 924 INTRA-LIGAND FREE ENERGY PREDICTED BY IDOCK:   -0.06 KCAL/MOL
REMARK 927      BINDING AFFINITY PREDICTED BY RF-SCORE:    0.00 PKD
ROOT
HETATM    1  C   UNL     1     -12.029  14.409  69.088  1.00  0.00    -0.357 C  
HETATM    2  C   UNL     1     -11.948  14.545  67.570  1.00  0.00    -0.325 C  
ENDROOT
BRANCH   2   3
HETATM    3  N   UNL     1     -10.918  15.483  67.088  1.00  0.00    -0.317 NA 
BRANCH   3   4
HETATM    4  C   UNL     1     -10.497  16.483  68.079  1.00  0.00    -0.313 C  
HETATM    5  C   UNL     1     -10.584  17.938  67.638  1.00  0.00    -0.398 C  
ENDBRANCH   3   4
BRANCH   3   6
HETATM    6  C   UNL     1      -9.802  14.721  66.479  1.00  0.00    -0.272 C  
BRANCH   6   7
HETATM    7  C   UNL     1     -10.160  13.281  66.076  1.00  0.00    -0.299 C  
BRANCH   7   8
HETATM    8  O   UNL     1      -9.685  12.282  67.001  1.00  0.00    -0.198 OA 
BRANCH   8   9
HETATM    9  C   UNL     1      -8.953  11.282  66.444  1.00  0.00    -0.188 C  
HETATM   10  O   UNL     1      -9.012  10.973  65.263  1.00  0.00    -0.199 OA 
BRANCH   9  11
HETATM   11  C   UNL     1      -8.000  10.600  67.463  1.00  0.00    -0.110 C  
HETATM   12  C   UNL     1      -7.160  11.667  68.214  1.00  0.00    -0.078 C  
HETATM   13  C   UNL     1      -7.032   9.725  66.598  1.00  0.00    -0.085 C  
HETATM   14  C   UNL     1      -6.057  10.532  65.736  1.00  0.00    -0.133 C  
HETATM   15  C   UNL     1      -6.178  12.444  67.338  1.00  0.00    -0.158 C  
HETATM   16  C   UNL     1      -5.252  11.499  66.589  1.00  0.00    -0.118 C  
BRANCH  11  17
HETATM   17  C   UNL     1      -8.904   9.705  68.416  1.00  0.00    -0.123 C  
HETATM   18  C   UNL     1     -10.212   9.152  67.806  1.00  0.00    -0.278 C  
HETATM   19  C   UNL     1      -9.253   6.852  67.482  1.00  0.00    -0.124 C  
HETATM   20  C   UNL     1      -8.017   7.255  68.285  1.00  0.00    -0.124 C  
HETATM   21  C   UNL     1      -9.970   8.019  66.818  1.00  0.00    -0.344 C  
HETATM   22  C   UNL     1      -8.187   8.529  69.124  1.00  0.00    -0.119 C  
ENDBRANCH  11  17
ENDBRANCH   9  11
ENDBRANCH   8   9
ENDBRANCH   7   8
ENDBRANCH   6   7
ENDBRANCH   3   6
ENDBRANCH   2   3
TORSDOF 8
ENDMDL
MODEL      225
REMARK 921   NORMALIZED FREE ENERGY PREDICTED BY IDOCK:   -2.81 KCAL/MOL
REMARK 922        TOTAL FREE ENERGY PREDICTED BY IDOCK:   -4.70 KCAL/MOL
REMARK 923 INTER-LIGAND FREE ENERGY PREDICTED BY IDOCK:   -4.10 KCAL/MOL
REMARK 924 INTRA-LIGAND FREE ENERGY PREDICTED BY IDOCK:   -0.60 KCAL/MOL
REMARK 927      BINDING AFFINITY PREDICTED BY RF-SCORE:    0.00 PKD
ROOT
HETATM    1  C   UNL     1     -11.756  10.357  71.161  1.00  0.00    -0.387 C  
HETATM    2  C   UNL     1     -11.489   9.068  70.388  1.00  0.00    -0.173 C  
ENDROOT
BRANCH   2   3
HETATM    3  N   UNL     1     -10.098   8.901  69.927  1.00  0.00    -0.189 NA 
BRANCH   3   4
HETATM    4  C   UNL     1      -9.083   9.178  70.952  1.00  0.00    -0.252 C  
HETATM    5  C   UNL     1      -9.318   8.540  72.315  1.00  0.00    -0.363 C  
ENDBRANCH   3   4
BRANCH   3   6
HETATM    6  C   UNL     1      -9.952   7.584  69.264  1.00  0.00    -0.179 C  
BRANCH   6   7
HETATM    7  C   UNL     1     -11.013   6.547  69.668  1.00  0.00    -0.336 C  
BRANCH   7   8
HETATM    8  O   UNL     1     -10.728   5.876  70.913  1.00  0.00    -0.247 OA 
BRANCH   8   9
HETATM    9  C   UNL     1      -9.997   4.736  70.799  1.00  0.00    -0.221 C  
HETATM   10  O   UNL     1      -9.994   4.027  69.803  1.00  0.00    -0.180 OA 
BRANCH   9  11
HETATM   11  C   UNL     1      -9.131   4.453  72.056  1.00  0.00    -0.159 C  
HETATM   12  C   UNL     1      -8.866   2.930  72.196  1.00  0.00    -0.116 C  
HETATM   13  C   UNL     1     -10.002   4.920  73.269  1.00  0.00    -0.181 C  
HETATM   14  C   UNL     1     -11.237   4.052  73.526  1.00  0.00    -0.325 C  
HETATM   15  C   UNL     1     -10.110   2.087  72.476  1.00  0.00    -0.215 C  
HETATM   16  C   UNL     1     -10.846   2.593  73.705  1.00  0.00    -0.289 C  
BRANCH  11  17
HETATM   17  C   UNL     1      -7.809   5.325  71.914  1.00  0.00    -0.111 C  
HETATM   18  C   UNL     1      -7.023   5.601  73.215  1.00  0.00    -0.085 C  
HETATM   19  C   UNL     1      -5.272   3.876  72.690  1.00  0.00     0.000 C  
HETATM   20  C   UNL     1      -5.855   3.713  71.287  1.00  0.00    -0.013 C  
HETATM   21  C   UNL     1      -6.272   4.378  73.724  1.00  0.00    -0.040 C  
HETATM   22  C   UNL     1      -6.792   4.847  70.848  1.00  0.00    -0.040 C  
ENDBRANCH  11  17
ENDBRANCH   9  11
ENDBRANCH   8   9
ENDBRANCH   7   8
ENDBRANCH   6   7
ENDBRANCH   3   6
ENDBRANCH   2   3
TORSDOF 8
ENDMDL
MODEL      226
REMARK 921   NORMALIZED FREE ENERGY PREDICTED BY IDOCK:   -2.79 KCAL/MOL
REMARK 922        TOTAL FREE ENERGY PREDICTED BY IDOCK:   -4.68 KCAL/MOL
REMARK 923 INTER-LIGAND FREE ENERGY PREDICTED BY IDOCK:   -4.18 KCAL/MOL
REMARK 924 INTRA-LIGAND FREE ENERGY PREDICTED BY IDOCK:   -0.50 KCAL/MOL
REMARK 927      BINDING AFFINITY PREDICTED BY RF-SCORE:    0.00 PKD
ROOT
HETATM    1  C   UNL     1     -12.057  13.006  66.885  1.00  0.00    -0.349 C  
HETATM    2  C   UNL     1     -11.256  12.793  68.167  1.00  0.00    -0.272 C  
ENDROOT
BRANCH   2   3
HETATM    3  N   UNL     1     -11.090  11.383  68.565  1.00  0.00    -0.214 NA 
BRANCH   3   4
HETATM    4  C   UNL     1     -12.089  10.902  69.528  1.00  0.00    -0.309 C  
HETATM    5  C   UNL     1     -11.547  10.406  70.863  1.00  0.00    -0.428 C  
ENDBRANCH   3   4
BRANCH   3   6
HETATM    6  C   UNL     1     -10.957  10.540  67.353  1.00  0.00    -0.288 C  
BRANCH   6   7
HETATM    7  C   UNL     1      -9.599   9.832  67.216  1.00  0.00    -0.157 C  
BRANCH   7   8
HETATM    8  O   UNL     1      -9.554   8.533  67.842  1.00  0.00    -0.147 OA 
BRANCH   8   9
HETATM    9  C   UNL     1      -8.337   7.930  67.830  1.00  0.00    -0.126 C  
HETATM   10  O   UNL     1      -7.580   7.944  66.870  1.00  0.00    -0.095 OA 
BRANCH   9  11
HETATM   11  C   UNL     1      -7.992   7.254  69.185  1.00  0.00    -0.119 C  
HETATM   12  C   UNL     1      -8.582   8.073  70.362  1.00  0.00    -0.131 C  
HETATM   13  C   UNL     1      -6.430   7.300  69.281  1.00  0.00    -0.036 C  
HETATM   14  C   UNL     1      -5.854   8.707  69.467  1.00  0.00    -0.030 C  
HETATM   15  C   UNL     1      -7.977   9.464  70.544  1.00  0.00    -0.199 C  
HETATM   16  C   UNL     1      -6.465   9.386  70.683  1.00  0.00    -0.081 C  
BRANCH  11  17
HETATM   17  C   UNL     1      -8.529   5.759  69.107  1.00  0.00    -0.107 C  
HETATM   18  C   UNL     1      -8.133   4.823  70.270  1.00  0.00    -0.072 C  
HETATM   19  C   UNL     1     -10.393   4.988  71.358  1.00  0.00    -0.251 C  
HETATM   20  C   UNL     1     -10.929   5.722  70.129  1.00  0.00    -0.368 C  
HETATM   21  C   UNL     1      -8.890   5.126  71.557  1.00  0.00    -0.145 C  
HETATM   22  C   UNL     1     -10.052   5.597  68.876  1.00  0.00    -0.254 C  
ENDBRANCH  11  17
ENDBRANCH   9  11
ENDBRANCH   8   9
ENDBRANCH   7   8
ENDBRANCH   6   7
ENDBRANCH   3   6
ENDBRANCH   2   3
TORSDOF 8
ENDMDL
MODEL      227
REMARK 921   NORMALIZED FREE ENERGY PREDICTED BY IDOCK:   -2.78 KCAL/MOL
REMARK 922        TOTAL FREE ENERGY PREDICTED BY IDOCK:   -4.67 KCAL/MOL
REMARK 923 INTER-LIGAND FREE ENERGY PREDICTED BY IDOCK:   -4.55 KCAL/MOL
REMARK 924 INTRA-LIGAND FREE ENERGY PREDICTED BY IDOCK:   -0.12 KCAL/MOL
REMARK 927      BINDING AFFINITY PREDICTED BY RF-SCORE:    0.00 PKD
ROOT
HETATM    1  C   UNL     1     -10.904  16.333  69.376  1.00  0.00    -0.331 C  
HETATM    2  C   UNL     1     -11.426  15.675  70.652  1.00  0.00    -0.375 C  
ENDROOT
BRANCH   2   3
HETATM    3  N   UNL     1     -12.137  14.400  70.443  1.00  0.00    -0.309 NA 
BRANCH   3   4
HETATM    4  C   UNL     1     -13.480  14.352  71.035  1.00  0.00    -0.252 C  
HETATM    5  C   UNL     1     -13.647  13.436  72.241  1.00  0.00    -0.703 C  
ENDBRANCH   3   4
BRANCH   3   6
HETATM    6  C   UNL     1     -12.089  14.037  69.007  1.00  0.00    -0.323 C  
BRANCH   6   7
HETATM    7  C   UNL     1     -11.602  12.606  68.729  1.00  0.00    -0.313 C  
BRANCH   7   8
HETATM    8  O   UNL     1     -10.184  12.424  68.925  1.00  0.00    -0.139 OA 
BRANCH   8   9
HETATM    9  C   UNL     1      -9.793  11.143  69.150  1.00  0.00    -0.053 C  
HETATM   10  O   UNL     1     -10.209  10.458  70.073  1.00  0.00    -0.219 OA 
BRANCH   9  11
HETATM   11  C   UNL     1      -8.790  10.628  68.083  1.00  0.00    -0.134 C  
HETATM   12  C   UNL     1      -8.859  11.509  66.808  1.00  0.00    -0.183 C  
HETATM   13  C   UNL     1      -9.282   9.187  67.718  1.00  0.00    -0.145 C  
HETATM   14  C   UNL     1     -10.610   9.152  66.956  1.00  0.00    -0.266 C  
HETATM   15  C   UNL     1     -10.184  11.440  66.051  1.00  0.00    -0.289 C  
HETATM   16  C   UNL     1     -10.536  10.004  65.699  1.00  0.00    -0.048 C  
BRANCH  11  17
HETATM   17  C   UNL     1      -7.356  10.600  68.770  1.00  0.00    -0.100 C  
HETATM   18  C   UNL     1      -6.204   9.996  67.936  1.00  0.00    -0.057 C  
HETATM   19  C   UNL     1      -5.262  12.250  67.346  1.00  0.00    -0.105 C  
HETATM   20  C   UNL     1      -6.221  12.909  68.336  1.00  0.00    -0.079 C  
HETATM   21  C   UNL     1      -5.748  10.911  66.808  1.00  0.00    -0.080 C  
HETATM   22  C   UNL     1      -6.856  11.946  69.349  1.00  0.00    -0.048 C  
ENDBRANCH  11  17
ENDBRANCH   9  11
ENDBRANCH   8   9
ENDBRANCH   7   8
ENDBRANCH   6   7
ENDBRANCH   3   6
ENDBRANCH   2   3
TORSDOF 8
ENDMDL
MODEL      228
REMARK 921   NORMALIZED FREE ENERGY PREDICTED BY IDOCK:   -2.77 KCAL/MOL
REMARK 922        TOTAL FREE ENERGY PREDICTED BY IDOCK:   -4.65 KCAL/MOL
REMARK 923 INTER-LIGAND FREE ENERGY PREDICTED BY IDOCK:   -4.32 KCAL/MOL
REMARK 924 INTRA-LIGAND FREE ENERGY PREDICTED BY IDOCK:   -0.33 KCAL/MOL
REMARK 927      BINDING AFFINITY PREDICTED BY RF-SCORE:    0.00 PKD
ROOT
HETATM    1  C   UNL     1     -11.969  10.990  69.064  1.00  0.00    -0.364 C  
HETATM    2  C   UNL     1     -11.317  10.307  70.264  1.00  0.00    -0.323 C  
ENDROOT
BRANCH   2   3
HETATM    3  N   UNL     1     -12.071  10.425  71.526  1.00  0.00    -0.326 NA 
BRANCH   3   4
HETATM    4  C   UNL     1     -13.260  11.284  71.444  1.00  0.00    -0.169 C  
HETATM    5  C   UNL     1     -13.166  12.625  72.161  1.00  0.00    -0.527 C  
ENDBRANCH   3   4
BRANCH   3   6
HETATM    6  C   UNL     1     -12.333   9.072  72.072  1.00  0.00    -0.384 C  
BRANCH   6   7
HETATM    7  C   UNL     1     -11.779   7.922  71.216  1.00  0.00    -0.287 C  
BRANCH   7   8
HETATM    8  O   UNL     1     -10.906   7.027  71.936  1.00  0.00    -0.220 OA 
BRANCH   8   9
HETATM    9  C   UNL     1      -9.579   7.270  71.783  1.00  0.00    -0.150 C  
HETATM   10  O   UNL     1      -9.013   8.260  72.226  1.00  0.00    -0.172 OA 
BRANCH   9  11
HETATM   11  C   UNL     1      -8.846   6.135  71.019  1.00  0.00    -0.139 C  
HETATM   12  C   UNL     1      -7.340   6.474  70.862  1.00  0.00    -0.083 C  
HETATM   13  C   UNL     1      -9.500   6.108  69.597  1.00  0.00    -0.162 C  
HETATM   14  C   UNL     1      -9.181   7.334  68.736  1.00  0.00    -0.137 C  
HETATM   15  C   UNL     1      -7.044   7.686  69.980  1.00  0.00    -0.059 C  
HETATM   16  C   UNL     1      -7.678   7.529  68.608  1.00  0.00    -0.119 C  
BRANCH  11  17
HETATM   17  C   UNL     1      -9.123   4.787  71.815  1.00  0.00    -0.166 C  
HETATM   18  C   UNL     1     -10.033   3.749  71.120  1.00  0.00    -0.144 C  
HETATM   19  C   UNL     1      -8.097   2.297  70.443  1.00  0.00    -0.055 C  
HETATM   20  C   UNL     1      -7.161   3.143  71.304  1.00  0.00    -0.033 C  
HETATM   21  C   UNL     1      -9.341   3.035  69.967  1.00  0.00    -0.223 C  
HETATM   22  C   UNL     1      -7.871   4.035  72.332  1.00  0.00    -0.081 C  
ENDBRANCH  11  17
ENDBRANCH   9  11
ENDBRANCH   8   9
ENDBRANCH   7   8
ENDBRANCH   6   7
ENDBRANCH   3   6
ENDBRANCH   2   3
TORSDOF 8
ENDMDL
MODEL      229
REMARK 921   NORMALIZED FREE ENERGY PREDICTED BY IDOCK:   -2.76 KCAL/MOL
REMARK 922        TOTAL FREE ENERGY PREDICTED BY IDOCK:   -4.63 KCAL/MOL
REMARK 923 INTER-LIGAND FREE ENERGY PREDICTED BY IDOCK:   -4.55 KCAL/MOL
REMARK 924 INTRA-LIGAND FREE ENERGY PREDICTED BY IDOCK:   -0.08 KCAL/MOL
REMARK 927      BINDING AFFINITY PREDICTED BY RF-SCORE:    0.00 PKD
ROOT
HETATM    1  C   UNL     1     -14.296   8.466  71.908  1.00  0.00    -0.561 C  
HETATM    2  C   UNL     1     -12.879   9.016  72.049  1.00  0.00    -0.401 C  
ENDROOT
BRANCH   2   3
HETATM    3  N   UNL     1     -11.808   8.026  71.834  1.00  0.00    -0.290 NA 
BRANCH   3   4
HETATM    4  C   UNL     1     -12.284   6.652  71.632  1.00  0.00    -0.352 C  
HETATM    5  C   UNL     1     -11.673   5.592  72.541  1.00  0.00    -0.255 C  
ENDBRANCH   3   4
BRANCH   3   6
HETATM    6  C   UNL     1     -10.890   8.514  70.777  1.00  0.00    -0.231 C  
BRANCH   6   7
HETATM    7  C   UNL     1      -9.520   8.985  71.293  1.00  0.00    -0.269 C  
BRANCH   7   8
HETATM    8  O   UNL     1      -8.750   9.717  70.316  1.00  0.00    -0.218 OA 
BRANCH   8   9
HETATM    9  C   UNL     1      -8.269   8.972  69.286  1.00  0.00    -0.117 C  
HETATM   10  O   UNL     1      -7.624   7.945  69.433  1.00  0.00    -0.098 OA 
BRANCH   9  11
HETATM   11  C   UNL     1      -8.664   9.547  67.899  1.00  0.00    -0.119 C  
HETATM   12  C   UNL     1      -9.340   8.451  67.034  1.00  0.00    -0.202 C  
HETATM   13  C   UNL     1      -7.312   9.950  67.221  1.00  0.00    -0.087 C  
HETATM   14  C   UNL     1      -6.423   8.764  66.838  1.00  0.00    -0.061 C  
HETATM   15  C   UNL     1      -8.429   7.288  66.644  1.00  0.00    -0.124 C  
HETATM   16  C   UNL     1      -7.176   7.790  65.945  1.00  0.00    -0.072 C  
BRANCH  11  17
HETATM   17  C   UNL     1      -9.585  10.815  68.167  1.00  0.00    -0.167 C  
HETATM   18  C   UNL     1      -8.999  12.189  67.774  1.00  0.00    -0.179 C  
HETATM   19  C   UNL     1     -10.372  12.332  65.674  1.00  0.00    -0.287 C  
HETATM   20  C   UNL     1     -11.165  11.101  66.110  1.00  0.00    -0.059 C  
HETATM   21  C   UNL     1      -8.972  12.412  66.268  1.00  0.00    -0.041 C  
HETATM   22  C   UNL     1     -11.023  10.741  67.595  1.00  0.00    -0.365 C  
ENDBRANCH  11  17
ENDBRANCH   9  11
ENDBRANCH   8   9
ENDBRANCH   7   8
ENDBRANCH   6   7
ENDBRANCH   3   6
ENDBRANCH   2   3
TORSDOF 8
ENDMDL
MODEL      230
REMARK 921   NORMALIZED FREE ENERGY PREDICTED BY IDOCK:   -2.76 KCAL/MOL
REMARK 922        TOTAL FREE ENERGY PREDICTED BY IDOCK:   -4.63 KCAL/MOL
REMARK 923 INTER-LIGAND FREE ENERGY PREDICTED BY IDOCK:   -4.24 KCAL/MOL
REMARK 924 INTRA-LIGAND FREE ENERGY PREDICTED BY IDOCK:   -0.39 KCAL/MOL
REMARK 927      BINDING AFFINITY PREDICTED BY RF-SCORE:    0.00 PKD
ROOT
HETATM    1  C   UNL     1     -12.158  11.352  69.765  1.00  0.00    -0.388 C  
HETATM    2  C   UNL     1     -11.151  11.993  68.814  1.00  0.00    -0.249 C  
ENDROOT
BRANCH   2   3
HETATM    3  N   UNL     1     -11.233  11.524  67.418  1.00  0.00    -0.290 NA 
BRANCH   3   4
HETATM    4  C   UNL     1     -10.431  12.305  66.468  1.00  0.00    -0.227 C  
HETATM    5  C   UNL     1      -9.783  13.568  67.021  1.00  0.00    -0.251 C  
ENDBRANCH   3   4
BRANCH   3   6
HETATM    6  C   UNL     1     -10.981  10.064  67.372  1.00  0.00    -0.191 C  
BRANCH   6   7
HETATM    7  C   UNL     1      -9.686   9.664  66.647  1.00  0.00    -0.209 C  
BRANCH   7   8
HETATM    8  O   UNL     1      -9.708   8.325  66.111  1.00  0.00    -0.207 OA 
BRANCH   8   9
HETATM    9  C   UNL     1      -8.747   7.495  66.593  1.00  0.00    -0.138 C  
HETATM   10  O   UNL     1      -7.683   7.882  67.054  1.00  0.00    -0.097 OA 
BRANCH   9  11
HETATM   11  C   UNL     1      -9.163   6.000  66.535  1.00  0.00    -0.158 C  
HETATM   12  C   UNL     1     -10.680   5.850  66.826  1.00  0.00    -0.371 C  
HETATM   13  C   UNL     1      -8.365   5.306  67.688  1.00  0.00    -0.106 C  
HETATM   14  C   UNL     1      -8.815   5.710  69.095  1.00  0.00    -0.111 C  
HETATM   15  C   UNL     1     -11.102   6.237  68.243  1.00  0.00    -0.364 C  
HETATM   16  C   UNL     1     -10.304   5.464  69.279  1.00  0.00    -0.322 C  
BRANCH  11  17
HETATM   17  C   UNL     1      -8.725   5.453  65.107  1.00  0.00    -0.133 C  
HETATM   18  C   UNL     1      -7.270   4.949  64.979  1.00  0.00    -0.064 C  
HETATM   19  C   UNL     1      -7.949   2.532  65.079  1.00  0.00    -0.082 C  
HETATM   20  C   UNL     1      -9.417   2.940  64.971  1.00  0.00    -0.104 C  
HETATM   21  C   UNL     1      -7.045   3.609  65.665  1.00  0.00    -0.066 C  
HETATM   22  C   UNL     1      -9.647   4.377  64.482  1.00  0.00    -0.111 C  
ENDBRANCH  11  17
ENDBRANCH   9  11
ENDBRANCH   8   9
ENDBRANCH   7   8
ENDBRANCH   6   7
ENDBRANCH   3   6
ENDBRANCH   2   3
TORSDOF 8
ENDMDL
MODEL      231
REMARK 921   NORMALIZED FREE ENERGY PREDICTED BY IDOCK:   -2.75 KCAL/MOL
REMARK 922        TOTAL FREE ENERGY PREDICTED BY IDOCK:   -4.62 KCAL/MOL
REMARK 923 INTER-LIGAND FREE ENERGY PREDICTED BY IDOCK:   -4.38 KCAL/MOL
REMARK 924 INTRA-LIGAND FREE ENERGY PREDICTED BY IDOCK:   -0.25 KCAL/MOL
REMARK 927      BINDING AFFINITY PREDICTED BY RF-SCORE:    0.00 PKD
ROOT
HETATM    1  C   UNL     1     -12.069  13.679  64.346  1.00  0.00    -0.470 C  
HETATM    2  C   UNL     1     -10.726  13.675  65.073  1.00  0.00    -0.367 C  
ENDROOT
BRANCH   2   3
HETATM    3  N   UNL     1     -10.795  13.289  66.495  1.00  0.00    -0.280 NA 
BRANCH   3   4
HETATM    4  C   UNL     1     -11.104  14.395  67.409  1.00  0.00    -0.308 C  
HETATM    5  C   UNL     1     -10.444  15.731  67.090  1.00  0.00    -0.309 C  
ENDBRANCH   3   4
BRANCH   3   6
HETATM    6  C   UNL     1     -11.679  12.109  66.644  1.00  0.00    -0.313 C  
BRANCH   6   7
HETATM    7  C   UNL     1     -11.343  11.210  67.845  1.00  0.00    -0.309 C  
BRANCH   7   8
HETATM    8  O   UNL     1     -10.989   9.859  67.481  1.00  0.00    -0.282 OA 
BRANCH   8   9
HETATM    9  C   UNL     1      -9.655   9.618  67.391  1.00  0.00    -0.148 C  
HETATM   10  O   UNL     1      -8.818  10.487  67.193  1.00  0.00    -0.136 OA 
BRANCH   9  11
HETATM   11  C   UNL     1      -9.302   8.122  67.607  1.00  0.00    -0.160 C  
HETATM   12  C   UNL     1     -10.497   7.374  68.254  1.00  0.00    -0.231 C  
HETATM   13  C   UNL     1      -8.108   8.123  68.619  1.00  0.00    -0.124 C  
HETATM   14  C   UNL     1      -8.486   8.572  70.034  1.00  0.00    -0.125 C  
HETATM   15  C   UNL     1     -10.841   7.822  69.674  1.00  0.00    -0.185 C  
HETATM   16  C   UNL     1      -9.627   7.730  70.583  1.00  0.00    -0.166 C  
BRANCH  11  17
HETATM   17  C   UNL     1      -8.868   7.539  66.192  1.00  0.00    -0.185 C  
HETATM   18  C   UNL     1      -7.354   7.532  65.885  1.00  0.00    -0.074 C  
HETATM   19  C   UNL     1      -7.130   5.070  66.343  1.00  0.00    -0.072 C  
HETATM   20  C   UNL     1      -8.650   4.949  66.431  1.00  0.00    -0.110 C  
HETATM   21  C   UNL     1      -6.598   6.462  66.661  1.00  0.00    -0.048 C  
HETATM   22  C   UNL     1      -9.422   6.136  65.838  1.00  0.00     0.025 C  
ENDBRANCH  11  17
ENDBRANCH   9  11
ENDBRANCH   8   9
ENDBRANCH   7   8
ENDBRANCH   6   7
ENDBRANCH   3   6
ENDBRANCH   2   3
TORSDOF 8
ENDMDL
MODEL      232
REMARK 921   NORMALIZED FREE ENERGY PREDICTED BY IDOCK:   -2.75 KCAL/MOL
REMARK 922        TOTAL FREE ENERGY PREDICTED BY IDOCK:   -4.61 KCAL/MOL
REMARK 923 INTER-LIGAND FREE ENERGY PREDICTED BY IDOCK:   -3.93 KCAL/MOL
REMARK 924 INTRA-LIGAND FREE ENERGY PREDICTED BY IDOCK:   -0.68 KCAL/MOL
REMARK 927      BINDING AFFINITY PREDICTED BY RF-SCORE:    0.00 PKD
ROOT
HETATM    1  C   UNL     1      -8.047   6.592  71.884  1.00  0.00    -0.103 C  
HETATM    2  C   UNL     1      -9.415   7.242  72.072  1.00  0.00    -0.132 C  
ENDROOT
BRANCH   2   3
HETATM    3  N   UNL     1      -9.949   7.916  70.874  1.00  0.00    -0.182 NA 
BRANCH   3   4
HETATM    4  C   UNL     1     -11.324   7.534  70.526  1.00  0.00    -0.260 C  
HETATM    5  C   UNL     1     -11.475   6.578  69.350  1.00  0.00    -0.346 C  
ENDBRANCH   3   4
BRANCH   3   6
HETATM    6  C   UNL     1      -9.733   9.378  70.992  1.00  0.00    -0.223 C  
BRANCH   6   7
HETATM    7  C   UNL     1     -10.582  10.226  70.031  1.00  0.00    -0.269 C  
BRANCH   7   8
HETATM    8  O   UNL     1      -9.833  10.788  68.934  1.00  0.00    -0.187 OA 
BRANCH   8   9
HETATM    9  C   UNL     1     -10.042  10.195  67.729  1.00  0.00    -0.180 C  
HETATM   10  O   UNL     1     -11.066   9.595  67.435  1.00  0.00    -0.183 OA 
BRANCH   9  11
HETATM   11  C   UNL     1      -8.855  10.397  66.749  1.00  0.00    -0.139 C  
HETATM   12  C   UNL     1      -8.480  11.899  66.658  1.00  0.00    -0.143 C  
HETATM   13  C   UNL     1      -9.390   9.932  65.354  1.00  0.00    -0.297 C  
HETATM   14  C   UNL     1     -10.461  10.849  64.755  1.00  0.00    -0.373 C  
HETATM   15  C   UNL     1      -9.554  12.791  66.036  1.00  0.00    -0.182 C  
HETATM   16  C   UNL     1      -9.958  12.281  64.663  1.00  0.00    -0.212 C  
BRANCH  11  17
HETATM   17  C   UNL     1      -7.670   9.468  67.260  1.00  0.00    -0.091 C  
HETATM   18  C   UNL     1      -8.031   7.999  67.573  1.00  0.00    -0.122 C  
HETATM   19  C   UNL     1      -7.029   7.148  65.431  1.00  0.00    -0.056 C  
HETATM   20  C   UNL     1      -6.433   8.529  65.163  1.00  0.00    -0.063 C  
HETATM   21  C   UNL     1      -8.266   7.167  66.320  1.00  0.00    -0.124 C  
HETATM   22  C   UNL     1      -6.392   9.456  66.385  1.00  0.00    -0.065 C  
ENDBRANCH  11  17
ENDBRANCH   9  11
ENDBRANCH   8   9
ENDBRANCH   7   8
ENDBRANCH   6   7
ENDBRANCH   3   6
ENDBRANCH   2   3
TORSDOF 8
ENDMDL
MODEL      233
REMARK 921   NORMALIZED FREE ENERGY PREDICTED BY IDOCK:   -2.74 KCAL/MOL
REMARK 922        TOTAL FREE ENERGY PREDICTED BY IDOCK:   -4.61 KCAL/MOL
REMARK 923 INTER-LIGAND FREE ENERGY PREDICTED BY IDOCK:   -4.41 KCAL/MOL
REMARK 924 INTRA-LIGAND FREE ENERGY PREDICTED BY IDOCK:   -0.20 KCAL/MOL
REMARK 927      BINDING AFFINITY PREDICTED BY RF-SCORE:    0.00 PKD
ROOT
HETATM    1  C   UNL     1     -12.234  14.117  64.661  1.00  0.00    -0.465 C  
HETATM    2  C   UNL     1     -11.228  15.032  65.355  1.00  0.00    -0.356 C  
ENDROOT
BRANCH   2   3
HETATM    3  N   UNL     1     -10.649  14.484  66.596  1.00  0.00    -0.280 NA 
BRANCH   3   4
HETATM    4  C   UNL     1     -11.054  15.192  67.817  1.00  0.00    -0.313 C  
HETATM    5  C   UNL     1     -10.019  16.135  68.418  1.00  0.00    -0.230 C  
ENDBRANCH   3   4
BRANCH   3   6
HETATM    6  C   UNL     1     -10.868  13.019  66.638  1.00  0.00    -0.275 C  
BRANCH   6   7
HETATM    7  C   UNL     1      -9.598  12.179  66.424  1.00  0.00    -0.234 C  
BRANCH   7   8
HETATM    8  O   UNL     1      -9.639  10.888  67.067  1.00  0.00    -0.170 OA 
BRANCH   8   9
HETATM    9  C   UNL     1      -9.676   9.825  66.221  1.00  0.00    -0.234 C  
HETATM   10  O   UNL     1     -10.421   9.751  65.255  1.00  0.00     0.033 OA 
BRANCH   9  11
HETATM   11  C   UNL     1      -8.639   8.730  66.591  1.00  0.00    -0.120 C  
HETATM   12  C   UNL     1      -7.221   9.348  66.708  1.00  0.00    -0.083 C  
HETATM   13  C   UNL     1      -8.649   7.731  65.387  1.00  0.00    -0.092 C  
HETATM   14  C   UNL     1      -8.064   8.304  64.092  1.00  0.00    -0.136 C  
HETATM   15  C   UNL     1      -6.648   9.891  65.400  1.00  0.00    -0.099 C  
HETATM   16  C   UNL     1      -6.654   8.824  64.318  1.00  0.00    -0.071 C  
BRANCH  11  17
HETATM   17  C   UNL     1      -9.153   8.039  67.928  1.00  0.00    -0.134 C  
HETATM   18  C   UNL     1     -10.657   7.694  67.992  1.00  0.00    -0.213 C  
HETATM   19  C   UNL     1     -10.259   5.253  67.544  1.00  0.00    -0.229 C  
HETATM   20  C   UNL     1      -8.755   5.470  67.700  1.00  0.00    -0.107 C  
HETATM   21  C   UNL     1     -11.027   6.499  67.123  1.00  0.00    -0.480 C  
HETATM   22  C   UNL     1      -8.367   6.786  68.389  1.00  0.00    -0.123 C  
ENDBRANCH  11  17
ENDBRANCH   9  11
ENDBRANCH   8   9
ENDBRANCH   7   8
ENDBRANCH   6   7
ENDBRANCH   3   6
ENDBRANCH   2   3
TORSDOF 8
ENDMDL
MODEL      234
REMARK 921   NORMALIZED FREE ENERGY PREDICTED BY IDOCK:   -2.71 KCAL/MOL
REMARK 922        TOTAL FREE ENERGY PREDICTED BY IDOCK:   -4.56 KCAL/MOL
REMARK 923 INTER-LIGAND FREE ENERGY PREDICTED BY IDOCK:   -4.00 KCAL/MOL
REMARK 924 INTRA-LIGAND FREE ENERGY PREDICTED BY IDOCK:   -0.56 KCAL/MOL
REMARK 927      BINDING AFFINITY PREDICTED BY RF-SCORE:    0.00 PKD
ROOT
HETATM    1  C   UNL     1      -5.742   3.056  66.307  1.00  0.00    -0.022 C  
HETATM    2  C   UNL     1      -6.109   4.092  67.366  1.00  0.00    -0.028 C  
ENDROOT
BRANCH   2   3
HETATM    3  N   UNL     1      -7.348   4.843  67.091  1.00  0.00    -0.080 NA 
BRANCH   3   4
HETATM    4  C   UNL     1      -7.162   6.033  66.251  1.00  0.00    -0.076 C  
HETATM    5  C   UNL     1      -8.432   6.769  65.842  1.00  0.00    -0.146 C  
ENDBRANCH   3   4
BRANCH   3   6
HETATM    6  C   UNL     1      -8.393   3.911  66.605  1.00  0.00    -0.104 C  
BRANCH   6   7
HETATM    7  C   UNL     1      -9.531   3.653  67.606  1.00  0.00    -0.185 C  
BRANCH   7   8
HETATM    8  O   UNL     1      -9.635   4.653  68.641  1.00  0.00    -0.146 OA 
BRANCH   8   9
HETATM    9  C   UNL     1      -9.669   4.168  69.909  1.00  0.00    -0.210 C  
HETATM   10  O   UNL     1      -9.620   2.977  70.183  1.00  0.00    -0.161 OA 
BRANCH   9  11
HETATM   11  C   UNL     1      -9.735   5.292  70.978  1.00  0.00    -0.242 C  
HETATM   12  C   UNL     1      -8.554   6.281  70.794  1.00  0.00    -0.135 C  
HETATM   13  C   UNL     1      -9.564   4.563  72.353  1.00  0.00    -0.193 C  
HETATM   14  C   UNL     1      -8.167   3.981  72.584  1.00  0.00    -0.095 C  
HETATM   15  C   UNL     1      -7.172   5.684  71.053  1.00  0.00    -0.076 C  
HETATM   16  C   UNL     1      -7.101   5.054  72.435  1.00  0.00    -0.084 C  
BRANCH  11  17
HETATM   17  C   UNL     1     -11.168   5.969  70.850  1.00  0.00    -0.335 C  
HETATM   18  C   UNL     1     -11.867   6.360  72.171  1.00  0.00    -0.361 C  
HETATM   19  C   UNL     1     -11.308   8.796  71.911  1.00  0.00    -0.431 C  
HETATM   20  C   UNL     1     -10.809   8.529  70.492  1.00  0.00    -0.252 C  
HETATM   21  C   UNL     1     -11.246   7.583  72.830  1.00  0.00    -0.396 C  
HETATM   22  C   UNL     1     -11.259   7.188  69.897  1.00  0.00    -0.241 C  
ENDBRANCH  11  17
ENDBRANCH   9  11
ENDBRANCH   8   9
ENDBRANCH   7   8
ENDBRANCH   6   7
ENDBRANCH   3   6
ENDBRANCH   2   3
TORSDOF 8
ENDMDL
MODEL      235
REMARK 921   NORMALIZED FREE ENERGY PREDICTED BY IDOCK:   -2.68 KCAL/MOL
REMARK 922        TOTAL FREE ENERGY PREDICTED BY IDOCK:   -4.52 KCAL/MOL
REMARK 923 INTER-LIGAND FREE ENERGY PREDICTED BY IDOCK:   -5.16 KCAL/MOL
REMARK 924 INTRA-LIGAND FREE ENERGY PREDICTED BY IDOCK:    0.63 KCAL/MOL
REMARK 927      BINDING AFFINITY PREDICTED BY RF-SCORE:    0.00 PKD
ROOT
HETATM    1  C   UNL     1     -10.709  12.409  63.656  1.00  0.00    -0.497 C  
HETATM    2  C   UNL     1     -11.463  12.326  64.981  1.00  0.00    -0.336 C  
ENDROOT
BRANCH   2   3
HETATM    3  N   UNL     1     -10.983  11.277  65.900  1.00  0.00    -0.209 NA 
BRANCH   3   4
HETATM    4  C   UNL     1     -10.272  10.173  65.241  1.00  0.00    -0.191 C  
HETATM    5  C   UNL     1      -9.911   8.988  66.127  1.00  0.00    -0.349 C  
ENDBRANCH   3   4
BRANCH   3   6
HETATM    6  C   UNL     1     -10.237  11.902  67.017  1.00  0.00    -0.210 C  
BRANCH   6   7
HETATM    7  C   UNL     1     -10.485  13.410  67.183  1.00  0.00    -0.249 C  
BRANCH   7   8
HETATM    8  O   UNL     1      -9.578  14.238  66.425  1.00  0.00    -0.282 OA 
BRANCH   8   9
HETATM    9  C   UNL     1      -8.333  14.360  66.952  1.00  0.00    -0.078 C  
HETATM   10  O   UNL     1      -7.557  13.425  67.088  1.00  0.00    -0.102 OA 
BRANCH   9  11
HETATM   11  C   UNL     1      -7.984  15.826  67.327  1.00  0.00    -0.216 C  
HETATM   12  C   UNL     1      -6.447  16.000  67.450  1.00  0.00    -0.214 C  
HETATM   13  C   UNL     1      -8.624  16.053  68.737  1.00  0.00    -0.223 C  
HETATM   14  C   UNL     1      -7.954  15.264  69.866  1.00  0.00     0.097 C  
HETATM   15  C   UNL     1      -5.803  15.222  68.597  1.00  0.00    -0.088 C  
HETATM   16  C   UNL     1      -6.464  15.561  69.923  1.00  0.00    -0.146 C  
BRANCH  11  17
HETATM   17  C   UNL     1      -8.651  16.757  66.225  1.00  0.00    -0.340 C  
HETATM   18  C   UNL     1     -10.135  17.128  66.441  1.00  0.00    -0.326 C  
HETATM   19  C   UNL     1      -9.585  19.439  67.261  1.00  0.00    -0.415 C  
HETATM   20  C   UNL     1      -8.127  19.235  66.853  1.00  0.00    -0.285 C  
HETATM   21  C   UNL     1     -10.334  18.146  67.555  1.00  0.00    -0.405 C  
HETATM   22  C   UNL     1      -7.889  18.064  65.890  1.00  0.00    -0.093 C  
ENDBRANCH  11  17
ENDBRANCH   9  11
ENDBRANCH   8   9
ENDBRANCH   7   8
ENDBRANCH   6   7
ENDBRANCH   3   6
ENDBRANCH   2   3
TORSDOF 8
ENDMDL
MODEL      236
REMARK 921   NORMALIZED FREE ENERGY PREDICTED BY IDOCK:   -2.68 KCAL/MOL
REMARK 922        TOTAL FREE ENERGY PREDICTED BY IDOCK:   -4.51 KCAL/MOL
REMARK 923 INTER-LIGAND FREE ENERGY PREDICTED BY IDOCK:   -4.05 KCAL/MOL
REMARK 924 INTRA-LIGAND FREE ENERGY PREDICTED BY IDOCK:   -0.47 KCAL/MOL
REMARK 927      BINDING AFFINITY PREDICTED BY RF-SCORE:    0.00 PKD
ROOT
HETATM    1  C   UNL     1      -7.086  14.072  67.907  1.00  0.00    -0.166 C  
HETATM    2  C   UNL     1      -7.980  12.972  67.342  1.00  0.00    -0.172 C  
ENDROOT
BRANCH   2   3
HETATM    3  N   UNL     1      -9.427  13.244  67.434  1.00  0.00    -0.211 NA 
BRANCH   3   4
HETATM    4  C   UNL     1     -10.114  13.311  66.137  1.00  0.00    -0.293 C  
HETATM    5  C   UNL     1      -9.947  14.611  65.359  1.00  0.00    -0.365 C  
ENDBRANCH   3   4
BRANCH   3   6
HETATM    6  C   UNL     1     -10.045  12.309  68.403  1.00  0.00    -0.215 C  
BRANCH   6   7
HETATM    7  C   UNL     1      -9.627  10.840  68.226  1.00  0.00    -0.166 C  
BRANCH   7   8
HETATM    8  O   UNL     1      -9.835  10.029  69.401  1.00  0.00    -0.199 OA 
BRANCH   8   9
HETATM    9  C   UNL     1     -10.897   9.185  69.338  1.00  0.00    -0.151 C  
HETATM   10  O   UNL     1     -11.976   9.486  68.848  1.00  0.00     0.686 OA 
BRANCH   9  11
HETATM   11  C   UNL     1     -10.581   7.781  69.920  1.00  0.00    -0.239 C  
HETATM   12  C   UNL     1      -9.067   7.471  69.789  1.00  0.00    -0.140 C  
HETATM   13  C   UNL     1     -11.374   6.775  69.020  1.00  0.00    -0.152 C  
HETATM   14  C   UNL     1     -10.841   6.658  67.590  1.00  0.00    -0.393 C  
HETATM   15  C   UNL     1      -8.562   7.336  68.353  1.00  0.00    -0.124 C  
HETATM   16  C   UNL     1      -9.364   6.295  67.590  1.00  0.00    -0.116 C  
BRANCH  11  17
HETATM   17  C   UNL     1     -11.113   7.770  71.419  1.00  0.00    -0.268 C  
HETATM   18  C   UNL     1     -11.460   6.388  72.017  1.00  0.00    -0.350 C  
HETATM   19  C   UNL     1      -9.338   6.279  73.359  1.00  0.00    -0.137 C  
HETATM   20  C   UNL     1      -9.037   7.733  73.000  1.00  0.00    -0.269 C  
HETATM   21  C   UNL     1     -10.226   5.561  72.351  1.00  0.00    -0.238 C  
HETATM   22  C   UNL     1     -10.238   8.519  72.454  1.00  0.00    -0.369 C  
ENDBRANCH  11  17
ENDBRANCH   9  11
ENDBRANCH   8   9
ENDBRANCH   7   8
ENDBRANCH   6   7
ENDBRANCH   3   6
ENDBRANCH   2   3
TORSDOF 8
ENDMDL
MODEL      237
REMARK 921   NORMALIZED FREE ENERGY PREDICTED BY IDOCK:   -2.67 KCAL/MOL
REMARK 922        TOTAL FREE ENERGY PREDICTED BY IDOCK:   -4.51 KCAL/MOL
REMARK 923 INTER-LIGAND FREE ENERGY PREDICTED BY IDOCK:   -3.83 KCAL/MOL
REMARK 924 INTRA-LIGAND FREE ENERGY PREDICTED BY IDOCK:   -0.68 KCAL/MOL
REMARK 927      BINDING AFFINITY PREDICTED BY RF-SCORE:    0.00 PKD
ROOT
HETATM    1  C   UNL     1     -10.534   9.866  66.674  1.00  0.00    -0.239 C  
HETATM    2  C   UNL     1      -9.775   9.610  65.374  1.00  0.00    -0.295 C  
ENDROOT
BRANCH   2   3
HETATM    3  N   UNL     1      -8.481   8.921  65.540  1.00  0.00    -0.149 NA 
BRANCH   3   4
HETATM    4  C   UNL     1      -7.691   8.812  64.306  1.00  0.00    -0.125 C  
HETATM    5  C   UNL     1      -8.213   9.592  63.107  1.00  0.00    -0.155 C  
ENDBRANCH   3   4
BRANCH   3   6
HETATM    6  C   UNL     1      -7.748   9.515  66.683  1.00  0.00    -0.098 C  
BRANCH   6   7
HETATM    7  C   UNL     1      -7.043   8.491  67.587  1.00  0.00    -0.080 C  
BRANCH   7   8
HETATM    8  O   UNL     1      -7.806   8.121  68.754  1.00  0.00    -0.109 OA 
BRANCH   8   9
HETATM    9  C   UNL     1      -7.673   6.826  69.142  1.00  0.00    -0.106 C  
HETATM   10  O   UNL     1      -6.614   6.216  69.125  1.00  0.00    -0.044 OA 
BRANCH   9  11
HETATM   11  C   UNL     1      -9.007   6.214  69.649  1.00  0.00    -0.134 C  
HETATM   12  C   UNL     1      -8.809   4.721  70.019  1.00  0.00    -0.122 C  
HETATM   13  C   UNL     1      -9.987   6.298  68.432  1.00  0.00    -0.156 C  
HETATM   14  C   UNL     1      -9.627   5.367  67.270  1.00  0.00    -0.140 C  
HETATM   15  C   UNL     1      -8.473   3.806  68.842  1.00  0.00    -0.101 C  
HETATM   16  C   UNL     1      -9.518   3.927  67.744  1.00  0.00    -0.230 C  
BRANCH  11  17
HETATM   17  C   UNL     1      -9.500   7.118  70.861  1.00  0.00    -0.160 C  
HETATM   18  C   UNL     1     -10.885   7.784  70.705  1.00  0.00    -0.245 C  
HETATM   19  C   UNL     1     -12.011   6.120  72.216  1.00  0.00    -0.285 C  
HETATM   20  C   UNL     1     -10.647   5.553  72.606  1.00  0.00    -0.270 C  
HETATM   21  C   UNL     1     -12.036   6.797  70.852  1.00  0.00    -0.437 C  
HETATM   22  C   UNL     1      -9.456   6.457  72.261  1.00  0.00    -0.149 C  
ENDBRANCH  11  17
ENDBRANCH   9  11
ENDBRANCH   8   9
ENDBRANCH   7   8
ENDBRANCH   6   7
ENDBRANCH   3   6
ENDBRANCH   2   3
TORSDOF 8
ENDMDL
MODEL      238
REMARK 921   NORMALIZED FREE ENERGY PREDICTED BY IDOCK:   -2.67 KCAL/MOL
REMARK 922        TOTAL FREE ENERGY PREDICTED BY IDOCK:   -4.50 KCAL/MOL
REMARK 923 INTER-LIGAND FREE ENERGY PREDICTED BY IDOCK:   -4.69 KCAL/MOL
REMARK 924 INTRA-LIGAND FREE ENERGY PREDICTED BY IDOCK:    0.19 KCAL/MOL
REMARK 927      BINDING AFFINITY PREDICTED BY RF-SCORE:    0.00 PKD
ROOT
HETATM    1  C   UNL     1     -12.839  15.660  71.723  1.00  0.00    -0.530 C  
HETATM    2  C   UNL     1     -11.462  15.107  71.363  1.00  0.00    -0.354 C  
ENDROOT
BRANCH   2   3
HETATM    3  N   UNL     1     -10.757  15.848  70.301  1.00  0.00    -0.321 NA 
BRANCH   3   4
HETATM    4  C   UNL     1      -9.336  15.504  70.163  1.00  0.00     0.369 C  
HETATM    5  C   UNL     1      -8.656  15.974  68.883  1.00  0.00    -0.229 C  
ENDBRANCH   3   4
BRANCH   3   6
HETATM    6  C   UNL     1     -11.531  15.760  69.040  1.00  0.00    -0.391 C  
BRANCH   6   7
HETATM    7  C   UNL     1     -12.427  14.516  68.929  1.00  0.00     0.102 C  
BRANCH   7   8
HETATM    8  O   UNL     1     -11.720  13.322  68.533  1.00  0.00    -0.310 OA 
BRANCH   8   9
HETATM    9  C   UNL     1     -11.785  13.026  67.209  1.00  0.00    -0.375 C  
HETATM   10  O   UNL     1     -12.774  13.221  66.517  1.00  0.00    -0.202 OA 
BRANCH   9  11
HETATM   11  C   UNL     1     -10.453  12.450  66.658  1.00  0.00    -0.251 C  
HETATM   12  C   UNL     1      -9.668  13.546  65.891  1.00  0.00    -0.199 C  
HETATM   13  C   UNL     1     -10.875  11.337  65.642  1.00  0.00    -0.242 C  
HETATM   14  C   UNL     1     -11.545  11.869  64.372  1.00  0.00    -0.369 C  
HETATM   15  C   UNL     1     -10.344  14.045  64.614  1.00  0.00    -0.337 C  
HETATM   16  C   UNL     1     -10.658  12.890  63.678  1.00  0.00    -0.171 C  
BRANCH  11  17
HETATM   17  C   UNL     1      -9.664  11.842  67.898  1.00  0.00    -0.185 C  
HETATM   18  C   UNL     1      -9.597  10.301  67.983  1.00  0.00    -0.159 C  
HETATM   19  C   UNL     1      -7.228  10.217  67.146  1.00  0.00    -0.090 C  
HETATM   20  C   UNL     1      -7.136  11.738  67.259  1.00  0.00    -0.140 C  
HETATM   21  C   UNL     1      -8.646   9.693  66.961  1.00  0.00    -0.131 C  
HETATM   22  C   UNL     1      -8.230  12.383  68.120  1.00  0.00    -0.173 C  
ENDBRANCH  11  17
ENDBRANCH   9  11
ENDBRANCH   8   9
ENDBRANCH   7   8
ENDBRANCH   6   7
ENDBRANCH   3   6
ENDBRANCH   2   3
TORSDOF 8
ENDMDL
MODEL      239
REMARK 921   NORMALIZED FREE ENERGY PREDICTED BY IDOCK:   -2.65 KCAL/MOL
REMARK 922        TOTAL FREE ENERGY PREDICTED BY IDOCK:   -4.47 KCAL/MOL
REMARK 923 INTER-LIGAND FREE ENERGY PREDICTED BY IDOCK:   -4.43 KCAL/MOL
REMARK 924 INTRA-LIGAND FREE ENERGY PREDICTED BY IDOCK:   -0.04 KCAL/MOL
REMARK 927      BINDING AFFINITY PREDICTED BY RF-SCORE:    0.00 PKD
ROOT
HETATM    1  C   UNL     1     -14.112   8.678  72.167  1.00  0.00    -0.511 C  
HETATM    2  C   UNL     1     -13.340   9.729  71.374  1.00  0.00    -0.371 C  
ENDROOT
BRANCH   2   3
HETATM    3  N   UNL     1     -11.874   9.572  71.404  1.00  0.00    -0.361 NA 
BRANCH   3   4
HETATM    4  C   UNL     1     -11.395   8.529  72.320  1.00  0.00    -0.371 C  
HETATM    5  C   UNL     1     -10.353   7.571  71.756  1.00  0.00    -0.221 C  
ENDBRANCH   3   4
BRANCH   3   6
HETATM    6  C   UNL     1     -11.362   9.450  70.019  1.00  0.00    -0.141 C  
BRANCH   6   7
HETATM    7  C   UNL     1     -10.664  10.711  69.484  1.00  0.00    -0.251 C  
BRANCH   7   8
HETATM    8  O   UNL     1      -9.735  10.452  68.411  1.00  0.00    -0.150 OA 
BRANCH   8   9
HETATM    9  C   UNL     1     -10.305  10.114  67.225  1.00  0.00    -0.237 C  
HETATM   10  O   UNL     1     -11.383   9.546  67.126  1.00  0.00     0.242 OA 
BRANCH   9  11
HETATM   11  C   UNL     1      -9.458  10.565  66.004  1.00  0.00    -0.227 C  
HETATM   12  C   UNL     1      -8.938  12.012  66.214  1.00  0.00    -0.129 C  
HETATM   13  C   UNL     1     -10.449  10.564  64.793  1.00  0.00    -0.198 C  
HETATM   14  C   UNL     1     -11.523  11.654  64.860  1.00  0.00    -0.205 C  
HETATM   15  C   UNL     1     -10.025  13.085  66.254  1.00  0.00    -0.283 C  
HETATM   16  C   UNL     1     -10.891  13.029  65.006  1.00  0.00    -0.328 C  
BRANCH  11  17
HETATM   17  C   UNL     1      -8.304   9.487  65.817  1.00  0.00    -0.132 C  
HETATM   18  C   UNL     1      -8.031   9.014  64.372  1.00  0.00    -0.133 C  
HETATM   19  C   UNL     1      -5.971  10.438  64.146  1.00  0.00    -0.103 C  
HETATM   20  C   UNL     1      -6.039  10.769  65.637  1.00  0.00    -0.097 C  
HETATM   21  C   UNL     1      -7.314  10.063  63.532  1.00  0.00    -0.138 C  
HETATM   22  C   UNL     1      -6.939   9.837  66.459  1.00  0.00    -0.085 C  
ENDBRANCH  11  17
ENDBRANCH   9  11
ENDBRANCH   8   9
ENDBRANCH   7   8
ENDBRANCH   6   7
ENDBRANCH   3   6
ENDBRANCH   2   3
TORSDOF 8
ENDMDL
MODEL      240
REMARK 921   NORMALIZED FREE ENERGY PREDICTED BY IDOCK:   -2.64 KCAL/MOL
REMARK 922        TOTAL FREE ENERGY PREDICTED BY IDOCK:   -4.46 KCAL/MOL
REMARK 923 INTER-LIGAND FREE ENERGY PREDICTED BY IDOCK:   -3.91 KCAL/MOL
REMARK 924 INTRA-LIGAND FREE ENERGY PREDICTED BY IDOCK:   -0.55 KCAL/MOL
REMARK 927      BINDING AFFINITY PREDICTED BY RF-SCORE:    0.00 PKD
ROOT
HETATM    1  C   UNL     1     -10.296   4.960  66.164  1.00  0.00    -0.329 C  
HETATM    2  C   UNL     1      -8.861   5.481  66.158  1.00  0.00    -0.139 C  
ENDROOT
BRANCH   2   3
HETATM    3  N   UNL     1      -8.728   6.929  66.405  1.00  0.00    -0.136 NA 
BRANCH   3   4
HETATM    4  C   UNL     1      -7.951   7.648  65.387  1.00  0.00    -0.123 C  
HETATM    5  C   UNL     1      -6.605   8.201  65.841  1.00  0.00    -0.046 C  
ENDBRANCH   3   4
BRANCH   3   6
HETATM    6  C   UNL     1     -10.065   7.509  66.673  1.00  0.00    -0.193 C  
BRANCH   6   7
HETATM    7  C   UNL     1     -10.119   8.452  67.886  1.00  0.00    -0.203 C  
BRANCH   7   8
HETATM    8  O   UNL     1     -10.317   7.772  69.143  1.00  0.00    -0.208 OA 
BRANCH   8   9
HETATM    9  C   UNL     1      -9.239   7.761  69.969  1.00  0.00    -0.153 C  
HETATM   10  O   UNL     1      -8.294   8.530  69.864  1.00  0.00    -0.117 OA 
BRANCH   9  11
HETATM   11  C   UNL     1      -9.353   6.690  71.088  1.00  0.00    -0.164 C  
HETATM   12  C   UNL     1     -10.757   6.031  71.062  1.00  0.00    -0.325 C  
HETATM   13  C   UNL     1      -9.199   7.480  72.430  1.00  0.00    -0.188 C  
HETATM   14  C   UNL     1     -10.375   8.407  72.751  1.00  0.00    -0.239 C  
HETATM   15  C   UNL     1     -11.913   6.969  71.408  1.00  0.00    -0.380 C  
HETATM   16  C   UNL     1     -11.686   7.638  72.753  1.00  0.00    -0.276 C  
BRANCH  11  17
HETATM   17  C   UNL     1      -8.157   5.665  70.872  1.00  0.00    -0.118 C  
HETATM   18  C   UNL     1      -7.408   5.202  72.141  1.00  0.00    -0.091 C  
HETATM   19  C   UNL     1      -8.570   2.975  72.186  1.00  0.00    -0.092 C  
HETATM   20  C   UNL     1      -9.170   3.261  70.810  1.00  0.00    -0.208 C  
HETATM   21  C   UNL     1      -8.217   4.224  72.982  1.00  0.00    -0.091 C  
HETATM   22  C   UNL     1      -8.489   4.401  70.040  1.00  0.00    -0.087 C  
ENDBRANCH  11  17
ENDBRANCH   9  11
ENDBRANCH   8   9
ENDBRANCH   7   8
ENDBRANCH   6   7
ENDBRANCH   3   6
ENDBRANCH   2   3
TORSDOF 8
ENDMDL
MODEL      241
REMARK 921   NORMALIZED FREE ENERGY PREDICTED BY IDOCK:   -2.64 KCAL/MOL
REMARK 922        TOTAL FREE ENERGY PREDICTED BY IDOCK:   -4.46 KCAL/MOL
REMARK 923 INTER-LIGAND FREE ENERGY PREDICTED BY IDOCK:   -3.77 KCAL/MOL
REMARK 924 INTRA-LIGAND FREE ENERGY PREDICTED BY IDOCK:   -0.69 KCAL/MOL
REMARK 927      BINDING AFFINITY PREDICTED BY RF-SCORE:    0.00 PKD
ROOT
HETATM    1  C   UNL     1      -8.517   8.868  64.177  1.00  0.00    -0.156 C  
HETATM    2  C   UNL     1      -7.782   7.668  64.769  1.00  0.00    -0.116 C  
ENDROOT
BRANCH   2   3
HETATM    3  N   UNL     1      -6.780   8.004  65.798  1.00  0.00    -0.048 NA 
BRANCH   3   4
HETATM    4  C   UNL     1      -5.701   7.017  65.937  1.00  0.00    -0.031 C  
HETATM    5  C   UNL     1      -6.104   5.557  65.772  1.00  0.00    -0.033 C  
ENDBRANCH   3   4
BRANCH   3   6
HETATM    6  C   UNL     1      -6.312   9.395  65.596  1.00  0.00    -0.068 C  
BRANCH   6   7
HETATM    7  C   UNL     1      -6.546  10.326  66.797  1.00  0.00    -0.075 C  
BRANCH   7   8
HETATM    8  O   UNL     1      -7.384  11.462  66.499  1.00  0.00    -0.133 OA 
BRANCH   8   9
HETATM    9  C   UNL     1      -8.072  11.964  67.558  1.00  0.00    -0.156 C  
HETATM   10  O   UNL     1      -7.698  11.871  68.718  1.00  0.00    -0.127 OA 
BRANCH   9  11
HETATM   11  C   UNL     1      -9.366  12.708  67.131  1.00  0.00    -0.210 C  
HETATM   12  C   UNL     1     -10.246  13.015  68.371  1.00  0.00    -0.246 C  
HETATM   13  C   UNL     1     -10.136  11.700  66.213  1.00  0.00    -0.254 C  
HETATM   14  C   UNL     1     -10.694  10.480  66.951  1.00  0.00    -0.281 C  
HETATM   15  C   UNL     1     -10.811  11.783  69.078  1.00  0.00    -0.239 C  
HETATM   16  C   UNL     1     -11.584  10.906  68.107  1.00  0.00    -0.317 C  
BRANCH  11  17
HETATM   17  C   UNL     1      -8.913  14.003  66.327  1.00  0.00     0.053 C  
HETATM   18  C   UNL     1      -9.951  14.610  65.357  1.00  0.00    -0.365 C  
HETATM   19  C   UNL     1     -10.541  16.477  66.933  1.00  0.00    -0.238 C  
HETATM   20  C   UNL     1      -9.376  16.080  67.838  1.00  0.00    -0.208 C  
HETATM   21  C   UNL     1     -11.078  15.338  66.076  1.00  0.00    -0.278 C  
HETATM   22  C   UNL     1      -8.338  15.162  67.178  1.00  0.00    -0.247 C  
ENDBRANCH  11  17
ENDBRANCH   9  11
ENDBRANCH   8   9
ENDBRANCH   7   8
ENDBRANCH   6   7
ENDBRANCH   3   6
ENDBRANCH   2   3
TORSDOF 8
ENDMDL
MODEL      242
REMARK 921   NORMALIZED FREE ENERGY PREDICTED BY IDOCK:   -2.62 KCAL/MOL
REMARK 922        TOTAL FREE ENERGY PREDICTED BY IDOCK:   -4.43 KCAL/MOL
REMARK 923 INTER-LIGAND FREE ENERGY PREDICTED BY IDOCK:   -3.93 KCAL/MOL
REMARK 924 INTRA-LIGAND FREE ENERGY PREDICTED BY IDOCK:   -0.50 KCAL/MOL
REMARK 927      BINDING AFFINITY PREDICTED BY RF-SCORE:    0.00 PKD
ROOT
HETATM    1  C   UNL     1      -5.878   4.404  66.072  1.00  0.00    -0.023 C  
HETATM    2  C   UNL     1      -6.734   3.727  65.005  1.00  0.00    -0.048 C  
ENDROOT
BRANCH   2   3
HETATM    3  N   UNL     1      -8.143   4.161  64.976  1.00  0.00    -0.096 NA 
BRANCH   3   4
HETATM    4  C   UNL     1      -8.870   3.776  63.759  1.00  0.00    -0.100 C  
HETATM    5  C   UNL     1     -10.372   3.569  63.915  1.00  0.00    -0.244 C  
ENDBRANCH   3   4
BRANCH   3   6
HETATM    6  C   UNL     1      -8.809   3.760  66.237  1.00  0.00    -0.128 C  
BRANCH   6   7
HETATM    7  C   UNL     1      -9.285   4.936  67.107  1.00  0.00    -0.123 C  
BRANCH   7   8
HETATM    8  O   UNL     1      -9.508   4.586  68.488  1.00  0.00    -0.135 OA 
BRANCH   8   9
HETATM    9  C   UNL     1      -8.699   5.214  69.380  1.00  0.00    -0.099 C  
HETATM   10  O   UNL     1      -7.509   5.422  69.189  1.00  0.00    -0.074 OA 
BRANCH   9  11
HETATM   11  C   UNL     1      -9.457   5.678  70.653  1.00  0.00    -0.203 C  
HETATM   12  C   UNL     1      -8.452   6.048  71.775  1.00  0.00    -0.127 C  
HETATM   13  C   UNL     1     -10.282   4.431  71.117  1.00  0.00    -0.127 C  
HETATM   14  C   UNL     1      -9.429   3.278  71.653  1.00  0.00    -0.220 C  
HETATM   15  C   UNL     1      -7.628   4.878  72.310  1.00  0.00    -0.090 C  
HETATM   16  C   UNL     1      -8.529   3.749  72.784  1.00  0.00    -0.094 C  
BRANCH  11  17
HETATM   17  C   UNL     1     -10.405   6.877  70.216  1.00  0.00    -0.218 C  
HETATM   18  C   UNL     1     -11.908   6.720  70.538  1.00  0.00    -0.418 C  
HETATM   19  C   UNL     1     -11.791   8.269  72.514  1.00  0.00    -0.439 C  
HETATM   20  C   UNL     1     -10.366   8.658  72.123  1.00  0.00    -0.403 C  
HETATM   21  C   UNL     1     -12.217   6.893  72.019  1.00  0.00    -0.318 C  
HETATM   22  C   UNL     1      -9.973   8.288  70.686  1.00  0.00    -0.204 C  
ENDBRANCH  11  17
ENDBRANCH   9  11
ENDBRANCH   8   9
ENDBRANCH   7   8
ENDBRANCH   6   7
ENDBRANCH   3   6
ENDBRANCH   2   3
TORSDOF 8
ENDMDL
MODEL      243
REMARK 921   NORMALIZED FREE ENERGY PREDICTED BY IDOCK:   -2.61 KCAL/MOL
REMARK 922        TOTAL FREE ENERGY PREDICTED BY IDOCK:   -4.41 KCAL/MOL
REMARK 923 INTER-LIGAND FREE ENERGY PREDICTED BY IDOCK:   -3.98 KCAL/MOL
REMARK 924 INTRA-LIGAND FREE ENERGY PREDICTED BY IDOCK:   -0.43 KCAL/MOL
REMARK 927      BINDING AFFINITY PREDICTED BY RF-SCORE:    0.00 PKD
ROOT
HETATM    1  C   UNL     1     -12.116  14.472  69.032  1.00  0.00    -0.286 C  
HETATM    2  C   UNL     1     -11.052  13.388  68.876  1.00  0.00    -0.266 C  
ENDROOT
BRANCH   2   3
HETATM    3  N   UNL     1     -11.503  12.178  68.166  1.00  0.00    -0.294 NA 
BRANCH   3   4
HETATM    4  C   UNL     1     -11.438  12.274  66.702  1.00  0.00    -0.373 C  
HETATM    5  C   UNL     1     -10.257  11.577  66.038  1.00  0.00    -0.283 C  
ENDBRANCH   3   4
BRANCH   3   6
HETATM    6  C   UNL     1     -10.819  10.990  68.730  1.00  0.00    -0.210 C  
BRANCH   6   7
HETATM    7  C   UNL     1     -11.763   9.855  69.157  1.00  0.00     0.227 C  
BRANCH   7   8
HETATM    8  O   UNL     1     -11.143   8.871  70.010  1.00  0.00    -0.237 OA 
BRANCH   8   9
HETATM    9  C   UNL     1     -10.567   7.826  69.361  1.00  0.00    -0.208 C  
HETATM   10  O   UNL     1     -10.789   7.546  68.192  1.00  0.00    -0.129 OA 
BRANCH   9  11
HETATM   11  C   UNL     1      -9.563   7.047  70.253  1.00  0.00    -0.168 C  
HETATM   12  C   UNL     1      -9.215   7.873  71.520  1.00  0.00    -0.171 C  
HETATM   13  C   UNL     1      -8.269   6.901  69.385  1.00  0.00    -0.131 C  
HETATM   14  C   UNL     1      -7.527   8.217  69.138  1.00  0.00    -0.086 C  
HETATM   15  C   UNL     1      -8.454   9.170  71.251  1.00  0.00    -0.115 C  
HETATM   16  C   UNL     1      -7.190   8.904  70.451  1.00  0.00    -0.060 C  
BRANCH  11  17
HETATM   17  C   UNL     1     -10.220   5.634  70.567  1.00  0.00    -0.297 C  
HETATM   18  C   UNL     1      -9.305   4.399  70.416  1.00  0.00    -0.219 C  
HETATM   19  C   UNL     1      -8.970   4.168  72.896  1.00  0.00    -0.115 C  
HETATM   20  C   UNL     1     -10.045   5.227  73.138  1.00  0.00    -0.205 C  
HETATM   21  C   UNL     1      -8.285   4.277  71.540  1.00  0.00    -0.091 C  
HETATM   22  C   UNL     1     -10.947   5.511  71.929  1.00  0.00    -0.264 C  
ENDBRANCH  11  17
ENDBRANCH   9  11
ENDBRANCH   8   9
ENDBRANCH   7   8
ENDBRANCH   6   7
ENDBRANCH   3   6
ENDBRANCH   2   3
TORSDOF 8
ENDMDL
MODEL      244
REMARK 921   NORMALIZED FREE ENERGY PREDICTED BY IDOCK:   -2.56 KCAL/MOL
REMARK 922        TOTAL FREE ENERGY PREDICTED BY IDOCK:   -4.34 KCAL/MOL
REMARK 923 INTER-LIGAND FREE ENERGY PREDICTED BY IDOCK:   -4.38 KCAL/MOL
REMARK 924 INTRA-LIGAND FREE ENERGY PREDICTED BY IDOCK:    0.04 KCAL/MOL
REMARK 927      BINDING AFFINITY PREDICTED BY RF-SCORE:    0.00 PKD
ROOT
HETATM    1  C   UNL     1      -7.723  19.174  68.788  1.00  0.00    -0.390 C  
HETATM    2  C   UNL     1      -8.545  17.895  68.654  1.00  0.00    -0.266 C  
ENDROOT
BRANCH   2   3
HETATM    3  N   UNL     1      -8.789  17.460  67.267  1.00  0.00    -0.228 NA 
BRANCH   3   4
HETATM    4  C   UNL     1      -8.096  18.262  66.250  1.00  0.00    -0.223 C  
HETATM    5  C   UNL     1      -6.734  17.745  65.805  1.00  0.00    -0.223 C  
ENDBRANCH   3   4
BRANCH   3   6
HETATM    6  C   UNL     1      -8.553  16.001  67.158  1.00  0.00    -0.194 C  
BRANCH   6   7
HETATM    7  C   UNL     1      -9.805  15.136  67.376  1.00  0.00    -0.224 C  
BRANCH   7   8
HETATM    8  O   UNL     1      -9.591  14.013  68.257  1.00  0.00    -0.213 OA 
BRANCH   8   9
HETATM    9  C   UNL     1     -10.064  12.824  67.800  1.00  0.00    -0.224 C  
HETATM   10  O   UNL     1     -11.202  12.660  67.383  1.00  0.00    -0.260 OA 
BRANCH   9  11
HETATM   11  C   UNL     1      -8.990  11.704  67.825  1.00  0.00    -0.170 C  
HETATM   12  C   UNL     1      -8.883  11.027  66.433  1.00  0.00    -0.182 C  
HETATM   13  C   UNL     1      -9.521  10.648  68.852  1.00  0.00    -0.199 C  
HETATM   14  C   UNL     1     -10.766   9.889  68.384  1.00  0.00    -0.271 C  
HETATM   15  C   UNL     1     -10.129  10.256  65.998  1.00  0.00    -0.311 C  
HETATM   16  C   UNL     1     -10.521   9.222  67.040  1.00  0.00    -0.303 C  
BRANCH  11  17
HETATM   17  C   UNL     1      -7.635  12.372  68.321  1.00  0.00    -0.131 C  
HETATM   18  C   UNL     1      -6.832  11.594  69.387  1.00  0.00    -0.086 C  
HETATM   19  C   UNL     1      -5.154  10.755  67.714  1.00  0.00    -0.039 C  
HETATM   20  C   UNL     1      -5.749  11.681  66.655  1.00  0.00    -0.115 C  
HETATM   21  C   UNL     1      -6.128  10.369  68.820  1.00  0.00    -0.040 C  
HETATM   22  C   UNL     1      -6.643  12.798  67.211  1.00  0.00    -0.083 C  
ENDBRANCH  11  17
ENDBRANCH   9  11
ENDBRANCH   8   9
ENDBRANCH   7   8
ENDBRANCH   6   7
ENDBRANCH   3   6
ENDBRANCH   2   3
TORSDOF 8
ENDMDL
MODEL      245
REMARK 921   NORMALIZED FREE ENERGY PREDICTED BY IDOCK:   -2.56 KCAL/MOL
REMARK 922        TOTAL FREE ENERGY PREDICTED BY IDOCK:   -4.33 KCAL/MOL
REMARK 923 INTER-LIGAND FREE ENERGY PREDICTED BY IDOCK:   -3.76 KCAL/MOL
REMARK 924 INTRA-LIGAND FREE ENERGY PREDICTED BY IDOCK:   -0.58 KCAL/MOL
REMARK 927      BINDING AFFINITY PREDICTED BY RF-SCORE:    0.00 PKD
ROOT
HETATM    1  C   UNL     1      -8.980   9.148  68.154  1.00  0.00    -0.129 C  
HETATM    2  C   UNL     1      -7.529   9.226  68.622  1.00  0.00    -0.080 C  
ENDROOT
BRANCH   2   3
HETATM    3  N   UNL     1      -7.281  10.192  69.708  1.00  0.00    -0.124 NA 
BRANCH   3   4
HETATM    4  C   UNL     1      -5.923  10.140  70.267  1.00  0.00    -0.081 C  
HETATM    5  C   UNL     1      -5.710   9.158  71.413  1.00  0.00    -0.063 C  
ENDBRANCH   3   4
BRANCH   3   6
HETATM    6  C   UNL     1      -7.711  11.543  69.276  1.00  0.00     0.112 C  
BRANCH   6   7
HETATM    7  C   UNL     1      -6.766  12.678  69.702  1.00  0.00     0.085 C  
BRANCH   7   8
HETATM    8  O   UNL     1      -7.295  13.998  69.460  1.00  0.00     0.001 OA 
BRANCH   8   9
HETATM    9  C   UNL     1      -7.216  14.423  68.172  1.00  0.00    -0.128 C  
HETATM   10  O   UNL     1      -6.217  14.307  67.477  1.00  0.00    -0.313 OA 
BRANCH   9  11
HETATM   11  C   UNL     1      -8.548  15.037  67.662  1.00  0.00    -0.179 C  
HETATM   12  C   UNL     1      -8.329  15.746  66.300  1.00  0.00    -0.166 C  
HETATM   13  C   UNL     1      -8.937  16.116  68.727  1.00  0.00    -0.236 C  
HETATM   14  C   UNL     1      -8.010  17.335  68.753  1.00  0.00    -0.250 C  
HETATM   15  C   UNL     1      -7.419  16.973  66.354  1.00  0.00    -0.336 C  
HETATM   16  C   UNL     1      -7.921  17.977  67.378  1.00  0.00    -0.227 C  
BRANCH  11  17
HETATM   17  C   UNL     1      -9.612  13.856  67.610  1.00  0.00    -0.215 C  
HETATM   18  C   UNL     1     -11.020  14.172  68.161  1.00  0.00    -0.264 C  
HETATM   19  C   UNL     1     -12.016  14.424  65.867  1.00  0.00    -0.367 C  
HETATM   20  C   UNL     1     -10.723  13.891  65.249  1.00  0.00    -0.352 C  
HETATM   21  C   UNL     1     -11.831  15.068  67.234  1.00  0.00    -0.163 C  
HETATM   22  C   UNL     1      -9.794  13.169  66.234  1.00  0.00    -0.284 C  
ENDBRANCH  11  17
ENDBRANCH   9  11
ENDBRANCH   8   9
ENDBRANCH   7   8
ENDBRANCH   6   7
ENDBRANCH   3   6
ENDBRANCH   2   3
TORSDOF 8
ENDMDL
MODEL      246
REMARK 921   NORMALIZED FREE ENERGY PREDICTED BY IDOCK:   -2.55 KCAL/MOL
REMARK 922        TOTAL FREE ENERGY PREDICTED BY IDOCK:   -4.33 KCAL/MOL
REMARK 923 INTER-LIGAND FREE ENERGY PREDICTED BY IDOCK:   -4.83 KCAL/MOL
REMARK 924 INTRA-LIGAND FREE ENERGY PREDICTED BY IDOCK:    0.50 KCAL/MOL
REMARK 927      BINDING AFFINITY PREDICTED BY RF-SCORE:    0.00 PKD
ROOT
HETATM    1  C   UNL     1     -10.985   6.130  67.945  1.00  0.00    -0.399 C  
HETATM    2  C   UNL     1     -10.600   6.554  69.360  1.00  0.00    -0.245 C  
ENDROOT
BRANCH   2   3
HETATM    3  N   UNL     1     -10.029   7.909  69.465  1.00  0.00    -0.185 NA 
BRANCH   3   4
HETATM    4  C   UNL     1      -8.725   7.968  70.139  1.00  0.00    -0.135 C  
HETATM    5  C   UNL     1      -8.404   6.808  71.074  1.00  0.00    -0.127 C  
ENDBRANCH   3   4
BRANCH   3   6
HETATM    6  C   UNL     1     -10.057   8.561  68.134  1.00  0.00    -0.200 C  
BRANCH   6   7
HETATM    7  C   UNL     1     -11.053   9.727  68.018  1.00  0.00    -0.106 C  
BRANCH   7   8
HETATM    8  O   UNL     1     -10.514  10.891  67.358  1.00  0.00    -0.200 OA 
BRANCH   8   9
HETATM    9  C   UNL     1     -11.408  11.885  67.120  1.00  0.00    -0.331 C  
HETATM   10  O   UNL     1     -12.480  11.988  67.699  1.00  0.00    -0.073 OA 
BRANCH   9  11
HETATM   11  C   UNL     1     -10.905  12.901  66.059  1.00  0.00    -0.300 C  
HETATM   12  C   UNL     1     -11.943  13.046  64.916  1.00  0.00    -0.441 C  
HETATM   13  C   UNL     1      -9.601  12.268  65.470  1.00  0.00    -0.112 C  
HETATM   14  C   UNL     1      -9.839  11.013  64.625  1.00  0.00    -0.338 C  
HETATM   15  C   UNL     1     -12.147  11.788  64.071  1.00  0.00    -0.361 C  
HETATM   16  C   UNL     1     -10.827  11.294  63.504  1.00  0.00    -0.373 C  
BRANCH  11  17
HETATM   17  C   UNL     1     -10.601  14.259  66.828  1.00  0.00    -0.278 C  
HETATM   18  C   UNL     1     -10.593  14.191  68.371  1.00  0.00    -0.263 C  
HETATM   19  C   UNL     1      -8.083  14.206  68.500  1.00  0.00    -0.143 C  
HETATM   20  C   UNL     1      -8.009  14.510  67.005  1.00  0.00    -0.074 C  
HETATM   21  C   UNL     1      -9.360  13.493  68.927  1.00  0.00     0.184 C  
HETATM   22  C   UNL     1      -9.321  15.015  66.389  1.00  0.00    -0.334 C  
ENDBRANCH  11  17
ENDBRANCH   9  11
ENDBRANCH   8   9
ENDBRANCH   7   8
ENDBRANCH   6   7
ENDBRANCH   3   6
ENDBRANCH   2   3
TORSDOF 8
ENDMDL
MODEL      247
REMARK 921   NORMALIZED FREE ENERGY PREDICTED BY IDOCK:   -2.55 KCAL/MOL
REMARK 922        TOTAL FREE ENERGY PREDICTED BY IDOCK:   -4.32 KCAL/MOL
REMARK 923 INTER-LIGAND FREE ENERGY PREDICTED BY IDOCK:   -4.19 KCAL/MOL
REMARK 924 INTRA-LIGAND FREE ENERGY PREDICTED BY IDOCK:   -0.13 KCAL/MOL
REMARK 927      BINDING AFFINITY PREDICTED BY RF-SCORE:    0.00 PKD
ROOT
HETATM    1  C   UNL     1      -9.595   4.716  68.825  1.00  0.00    -0.229 C  
HETATM    2  C   UNL     1      -9.163   4.141  67.478  1.00  0.00    -0.157 C  
ENDROOT
BRANCH   2   3
HETATM    3  N   UNL     1      -8.578   5.123  66.547  1.00  0.00    -0.111 NA 
BRANCH   3   4
HETATM    4  C   UNL     1      -9.128   5.070  65.186  1.00  0.00    -0.123 C  
HETATM    5  C   UNL     1     -10.497   4.417  65.044  1.00  0.00    -0.157 C  
ENDBRANCH   3   4
BRANCH   3   6
HETATM    6  C   UNL     1      -8.609   6.470  67.165  1.00  0.00    -0.111 C  
BRANCH   6   7
HETATM    7  C   UNL     1      -7.865   7.554  66.367  1.00  0.00    -0.098 C  
BRANCH   7   8
HETATM    8  O   UNL     1      -8.017   8.883  66.908  1.00  0.00    -0.100 OA 
BRANCH   8   9
HETATM    9  C   UNL     1      -9.211   9.476  66.649  1.00  0.00    -0.152 C  
HETATM   10  O   UNL     1      -9.943   9.157  65.723  1.00  0.00    -0.277 OA 
BRANCH   9  11
HETATM   11  C   UNL     1      -9.568  10.578  67.683  1.00  0.00    -0.175 C  
HETATM   12  C   UNL     1      -8.675  10.443  68.945  1.00  0.00    -0.157 C  
HETATM   13  C   UNL     1     -11.052  10.295  68.091  1.00  0.00    -0.324 C  
HETATM   14  C   UNL     1     -11.245   9.014  68.907  1.00  0.00     0.253 C  
HETATM   15  C   UNL     1      -8.902   9.167  69.757  1.00  0.00    -0.165 C  
HETATM   16  C   UNL     1     -10.363   9.022  70.146  1.00  0.00    -0.237 C  
BRANCH  11  17
HETATM   17  C   UNL     1      -9.422  11.976  66.939  1.00  0.00    -0.206 C  
HETATM   18  C   UNL     1     -10.384  12.232  65.758  1.00  0.00    -0.287 C  
HETATM   19  C   UNL     1     -11.871  13.739  67.111  1.00  0.00    -0.441 C  
HETATM   20  C   UNL     1     -10.849  13.726  68.247  1.00  0.00    -0.266 C  
HETATM   21  C   UNL     1     -11.810  12.515  66.207  1.00  0.00    -0.453 C  
HETATM   22  C   UNL     1      -9.452  13.232  67.845  1.00  0.00    -0.214 C  
ENDBRANCH  11  17
ENDBRANCH   9  11
ENDBRANCH   8   9
ENDBRANCH   7   8
ENDBRANCH   6   7
ENDBRANCH   3   6
ENDBRANCH   2   3
TORSDOF 8
ENDMDL
MODEL      248
REMARK 921   NORMALIZED FREE ENERGY PREDICTED BY IDOCK:   -2.55 KCAL/MOL
REMARK 922        TOTAL FREE ENERGY PREDICTED BY IDOCK:   -4.32 KCAL/MOL
REMARK 923 INTER-LIGAND FREE ENERGY PREDICTED BY IDOCK:   -3.56 KCAL/MOL
REMARK 924 INTRA-LIGAND FREE ENERGY PREDICTED BY IDOCK:   -0.76 KCAL/MOL
REMARK 927      BINDING AFFINITY PREDICTED BY RF-SCORE:    0.00 PKD
ROOT
HETATM    1  C   UNL     1     -10.734   9.960  66.650  1.00  0.00    -0.116 C  
HETATM    2  C   UNL     1      -9.629   9.076  67.222  1.00  0.00    -0.159 C  
ENDROOT
BRANCH   2   3
HETATM    3  N   UNL     1      -8.315   9.735  67.351  1.00  0.00    -0.114 NA 
BRANCH   3   4
HETATM    4  C   UNL     1      -8.377  11.120  67.836  1.00  0.00    -0.129 C  
HETATM    5  C   UNL     1      -7.961  11.339  69.285  1.00  0.00     0.078 C  
ENDBRANCH   3   4
BRANCH   3   6
HETATM    6  C   UNL     1      -7.397   8.860  68.118  1.00  0.00    -0.084 C  
BRANCH   6   7
HETATM    7  C   UNL     1      -7.820   7.383  68.169  1.00  0.00    -0.122 C  
BRANCH   7   8
HETATM    8  O   UNL     1      -8.023   6.880  69.506  1.00  0.00    -0.119 OA 
BRANCH   8   9
HETATM    9  C   UNL     1      -9.068   6.024  69.646  1.00  0.00    -0.135 C  
HETATM   10  O   UNL     1      -9.546   5.377  68.726  1.00  0.00    -0.123 OA 
BRANCH   9  11
HETATM   11  C   UNL     1      -9.566   5.924  71.114  1.00  0.00    -0.198 C  
HETATM   12  C   UNL     1     -11.093   5.652  71.148  1.00  0.00    -0.202 C  
HETATM   13  C   UNL     1      -9.298   7.335  71.736  1.00  0.00    -0.161 C  
HETATM   14  C   UNL     1     -10.185   8.448  71.170  1.00  0.00    -0.254 C  
HETATM   15  C   UNL     1     -11.959   6.786  70.600  1.00  0.00    -0.418 C  
HETATM   16  C   UNL     1     -11.656   8.094  71.312  1.00  0.00    -0.305 C  
BRANCH  11  17
HETATM   17  C   UNL     1      -8.696   4.797  71.822  1.00  0.00    -0.134 C  
HETATM   18  C   UNL     1      -8.195   5.109  73.250  1.00  0.00    -0.111 C  
HETATM   19  C   UNL     1      -9.940   3.657  74.330  1.00  0.00    -0.187 C  
HETATM   20  C   UNL     1     -10.339   3.118  72.957  1.00  0.00    -0.246 C  
HETATM   21  C   UNL     1      -9.302   5.040  74.293  1.00  0.00    -0.126 C  
HETATM   22  C   UNL     1      -9.314   3.377  71.845  1.00  0.00    -0.193 C  
ENDBRANCH  11  17
ENDBRANCH   9  11
ENDBRANCH   8   9
ENDBRANCH   7   8
ENDBRANCH   6   7
ENDBRANCH   3   6
ENDBRANCH   2   3
TORSDOF 8
ENDMDL
MODEL      249
REMARK 921   NORMALIZED FREE ENERGY PREDICTED BY IDOCK:   -2.54 KCAL/MOL
REMARK 922        TOTAL FREE ENERGY PREDICTED BY IDOCK:   -4.32 KCAL/MOL
REMARK 923 INTER-LIGAND FREE ENERGY PREDICTED BY IDOCK:   -3.98 KCAL/MOL
REMARK 924 INTRA-LIGAND FREE ENERGY PREDICTED BY IDOCK:   -0.34 KCAL/MOL
REMARK 927      BINDING AFFINITY PREDICTED BY RF-SCORE:    0.00 PKD
ROOT
HETATM    1  C   UNL     1      -8.404   4.007  70.474  1.00  0.00    -0.085 C  
HETATM    2  C   UNL     1      -9.177   4.787  71.535  1.00  0.00    -0.142 C  
ENDROOT
BRANCH   2   3
HETATM    3  N   UNL     1      -8.647   6.133  71.821  1.00  0.00    -0.133 NA 
BRANCH   3   4
HETATM    4  C   UNL     1      -8.625   6.485  73.246  1.00  0.00    -0.120 C  
HETATM    5  C   UNL     1      -9.380   7.750  73.635  1.00  0.00    -0.336 C  
ENDBRANCH   3   4
BRANCH   3   6
HETATM    6  C   UNL     1      -7.349   6.310  71.128  1.00  0.00    -0.080 C  
BRANCH   6   7
HETATM    7  C   UNL     1      -7.060   7.752  70.678  1.00  0.00    -0.049 C  
BRANCH   7   8
HETATM    8  O   UNL     1      -7.369   8.002  69.291  1.00  0.00    -0.077 OA 
BRANCH   8   9
HETATM    9  C   UNL     1      -8.666   8.317  69.038  1.00  0.00    -0.143 C  
HETATM   10  O   UNL     1      -9.515   8.450  69.906  1.00  0.00    -0.164 OA 
BRANCH   9  11
HETATM   11  C   UNL     1      -8.944   8.531  67.525  1.00  0.00    -0.142 C  
HETATM   12  C   UNL     1     -10.442   8.276  67.212  1.00  0.00    -0.373 C  
HETATM   13  C   UNL     1      -8.090   7.444  66.792  1.00  0.00    -0.123 C  
HETATM   14  C   UNL     1      -8.580   6.009  67.010  1.00  0.00    -0.107 C  
HETATM   15  C   UNL     1     -10.903   6.833  67.414  1.00  0.00    -0.417 C  
HETATM   16  C   UNL     1     -10.042   5.869  66.614  1.00  0.00    -0.229 C  
BRANCH  11  17
HETATM   17  C   UNL     1      -8.453  10.001  67.167  1.00  0.00    -0.125 C  
HETATM   18  C   UNL     1      -8.877  10.552  65.787  1.00  0.00    -0.190 C  
HETATM   19  C   UNL     1     -10.688  11.996  66.764  1.00  0.00    -0.280 C  
HETATM   20  C   UNL     1     -10.178  11.683  68.170  1.00  0.00    -0.206 C  
HETATM   21  C   UNL     1     -10.351  10.931  65.729  1.00  0.00    -0.303 C  
HETATM   22  C   UNL     1      -8.761  11.094  68.220  1.00  0.00    -0.151 C  
ENDBRANCH  11  17
ENDBRANCH   9  11
ENDBRANCH   8   9
ENDBRANCH   7   8
ENDBRANCH   6   7
ENDBRANCH   3   6
ENDBRANCH   2   3
TORSDOF 8
ENDMDL
MODEL      250
REMARK 921   NORMALIZED FREE ENERGY PREDICTED BY IDOCK:   -2.54 KCAL/MOL
REMARK 922        TOTAL FREE ENERGY PREDICTED BY IDOCK:   -4.31 KCAL/MOL
REMARK 923 INTER-LIGAND FREE ENERGY PREDICTED BY IDOCK:   -3.93 KCAL/MOL
REMARK 924 INTRA-LIGAND FREE ENERGY PREDICTED BY IDOCK:   -0.38 KCAL/MOL
REMARK 927      BINDING AFFINITY PREDICTED BY RF-SCORE:    0.00 PKD
ROOT
HETATM    1  C   UNL     1     -11.915  12.474  68.372  1.00  0.00    -0.271 C  
HETATM    2  C   UNL     1     -11.027  11.469  69.102  1.00  0.00    -0.224 C  
ENDROOT
BRANCH   2   3
HETATM    3  N   UNL     1     -11.502  11.088  70.445  1.00  0.00    -0.279 NA 
BRANCH   3   4
HETATM    4  C   UNL     1     -12.908  11.420  70.708  1.00  0.00    -0.167 C  
HETATM    5  C   UNL     1     -13.173  12.286  71.933  1.00  0.00    -0.481 C  
ENDBRANCH   3   4
BRANCH   3   6
HETATM    6  C   UNL     1     -11.149   9.673  70.711  1.00  0.00    -0.334 C  
BRANCH   6   7
HETATM    7  C   UNL     1     -10.579   8.921  69.497  1.00  0.00    -0.228 C  
BRANCH   7   8
HETATM    8  O   UNL     1     -10.430   7.502  69.709  1.00  0.00    -0.219 OA 
BRANCH   8   9
HETATM    9  C   UNL     1      -9.152   7.044  69.662  1.00  0.00    -0.144 C  
HETATM   10  O   UNL     1      -8.168   7.769  69.688  1.00  0.00    -0.123 OA 
BRANCH   9  11
HETATM   11  C   UNL     1      -9.074   5.494  69.614  1.00  0.00    -0.152 C  
HETATM   12  C   UNL     1      -7.876   5.041  68.737  1.00  0.00    -0.078 C  
HETATM   13  C   UNL     1     -10.399   5.037  68.918  1.00  0.00    -0.134 C  
HETATM   14  C   UNL     1     -10.487   5.401  67.434  1.00  0.00    -0.253 C  
HETATM   15  C   UNL     1      -7.996   5.395  67.255  1.00  0.00    -0.101 C  
HETATM   16  C   UNL     1      -9.291   4.856  66.670  1.00  0.00    -0.140 C  
BRANCH  11  17
HETATM   17  C   UNL     1      -8.997   4.987  71.119  1.00  0.00    -0.165 C  
HETATM   18  C   UNL     1      -9.342   3.501  71.364  1.00  0.00    -0.213 C  
HETATM   19  C   UNL     1      -6.931   2.835  71.604  1.00  0.00    -0.031 C  
HETATM   20  C   UNL     1      -6.525   4.308  71.606  1.00  0.00    -0.019 C  
HETATM   21  C   UNL     1      -8.247   2.554  70.892  1.00  0.00    -0.068 C  
HETATM   22  C   UNL     1      -7.677   5.288  71.870  1.00  0.00    -0.110 C  
ENDBRANCH  11  17
ENDBRANCH   9  11
ENDBRANCH   8   9
ENDBRANCH   7   8
ENDBRANCH   6   7
ENDBRANCH   3   6
ENDBRANCH   2   3
TORSDOF 8
ENDMDL
MODEL      251
REMARK 921   NORMALIZED FREE ENERGY PREDICTED BY IDOCK:   -2.54 KCAL/MOL
REMARK 922        TOTAL FREE ENERGY PREDICTED BY IDOCK:   -4.31 KCAL/MOL
REMARK 923 INTER-LIGAND FREE ENERGY PREDICTED BY IDOCK:   -4.19 KCAL/MOL
REMARK 924 INTRA-LIGAND FREE ENERGY PREDICTED BY IDOCK:   -0.12 KCAL/MOL
REMARK 927      BINDING AFFINITY PREDICTED BY RF-SCORE:    0.00 PKD
ROOT
HETATM    1  C   UNL     1      -7.394   3.855  62.638  1.00  0.00    -0.045 C  
HETATM    2  C   UNL     1      -7.401   4.094  64.146  1.00  0.00    -0.066 C  
ENDROOT
BRANCH   2   3
HETATM    3  N   UNL     1      -8.709   4.486  64.703  1.00  0.00    -0.141 NA 
BRANCH   3   4
HETATM    4  C   UNL     1      -9.699   3.403  64.745  1.00  0.00    -0.152 C  
HETATM    5  C   UNL     1     -10.739   3.403  63.631  1.00  0.00    -0.257 C  
ENDBRANCH   3   4
BRANCH   3   6
HETATM    6  C   UNL     1      -8.506   5.179  65.997  1.00  0.00    -0.118 C  
BRANCH   6   7
HETATM    7  C   UNL     1      -9.717   5.125  66.944  1.00  0.00    -0.161 C  
BRANCH   7   8
HETATM    8  O   UNL     1      -9.385   5.360  68.328  1.00  0.00    -0.109 OA 
BRANCH   8   9
HETATM    9  C   UNL     1     -10.342   6.000  69.049  1.00  0.00    -0.225 C  
HETATM   10  O   UNL     1     -11.364   6.462  68.563  1.00  0.00    -0.303 OA 
BRANCH   9  11
HETATM   11  C   UNL     1     -10.017   6.045  70.567  1.00  0.00    -0.233 C  
HETATM   12  C   UNL     1     -11.327   6.070  71.398  1.00  0.00    -0.301 C  
HETATM   13  C   UNL     1      -9.263   7.399  70.786  1.00  0.00    -0.159 C  
HETATM   14  C   UNL     1     -10.140   8.642  70.608  1.00  0.00    -0.237 C  
HETATM   15  C   UNL     1     -12.174   7.330  71.222  1.00  0.00    -0.389 C  
HETATM   16  C   UNL     1     -11.360   8.579  71.514  1.00  0.00    -0.348 C  
BRANCH  11  17
HETATM   17  C   UNL     1      -9.082   4.797  70.878  1.00  0.00    -0.181 C  
HETATM   18  C   UNL     1      -7.923   5.035  71.871  1.00  0.00    -0.111 C  
HETATM   19  C   UNL     1      -9.125   3.897  73.763  1.00  0.00    -0.093 C  
HETATM   20  C   UNL     1     -10.202   3.419  72.790  1.00  0.00    -0.244 C  
HETATM   21  C   UNL     1      -8.396   5.157  73.314  1.00  0.00    -0.111 C  
HETATM   22  C   UNL     1      -9.806   3.498  71.309  1.00  0.00    -0.205 C  
ENDBRANCH  11  17
ENDBRANCH   9  11
ENDBRANCH   8   9
ENDBRANCH   7   8
ENDBRANCH   6   7
ENDBRANCH   3   6
ENDBRANCH   2   3
TORSDOF 8
ENDMDL
MODEL      252
REMARK 921   NORMALIZED FREE ENERGY PREDICTED BY IDOCK:   -2.53 KCAL/MOL
REMARK 922        TOTAL FREE ENERGY PREDICTED BY IDOCK:   -4.30 KCAL/MOL
REMARK 923 INTER-LIGAND FREE ENERGY PREDICTED BY IDOCK:   -4.55 KCAL/MOL
REMARK 924 INTRA-LIGAND FREE ENERGY PREDICTED BY IDOCK:    0.25 KCAL/MOL
REMARK 927      BINDING AFFINITY PREDICTED BY RF-SCORE:    0.00 PKD
ROOT
HETATM    1  C   UNL     1     -10.604  15.753  66.992  1.00  0.00    -0.316 C  
HETATM    2  C   UNL     1     -10.697  14.298  67.443  1.00  0.00    -0.282 C  
ENDROOT
BRANCH   2   3
HETATM    3  N   UNL     1     -11.995  13.651  67.177  1.00  0.00    -0.396 NA 
BRANCH   3   4
HETATM    4  C   UNL     1     -12.565  13.955  65.858  1.00  0.00    -0.456 C  
HETATM    5  C   UNL     1     -12.665  12.785  64.887  1.00  0.00    -0.479 C  
ENDBRANCH   3   4
BRANCH   3   6
HETATM    6  C   UNL     1     -11.897  12.203  67.479  1.00  0.00    -0.237 C  
BRANCH   6   7
HETATM    7  C   UNL     1     -11.463  11.882  68.919  1.00  0.00    -0.301 C  
BRANCH   7   8
HETATM    8  O   UNL     1     -10.156  11.277  69.012  1.00  0.00    -0.198 OA 
BRANCH   8   9
HETATM    9  C   UNL     1     -10.125   9.936  68.799  1.00  0.00    -0.174 C  
HETATM   10  O   UNL     1     -10.944   9.337  68.116  1.00  0.00    -0.138 OA 
BRANCH   9  11
HETATM   11  C   UNL     1      -8.912   9.250  69.482  1.00  0.00    -0.154 C  
HETATM   12  C   UNL     1      -7.885  10.313  69.952  1.00  0.00    -0.119 C  
HETATM   13  C   UNL     1      -8.249   8.379  68.363  1.00  0.00    -0.124 C  
HETATM   14  C   UNL     1      -7.576   9.190  67.253  1.00  0.00    -0.088 C  
HETATM   15  C   UNL     1      -7.209  11.094  68.826  1.00  0.00    -0.098 C  
HETATM   16  C   UNL     1      -6.551  10.154  67.830  1.00  0.00    -0.066 C  
BRANCH  11  17
HETATM   17  C   UNL     1      -9.491   8.350  70.658  1.00  0.00    -0.191 C  
HETATM   18  C   UNL     1     -10.288   7.095  70.237  1.00  0.00    -0.214 C  
HETATM   19  C   UNL     1      -8.378   5.540  70.739  1.00  0.00    -0.122 C  
HETATM   20  C   UNL     1      -7.613   6.692  71.390  1.00  0.00    -0.093 C  
HETATM   21  C   UNL     1      -9.399   5.982  69.699  1.00  0.00    -0.161 C  
HETATM   22  C   UNL     1      -8.474   7.913  71.741  1.00  0.00    -0.147 C  
ENDBRANCH  11  17
ENDBRANCH   9  11
ENDBRANCH   8   9
ENDBRANCH   7   8
ENDBRANCH   6   7
ENDBRANCH   3   6
ENDBRANCH   2   3
TORSDOF 8
ENDMDL
MODEL      253
REMARK 921   NORMALIZED FREE ENERGY PREDICTED BY IDOCK:   -2.53 KCAL/MOL
REMARK 922        TOTAL FREE ENERGY PREDICTED BY IDOCK:   -4.30 KCAL/MOL
REMARK 923 INTER-LIGAND FREE ENERGY PREDICTED BY IDOCK:   -3.90 KCAL/MOL
REMARK 924 INTRA-LIGAND FREE ENERGY PREDICTED BY IDOCK:   -0.39 KCAL/MOL
REMARK 927      BINDING AFFINITY PREDICTED BY RF-SCORE:    0.00 PKD
ROOT
HETATM    1  C   UNL     1      -7.096  13.782  68.083  1.00  0.00    -0.118 C  
HETATM    2  C   UNL     1      -7.936  12.597  67.612  1.00  0.00    -0.169 C  
ENDROOT
BRANCH   2   3
HETATM    3  N   UNL     1      -9.345  12.627  68.048  1.00  0.00    -0.204 NA 
BRANCH   3   4
HETATM    4  C   UNL     1     -10.319  12.616  66.949  1.00  0.00    -0.233 C  
HETATM    5  C   UNL     1     -11.779  12.448  67.353  1.00  0.00    -0.417 C  
ENDBRANCH   3   4
BRANCH   3   6
HETATM    6  C   UNL     1      -9.567  11.577  69.071  1.00  0.00     0.065 C  
BRANCH   6   7
HETATM    7  C   UNL     1      -8.508  10.462  69.078  1.00  0.00    -0.155 C  
BRANCH   7   8
HETATM    8  O   UNL     1      -8.208   9.954  70.395  1.00  0.00    -0.172 OA 
BRANCH   8   9
HETATM    9  C   UNL     1      -8.313   8.606  70.530  1.00  0.00    -0.140 C  
HETATM   10  O   UNL     1      -7.827   7.804  69.746  1.00  0.00    -0.101 OA 
BRANCH   9  11
HETATM   11  C   UNL     1      -9.084   8.192  71.812  1.00  0.00    -0.229 C  
HETATM   12  C   UNL     1      -9.565   6.721  71.701  1.00  0.00    -0.163 C  
HETATM   13  C   UNL     1     -10.340   9.124  71.855  1.00  0.00    -0.243 C  
HETATM   14  C   UNL     1     -11.369   8.842  70.756  1.00  0.00    -0.325 C  
HETATM   15  C   UNL     1     -10.609   6.468  70.613  1.00  0.00    -0.280 C  
HETATM   16  C   UNL     1     -11.807   7.387  70.785  1.00  0.00    -0.288 C  
BRANCH  11  17
HETATM   17  C   UNL     1      -8.114   8.460  73.043  1.00  0.00    -0.162 C  
HETATM   18  C   UNL     1      -8.590   7.948  74.421  1.00  0.00    -0.183 C  
HETATM   19  C   UNL     1      -7.059   5.955  74.366  1.00  0.00    -0.088 C  
HETATM   20  C   UNL     1      -6.373   6.518  73.122  1.00  0.00    -0.063 C  
HETATM   21  C   UNL     1      -8.492   6.434  74.555  1.00  0.00    -0.144 C  
HETATM   22  C   UNL     1      -6.644   8.006  72.860  1.00  0.00    -0.087 C  
ENDBRANCH  11  17
ENDBRANCH   9  11
ENDBRANCH   8   9
ENDBRANCH   7   8
ENDBRANCH   6   7
ENDBRANCH   3   6
ENDBRANCH   2   3
TORSDOF 8
ENDMDL
MODEL      254
REMARK 921   NORMALIZED FREE ENERGY PREDICTED BY IDOCK:   -2.52 KCAL/MOL
REMARK 922        TOTAL FREE ENERGY PREDICTED BY IDOCK:   -4.28 KCAL/MOL
REMARK 923 INTER-LIGAND FREE ENERGY PREDICTED BY IDOCK:   -3.58 KCAL/MOL
REMARK 924 INTRA-LIGAND FREE ENERGY PREDICTED BY IDOCK:   -0.70 KCAL/MOL
REMARK 927      BINDING AFFINITY PREDICTED BY RF-SCORE:    0.00 PKD
ROOT
HETATM    1  C   UNL     1      -6.017   3.109  66.204  1.00  0.00    -0.023 C  
HETATM    2  C   UNL     1      -6.575   4.350  66.897  1.00  0.00    -0.046 C  
ENDROOT
BRANCH   2   3
HETATM    3  N   UNL     1      -8.045   4.468  66.863  1.00  0.00    -0.102 NA 
BRANCH   3   4
HETATM    4  C   UNL     1      -8.580   5.000  65.603  1.00  0.00    -0.135 C  
HETATM    5  C   UNL     1      -9.546   4.093  64.851  1.00  0.00    -0.178 C  
ENDBRANCH   3   4
BRANCH   3   6
HETATM    6  C   UNL     1      -8.653   3.186  67.291  1.00  0.00    -0.111 C  
BRANCH   6   7
HETATM    7  C   UNL     1      -9.002   3.116  68.787  1.00  0.00    -0.133 C  
BRANCH   7   8
HETATM    8  O   UNL     1      -9.429   4.376  69.345  1.00  0.00    -0.147 OA 
BRANCH   8   9
HETATM    9  C   UNL     1      -9.618   4.375  70.691  1.00  0.00    -0.192 C  
HETATM   10  O   UNL     1      -9.873   3.372  71.341  1.00  0.00    -0.174 OA 
BRANCH   9  11
HETATM   11  C   UNL     1      -9.433   5.782  71.321  1.00  0.00    -0.179 C  
HETATM   12  C   UNL     1     -10.074   5.829  72.733  1.00  0.00    -0.202 C  
HETATM   13  C   UNL     1     -10.221   6.759  70.385  1.00  0.00    -0.212 C  
HETATM   14  C   UNL     1     -11.742   6.582  70.432  1.00  0.00    -0.439 C  
HETATM   15  C   UNL     1     -11.594   5.674  72.753  1.00  0.00    -0.289 C  
HETATM   16  C   UNL     1     -12.258   6.705  71.856  1.00  0.00    -0.381 C  
BRANCH  11  17
HETATM   17  C   UNL     1      -7.874   6.093  71.311  1.00  0.00    -0.111 C  
HETATM   18  C   UNL     1      -7.460   7.528  70.915  1.00  0.00    -0.073 C  
HETATM   19  C   UNL     1      -7.014   8.208  73.293  1.00  0.00    -0.138 C  
HETATM   20  C   UNL     1      -7.179   6.756  73.738  1.00  0.00    -0.082 C  
HETATM   21  C   UNL     1      -7.751   8.550  72.005  1.00  0.00    -0.141 C  
HETATM   22  C   UNL     1      -7.101   5.726  72.602  1.00  0.00    -0.085 C  
ENDBRANCH  11  17
ENDBRANCH   9  11
ENDBRANCH   8   9
ENDBRANCH   7   8
ENDBRANCH   6   7
ENDBRANCH   3   6
ENDBRANCH   2   3
TORSDOF 8
ENDMDL
MODEL      255
REMARK 921   NORMALIZED FREE ENERGY PREDICTED BY IDOCK:   -2.49 KCAL/MOL
REMARK 922        TOTAL FREE ENERGY PREDICTED BY IDOCK:   -4.24 KCAL/MOL
REMARK 923 INTER-LIGAND FREE ENERGY PREDICTED BY IDOCK:   -4.11 KCAL/MOL
REMARK 924 INTRA-LIGAND FREE ENERGY PREDICTED BY IDOCK:   -0.13 KCAL/MOL
REMARK 927      BINDING AFFINITY PREDICTED BY RF-SCORE:    0.00 PKD
ROOT
HETATM    1  C   UNL     1      -9.613   9.122  65.708  1.00  0.00    -0.323 C  
HETATM    2  C   UNL     1      -9.107   8.148  66.769  1.00  0.00    -0.157 C  
ENDROOT
BRANCH   2   3
HETATM    3  N   UNL     1      -9.117   8.674  68.146  1.00  0.00    -0.141 NA 
BRANCH   3   4
HETATM    4  C   UNL     1      -9.943   9.874  68.330  1.00  0.00    -0.158 C  
HETATM    5  C   UNL     1      -9.196  11.150  68.700  1.00  0.00    -0.173 C  
ENDBRANCH   3   4
BRANCH   3   6
HETATM    6  C   UNL     1      -9.419   7.574  69.093  1.00  0.00    -0.150 C  
BRANCH   6   7
HETATM    7  C   UNL     1     -10.781   6.897  68.867  1.00  0.00    -0.222 C  
BRANCH   7   8
HETATM    8  O   UNL     1     -10.911   5.618  69.522  1.00  0.00    -0.324 OA 
BRANCH   8   9
HETATM    9  C   UNL     1     -11.023   5.672  70.875  1.00  0.00    -0.187 C  
HETATM   10  O   UNL     1     -11.945   6.222  71.459  1.00  0.00    -0.303 OA 
BRANCH   9  11
HETATM   11  C   UNL     1      -9.873   4.923  71.601  1.00  0.00    -0.245 C  
HETATM   12  C   UNL     1     -10.432   4.102  72.792  1.00  0.00    -0.241 C  
HETATM   13  C   UNL     1      -8.942   6.047  72.165  1.00  0.00    -0.142 C  
HETATM   14  C   UNL     1      -9.562   6.863  73.302  1.00  0.00    -0.193 C  
HETATM   15  C   UNL     1     -11.025   4.938  73.926  1.00  0.00    -0.302 C  
HETATM   16  C   UNL     1     -10.018   5.957  74.434  1.00  0.00    -0.279 C  
BRANCH  11  17
HETATM   17  C   UNL     1      -9.130   4.042  70.505  1.00  0.00    -0.182 C  
HETATM   18  C   UNL     1      -7.609   4.270  70.353  1.00  0.00    -0.045 C  
HETATM   19  C   UNL     1      -7.027   2.180  71.622  1.00  0.00    -0.031 C  
HETATM   20  C   UNL     1      -8.497   1.764  71.610  1.00  0.00    -0.071 C  
HETATM   21  C   UNL     1      -6.805   3.682  71.504  1.00  0.00    -0.031 C  
HETATM   22  C   UNL     1      -9.365   2.513  70.590  1.00  0.00    -0.212 C  
ENDBRANCH  11  17
ENDBRANCH   9  11
ENDBRANCH   8   9
ENDBRANCH   7   8
ENDBRANCH   6   7
ENDBRANCH   3   6
ENDBRANCH   2   3
TORSDOF 8
ENDMDL
MODEL      256
REMARK 921   NORMALIZED FREE ENERGY PREDICTED BY IDOCK:   -2.47 KCAL/MOL
REMARK 922        TOTAL FREE ENERGY PREDICTED BY IDOCK:   -4.21 KCAL/MOL
REMARK 923 INTER-LIGAND FREE ENERGY PREDICTED BY IDOCK:   -4.72 KCAL/MOL
REMARK 924 INTRA-LIGAND FREE ENERGY PREDICTED BY IDOCK:    0.51 KCAL/MOL
REMARK 927      BINDING AFFINITY PREDICTED BY RF-SCORE:    0.00 PKD
ROOT
HETATM    1  C   UNL     1     -10.479  11.016  64.582  1.00  0.00    -0.398 C  
HETATM    2  C   UNL     1      -9.586  10.798  65.801  1.00  0.00    -0.208 C  
ENDROOT
BRANCH   2   3
HETATM    3  N   UNL     1      -8.753   9.582  65.748  1.00  0.00    -0.140 NA 
BRANCH   3   4
HETATM    4  C   UNL     1      -7.349   9.793  66.123  1.00  0.00    -0.101 C  
HETATM    5  C   UNL     1      -7.041  11.092  66.856  1.00  0.00    -0.131 C  
ENDBRANCH   3   4
BRANCH   3   6
HETATM    6  C   UNL     1      -9.425   8.490  66.490  1.00  0.00    -0.218 C  
BRANCH   6   7
HETATM    7  C   UNL     1      -9.926   8.885  67.889  1.00  0.00    -0.179 C  
BRANCH   7   8
HETATM    8  O   UNL     1     -10.516   7.795  68.627  1.00  0.00    -0.202 OA 
BRANCH   8   9
HETATM    9  C   UNL     1      -9.774   7.337  69.669  1.00  0.00    -0.159 C  
HETATM   10  O   UNL     1      -8.628   7.695  69.896  1.00  0.00    -0.136 OA 
BRANCH   9  11
HETATM   11  C   UNL     1     -10.555   6.339  70.566  1.00  0.00    -0.305 C  
HETATM   12  C   UNL     1     -12.062   6.709  70.599  1.00  0.00    -0.342 C  
HETATM   13  C   UNL     1      -9.965   6.529  72.003  1.00  0.00    -0.183 C  
HETATM   14  C   UNL     1     -10.305   7.876  72.648  1.00  0.00    -0.372 C  
HETATM   15  C   UNL     1     -12.379   8.046  71.268  1.00  0.00    -0.290 C  
HETATM   16  C   UNL     1     -11.809   8.099  72.675  1.00  0.00    -0.389 C  
BRANCH  11  17
HETATM   17  C   UNL     1     -10.263   4.882  70.001  1.00  0.00    -0.313 C  
HETATM   18  C   UNL     1      -9.628   4.802  68.595  1.00  0.00    -0.223 C  
HETATM   19  C   UNL     1      -7.338   4.303  69.504  1.00  0.00    -0.050 C  
HETATM   20  C   UNL     1      -7.931   4.132  70.902  1.00  0.00    -0.063 C  
HETATM   21  C   UNL     1      -8.158   5.201  68.586  1.00  0.00    -0.086 C  
HETATM   22  C   UNL     1      -9.454   3.944  70.931  1.00  0.00    -0.236 C  
ENDBRANCH  11  17
ENDBRANCH   9  11
ENDBRANCH   8   9
ENDBRANCH   7   8
ENDBRANCH   6   7
ENDBRANCH   3   6
ENDBRANCH   2   3
TORSDOF 8
ENDMDL
MODEL      257
REMARK 921   NORMALIZED FREE ENERGY PREDICTED BY IDOCK:   -2.46 KCAL/MOL
REMARK 922        TOTAL FREE ENERGY PREDICTED BY IDOCK:   -4.20 KCAL/MOL
REMARK 923 INTER-LIGAND FREE ENERGY PREDICTED BY IDOCK:   -3.86 KCAL/MOL
REMARK 924 INTRA-LIGAND FREE ENERGY PREDICTED BY IDOCK:   -0.34 KCAL/MOL
REMARK 927      BINDING AFFINITY PREDICTED BY RF-SCORE:    0.00 PKD
ROOT
HETATM    1  C   UNL     1      -9.977  10.072  65.168  1.00  0.00    -0.350 C  
HETATM    2  C   UNL     1      -8.590  10.703  65.258  1.00  0.00    -0.169 C  
ENDROOT
BRANCH   2   3
HETATM    3  N   UNL     1      -7.470   9.747  65.169  1.00  0.00    -0.116 NA 
BRANCH   3   4
HETATM    4  C   UNL     1      -6.223  10.323  64.648  1.00  0.00    -0.116 C  
HETATM    5  C   UNL     1      -6.128  10.450  63.133  1.00  0.00    -0.131 C  
ENDBRANCH   3   4
BRANCH   3   6
HETATM    6  C   UNL     1      -7.321   9.040  66.463  1.00  0.00    -0.085 C  
BRANCH   6   7
HETATM    7  C   UNL     1      -7.073   9.962  67.668  1.00  0.00    -0.087 C  
BRANCH   7   8
HETATM    8  O   UNL     1      -7.340   9.340  68.942  1.00  0.00    -0.072 OA 
BRANCH   8   9
HETATM    9  C   UNL     1      -8.653   9.261  69.281  1.00  0.00    -0.139 C  
HETATM   10  O   UNL     1      -9.481  10.114  68.996  1.00  0.00    -0.170 OA 
BRANCH   9  11
HETATM   11  C   UNL     1      -8.998   7.949  70.035  1.00  0.00    -0.145 C  
HETATM   12  C   UNL     1      -7.894   6.885  69.799  1.00  0.00    -0.115 C  
HETATM   13  C   UNL     1     -10.327   7.438  69.386  1.00  0.00    -0.211 C  
HETATM   14  C   UNL     1     -10.173   6.949  67.943  1.00  0.00    -0.212 C  
HETATM   15  C   UNL     1      -7.774   6.394  68.357  1.00  0.00    -0.104 C  
HETATM   16  C   UNL     1      -9.106   5.870  67.848  1.00  0.00    -0.109 C  
BRANCH  11  17
HETATM   17  C   UNL     1      -9.205   8.334  71.564  1.00  0.00    -0.231 C  
HETATM   18  C   UNL     1     -10.658   8.596  72.019  1.00  0.00    -0.421 C  
HETATM   19  C   UNL     1     -10.863   6.353  73.134  1.00  0.00    -0.282 C  
HETATM   20  C   UNL     1      -9.368   6.115  72.929  1.00  0.00    -0.143 C  
HETATM   21  C   UNL     1     -11.481   7.321  72.133  1.00  0.00    -0.310 C  
HETATM   22  C   UNL     1      -8.559   7.377  72.597  1.00  0.00    -0.141 C  
ENDBRANCH  11  17
ENDBRANCH   9  11
ENDBRANCH   8   9
ENDBRANCH   7   8
ENDBRANCH   6   7
ENDBRANCH   3   6
ENDBRANCH   2   3
TORSDOF 8
ENDMDL
MODEL      258
REMARK 921   NORMALIZED FREE ENERGY PREDICTED BY IDOCK:   -2.45 KCAL/MOL
REMARK 922        TOTAL FREE ENERGY PREDICTED BY IDOCK:   -4.18 KCAL/MOL
REMARK 923 INTER-LIGAND FREE ENERGY PREDICTED BY IDOCK:   -3.80 KCAL/MOL
REMARK 924 INTRA-LIGAND FREE ENERGY PREDICTED BY IDOCK:   -0.38 KCAL/MOL
REMARK 927      BINDING AFFINITY PREDICTED BY RF-SCORE:    0.00 PKD
ROOT
HETATM    1  C   UNL     1      -6.083   5.184  67.242  1.00  0.00    -0.030 C  
HETATM    2  C   UNL     1      -6.629   6.492  66.674  1.00  0.00    -0.048 C  
ENDROOT
BRANCH   2   3
HETATM    3  N   UNL     1      -7.507   6.336  65.500  1.00  0.00    -0.080 NA 
BRANCH   3   4
HETATM    4  C   UNL     1      -6.877   5.663  64.357  1.00  0.00    -0.050 C  
HETATM    5  C   UNL     1      -7.522   4.357  63.911  1.00  0.00    -0.059 C  
ENDBRANCH   3   4
BRANCH   3   6
HETATM    6  C   UNL     1      -8.797   5.741  65.922  1.00  0.00    -0.150 C  
BRANCH   6   7
HETATM    7  C   UNL     1      -9.594   6.595  66.923  1.00  0.00    -0.157 C  
BRANCH   7   8
HETATM    8  O   UNL     1     -10.044   7.855  66.384  1.00  0.00    -0.209 OA 
BRANCH   8   9
HETATM    9  C   UNL     1      -9.445   8.954  66.913  1.00  0.00    -0.177 C  
HETATM   10  O   UNL     1      -8.882   8.966  67.998  1.00  0.00    -0.133 OA 
BRANCH   9  11
HETATM   11  C   UNL     1      -9.516  10.186  65.970  1.00  0.00    -0.248 C  
HETATM   12  C   UNL     1      -9.231   9.761  64.506  1.00  0.00    -0.310 C  
HETATM   13  C   UNL     1      -8.365  11.134  66.445  1.00  0.00    -0.167 C  
HETATM   14  C   UNL     1      -6.957  10.599  66.170  1.00  0.00    -0.135 C  
HETATM   15  C   UNL     1      -7.813   9.253  64.249  1.00  0.00    -0.125 C  
HETATM   16  C   UNL     1      -6.780  10.273  64.695  1.00  0.00    -0.084 C  
BRANCH  11  17
HETATM   17  C   UNL     1     -10.945  10.849  66.182  1.00  0.00    -0.099 C  
HETATM   18  C   UNL     1     -11.377  11.104  67.643  1.00  0.00    -0.356 C  
HETATM   19  C   UNL     1     -10.873  13.563  67.511  1.00  0.00    -0.276 C  
HETATM   20  C   UNL     1     -10.657  13.437  66.004  1.00  0.00    -0.290 C  
HETATM   21  C   UNL     1     -10.638  12.272  68.283  1.00  0.00    -0.243 C  
HETATM   22  C   UNL     1     -11.215  12.149  65.384  1.00  0.00    -0.381 C  
ENDBRANCH  11  17
ENDBRANCH   9  11
ENDBRANCH   8   9
ENDBRANCH   7   8
ENDBRANCH   6   7
ENDBRANCH   3   6
ENDBRANCH   2   3
TORSDOF 8
ENDMDL
MODEL      259
REMARK 921   NORMALIZED FREE ENERGY PREDICTED BY IDOCK:   -2.45 KCAL/MOL
REMARK 922        TOTAL FREE ENERGY PREDICTED BY IDOCK:   -4.18 KCAL/MOL
REMARK 923 INTER-LIGAND FREE ENERGY PREDICTED BY IDOCK:   -3.97 KCAL/MOL
REMARK 924 INTRA-LIGAND FREE ENERGY PREDICTED BY IDOCK:   -0.20 KCAL/MOL
REMARK 927      BINDING AFFINITY PREDICTED BY RF-SCORE:    0.00 PKD
ROOT
HETATM    1  C   UNL     1      -7.551  17.132  69.028  1.00  0.00    -0.187 C  
HETATM    2  C   UNL     1      -8.515  17.907  68.133  1.00  0.00    -0.267 C  
ENDROOT
BRANCH   2   3
HETATM    3  N   UNL     1      -9.754  18.351  68.798  1.00  0.00    -0.355 NA 
BRANCH   3   4
HETATM    4  C   UNL     1     -10.094  19.761  68.567  1.00  0.00    -0.445 C  
HETATM    5  C   UNL     1      -9.795  20.302  67.174  1.00  0.00    -0.606 C  
ENDBRANCH   3   4
BRANCH   3   6
HETATM    6  C   UNL     1     -10.849  17.402  68.487  1.00  0.00    -0.190 C  
BRANCH   6   7
HETATM    7  C   UNL     1     -10.532  16.415  67.351  1.00  0.00    -0.309 C  
BRANCH   7   8
HETATM    8  O   UNL     1     -10.570  15.030  67.754  1.00  0.00    -0.256 OA 
BRANCH   8   9
HETATM    9  C   UNL     1      -9.577  14.255  67.246  1.00  0.00    -0.232 C  
HETATM   10  O   UNL     1      -8.901  14.565  66.275  1.00  0.00    -0.129 OA 
BRANCH   9  11
HETATM   11  C   UNL     1      -9.363  12.950  68.059  1.00  0.00    -0.213 C  
HETATM   12  C   UNL     1      -8.609  13.254  69.380  1.00  0.00     1.068 C  
HETATM   13  C   UNL     1      -8.449  12.051  67.160  1.00  0.00    -0.180 C  
HETATM   14  C   UNL     1      -7.017  12.571  67.004  1.00  0.00     0.034 C  
HETATM   15  C   UNL     1      -7.174  13.749  69.201  1.00  0.00    -0.016 C  
HETATM   16  C   UNL     1      -6.363  12.775  68.362  1.00  0.00    -0.078 C  
BRANCH  11  17
HETATM   17  C   UNL     1     -10.797  12.297  68.272  1.00  0.00    -0.254 C  
HETATM   18  C   UNL     1     -11.233  11.237  67.236  1.00  0.00    -0.364 C  
HETATM   19  C   UNL     1     -10.745   9.318  68.784  1.00  0.00    -0.184 C  
HETATM   20  C   UNL     1     -10.525  10.302  69.932  1.00  0.00    -0.304 C  
HETATM   21  C   UNL     1     -10.502   9.911  67.403  1.00  0.00    -0.325 C  
HETATM   22  C   UNL     1     -11.074  11.713  69.680  1.00  0.00    -0.177 C  
ENDBRANCH  11  17
ENDBRANCH   9  11
ENDBRANCH   8   9
ENDBRANCH   7   8
ENDBRANCH   6   7
ENDBRANCH   3   6
ENDBRANCH   2   3
TORSDOF 8
ENDMDL
MODEL      260
REMARK 921   NORMALIZED FREE ENERGY PREDICTED BY IDOCK:   -2.43 KCAL/MOL
REMARK 922        TOTAL FREE ENERGY PREDICTED BY IDOCK:   -4.15 KCAL/MOL
REMARK 923 INTER-LIGAND FREE ENERGY PREDICTED BY IDOCK:   -3.64 KCAL/MOL
REMARK 924 INTRA-LIGAND FREE ENERGY PREDICTED BY IDOCK:   -0.51 KCAL/MOL
REMARK 927      BINDING AFFINITY PREDICTED BY RF-SCORE:    0.00 PKD
ROOT
HETATM    1  C   UNL     1     -10.147   5.032  66.249  1.00  0.00    -0.275 C  
HETATM    2  C   UNL     1      -9.284   3.884  66.764  1.00  0.00    -0.172 C  
ENDROOT
BRANCH   2   3
HETATM    3  N   UNL     1      -7.899   4.258  67.107  1.00  0.00    -0.095 NA 
BRANCH   3   4
HETATM    4  C   UNL     1      -7.645   5.704  67.112  1.00  0.00    -0.096 C  
HETATM    5  C   UNL     1      -6.402   6.163  67.864  1.00  0.00    -0.040 C  
ENDBRANCH   3   4
BRANCH   3   6
HETATM    6  C   UNL     1      -7.493   3.563  68.351  1.00  0.00    -0.053 C  
BRANCH   6   7
HETATM    7  C   UNL     1      -8.545   3.599  69.472  1.00  0.00    -0.067 C  
BRANCH   7   8
HETATM    8  O   UNL     1      -8.016   3.989  70.756  1.00  0.00    -0.057 OA 
BRANCH   8   9
HETATM    9  C   UNL     1      -8.937   4.441  71.646  1.00  0.00    -0.124 C  
HETATM   10  O   UNL     1      -9.715   3.715  72.248  1.00  0.00    -0.139 OA 
BRANCH   9  11
HETATM   11  C   UNL     1      -8.869   5.979  71.848  1.00  0.00    -0.138 C  
HETATM   12  C   UNL     1      -7.405   6.476  71.717  1.00  0.00    -0.087 C  
HETATM   13  C   UNL     1      -9.346   6.222  73.319  1.00  0.00    -0.136 C  
HETATM   14  C   UNL     1      -8.373   5.714  74.387  1.00  0.00    -0.105 C  
HETATM   15  C   UNL     1      -6.458   5.975  72.806  1.00  0.00    -0.063 C  
HETATM   16  C   UNL     1      -6.990   6.313  74.189  1.00  0.00    -0.082 C  
BRANCH  11  17
HETATM   17  C   UNL     1      -9.867   6.629  70.795  1.00  0.00    -0.198 C  
HETATM   18  C   UNL     1     -11.369   6.324  70.988  1.00  0.00    -0.378 C  
HETATM   19  C   UNL     1     -11.843   8.580  71.991  1.00  0.00    -0.429 C  
HETATM   20  C   UNL     1     -10.434   9.040  71.618  1.00  0.00    -0.426 C  
HETATM   21  C   UNL     1     -11.978   7.073  72.166  1.00  0.00    -0.299 C  
HETATM   22  C   UNL     1      -9.726   8.157  70.581  1.00  0.00    -0.184 C  
ENDBRANCH  11  17
ENDBRANCH   9  11
ENDBRANCH   8   9
ENDBRANCH   7   8
ENDBRANCH   6   7
ENDBRANCH   3   6
ENDBRANCH   2   3
TORSDOF 8
ENDMDL
MODEL      261
REMARK 921   NORMALIZED FREE ENERGY PREDICTED BY IDOCK:   -2.41 KCAL/MOL
REMARK 922        TOTAL FREE ENERGY PREDICTED BY IDOCK:   -4.11 KCAL/MOL
REMARK 923 INTER-LIGAND FREE ENERGY PREDICTED BY IDOCK:   -3.67 KCAL/MOL
REMARK 924 INTRA-LIGAND FREE ENERGY PREDICTED BY IDOCK:   -0.45 KCAL/MOL
REMARK 927      BINDING AFFINITY PREDICTED BY RF-SCORE:    0.00 PKD
ROOT
HETATM    1  C   UNL     1     -11.323  15.124  66.525  1.00  0.00    -0.234 C  
HETATM    2  C   UNL     1     -12.378  14.026  66.413  1.00  0.00    -0.431 C  
ENDROOT
BRANCH   2   3
HETATM    3  N   UNL     1     -11.876  12.736  65.905  1.00  0.00    -0.416 NA 
BRANCH   3   4
HETATM    4  C   UNL     1     -12.068  12.537  64.463  1.00  0.00    -0.425 C  
HETATM    5  C   UNL     1     -11.130  11.538  63.796  1.00  0.00    -0.471 C  
ENDBRANCH   3   4
BRANCH   3   6
HETATM    6  C   UNL     1     -10.484  12.531  66.370  1.00  0.00    -0.247 C  
BRANCH   6   7
HETATM    7  C   UNL     1     -10.354  11.653  67.625  1.00  0.00    -0.189 C  
BRANCH   7   8
HETATM    8  O   UNL     1      -8.999  11.254  67.920  1.00  0.00    -0.138 OA 
BRANCH   8   9
HETATM    9  C   UNL     1      -8.880  10.114  68.649  1.00  0.00    -0.136 C  
HETATM   10  O   UNL     1      -9.726   9.721  69.440  1.00  0.00    -0.179 OA 
BRANCH   9  11
HETATM   11  C   UNL     1      -7.571   9.340  68.339  1.00  0.00    -0.086 C  
HETATM   12  C   UNL     1      -7.037   8.647  69.621  1.00  0.00    -0.055 C  
HETATM   13  C   UNL     1      -6.541  10.434  67.900  1.00  0.00    -0.061 C  
HETATM   14  C   UNL     1      -6.101  11.371  69.028  1.00  0.00    -0.054 C  
HETATM   15  C   UNL     1      -6.582   9.602  70.724  1.00  0.00    -0.099 C  
HETATM   16  C   UNL     1      -5.544  10.582  70.202  1.00  0.00    -0.063 C  
BRANCH  11  17
HETATM   17  C   UNL     1      -7.897   8.334  67.152  1.00  0.00    -0.097 C  
HETATM   18  C   UNL     1      -6.953   8.378  65.931  1.00  0.00    -0.068 C  
HETATM   19  C   UNL     1      -5.733   6.292  66.620  1.00  0.00    -0.016 C  
HETATM   20  C   UNL     1      -6.771   6.048  67.714  1.00  0.00    -0.058 C  
HETATM   21  C   UNL     1      -5.593   7.752  66.211  1.00  0.00    -0.029 C  
HETATM   22  C   UNL     1      -8.071   6.847  67.552  1.00  0.00    -0.116 C  
ENDBRANCH  11  17
ENDBRANCH   9  11
ENDBRANCH   8   9
ENDBRANCH   7   8
ENDBRANCH   6   7
ENDBRANCH   3   6
ENDBRANCH   2   3
TORSDOF 8
ENDMDL
MODEL      262
REMARK 921   NORMALIZED FREE ENERGY PREDICTED BY IDOCK:   -2.40 KCAL/MOL
REMARK 922        TOTAL FREE ENERGY PREDICTED BY IDOCK:   -4.10 KCAL/MOL
REMARK 923 INTER-LIGAND FREE ENERGY PREDICTED BY IDOCK:   -3.78 KCAL/MOL
REMARK 924 INTRA-LIGAND FREE ENERGY PREDICTED BY IDOCK:   -0.33 KCAL/MOL
REMARK 927      BINDING AFFINITY PREDICTED BY RF-SCORE:    0.00 PKD
ROOT
HETATM    1  C   UNL     1      -7.218   4.209  65.070  1.00  0.00    -0.071 C  
HETATM    2  C   UNL     1      -7.573   4.223  66.555  1.00  0.00    -0.089 C  
ENDROOT
BRANCH   2   3
HETATM    3  N   UNL     1      -8.926   3.726  66.871  1.00  0.00    -0.131 NA 
BRANCH   3   4
HETATM    4  C   UNL     1      -9.061   2.265  66.825  1.00  0.00    -0.080 C  
HETATM    5  C   UNL     1      -8.110   1.477  67.718  1.00  0.00    -0.063 C  
ENDBRANCH   3   4
BRANCH   3   6
HETATM    6  C   UNL     1      -9.395   4.342  68.135  1.00  0.00    -0.146 C  
BRANCH   6   7
HETATM    7  C   UNL     1      -8.269   4.772  69.090  1.00  0.00    -0.081 C  
BRANCH   7   8
HETATM    8  O   UNL     1      -8.726   5.546  70.218  1.00  0.00    -0.125 OA 
BRANCH   8   9
HETATM    9  C   UNL     1      -8.583   6.891  70.089  1.00  0.00    -0.141 C  
HETATM   10  O   UNL     1      -7.801   7.421  69.313  1.00  0.00    -0.111 OA 
BRANCH   9  11
HETATM   11  C   UNL     1      -9.552   7.686  71.005  1.00  0.00    -0.169 C  
HETATM   12  C   UNL     1      -8.815   8.885  71.658  1.00  0.00    -0.214 C  
HETATM   13  C   UNL     1      -9.966   6.683  72.133  1.00  0.00    -0.173 C  
HETATM   14  C   UNL     1      -8.834   6.322  73.099  1.00  0.00    -0.129 C  
HETATM   15  C   UNL     1      -7.705   8.501  72.636  1.00  0.00    -0.073 C  
HETATM   16  C   UNL     1      -8.230   7.573  73.718  1.00  0.00    -0.205 C  
BRANCH  11  17
HETATM   17  C   UNL     1     -10.797   8.106  70.110  1.00  0.00    -0.241 C  
HETATM   18  C   UNL     1     -12.162   7.496  70.497  1.00  0.00     0.032 C  
HETATM   19  C   UNL     1     -12.953   9.611  71.602  1.00  0.00    -0.501 C  
HETATM   20  C   UNL     1     -11.734  10.352  71.052  1.00  0.00    -0.430 C  
HETATM   21  C   UNL     1     -12.747   8.110  71.762  1.00  0.00    -0.356 C  
HETATM   22  C   UNL     1     -11.007   9.628  69.911  1.00  0.00    -0.281 C  
ENDBRANCH  11  17
ENDBRANCH   9  11
ENDBRANCH   8   9
ENDBRANCH   7   8
ENDBRANCH   6   7
ENDBRANCH   3   6
ENDBRANCH   2   3
TORSDOF 8
ENDMDL
MODEL      263
REMARK 921   NORMALIZED FREE ENERGY PREDICTED BY IDOCK:   -2.39 KCAL/MOL
REMARK 922        TOTAL FREE ENERGY PREDICTED BY IDOCK:   -4.09 KCAL/MOL
REMARK 923 INTER-LIGAND FREE ENERGY PREDICTED BY IDOCK:   -3.79 KCAL/MOL
REMARK 924 INTRA-LIGAND FREE ENERGY PREDICTED BY IDOCK:   -0.30 KCAL/MOL
REMARK 927      BINDING AFFINITY PREDICTED BY RF-SCORE:    0.00 PKD
ROOT
HETATM    1  C   UNL     1      -8.823   1.481  66.872  1.00  0.00    -0.127 C  
HETATM    2  C   UNL     1      -9.187   2.949  67.079  1.00  0.00    -0.149 C  
ENDROOT
BRANCH   2   3
HETATM    3  N   UNL     1      -8.721   3.857  66.014  1.00  0.00    -0.112 NA 
BRANCH   3   4
HETATM    4  C   UNL     1      -9.795   4.426  65.190  1.00  0.00    -0.182 C  
HETATM    5  C   UNL     1     -10.795   5.316  65.917  1.00  0.00     0.009 C  
ENDBRANCH   3   4
BRANCH   3   6
HETATM    6  C   UNL     1      -7.798   4.862  66.592  1.00  0.00    -0.099 C  
BRANCH   6   7
HETATM    7  C   UNL     1      -8.171   5.329  68.009  1.00  0.00    -0.098 C  
BRANCH   7   8
HETATM    8  O   UNL     1      -8.793   6.630  68.048  1.00  0.00    -0.117 OA 
BRANCH   8   9
HETATM    9  C   UNL     1      -8.331   7.460  69.019  1.00  0.00    -0.126 C  
HETATM   10  O   UNL     1      -7.412   7.177  69.775  1.00  0.00    -0.092 OA 
BRANCH   9  11
HETATM   11  C   UNL     1      -9.069   8.826  69.040  1.00  0.00    -0.141 C  
HETATM   12  C   UNL     1      -8.824   9.551  70.389  1.00  0.00    -0.279 C  
HETATM   13  C   UNL     1     -10.590   8.473  68.935  1.00  0.00    -0.166 C  
HETATM   14  C   UNL     1     -11.161   7.780  70.176  1.00  0.00    -0.216 C  
HETATM   15  C   UNL     1      -9.422   8.854  71.611  1.00  0.00    -0.351 C  
HETATM   16  C   UNL     1     -10.911   8.611  71.424  1.00  0.00    -0.339 C  
BRANCH  11  17
HETATM   17  C   UNL     1      -8.569   9.642  67.770  1.00  0.00    -0.125 C  
HETATM   18  C   UNL     1      -9.567   9.774  66.599  1.00  0.00    -0.239 C  
HETATM   19  C   UNL     1     -10.165  12.143  67.190  1.00  0.00    -0.226 C  
HETATM   20  C   UNL     1      -9.033  12.171  68.216  1.00  0.00    -0.186 C  
HETATM   21  C   UNL     1     -10.700  10.748  66.894  1.00  0.00    -0.309 C  
HETATM   22  C   UNL     1      -7.995  11.052  68.054  1.00  0.00    -0.115 C  
ENDBRANCH  11  17
ENDBRANCH   9  11
ENDBRANCH   8   9
ENDBRANCH   7   8
ENDBRANCH   6   7
ENDBRANCH   3   6
ENDBRANCH   2   3
TORSDOF 8
ENDMDL
MODEL      264
REMARK 921   NORMALIZED FREE ENERGY PREDICTED BY IDOCK:   -2.38 KCAL/MOL
REMARK 922        TOTAL FREE ENERGY PREDICTED BY IDOCK:   -4.07 KCAL/MOL
REMARK 923 INTER-LIGAND FREE ENERGY PREDICTED BY IDOCK:   -3.80 KCAL/MOL
REMARK 924 INTRA-LIGAND FREE ENERGY PREDICTED BY IDOCK:   -0.27 KCAL/MOL
REMARK 927      BINDING AFFINITY PREDICTED BY RF-SCORE:    0.00 PKD
ROOT
HETATM    1  C   UNL     1     -11.372   4.554  73.238  1.00  0.00    -0.364 C  
HETATM    2  C   UNL     1      -9.905   4.142  73.142  1.00  0.00    -0.128 C  
ENDROOT
BRANCH   2   3
HETATM    3  N   UNL     1      -9.047   5.081  72.397  1.00  0.00    -0.133 NA 
BRANCH   3   4
HETATM    4  C   UNL     1      -7.720   4.552  72.059  1.00  0.00    -0.089 C  
HETATM    5  C   UNL     1      -7.431   3.128  72.518  1.00  0.00    -0.052 C  
ENDBRANCH   3   4
BRANCH   3   6
HETATM    6  C   UNL     1      -9.799   5.626  71.242  1.00  0.00    -0.175 C  
BRANCH   6   7
HETATM    7  C   UNL     1      -9.360   7.034  70.804  1.00  0.00    -0.161 C  
BRANCH   7   8
HETATM    8  O   UNL     1      -8.914   7.105  69.434  1.00  0.00    -0.136 OA 
BRANCH   8   9
HETATM    9  C   UNL     1      -9.823   7.605  68.557  1.00  0.00    -0.167 C  
HETATM   10  O   UNL     1     -10.953   7.158  68.420  1.00  0.00    -0.133 OA 
BRANCH   9  11
HETATM   11  C   UNL     1      -9.287   8.835  67.776  1.00  0.00    -0.157 C  
HETATM   12  C   UNL     1      -9.524   8.652  66.254  1.00  0.00    -0.307 C  
HETATM   13  C   UNL     1      -7.744   8.849  68.040  1.00  0.00    -0.101 C  
HETATM   14  C   UNL     1      -6.984   7.694  67.383  1.00  0.00    -0.084 C  
HETATM   15  C   UNL     1      -8.737   7.508  65.615  1.00  0.00    -0.105 C  
HETATM   16  C   UNL     1      -7.249   7.653  65.887  1.00  0.00    -0.069 C  
BRANCH  11  17
HETATM   17  C   UNL     1      -9.998  10.119  68.388  1.00  0.00    -0.173 C  
HETATM   18  C   UNL     1      -9.088  11.330  68.695  1.00  0.00    -0.153 C  
HETATM   19  C   UNL     1      -9.830  12.584  66.646  1.00  0.00    -0.245 C  
HETATM   20  C   UNL     1     -10.919  11.541  66.403  1.00  0.00    -0.336 C  
HETATM   21  C   UNL     1      -8.638  12.064  67.439  1.00  0.00    -0.171 C  
HETATM   22  C   UNL     1     -11.230  10.647  67.612  1.00  0.00    -0.361 C  
ENDBRANCH  11  17
ENDBRANCH   9  11
ENDBRANCH   8   9
ENDBRANCH   7   8
ENDBRANCH   6   7
ENDBRANCH   3   6
ENDBRANCH   2   3
TORSDOF 8
ENDMDL
MODEL      265
REMARK 921   NORMALIZED FREE ENERGY PREDICTED BY IDOCK:   -2.38 KCAL/MOL
REMARK 922        TOTAL FREE ENERGY PREDICTED BY IDOCK:   -4.07 KCAL/MOL
REMARK 923 INTER-LIGAND FREE ENERGY PREDICTED BY IDOCK:   -5.38 KCAL/MOL
REMARK 924 INTRA-LIGAND FREE ENERGY PREDICTED BY IDOCK:    1.31 KCAL/MOL
REMARK 927      BINDING AFFINITY PREDICTED BY RF-SCORE:    0.00 PKD
ROOT
HETATM    1  C   UNL     1      -9.428  19.254  68.810  1.00  0.00    -0.459 C  
HETATM    2  C   UNL     1      -9.937  17.953  68.195  1.00  0.00    -0.350 C  
ENDROOT
BRANCH   2   3
HETATM    3  N   UNL     1      -9.999  17.948  66.722  1.00  0.00    -0.322 NA 
BRANCH   3   4
HETATM    4  C   UNL     1      -9.552  19.198  66.093  1.00  0.00    -0.280 C  
HETATM    5  C   UNL     1     -10.650  20.181  65.706  1.00  0.00    -0.344 C  
ENDBRANCH   3   4
BRANCH   3   6
HETATM    6  C   UNL     1      -9.331  16.731  66.203  1.00  0.00    -0.255 C  
BRANCH   6   7
HETATM    7  C   UNL     1     -10.254  15.785  65.418  1.00  0.00    -0.349 C  
BRANCH   7   8
HETATM    8  O   UNL     1     -10.029  14.387  65.696  1.00  0.00    -0.332 OA 
BRANCH   8   9
HETATM    9  C   UNL     1     -11.141  13.676  66.014  1.00  0.00    -0.293 C  
HETATM   10  O   UNL     1     -12.217  13.808  65.448  1.00  0.00    -0.388 OA 
BRANCH   9  11
HETATM   11  C   UNL     1     -10.889  12.645  67.147  1.00  0.00    -0.282 C  
HETATM   12  C   UNL     1     -12.034  12.703  68.193  1.00  0.00    -0.274 C  
HETATM   13  C   UNL     1      -9.562  13.108  67.836  1.00  0.00    -0.218 C  
HETATM   14  C   UNL     1      -9.685  14.420  68.616  1.00  0.00    -0.216 C  
HETATM   15  C   UNL     1     -12.122  14.012  68.976  1.00  0.00    -0.358 C  
HETATM   16  C   UNL     1     -10.798  14.335  69.648  1.00  0.00    -0.101 C  
BRANCH  11  17
HETATM   17  C   UNL     1     -10.723  11.224  66.452  1.00  0.00    -0.320 C  
HETATM   18  C   UNL     1     -11.506  11.004  65.138  1.00  0.00     0.385 C  
HETATM   19  C   UNL     1      -9.467  11.322  63.705  1.00  0.00    -0.244 C  
HETATM   20  C   UNL     1      -8.588  11.315  64.955  1.00  0.00     0.258 C  
HETATM   21  C   UNL     1     -10.905  11.755  63.958  1.00  0.00    -0.446 C  
HETATM   22  C   UNL     1      -9.268  10.753  66.211  1.00  0.00    -0.195 C  
ENDBRANCH  11  17
ENDBRANCH   9  11
ENDBRANCH   8   9
ENDBRANCH   7   8
ENDBRANCH   6   7
ENDBRANCH   3   6
ENDBRANCH   2   3
TORSDOF 8
ENDMDL
MODEL      266
REMARK 921   NORMALIZED FREE ENERGY PREDICTED BY IDOCK:   -2.32 KCAL/MOL
REMARK 922        TOTAL FREE ENERGY PREDICTED BY IDOCK:   -3.99 KCAL/MOL
REMARK 923 INTER-LIGAND FREE ENERGY PREDICTED BY IDOCK:   -3.35 KCAL/MOL
REMARK 924 INTRA-LIGAND FREE ENERGY PREDICTED BY IDOCK:   -0.64 KCAL/MOL
REMARK 927      BINDING AFFINITY PREDICTED BY RF-SCORE:    0.00 PKD
ROOT
HETATM    1  C   UNL     1      -6.692   1.785  67.251  1.00  0.00    -0.035 C  
HETATM    2  C   UNL     1      -7.263   2.995  67.985  1.00  0.00    -0.050 C  
ENDROOT
BRANCH   2   3
HETATM    3  N   UNL     1      -8.683   3.277  67.703  1.00  0.00    -0.107 NA 
BRANCH   3   4
HETATM    4  C   UNL     1      -9.015   3.340  66.273  1.00  0.00    -0.149 C  
HETATM    5  C   UNL     1      -9.442   4.704  65.746  1.00  0.00    -0.176 C  
ENDBRANCH   3   4
BRANCH   3   6
HETATM    6  C   UNL     1      -9.535   2.352  68.486  1.00  0.00    -0.145 C  
BRANCH   6   7
HETATM    7  C   UNL     1      -9.681   2.724  69.971  1.00  0.00     0.081 C  
BRANCH   7   8
HETATM    8  O   UNL     1      -9.917   4.129  70.199  1.00  0.00    -0.209 OA 
BRANCH   8   9
HETATM    9  C   UNL     1      -9.106   4.707  71.122  1.00  0.00    -0.133 C  
HETATM   10  O   UNL     1      -8.236   4.105  71.736  1.00  0.00    -0.087 OA 
BRANCH   9  11
HETATM   11  C   UNL     1      -9.375   6.227  71.287  1.00  0.00    -0.164 C  
HETATM   12  C   UNL     1      -9.516   6.903  69.898  1.00  0.00    -0.156 C  
HETATM   13  C   UNL     1      -8.097   6.797  71.989  1.00  0.00    -0.101 C  
HETATM   14  C   UNL     1      -6.841   6.786  71.113  1.00  0.00    -0.058 C  
HETATM   15  C   UNL     1      -8.244   6.900  69.050  1.00  0.00    -0.125 C  
HETATM   16  C   UNL     1      -7.084   7.526  69.807  1.00  0.00    -0.068 C  
BRANCH  11  17
HETATM   17  C   UNL     1     -10.663   6.373  72.208  1.00  0.00    -0.253 C  
HETATM   18  C   UNL     1     -10.732   7.631  73.102  1.00  0.00    -0.445 C  
HETATM   19  C   UNL     1     -12.369   8.790  71.587  1.00  0.00    -0.394 C  
HETATM   20  C   UNL     1     -12.536   7.501  70.783  1.00  0.00    -0.072 C  
HETATM   21  C   UNL     1     -11.037   8.899  72.316  1.00  0.00    -0.256 C  
HETATM   22  C   UNL     1     -12.028   6.237  71.489  1.00  0.00    -0.245 C  
ENDBRANCH  11  17
ENDBRANCH   9  11
ENDBRANCH   8   9
ENDBRANCH   7   8
ENDBRANCH   6   7
ENDBRANCH   3   6
ENDBRANCH   2   3
TORSDOF 8
ENDMDL
MODEL      267
REMARK 921   NORMALIZED FREE ENERGY PREDICTED BY IDOCK:   -2.32 KCAL/MOL
REMARK 922        TOTAL FREE ENERGY PREDICTED BY IDOCK:   -3.98 KCAL/MOL
REMARK 923 INTER-LIGAND FREE ENERGY PREDICTED BY IDOCK:   -4.36 KCAL/MOL
REMARK 924 INTRA-LIGAND FREE ENERGY PREDICTED BY IDOCK:    0.38 KCAL/MOL
REMARK 927      BINDING AFFINITY PREDICTED BY RF-SCORE:    0.00 PKD
ROOT
HETATM    1  C   UNL     1      -9.219  19.562  68.673  1.00  0.00    -0.410 C  
HETATM    2  C   UNL     1      -7.791  19.237  68.244  1.00  0.00    -0.319 C  
ENDROOT
BRANCH   2   3
HETATM    3  N   UNL     1      -7.649  18.815  66.838  1.00  0.00    -0.222 NA 
BRANCH   3   4
HETATM    4  C   UNL     1      -6.751  19.660  66.040  1.00  0.00    -0.236 C  
HETATM    5  C   UNL     1      -6.160  19.015  64.792  1.00  0.00    -0.289 C  
ENDBRANCH   3   4
BRANCH   3   6
HETATM    6  C   UNL     1      -7.333  17.369  66.786  1.00  0.00    -0.215 C  
BRANCH   6   7
HETATM    7  C   UNL     1      -8.167  16.500  67.741  1.00  0.00    -0.165 C  
BRANCH   7   8
HETATM    8  O   UNL     1      -9.178  15.711  67.079  1.00  0.00    -0.206 OA 
BRANCH   8   9
HETATM    9  C   UNL     1     -10.442  16.197  67.173  1.00  0.00    -0.305 C  
HETATM   10  O   UNL     1     -10.730  17.376  67.024  1.00  0.00    -0.279 OA 
BRANCH   9  11
HETATM   11  C   UNL     1     -11.491  15.087  67.451  1.00  0.00    -0.326 C  
HETATM   12  C   UNL     1     -12.486  15.547  68.549  1.00  0.00     0.521 C  
HETATM   13  C   UNL     1     -10.670  13.874  68.001  1.00  0.00    -0.255 C  
HETATM   14  C   UNL     1     -10.068  14.101  69.390  1.00  0.00     0.176 C  
HETATM   15  C   UNL     1     -11.867  15.745  69.932  1.00  0.00    -0.355 C  
HETATM   16  C   UNL     1     -11.145  14.490  70.391  1.00  0.00    -0.037 C  
BRANCH  11  17
HETATM   17  C   UNL     1     -12.182  14.744  66.060  1.00  0.00    -0.044 C  
HETATM   18  C   UNL     1     -11.303  14.895  64.798  1.00  0.00    -0.400 C  
HETATM   19  C   UNL     1     -10.931  12.418  64.589  1.00  0.00    -0.344 C  
HETATM   20  C   UNL     1     -11.972  12.171  65.680  1.00  0.00    -0.280 C  
HETATM   21  C   UNL     1     -10.267  13.787  64.663  1.00  0.00    -0.313 C  
HETATM   22  C   UNL     1     -12.887  13.368  65.974  1.00  0.00    -0.058 C  
ENDBRANCH  11  17
ENDBRANCH   9  11
ENDBRANCH   8   9
ENDBRANCH   7   8
ENDBRANCH   6   7
ENDBRANCH   3   6
ENDBRANCH   2   3
TORSDOF 8
ENDMDL
MODEL      268
REMARK 921   NORMALIZED FREE ENERGY PREDICTED BY IDOCK:   -2.30 KCAL/MOL
REMARK 922        TOTAL FREE ENERGY PREDICTED BY IDOCK:   -3.95 KCAL/MOL
REMARK 923 INTER-LIGAND FREE ENERGY PREDICTED BY IDOCK:   -4.17 KCAL/MOL
REMARK 924 INTRA-LIGAND FREE ENERGY PREDICTED BY IDOCK:    0.22 KCAL/MOL
REMARK 927      BINDING AFFINITY PREDICTED BY RF-SCORE:    0.00 PKD
ROOT
HETATM    1  C   UNL     1     -12.619  11.436  70.673  1.00  0.00    -0.360 C  
HETATM    2  C   UNL     1     -11.315  10.728  70.318  1.00  0.00    -0.290 C  
ENDROOT
BRANCH   2   3
HETATM    3  N   UNL     1     -10.995  10.705  68.879  1.00  0.00    -0.231 NA 
BRANCH   3   4
HETATM    4  C   UNL     1     -10.167  11.830  68.425  1.00  0.00    -0.206 C  
HETATM    5  C   UNL     1     -10.922  13.051  67.913  1.00  0.00    -0.264 C  
ENDBRANCH   3   4
BRANCH   3   6
HETATM    6  C   UNL     1     -10.465   9.371  68.511  1.00  0.00    -0.208 C  
BRANCH   6   7
HETATM    7  C   UNL     1     -10.603   8.306  69.612  1.00  0.00    -0.222 C  
BRANCH   7   8
HETATM    8  O   UNL     1      -9.522   7.350  69.636  1.00  0.00    -0.157 OA 
BRANCH   8   9
HETATM    9  C   UNL     1      -9.906   6.047  69.648  1.00  0.00    -0.163 C  
HETATM   10  O   UNL     1     -11.030   5.667  69.352  1.00  0.00    -0.320 OA 
BRANCH   9  11
HETATM   11  C   UNL     1      -8.751   5.087  70.037  1.00  0.00    -0.119 C  
HETATM   12  C   UNL     1      -9.316   3.808  70.710  1.00  0.00    -0.218 C  
HETATM   13  C   UNL     1      -7.903   5.871  71.094  1.00  0.00    -0.111 C  
HETATM   14  C   UNL     1      -8.611   6.083  72.435  1.00  0.00    -0.120 C  
HETATM   15  C   UNL     1      -9.997   4.040  72.058  1.00  0.00    -0.246 C  
HETATM   16  C   UNL     1      -9.067   4.757  73.023  1.00  0.00    -0.127 C  
BRANCH  11  17
HETATM   17  C   UNL     1      -7.918   4.803  68.713  1.00  0.00    -0.079 C  
HETATM   18  C   UNL     1      -8.085   3.403  68.081  1.00  0.00    -0.079 C  
HETATM   19  C   UNL     1      -9.613   4.248  66.272  1.00  0.00    -0.204 C  
HETATM   20  C   UNL     1      -9.312   5.686  66.691  1.00  0.00    -0.151 C  
HETATM   21  C   UNL     1      -9.428   3.225  67.385  1.00  0.00    -0.198 C  
HETATM   22  C   UNL     1      -8.070   5.847  67.579  1.00  0.00    -0.102 C  
ENDBRANCH  11  17
ENDBRANCH   9  11
ENDBRANCH   8   9
ENDBRANCH   7   8
ENDBRANCH   6   7
ENDBRANCH   3   6
ENDBRANCH   2   3
TORSDOF 8
ENDMDL
MODEL      269
REMARK 921   NORMALIZED FREE ENERGY PREDICTED BY IDOCK:   -2.26 KCAL/MOL
REMARK 922        TOTAL FREE ENERGY PREDICTED BY IDOCK:   -3.90 KCAL/MOL
REMARK 923 INTER-LIGAND FREE ENERGY PREDICTED BY IDOCK:   -4.36 KCAL/MOL
REMARK 924 INTRA-LIGAND FREE ENERGY PREDICTED BY IDOCK:    0.47 KCAL/MOL
REMARK 927      BINDING AFFINITY PREDICTED BY RF-SCORE:    0.00 PKD
ROOT
HETATM    1  C   UNL     1     -11.975  12.593  68.582  1.00  0.00    -0.264 C  
HETATM    2  C   UNL     1     -10.952  11.696  69.274  1.00  0.00    -0.192 C  
ENDROOT
BRANCH   2   3
HETATM    3  N   UNL     1     -11.466  10.962  70.445  1.00  0.00    -0.305 NA 
BRANCH   3   4
HETATM    4  C   UNL     1     -12.922  11.042  70.619  1.00  0.00    -0.131 C  
HETATM    5  C   UNL     1     -13.407  11.806  71.844  1.00  0.00    -0.401 C  
ENDBRANCH   3   4
BRANCH   3   6
HETATM    6  C   UNL     1     -10.927   9.581  70.438  1.00  0.00    -0.278 C  
BRANCH   6   7
HETATM    7  C   UNL     1      -9.398   9.495  70.309  1.00  0.00    -0.259 C  
BRANCH   7   8
HETATM    8  O   UNL     1      -8.899   8.149  70.169  1.00  0.00    -0.142 OA 
BRANCH   8   9
HETATM    9  C   UNL     1      -9.278   7.510  69.031  1.00  0.00    -0.146 C  
HETATM   10  O   UNL     1      -9.449   8.073  67.960  1.00  0.00    -0.144 OA 
BRANCH   9  11
HETATM   11  C   UNL     1      -9.429   5.977  69.228  1.00  0.00    -0.152 C  
HETATM   12  C   UNL     1     -10.907   5.616  69.530  1.00  0.00    -0.345 C  
HETATM   13  C   UNL     1      -8.567   5.637  70.489  1.00  0.00    -0.129 C  
HETATM   14  C   UNL     1      -9.130   6.188  71.802  1.00  0.00    -0.145 C  
HETATM   15  C   UNL     1     -11.441   6.156  70.857  1.00  0.00    -0.317 C  
HETATM   16  C   UNL     1     -10.561   5.720  72.016  1.00  0.00    -0.276 C  
BRANCH  11  17
HETATM   17  C   UNL     1      -8.852   5.282  67.919  1.00  0.00    -0.105 C  
HETATM   18  C   UNL     1      -7.324   5.057  67.876  1.00  0.00    -0.075 C  
HETATM   19  C   UNL     1      -7.529   2.609  68.410  1.00  0.00    -0.048 C  
HETATM   20  C   UNL     1      -9.044   2.699  68.239  1.00  0.00    -0.228 C  
HETATM   21  C   UNL     1      -6.867   3.927  68.789  1.00  0.00    -0.046 C  
HETATM   22  C   UNL     1      -9.531   3.954  67.501  1.00  0.00    -0.236 C  
ENDBRANCH  11  17
ENDBRANCH   9  11
ENDBRANCH   8   9
ENDBRANCH   7   8
ENDBRANCH   6   7
ENDBRANCH   3   6
ENDBRANCH   2   3
TORSDOF 8
ENDMDL
MODEL      270
REMARK 921   NORMALIZED FREE ENERGY PREDICTED BY IDOCK:   -2.25 KCAL/MOL
REMARK 922        TOTAL FREE ENERGY PREDICTED BY IDOCK:   -3.89 KCAL/MOL
REMARK 923 INTER-LIGAND FREE ENERGY PREDICTED BY IDOCK:   -3.79 KCAL/MOL
REMARK 924 INTRA-LIGAND FREE ENERGY PREDICTED BY IDOCK:   -0.10 KCAL/MOL
REMARK 927      BINDING AFFINITY PREDICTED BY RF-SCORE:    0.00 PKD
ROOT
HETATM    1  C   UNL     1     -10.953   5.385  73.073  1.00  0.00    -0.348 C  
HETATM    2  C   UNL     1     -10.377   4.028  72.677  1.00  0.00    -0.158 C  
ENDROOT
BRANCH   2   3
HETATM    3  N   UNL     1      -9.098   4.089  71.946  1.00  0.00    -0.117 NA 
BRANCH   3   4
HETATM    4  C   UNL     1      -8.536   2.777  71.598  1.00  0.00    -0.064 C  
HETATM    5  C   UNL     1      -9.442   1.854  70.793  1.00  0.00    -0.188 C  
ENDBRANCH   3   4
BRANCH   3   6
HETATM    6  C   UNL     1      -9.227   5.021  70.801  1.00  0.00    -0.145 C  
BRANCH   6   7
HETATM    7  C   UNL     1      -8.081   6.038  70.676  1.00  0.00    -0.116 C  
BRANCH   7   8
HETATM    8  O   UNL     1      -7.729   6.354  69.313  1.00  0.00    -0.097 OA 
BRANCH   8   9
HETATM    9  C   UNL     1      -8.539   7.259  68.704  1.00  0.00    -0.128 C  
HETATM   10  O   UNL     1      -8.931   8.287  69.236  1.00  0.00    -0.145 OA 
BRANCH   9  11
HETATM   11  C   UNL     1      -8.881   6.865  67.241  1.00  0.00    -0.118 C  
HETATM   12  C   UNL     1      -8.031   7.697  66.246  1.00  0.00    -0.105 C  
HETATM   13  C   UNL     1     -10.386   7.251  67.054  1.00  0.00    -0.376 C  
HETATM   14  C   UNL     1     -10.652   8.760  67.052  1.00  0.00    -0.283 C  
HETATM   15  C   UNL     1      -8.329   9.196  66.245  1.00  0.00    -0.121 C  
HETATM   16  C   UNL     1      -9.806   9.457  65.998  1.00  0.00    -0.366 C  
BRANCH  11  17
HETATM   17  C   UNL     1      -8.661   5.295  67.120  1.00  0.00    -0.105 C  
HETATM   18  C   UNL     1      -9.924   4.438  66.882  1.00  0.00    -0.210 C  
HETATM   19  C   UNL     1      -9.428   4.134  64.437  1.00  0.00    -0.163 C  
HETATM   20  C   UNL     1      -8.051   4.766  64.638  1.00  0.00    -0.107 C  
HETATM   21  C   UNL     1     -10.466   4.564  65.465  1.00  0.00    -0.241 C  
HETATM   22  C   UNL     1      -7.589   4.838  66.100  1.00  0.00    -0.090 C  
ENDBRANCH  11  17
ENDBRANCH   9  11
ENDBRANCH   8   9
ENDBRANCH   7   8
ENDBRANCH   6   7
ENDBRANCH   3   6
ENDBRANCH   2   3
TORSDOF 8
ENDMDL
MODEL      271
REMARK 921   NORMALIZED FREE ENERGY PREDICTED BY IDOCK:   -2.24 KCAL/MOL
REMARK 922        TOTAL FREE ENERGY PREDICTED BY IDOCK:   -3.87 KCAL/MOL
REMARK 923 INTER-LIGAND FREE ENERGY PREDICTED BY IDOCK:   -3.79 KCAL/MOL
REMARK 924 INTRA-LIGAND FREE ENERGY PREDICTED BY IDOCK:   -0.08 KCAL/MOL
REMARK 927      BINDING AFFINITY PREDICTED BY RF-SCORE:    0.00 PKD
ROOT
HETATM    1  C   UNL     1      -6.169   4.600  66.185  1.00  0.00    -0.032 C  
HETATM    2  C   UNL     1      -6.441   5.922  66.898  1.00  0.00    -0.050 C  
ENDROOT
BRANCH   2   3
HETATM    3  N   UNL     1      -7.751   6.528  66.597  1.00  0.00    -0.098 NA 
BRANCH   3   4
HETATM    4  C   UNL     1      -7.789   7.303  65.350  1.00  0.00    -0.118 C  
HETATM    5  C   UNL     1      -8.404   6.601  64.145  1.00  0.00     0.141 C  
ENDBRANCH   3   4
BRANCH   3   6
HETATM    6  C   UNL     1      -8.809   5.496  66.705  1.00  0.00    -0.114 C  
BRANCH   6   7
HETATM    7  C   UNL     1      -9.529   5.463  68.064  1.00  0.00    -0.118 C  
BRANCH   7   8
HETATM    8  O   UNL     1      -9.979   6.756  68.516  1.00  0.00    -0.142 OA 
BRANCH   8   9
HETATM    9  C   UNL     1      -9.191   7.345  69.454  1.00  0.00    -0.145 C  
HETATM   10  O   UNL     1      -8.122   6.886  69.829  1.00  0.00    -0.121 OA 
BRANCH   9  11
HETATM   11  C   UNL     1      -9.776   8.687  69.969  1.00  0.00    -0.176 C  
HETATM   12  C   UNL     1     -10.894   9.190  69.017  1.00  0.00    -0.115 C  
HETATM   13  C   UNL     1      -8.586   9.702  69.917  1.00  0.00    -0.218 C  
HETATM   14  C   UNL     1      -8.137  10.070  68.500  1.00  0.00    -0.103 C  
HETATM   15  C   UNL     1     -10.419   9.573  67.616  1.00  0.00    -0.321 C  
HETATM   16  C   UNL     1      -9.303  10.602  67.683  1.00  0.00    -0.156 C  
BRANCH  11  17
HETATM   17  C   UNL     1     -10.266   8.437  71.461  1.00  0.00    -0.294 C  
HETATM   18  C   UNL     1     -11.477   9.269  71.938  1.00  0.00    -0.382 C  
HETATM   19  C   UNL     1     -13.078   7.349  71.682  1.00  0.00    -0.412 C  
HETATM   20  C   UNL     1     -11.903   6.405  71.431  1.00  0.00    -0.340 C  
HETATM   21  C   UNL     1     -12.793   8.803  71.330  1.00  0.00    -0.250 C  
HETATM   22  C   UNL     1     -10.535   6.961  71.848  1.00  0.00    -0.224 C  
ENDBRANCH  11  17
ENDBRANCH   9  11
ENDBRANCH   8   9
ENDBRANCH   7   8
ENDBRANCH   6   7
ENDBRANCH   3   6
ENDBRANCH   2   3
TORSDOF 8
ENDMDL
MODEL      272
REMARK 921   NORMALIZED FREE ENERGY PREDICTED BY IDOCK:   -2.24 KCAL/MOL
REMARK 922        TOTAL FREE ENERGY PREDICTED BY IDOCK:   -3.87 KCAL/MOL
REMARK 923 INTER-LIGAND FREE ENERGY PREDICTED BY IDOCK:   -3.16 KCAL/MOL
REMARK 924 INTRA-LIGAND FREE ENERGY PREDICTED BY IDOCK:   -0.71 KCAL/MOL
REMARK 927      BINDING AFFINITY PREDICTED BY RF-SCORE:    0.00 PKD
ROOT
HETATM    1  C   UNL     1      -7.095   2.685  66.973  1.00  0.00    -0.049 C  
HETATM    2  C   UNL     1      -7.410   4.172  67.106  1.00  0.00    -0.069 C  
ENDROOT
BRANCH   2   3
HETATM    3  N   UNL     1      -8.551   4.637  66.296  1.00  0.00    -0.113 NA 
BRANCH   3   4
HETATM    4  C   UNL     1      -8.615   4.056  64.949  1.00  0.00    -0.115 C  
HETATM    5  C   UNL     1      -8.397   5.024  63.793  1.00  0.00    -0.132 C  
ENDBRANCH   3   4
BRANCH   3   6
HETATM    6  C   UNL     1      -9.802   4.499  67.080  1.00  0.00    -0.202 C  
BRANCH   6   7
HETATM    7  C   UNL     1     -10.081   5.663  68.044  1.00  0.00    -0.171 C  
BRANCH   7   8
HETATM    8  O   UNL     1      -9.734   6.958  67.509  1.00  0.00    -0.128 OA 
BRANCH   8   9
HETATM    9  C   UNL     1      -9.071   7.776  68.367  1.00  0.00    -0.131 C  
HETATM   10  O   UNL     1      -8.844   7.496  69.535  1.00  0.00    -0.137 OA 
BRANCH   9  11
HETATM   11  C   UNL     1      -8.594   9.090  67.692  1.00  0.00    -0.120 C  
HETATM   12  C   UNL     1      -8.509   8.906  66.154  1.00  0.00    -0.133 C  
HETATM   13  C   UNL     1      -7.150   9.336  68.243  1.00  0.00    -0.076 C  
HETATM   14  C   UNL     1      -6.110   8.325  67.751  1.00  0.00    -0.048 C  
HETATM   15  C   UNL     1      -7.449   7.911  65.684  1.00  0.00    -0.081 C  
HETATM   16  C   UNL     1      -6.079   8.276  66.231  1.00  0.00    -0.045 C  
BRANCH  11  17
HETATM   17  C   UNL     1      -9.597  10.236  68.149  1.00  0.00    -0.151 C  
HETATM   18  C   UNL     1      -8.981  11.628  68.412  1.00  0.00    -0.176 C  
HETATM   19  C   UNL     1      -9.793  12.559  66.224  1.00  0.00    -0.260 C  
HETATM   20  C   UNL     1     -10.626  11.298  65.998  1.00  0.00    -0.314 C  
HETATM   21  C   UNL     1      -8.588  12.354  67.133  1.00  0.00    -0.189 C  
HETATM   22  C   UNL     1     -10.844  10.442  67.253  1.00  0.00    -0.324 C  
ENDBRANCH  11  17
ENDBRANCH   9  11
ENDBRANCH   8   9
ENDBRANCH   7   8
ENDBRANCH   6   7
ENDBRANCH   3   6
ENDBRANCH   2   3
TORSDOF 8
ENDMDL
MODEL      273
REMARK 921   NORMALIZED FREE ENERGY PREDICTED BY IDOCK:   -2.23 KCAL/MOL
REMARK 922        TOTAL FREE ENERGY PREDICTED BY IDOCK:   -3.85 KCAL/MOL
REMARK 923 INTER-LIGAND FREE ENERGY PREDICTED BY IDOCK:   -3.32 KCAL/MOL
REMARK 924 INTRA-LIGAND FREE ENERGY PREDICTED BY IDOCK:   -0.53 KCAL/MOL
REMARK 927      BINDING AFFINITY PREDICTED BY RF-SCORE:    0.00 PKD
ROOT
HETATM    1  C   UNL     1      -8.595  10.366  69.155  1.00  0.00    -0.169 C  
HETATM    2  C   UNL     1      -8.642   8.913  68.687  1.00  0.00    -0.133 C  
ENDROOT
BRANCH   2   3
HETATM    3  N   UNL     1      -9.963   8.458  68.218  1.00  0.00    -0.181 NA 
BRANCH   3   4
HETATM    4  C   UNL     1      -9.913   7.463  67.138  1.00  0.00    -0.215 C  
HETATM    5  C   UNL     1     -11.115   6.533  67.030  1.00  0.00    -0.411 C  
ENDBRANCH   3   4
BRANCH   3   6
HETATM    6  C   UNL     1     -10.788   8.054  69.382  1.00  0.00    -0.094 C  
BRANCH   6   7
HETATM    7  C   UNL     1     -10.012   7.318  70.486  1.00  0.00    -0.190 C  
BRANCH   7   8
HETATM    8  O   UNL     1      -9.938   5.890  70.295  1.00  0.00    -0.176 OA 
BRANCH   8   9
HETATM    9  C   UNL     1      -8.682   5.373  70.293  1.00  0.00    -0.127 C  
HETATM   10  O   UNL     1      -7.725   5.914  69.758  1.00  0.00    -0.085 OA 
BRANCH   9  11
HETATM   11  C   UNL     1      -8.583   4.039  71.080  1.00  0.00    -0.110 C  
HETATM   12  C   UNL     1      -7.185   3.397  70.880  1.00  0.00    -0.033 C  
HETATM   13  C   UNL     1      -9.657   3.100  70.436  1.00  0.00    -0.192 C  
HETATM   14  C   UNL     1      -9.328   2.656  69.008  1.00  0.00    -0.212 C  
HETATM   15  C   UNL     1      -6.887   2.940  69.453  1.00  0.00    -0.037 C  
HETATM   16  C   UNL     1      -7.962   1.991  68.949  1.00  0.00    -0.059 C  
BRANCH  11  17
HETATM   17  C   UNL     1      -8.928   4.369  72.597  1.00  0.00    -0.127 C  
HETATM   18  C   UNL     1     -10.389   4.131  73.039  1.00  0.00    -0.239 C  
HETATM   19  C   UNL     1      -9.831   1.982  74.217  1.00  0.00    -0.127 C  
HETATM   20  C   UNL     1      -8.342   2.265  74.024  1.00  0.00    -0.059 C  
HETATM   21  C   UNL     1     -10.729   2.654  73.187  1.00  0.00    -0.260 C  
HETATM   22  C   UNL     1      -8.009   3.718  73.659  1.00  0.00    -0.086 C  
ENDBRANCH  11  17
ENDBRANCH   9  11
ENDBRANCH   8   9
ENDBRANCH   7   8
ENDBRANCH   6   7
ENDBRANCH   3   6
ENDBRANCH   2   3
TORSDOF 8
ENDMDL
MODEL      274
REMARK 921   NORMALIZED FREE ENERGY PREDICTED BY IDOCK:   -2.23 KCAL/MOL
REMARK 922        TOTAL FREE ENERGY PREDICTED BY IDOCK:   -3.85 KCAL/MOL
REMARK 923 INTER-LIGAND FREE ENERGY PREDICTED BY IDOCK:   -3.84 KCAL/MOL
REMARK 924 INTRA-LIGAND FREE ENERGY PREDICTED BY IDOCK:   -0.01 KCAL/MOL
REMARK 927      BINDING AFFINITY PREDICTED BY RF-SCORE:    0.00 PKD
ROOT
HETATM    1  C   UNL     1     -12.275  10.340  71.662  1.00  0.00    -0.384 C  
HETATM    2  C   UNL     1     -11.358   9.975  70.498  1.00  0.00    -0.335 C  
ENDROOT
BRANCH   2   3
HETATM    3  N   UNL     1     -10.145   9.227  70.878  1.00  0.00    -0.283 NA 
BRANCH   3   4
HETATM    4  C   UNL     1     -10.115   8.794  72.281  1.00  0.00    -0.238 C  
HETATM    5  C   UNL     1     -10.126   7.289  72.518  1.00  0.00    -0.224 C  
ENDBRANCH   3   4
BRANCH   3   6
HETATM    6  C   UNL     1      -9.910   8.139  69.899  1.00  0.00    -0.186 C  
BRANCH   6   7
HETATM    7  C   UNL     1     -11.156   7.303  69.564  1.00  0.00    -0.107 C  
BRANCH   7   8
HETATM    8  O   UNL     1     -10.879   5.905  69.345  1.00  0.00    -0.306 OA 
BRANCH   8   9
HETATM    9  C   UNL     1     -10.285   5.614  68.158  1.00  0.00    -0.186 C  
HETATM   10  O   UNL     1     -10.813   5.798  67.071  1.00  0.00    -0.291 OA 
BRANCH   9  11
HETATM   11  C   UNL     1      -8.845   5.060  68.330  1.00  0.00    -0.110 C  
HETATM   12  C   UNL     1      -8.683   3.728  67.552  1.00  0.00    -0.123 C  
HETATM   13  C   UNL     1      -8.698   4.763  69.859  1.00  0.00    -0.113 C  
HETATM   14  C   UNL     1      -9.554   3.594  70.357  1.00  0.00    -0.254 C  
HETATM   15  C   UNL     1      -9.528   2.569  68.080  1.00  0.00    -0.203 C  
HETATM   16  C   UNL     1      -9.265   2.333  69.558  1.00  0.00    -0.185 C  
BRANCH  11  17
HETATM   17  C   UNL     1      -7.848   6.206  67.858  1.00  0.00    -0.106 C  
HETATM   18  C   UNL     1      -6.496   6.292  68.599  1.00  0.00    -0.049 C  
HETATM   19  C   UNL     1      -5.236   5.194  66.722  1.00  0.00    -0.008 C  
HETATM   20  C   UNL     1      -6.478   5.287  65.836  1.00  0.00    -0.040 C  
HETATM   21  C   UNL     1      -5.538   5.173  68.214  1.00  0.00    -0.016 C  
HETATM   22  C   UNL     1      -7.551   6.263  66.339  1.00  0.00    -0.094 C  
ENDBRANCH  11  17
ENDBRANCH   9  11
ENDBRANCH   8   9
ENDBRANCH   7   8
ENDBRANCH   6   7
ENDBRANCH   3   6
ENDBRANCH   2   3
TORSDOF 8
ENDMDL
MODEL      275
REMARK 921   NORMALIZED FREE ENERGY PREDICTED BY IDOCK:   -2.21 KCAL/MOL
REMARK 922        TOTAL FREE ENERGY PREDICTED BY IDOCK:   -3.83 KCAL/MOL
REMARK 923 INTER-LIGAND FREE ENERGY PREDICTED BY IDOCK:   -3.25 KCAL/MOL
REMARK 924 INTRA-LIGAND FREE ENERGY PREDICTED BY IDOCK:   -0.58 KCAL/MOL
REMARK 927      BINDING AFFINITY PREDICTED BY RF-SCORE:    0.00 PKD
ROOT
HETATM    1  C   UNL     1      -8.550  14.171  67.600  1.00  0.00    -0.191 C  
HETATM    2  C   UNL     1      -9.561  13.064  67.311  1.00  0.00    -0.225 C  
ENDROOT
BRANCH   2   3
HETATM    3  N   UNL     1     -10.877  13.247  67.951  1.00  0.00    -0.238 NA 
BRANCH   3   4
HETATM    4  C   UNL     1     -11.923  13.753  67.053  1.00  0.00    -0.413 C  
HETATM    5  C   UNL     1     -12.125  12.976  65.757  1.00  0.00    -0.510 C  
ENDBRANCH   3   4
BRANCH   3   6
HETATM    6  C   UNL     1     -11.246  12.011  68.682  1.00  0.00    -0.258 C  
BRANCH   6   7
HETATM    7  C   UNL     1     -10.493  10.752  68.224  1.00  0.00    -0.181 C  
BRANCH   7   8
HETATM    8  O   UNL     1     -10.105   9.879  69.306  1.00  0.00    -0.180 OA 
BRANCH   8   9
HETATM    9  C   UNL     1      -8.903   9.265  69.148  1.00  0.00    -0.141 C  
HETATM   10  O   UNL     1      -7.996   9.712  68.461  1.00  0.00    -0.088 OA 
BRANCH   9  11
HETATM   11  C   UNL     1      -8.790   7.953  69.969  1.00  0.00    -0.141 C  
HETATM   12  C   UNL     1      -7.513   7.171  69.564  1.00  0.00    -0.095 C  
HETATM   13  C   UNL     1     -10.042   7.105  69.563  1.00  0.00    -0.182 C  
HETATM   14  C   UNL     1     -10.008   6.587  68.123  1.00  0.00    -0.145 C  
HETATM   15  C   UNL     1      -7.511   6.644  68.130  1.00  0.00    -0.095 C  
HETATM   16  C   UNL     1      -8.740   5.789  67.863  1.00  0.00    -0.103 C  
BRANCH  11  17
HETATM   17  C   UNL     1      -8.834   8.362  71.505  1.00  0.00    -0.239 C  
HETATM   18  C   UNL     1      -9.022   7.212  72.520  1.00  0.00    -0.147 C  
HETATM   19  C   UNL     1      -6.594   7.199  73.168  1.00  0.00    -0.065 C  
HETATM   20  C   UNL     1      -6.374   8.482  72.368  1.00  0.00    -0.083 C  
HETATM   21  C   UNL     1      -7.771   6.361  72.687  1.00  0.00    -0.104 C  
HETATM   22  C   UNL     1      -7.660   9.238  72.007  1.00  0.00     0.567 C  
ENDBRANCH  11  17
ENDBRANCH   9  11
ENDBRANCH   8   9
ENDBRANCH   7   8
ENDBRANCH   6   7
ENDBRANCH   3   6
ENDBRANCH   2   3
TORSDOF 8
ENDMDL
MODEL      276
REMARK 921   NORMALIZED FREE ENERGY PREDICTED BY IDOCK:   -2.21 KCAL/MOL
REMARK 922        TOTAL FREE ENERGY PREDICTED BY IDOCK:   -3.83 KCAL/MOL
REMARK 923 INTER-LIGAND FREE ENERGY PREDICTED BY IDOCK:   -3.92 KCAL/MOL
REMARK 924 INTRA-LIGAND FREE ENERGY PREDICTED BY IDOCK:    0.09 KCAL/MOL
REMARK 927      BINDING AFFINITY PREDICTED BY RF-SCORE:    0.00 PKD
ROOT
HETATM    1  C   UNL     1      -7.868  18.988  68.813  1.00  0.00    -0.378 C  
HETATM    2  C   UNL     1      -8.326  17.576  68.456  1.00  0.00    -0.274 C  
ENDROOT
BRANCH   2   3
HETATM    3  N   UNL     1      -8.415  17.304  67.009  1.00  0.00    -0.211 NA 
BRANCH   3   4
HETATM    4  C   UNL     1      -7.827  18.347  66.159  1.00  0.00    -0.207 C  
HETATM    5  C   UNL     1      -6.422  18.072  65.637  1.00  0.00    -0.253 C  
ENDBRANCH   3   4
BRANCH   3   6
HETATM    6  C   UNL     1      -7.914  15.937  66.732  1.00  0.00    -0.252 C  
BRANCH   6   7
HETATM    7  C   UNL     1      -8.980  14.834  66.837  1.00  0.00    -0.253 C  
BRANCH   7   8
HETATM    8  O   UNL     1      -8.484  13.594  67.382  1.00  0.00    -0.180 OA 
BRANCH   8   9
HETATM    9  C   UNL     1      -9.078  12.473  66.896  1.00  0.00    -0.213 C  
HETATM   10  O   UNL     1     -10.241  12.428  66.521  1.00  0.00    -0.222 OA 
BRANCH   9  11
HETATM   11  C   UNL     1      -8.108  11.263  66.830  1.00  0.00    -0.159 C  
HETATM   12  C   UNL     1      -8.476  10.217  67.915  1.00  0.00    -0.118 C  
HETATM   13  C   UNL     1      -6.696  11.849  67.163  1.00  0.00    -0.142 C  
HETATM   14  C   UNL     1      -6.535  12.312  68.614  1.00  0.00    -0.073 C  
HETATM   15  C   UNL     1      -8.285  10.692  69.355  1.00  0.00    -0.089 C  
HETATM   16  C   UNL     1      -6.866  11.186  69.582  1.00  0.00    -0.117 C  
BRANCH  11  17
HETATM   17  C   UNL     1      -8.172  10.699  65.345  1.00  0.00    -0.125 C  
HETATM   18  C   UNL     1      -6.821  10.341  64.685  1.00  0.00    -0.077 C  
HETATM   19  C   UNL     1      -7.140   7.874  65.040  1.00  0.00    -0.060 C  
HETATM   20  C   UNL     1      -8.580   8.125  65.487  1.00  0.00    -0.173 C  
HETATM   21  C   UNL     1      -6.210   9.063  65.242  1.00  0.00    -0.063 C  
HETATM   22  C   UNL     1      -9.133   9.507  65.112  1.00  0.00    -0.281 C  
ENDBRANCH  11  17
ENDBRANCH   9  11
ENDBRANCH   8   9
ENDBRANCH   7   8
ENDBRANCH   6   7
ENDBRANCH   3   6
ENDBRANCH   2   3
TORSDOF 8
ENDMDL
MODEL      277
REMARK 921   NORMALIZED FREE ENERGY PREDICTED BY IDOCK:   -2.21 KCAL/MOL
REMARK 922        TOTAL FREE ENERGY PREDICTED BY IDOCK:   -3.82 KCAL/MOL
REMARK 923 INTER-LIGAND FREE ENERGY PREDICTED BY IDOCK:   -3.87 KCAL/MOL
REMARK 924 INTRA-LIGAND FREE ENERGY PREDICTED BY IDOCK:    0.05 KCAL/MOL
REMARK 927      BINDING AFFINITY PREDICTED BY RF-SCORE:    0.00 PKD
ROOT
HETATM    1  C   UNL     1      -5.179   4.918  67.081  1.00  0.00    -0.008 C  
HETATM    2  C   UNL     1      -5.274   6.328  67.658  1.00  0.00    -0.005 C  
ENDROOT
BRANCH   2   3
HETATM    3  N   UNL     1      -6.550   7.019  67.393  1.00  0.00    -0.053 NA 
BRANCH   3   4
HETATM    4  C   UNL     1      -7.121   6.750  66.067  1.00  0.00    -0.069 C  
HETATM    5  C   UNL     1      -8.102   7.788  65.538  1.00  0.00    -0.128 C  
ENDBRANCH   3   4
BRANCH   3   6
HETATM    6  C   UNL     1      -7.483   6.781  68.519  1.00  0.00    -0.092 C  
BRANCH   6   7
HETATM    7  C   UNL     1      -7.099   7.494  69.826  1.00  0.00    -0.068 C  
BRANCH   7   8
HETATM    8  O   UNL     1      -7.791   6.993  70.989  1.00  0.00    -0.094 OA 
BRANCH   8   9
HETATM    9  C   UNL     1      -9.062   7.447  71.143  1.00  0.00    -0.148 C  
HETATM   10  O   UNL     1      -9.466   8.506  70.685  1.00  0.00    -0.161 OA 
BRANCH   9  11
HETATM   11  C   UNL     1      -9.959   6.456  71.932  1.00  0.00    -0.193 C  
HETATM   12  C   UNL     1     -11.133   5.967  71.043  1.00  0.00    -0.348 C  
HETATM   13  C   UNL     1     -10.548   7.289  73.119  1.00  0.00    -0.400 C  
HETATM   14  C   UNL     1     -11.552   8.364  72.694  1.00  0.00    -0.367 C  
HETATM   15  C   UNL     1     -12.135   7.052  70.651  1.00  0.00    -0.332 C  
HETATM   16  C   UNL     1     -12.684   7.757  71.881  1.00  0.00    -0.328 C  
BRANCH  11  17
HETATM   17  C   UNL     1      -9.014   5.286  72.449  1.00  0.00    -0.137 C  
HETATM   18  C   UNL     1      -9.006   5.029  73.973  1.00  0.00    -0.113 C  
HETATM   19  C   UNL     1     -10.477   3.000  73.781  1.00  0.00    -0.246 C  
HETATM   20  C   UNL     1     -10.341   3.047  72.259  1.00  0.00    -0.110 C  
HETATM   21  C   UNL     1     -10.275   4.346  74.464  1.00  0.00    -0.283 C  
HETATM   22  C   UNL     1      -9.184   3.916  71.747  1.00  0.00    -0.184 C  
ENDBRANCH  11  17
ENDBRANCH   9  11
ENDBRANCH   8   9
ENDBRANCH   7   8
ENDBRANCH   6   7
ENDBRANCH   3   6
ENDBRANCH   2   3
TORSDOF 8
ENDMDL
MODEL      278
REMARK 921   NORMALIZED FREE ENERGY PREDICTED BY IDOCK:   -2.20 KCAL/MOL
REMARK 922        TOTAL FREE ENERGY PREDICTED BY IDOCK:   -3.81 KCAL/MOL
REMARK 923 INTER-LIGAND FREE ENERGY PREDICTED BY IDOCK:   -4.26 KCAL/MOL
REMARK 924 INTRA-LIGAND FREE ENERGY PREDICTED BY IDOCK:    0.45 KCAL/MOL
REMARK 927      BINDING AFFINITY PREDICTED BY RF-SCORE:    0.00 PKD
ROOT
HETATM    1  C   UNL     1      -9.831   8.478  67.815  1.00  0.00    -0.218 C  
HETATM    2  C   UNL     1      -9.754   8.631  66.298  1.00  0.00    -0.251 C  
ENDROOT
BRANCH   2   3
HETATM    3  N   UNL     1      -8.401   8.893  65.772  1.00  0.00    -0.127 NA 
BRANCH   3   4
HETATM    4  C   UNL     1      -7.908   7.876  64.834  1.00  0.00    -0.126 C  
HETATM    5  C   UNL     1      -8.627   6.533  64.866  1.00  0.00     0.105 C  
ENDBRANCH   3   4
BRANCH   3   6
HETATM    6  C   UNL     1      -8.331  10.281  65.259  1.00  0.00    -0.163 C  
BRANCH   6   7
HETATM    7  C   UNL     1      -9.666  11.043  65.300  1.00  0.00    -0.239 C  
BRANCH   7   8
HETATM    8  O   UNL     1      -9.519  12.469  65.466  1.00  0.00    -0.106 OA 
BRANCH   8   9
HETATM    9  C   UNL     1      -9.321  12.882  66.745  1.00  0.00    -0.243 C  
HETATM   10  O   UNL     1      -8.509  12.376  67.506  1.00  0.00    -0.155 OA 
BRANCH   9  11
HETATM   11  C   UNL     1     -10.211  14.096  67.126  1.00  0.00    -0.258 C  
HETATM   12  C   UNL     1     -10.103  15.203  66.044  1.00  0.00    -0.323 C  
HETATM   13  C   UNL     1      -9.608  14.645  68.461  1.00  0.00    -0.221 C  
HETATM   14  C   UNL     1      -8.229  15.293  68.308  1.00  0.00    -0.142 C  
HETATM   15  C   UNL     1      -8.725  15.851  65.925  1.00  0.00    -0.055 C  
HETATM   16  C   UNL     1      -8.263  16.399  67.266  1.00  0.00    -0.193 C  
BRANCH  11  17
HETATM   17  C   UNL     1     -11.687  13.541  67.334  1.00  0.00    -0.419 C  
HETATM   18  C   UNL     1     -11.831  12.012  67.503  1.00  0.00    -0.275 C  
HETATM   19  C   UNL     1     -12.139  12.175  69.992  1.00  0.00    -0.352 C  
HETATM   20  C   UNL     1     -12.243  13.695  69.879  1.00  0.00    -0.367 C  
HETATM   21  C   UNL     1     -11.355  11.520  68.863  1.00  0.00    -0.331 C  
HETATM   22  C   UNL     1     -12.511  14.214  68.460  1.00  0.00     0.200 C  
ENDBRANCH  11  17
ENDBRANCH   9  11
ENDBRANCH   8   9
ENDBRANCH   7   8
ENDBRANCH   6   7
ENDBRANCH   3   6
ENDBRANCH   2   3
TORSDOF 8
ENDMDL
MODEL      279
REMARK 921   NORMALIZED FREE ENERGY PREDICTED BY IDOCK:   -2.19 KCAL/MOL
REMARK 922        TOTAL FREE ENERGY PREDICTED BY IDOCK:   -3.79 KCAL/MOL
REMARK 923 INTER-LIGAND FREE ENERGY PREDICTED BY IDOCK:   -3.70 KCAL/MOL
REMARK 924 INTRA-LIGAND FREE ENERGY PREDICTED BY IDOCK:   -0.09 KCAL/MOL
REMARK 927      BINDING AFFINITY PREDICTED BY RF-SCORE:    0.00 PKD
ROOT
HETATM    1  C   UNL     1      -9.162   9.113  65.485  1.00  0.00    -0.287 C  
HETATM    2  C   UNL     1      -8.303   7.867  65.281  1.00  0.00    -0.133 C  
ENDROOT
BRANCH   2   3
HETATM    3  N   UNL     1      -7.345   7.593  66.368  1.00  0.00    -0.078 NA 
BRANCH   3   4
HETATM    4  C   UNL     1      -7.143   8.714  67.295  1.00  0.00    -0.079 C  
HETATM    5  C   UNL     1      -5.698   9.142  67.521  1.00  0.00    -0.042 C  
ENDBRANCH   3   4
BRANCH   3   6
HETATM    6  C   UNL     1      -7.698   6.313  67.027  1.00  0.00    -0.100 C  
BRANCH   6   7
HETATM    7  C   UNL     1      -9.098   6.290  67.663  1.00  0.00    -0.117 C  
BRANCH   7   8
HETATM    8  O   UNL     1      -9.126   5.719  68.988  1.00  0.00    -0.116 OA 
BRANCH   8   9
HETATM    9  C   UNL     1     -10.063   6.243  69.820  1.00  0.00    -0.176 C  
HETATM   10  O   UNL     1     -11.244   5.928  69.798  1.00  0.00    -0.389 OA 
BRANCH   9  11
HETATM   11  C   UNL     1      -9.464   7.255  70.834  1.00  0.00    -0.159 C  
HETATM   12  C   UNL     1     -10.400   7.407  72.062  1.00  0.00    -0.223 C  
HETATM   13  C   UNL     1      -9.418   8.621  70.072  1.00  0.00    -0.170 C  
HETATM   14  C   UNL     1     -10.796   9.227  69.787  1.00  0.00    -0.239 C  
HETATM   15  C   UNL     1     -11.760   8.035  71.758  1.00  0.00    -0.335 C  
HETATM   16  C   UNL     1     -11.596   9.381  71.071  1.00  0.00    -0.400 C  
BRANCH  11  17
HETATM   17  C   UNL     1      -8.005   6.738  71.197  1.00  0.00    -0.103 C  
HETATM   18  C   UNL     1      -7.104   7.715  71.986  1.00  0.00    -0.065 C  
HETATM   19  C   UNL     1      -7.467   6.513  74.163  1.00  0.00    -0.087 C  
HETATM   20  C   UNL     1      -8.171   5.380  73.419  1.00  0.00    -0.114 C  
HETATM   21  C   UNL     1      -7.518   7.855  73.444  1.00  0.00    -0.175 C  
HETATM   22  C   UNL     1      -7.929   5.362  71.903  1.00  0.00    -0.113 C  
ENDBRANCH  11  17
ENDBRANCH   9  11
ENDBRANCH   8   9
ENDBRANCH   7   8
ENDBRANCH   6   7
ENDBRANCH   3   6
ENDBRANCH   2   3
TORSDOF 8
ENDMDL
MODEL      280
REMARK 921   NORMALIZED FREE ENERGY PREDICTED BY IDOCK:   -2.18 KCAL/MOL
REMARK 922        TOTAL FREE ENERGY PREDICTED BY IDOCK:   -3.79 KCAL/MOL
REMARK 923 INTER-LIGAND FREE ENERGY PREDICTED BY IDOCK:   -5.27 KCAL/MOL
REMARK 924 INTRA-LIGAND FREE ENERGY PREDICTED BY IDOCK:    1.48 KCAL/MOL
REMARK 927      BINDING AFFINITY PREDICTED BY RF-SCORE:    0.00 PKD
ROOT
HETATM    1  C   UNL     1      -9.830   8.125  68.194  1.00  0.00    -0.194 C  
HETATM    2  C   UNL     1      -8.953   8.907  67.220  1.00  0.00    -0.128 C  
ENDROOT
BRANCH   2   3
HETATM    3  N   UNL     1      -7.825   9.624  67.843  1.00  0.00    -0.087 NA 
BRANCH   3   4
HETATM    4  C   UNL     1      -6.560   9.521  67.104  1.00  0.00    -0.071 C  
HETATM    5  C   UNL     1      -6.475   8.400  66.076  1.00  0.00    -0.053 C  
ENDBRANCH   3   4
BRANCH   3   6
HETATM    6  C   UNL     1      -8.236  11.013  68.158  1.00  0.00    -0.124 C  
BRANCH   6   7
HETATM    7  C   UNL     1      -7.733  12.068  67.158  1.00  0.00    -0.161 C  
BRANCH   7   8
HETATM    8  O   UNL     1      -8.605  13.209  67.028  1.00  0.00    -0.205 OA 
BRANCH   8   9
HETATM    9  C   UNL     1      -9.928  12.916  66.932  1.00  0.00    -0.238 C  
HETATM   10  O   UNL     1     -10.371  11.777  66.885  1.00  0.00    -0.210 OA 
BRANCH   9  11
HETATM   11  C   UNL     1     -10.824  14.184  66.931  1.00  0.00    -0.296 C  
HETATM   12  C   UNL     1     -10.113  15.347  67.673  1.00  0.00    -0.236 C  
HETATM   13  C   UNL     1     -12.103  13.786  67.740  1.00  0.00    -0.325 C  
HETATM   14  C   UNL     1     -11.856  13.568  69.236  1.00  0.00    -0.392 C  
HETATM   15  C   UNL     1      -9.899  15.117  69.169  1.00  0.00    -0.237 C  
HETATM   16  C   UNL     1     -11.212  14.793  69.863  1.00  0.00    -0.293 C  
BRANCH  11  17
HETATM   17  C   UNL     1     -11.169  14.506  65.412  1.00  0.00    -0.342 C  
HETATM   18  C   UNL     1     -10.219  13.911  64.349  1.00  0.00     0.067 C  
HETATM   19  C   UNL     1     -11.821  12.073  63.742  1.00  0.00    -0.581 C  
HETATM   20  C   UNL     1     -12.902  12.734  64.597  1.00  0.00    -0.355 C  
HETATM   21  C   UNL     1     -10.399  12.410  64.168  1.00  0.00    -0.409 C  
HETATM   22  C   UNL     1     -12.619  14.196  64.966  1.00  0.00    -0.399 C  
ENDBRANCH  11  17
ENDBRANCH   9  11
ENDBRANCH   8   9
ENDBRANCH   7   8
ENDBRANCH   6   7
ENDBRANCH   3   6
ENDBRANCH   2   3
TORSDOF 8
ENDMDL
MODEL      281
REMARK 921   NORMALIZED FREE ENERGY PREDICTED BY IDOCK:   -2.10 KCAL/MOL
REMARK 922        TOTAL FREE ENERGY PREDICTED BY IDOCK:   -3.67 KCAL/MOL
REMARK 923 INTER-LIGAND FREE ENERGY PREDICTED BY IDOCK:   -3.28 KCAL/MOL
REMARK 924 INTRA-LIGAND FREE ENERGY PREDICTED BY IDOCK:   -0.38 KCAL/MOL
REMARK 927      BINDING AFFINITY PREDICTED BY RF-SCORE:    0.00 PKD
ROOT
HETATM    1  C   UNL     1     -11.409   4.568  73.114  1.00  0.00    -0.318 C  
HETATM    2  C   UNL     1      -9.953   4.139  72.948  1.00  0.00    -0.150 C  
ENDROOT
BRANCH   2   3
HETATM    3  N   UNL     1      -9.121   5.070  72.164  1.00  0.00    -0.131 NA 
BRANCH   3   4
HETATM    4  C   UNL     1      -7.820   4.523  71.756  1.00  0.00    -0.096 C  
HETATM    5  C   UNL     1      -7.528   3.094  72.196  1.00  0.00    -0.052 C  
ENDBRANCH   3   4
BRANCH   3   6
HETATM    6  C   UNL     1      -9.922   5.631  71.051  1.00  0.00    -0.192 C  
BRANCH   6   7
HETATM    7  C   UNL     1      -9.396   6.966  70.497  1.00  0.00    -0.159 C  
BRANCH   7   8
HETATM    8  O   UNL     1      -9.013   6.909  69.107  1.00  0.00    -0.134 OA 
BRANCH   8   9
HETATM    9  C   UNL     1      -9.803   7.621  68.262  1.00  0.00    -0.166 C  
HETATM   10  O   UNL     1     -11.019   7.508  68.211  1.00  0.00    -0.052 OA 
BRANCH   9  11
HETATM   11  C   UNL     1      -8.998   8.625  67.394  1.00  0.00    -0.144 C  
HETATM   12  C   UNL     1      -8.097   9.513  68.292  1.00  0.00    -0.102 C  
HETATM   13  C   UNL     1     -10.074   9.536  66.715  1.00  0.00    -0.312 C  
HETATM   14  C   UNL     1     -10.811  10.466  67.683  1.00  0.00    -0.361 C  
HETATM   15  C   UNL     1      -8.854  10.450  69.234  1.00  0.00    -0.166 C  
HETATM   16  C   UNL     1      -9.829  11.325  68.463  1.00  0.00    -0.198 C  
BRANCH  11  17
HETATM   17  C   UNL     1      -8.194   7.770  66.322  1.00  0.00    -0.122 C  
HETATM   18  C   UNL     1      -8.152   8.332  64.883  1.00  0.00    -0.150 C  
HETATM   19  C   UNL     1      -5.804   9.191  65.135  1.00  0.00    -0.058 C  
HETATM   20  C   UNL     1      -5.682   8.463  66.473  1.00  0.00    -0.043 C  
HETATM   21  C   UNL     1      -7.235   9.539  64.745  1.00  0.00    -0.112 C  
HETATM   22  C   UNL     1      -6.746   7.382  66.712  1.00  0.00    -0.064 C  
ENDBRANCH  11  17
ENDBRANCH   9  11
ENDBRANCH   8   9
ENDBRANCH   7   8
ENDBRANCH   6   7
ENDBRANCH   3   6
ENDBRANCH   2   3
TORSDOF 8
ENDMDL
MODEL      282
REMARK 921   NORMALIZED FREE ENERGY PREDICTED BY IDOCK:   -2.09 KCAL/MOL
REMARK 922        TOTAL FREE ENERGY PREDICTED BY IDOCK:   -3.65 KCAL/MOL
REMARK 923 INTER-LIGAND FREE ENERGY PREDICTED BY IDOCK:   -3.90 KCAL/MOL
REMARK 924 INTRA-LIGAND FREE ENERGY PREDICTED BY IDOCK:    0.24 KCAL/MOL
REMARK 927      BINDING AFFINITY PREDICTED BY RF-SCORE:    0.00 PKD
ROOT
HETATM    1  C   UNL     1     -11.097  12.208  64.924  1.00  0.00    -0.367 C  
HETATM    2  C   UNL     1     -10.275  12.111  66.206  1.00  0.00    -0.223 C  
ENDROOT
BRANCH   2   3
HETATM    3  N   UNL     1      -9.133  11.180  66.138  1.00  0.00    -0.195 NA 
BRANCH   3   4
HETATM    4  C   UNL     1      -7.867  11.736  66.633  1.00  0.00    -0.043 C  
HETATM    5  C   UNL     1      -7.942  13.132  67.239  1.00  0.00    -0.140 C  
ENDBRANCH   3   4
BRANCH   3   6
HETATM    6  C   UNL     1      -9.514   9.887  66.755  1.00  0.00    -0.169 C  
BRANCH   6   7
HETATM    7  C   UNL     1      -9.012   9.697  68.196  1.00  0.00    -0.123 C  
BRANCH   7   8
HETATM    8  O   UNL     1      -9.092   8.336  68.666  1.00  0.00    -0.140 OA 
BRANCH   8   9
HETATM    9  C   UNL     1      -7.990   7.887  69.323  1.00  0.00    -0.117 C  
HETATM   10  O   UNL     1      -6.888   7.778  68.806  1.00  0.00    -0.056 OA 
BRANCH   9  11
HETATM   11  C   UNL     1      -8.273   7.567  70.816  1.00  0.00    -0.110 C  
HETATM   12  C   UNL     1      -7.474   8.528  71.735  1.00  0.00    -0.127 C  
HETATM   13  C   UNL     1      -7.737   6.112  71.032  1.00  0.00    -0.102 C  
HETATM   14  C   UNL     1      -6.212   5.988  70.959  1.00  0.00    -0.039 C  
HETATM   15  C   UNL     1      -5.956   8.370  71.663  1.00  0.00    -0.044 C  
HETATM   16  C   UNL     1      -5.544   6.935  71.944  1.00  0.00    -0.037 C  
BRANCH  11  17
HETATM   17  C   UNL     1      -9.848   7.645  71.016  1.00  0.00    -0.181 C  
HETATM   18  C   UNL     1     -10.637   6.334  70.801  1.00  0.00    -0.297 C  
HETATM   19  C   UNL     1     -10.904   5.926  73.267  1.00  0.00    -0.291 C  
HETATM   20  C   UNL     1     -10.345   7.318  73.557  1.00  0.00    -0.412 C  
HETATM   21  C   UNL     1     -10.449   5.338  71.938  1.00  0.00    -0.282 C  
HETATM   22  C   UNL     1     -10.332   8.266  72.350  1.00  0.00    -0.402 C  
ENDBRANCH  11  17
ENDBRANCH   9  11
ENDBRANCH   8   9
ENDBRANCH   7   8
ENDBRANCH   6   7
ENDBRANCH   3   6
ENDBRANCH   2   3
TORSDOF 8
ENDMDL
MODEL      283
REMARK 921   NORMALIZED FREE ENERGY PREDICTED BY IDOCK:   -2.08 KCAL/MOL
REMARK 922        TOTAL FREE ENERGY PREDICTED BY IDOCK:   -3.64 KCAL/MOL
REMARK 923 INTER-LIGAND FREE ENERGY PREDICTED BY IDOCK:   -4.01 KCAL/MOL
REMARK 924 INTRA-LIGAND FREE ENERGY PREDICTED BY IDOCK:    0.37 KCAL/MOL
REMARK 927      BINDING AFFINITY PREDICTED BY RF-SCORE:    0.00 PKD
ROOT
HETATM    1  C   UNL     1     -13.061   8.871  72.196  1.00  0.00    -0.475 C  
HETATM    2  C   UNL     1     -11.927   9.633  71.515  1.00  0.00    -0.406 C  
ENDROOT
BRANCH   2   3
HETATM    3  N   UNL     1     -10.624   8.943  71.527  1.00  0.00    -0.301 NA 
BRANCH   3   4
HETATM    4  C   UNL     1     -10.289   8.303  72.806  1.00  0.00    -0.260 C  
HETATM    5  C   UNL     1     -10.685   6.838  72.944  1.00  0.00    -0.291 C  
ENDBRANCH   3   4
BRANCH   3   6
HETATM    6  C   UNL     1     -10.530   8.045  70.353  1.00  0.00    -0.218 C  
BRANCH   6   7
HETATM    7  C   UNL     1      -9.437   8.431  69.342  1.00  0.00    -0.158 C  
BRANCH   7   8
HETATM    8  O   UNL     1      -9.022   7.344  68.489  1.00  0.00    -0.129 OA 
BRANCH   8   9
HETATM    9  C   UNL     1      -9.683   6.173  68.684  1.00  0.00    -0.128 C  
HETATM   10  O   UNL     1     -10.868   6.012  68.429  1.00  0.00    -0.268 OA 
BRANCH   9  11
HETATM   11  C   UNL     1      -8.762   5.048  69.227  1.00  0.00    -0.107 C  
HETATM   12  C   UNL     1      -7.311   5.246  68.715  1.00  0.00    -0.070 C  
HETATM   13  C   UNL     1      -9.328   3.723  68.617  1.00  0.00    -0.226 C  
HETATM   14  C   UNL     1      -9.134   3.595  67.103  1.00  0.00    -0.189 C  
HETATM   15  C   UNL     1      -7.137   5.091  67.204  1.00  0.00    -0.069 C  
HETATM   16  C   UNL     1      -7.668   3.748  66.730  1.00  0.00    -0.084 C  
BRANCH  11  17
HETATM   17  C   UNL     1      -8.893   5.066  70.811  1.00  0.00    -0.156 C  
HETATM   18  C   UNL     1      -9.451   3.785  71.471  1.00  0.00    -0.221 C  
HETATM   19  C   UNL     1      -7.180   3.016  72.225  1.00  0.00    -0.042 C  
HETATM   20  C   UNL     1      -6.587   4.361  71.809  1.00  0.00    -0.026 C  
HETATM   21  C   UNL     1      -8.450   2.638  71.475  1.00  0.00    -0.089 C  
HETATM   22  C   UNL     1      -7.620   5.476  71.593  1.00  0.00    -0.098 C  
ENDBRANCH  11  17
ENDBRANCH   9  11
ENDBRANCH   8   9
ENDBRANCH   7   8
ENDBRANCH   6   7
ENDBRANCH   3   6
ENDBRANCH   2   3
TORSDOF 8
ENDMDL
MODEL      284
REMARK 921   NORMALIZED FREE ENERGY PREDICTED BY IDOCK:   -2.07 KCAL/MOL
REMARK 922        TOTAL FREE ENERGY PREDICTED BY IDOCK:   -3.62 KCAL/MOL
REMARK 923 INTER-LIGAND FREE ENERGY PREDICTED BY IDOCK:   -3.49 KCAL/MOL
REMARK 924 INTRA-LIGAND FREE ENERGY PREDICTED BY IDOCK:   -0.13 KCAL/MOL
REMARK 927      BINDING AFFINITY PREDICTED BY RF-SCORE:    0.00 PKD
ROOT
HETATM    1  C   UNL     1     -11.856  12.503  68.383  1.00  0.00    -0.353 C  
HETATM    2  C   UNL     1     -10.699  11.561  68.706  1.00  0.00    -0.211 C  
ENDROOT
BRANCH   2   3
HETATM    3  N   UNL     1     -10.958  10.624  69.815  1.00  0.00    -0.273 NA 
BRANCH   3   4
HETATM    4  C   UNL     1     -12.382  10.389  70.090  1.00  0.00    -0.208 C  
HETATM    5  C   UNL     1     -12.834  10.631  71.525  1.00  0.00    -0.567 C  
ENDBRANCH   3   4
BRANCH   3   6
HETATM    6  C   UNL     1     -10.164   9.389  69.613  1.00  0.00    -0.212 C  
BRANCH   6   7
HETATM    7  C   UNL     1      -9.396   9.336  68.283  1.00  0.00    -0.134 C  
BRANCH   7   8
HETATM    8  O   UNL     1      -8.855   8.035  67.973  1.00  0.00    -0.128 OA 
BRANCH   8   9
HETATM    9  C   UNL     1      -9.587   7.301  67.095  1.00  0.00    -0.160 C  
HETATM   10  O   UNL     1     -10.647   7.674  66.615  1.00  0.00    -0.274 OA 
BRANCH   9  11
HETATM   11  C   UNL     1      -8.909   5.951  66.734  1.00  0.00    -0.118 C  
HETATM   12  C   UNL     1      -9.899   4.777  66.950  1.00  0.00    -0.225 C  
HETATM   13  C   UNL     1      -7.728   5.799  67.749  1.00  0.00    -0.097 C  
HETATM   14  C   UNL     1      -8.171   5.560  69.196  1.00  0.00    -0.095 C  
HETATM   15  C   UNL     1     -10.309   4.542  68.403  1.00  0.00     0.208 C  
HETATM   16  C   UNL     1      -9.089   4.352  69.289  1.00  0.00    -0.174 C  
BRANCH  11  17
HETATM   17  C   UNL     1      -8.383   6.083  65.239  1.00  0.00    -0.148 C  
HETATM   18  C   UNL     1      -6.898   6.471  65.063  1.00  0.00    -0.047 C  
HETATM   19  C   UNL     1      -6.203   4.120  64.511  1.00  0.00    -0.026 C  
HETATM   20  C   UNL     1      -7.671   3.705  64.434  1.00  0.00    -0.081 C  
HETATM   21  C   UNL     1      -5.945   5.331  65.397  1.00  0.00    -0.025 C  
HETATM   22  C   UNL     1      -8.660   4.872  64.314  1.00  0.00    -0.141 C  
ENDBRANCH  11  17
ENDBRANCH   9  11
ENDBRANCH   8   9
ENDBRANCH   7   8
ENDBRANCH   6   7
ENDBRANCH   3   6
ENDBRANCH   2   3
TORSDOF 8
ENDMDL
MODEL      285
REMARK 921   NORMALIZED FREE ENERGY PREDICTED BY IDOCK:   -2.06 KCAL/MOL
REMARK 922        TOTAL FREE ENERGY PREDICTED BY IDOCK:   -3.60 KCAL/MOL
REMARK 923 INTER-LIGAND FREE ENERGY PREDICTED BY IDOCK:   -4.77 KCAL/MOL
REMARK 924 INTRA-LIGAND FREE ENERGY PREDICTED BY IDOCK:    1.16 KCAL/MOL
REMARK 927      BINDING AFFINITY PREDICTED BY RF-SCORE:    0.00 PKD
ROOT
HETATM    1  C   UNL     1      -8.111   6.494  71.941  1.00  0.00    -0.104 C  
HETATM    2  C   UNL     1      -9.541   7.003  72.101  1.00  0.00    -0.146 C  
ENDROOT
BRANCH   2   3
HETATM    3  N   UNL     1     -10.065   7.747  70.941  1.00  0.00    -0.187 NA 
BRANCH   3   4
HETATM    4  C   UNL     1     -11.181   7.085  70.252  1.00  0.00    -0.298 C  
HETATM    5  C   UNL     1     -10.834   5.817  69.483  1.00  0.00    -0.410 C  
ENDBRANCH   3   4
BRANCH   3   6
HETATM    6  C   UNL     1     -10.338   9.149  71.335  1.00  0.00    -0.338 C  
BRANCH   6   7
HETATM    7  C   UNL     1     -11.306   9.895  70.403  1.00  0.00    -0.307 C  
BRANCH   7   8
HETATM    8  O   UNL     1     -10.650  10.757  69.450  1.00  0.00    -0.219 OA 
BRANCH   8   9
HETATM    9  C   UNL     1     -11.029  12.061  69.496  1.00  0.00     0.007 C  
HETATM   10  O   UNL     1     -11.502  12.597  70.487  1.00  0.00     0.129 OA 
BRANCH   9  11
HETATM   11  C   UNL     1     -10.758  12.810  68.163  1.00  0.00    -0.243 C  
HETATM   12  C   UNL     1     -11.398  12.045  66.975  1.00  0.00    -0.396 C  
HETATM   13  C   UNL     1      -9.203  12.788  67.988  1.00  0.00    -0.208 C  
HETATM   14  C   UNL     1      -8.623  11.400  67.701  1.00  0.00    -0.130 C  
HETATM   15  C   UNL     1     -10.788  10.672  66.692  1.00  0.00    -0.197 C  
HETATM   16  C   UNL     1      -9.287  10.776  66.483  1.00  0.00    -0.192 C  
BRANCH  11  17
HETATM   17  C   UNL     1     -11.306  14.291  68.344  1.00  0.00    -0.309 C  
HETATM   18  C   UNL     1     -10.587  15.168  69.393  1.00  0.00    -0.258 C  
HETATM   19  C   UNL     1      -9.307  16.451  67.652  1.00  0.00    -0.212 C  
HETATM   20  C   UNL     1     -10.144  15.794  66.555  1.00  0.00    -0.292 C  
HETATM   21  C   UNL     1      -9.212  15.634  68.934  1.00  0.00    -0.226 C  
HETATM   22  C   UNL     1     -11.436  15.129  67.048  1.00  0.00    -0.230 C  
ENDBRANCH  11  17
ENDBRANCH   9  11
ENDBRANCH   8   9
ENDBRANCH   7   8
ENDBRANCH   6   7
ENDBRANCH   3   6
ENDBRANCH   2   3
TORSDOF 8
ENDMDL
MODEL      286
REMARK 921   NORMALIZED FREE ENERGY PREDICTED BY IDOCK:   -2.02 KCAL/MOL
REMARK 922        TOTAL FREE ENERGY PREDICTED BY IDOCK:   -3.55 KCAL/MOL
REMARK 923 INTER-LIGAND FREE ENERGY PREDICTED BY IDOCK:   -3.03 KCAL/MOL
REMARK 924 INTRA-LIGAND FREE ENERGY PREDICTED BY IDOCK:   -0.52 KCAL/MOL
REMARK 927      BINDING AFFINITY PREDICTED BY RF-SCORE:    0.00 PKD
ROOT
HETATM    1  C   UNL     1     -12.185  10.299  71.055  1.00  0.00    -0.487 C  
HETATM    2  C   UNL     1     -11.514   9.089  70.411  1.00  0.00    -0.173 C  
ENDROOT
BRANCH   2   3
HETATM    3  N   UNL     1     -10.752   9.386  69.184  1.00  0.00    -0.219 NA 
BRANCH   3   4
HETATM    4  C   UNL     1      -9.611  10.289  69.383  1.00  0.00    -0.218 C  
HETATM    5  C   UNL     1      -9.461  11.411  68.363  1.00  0.00    -0.194 C  
ENDBRANCH   3   4
BRANCH   3   6
HETATM    6  C   UNL     1     -10.414   8.119  68.493  1.00  0.00    -0.162 C  
BRANCH   6   7
HETATM    7  C   UNL     1     -10.554   6.861  69.367  1.00  0.00    -0.229 C  
BRANCH   7   8
HETATM    8  O   UNL     1      -9.383   6.566  70.156  1.00  0.00    -0.157 OA 
BRANCH   8   9
HETATM    9  C   UNL     1      -9.530   5.552  71.047  1.00  0.00    -0.163 C  
HETATM   10  O   UNL     1     -10.613   5.126  71.421  1.00  0.00    -0.208 OA 
BRANCH   9  11
HETATM   11  C   UNL     1      -8.171   4.961  71.511  1.00  0.00    -0.113 C  
HETATM   12  C   UNL     1      -8.384   3.974  72.688  1.00  0.00    -0.099 C  
HETATM   13  C   UNL     1      -7.347   6.186  72.032  1.00  0.00    -0.093 C  
HETATM   14  C   UNL     1      -7.888   6.801  73.326  1.00  0.00    -0.099 C  
HETATM   15  C   UNL     1      -8.903   4.614  73.976  1.00  0.00    -0.107 C  
HETATM   16  C   UNL     1      -7.999   5.752  74.420  1.00  0.00    -0.103 C  
BRANCH  11  17
HETATM   17  C   UNL     1      -7.492   4.301  70.233  1.00  0.00    -0.046 C  
HETATM   18  C   UNL     1      -5.976   4.019  70.326  1.00  0.00    -0.018 C  
HETATM   19  C   UNL     1      -6.316   1.560  70.724  1.00  0.00    -0.023 C  
HETATM   20  C   UNL     1      -7.804   1.717  70.412  1.00  0.00    -0.042 C  
HETATM   21  C   UNL     1      -5.649   2.835  71.225  1.00  0.00    -0.012 C  
HETATM   22  C   UNL     1      -8.172   3.020  69.690  1.00  0.00    -0.069 C  
ENDBRANCH  11  17
ENDBRANCH   9  11
ENDBRANCH   8   9
ENDBRANCH   7   8
ENDBRANCH   6   7
ENDBRANCH   3   6
ENDBRANCH   2   3
TORSDOF 8
ENDMDL
MODEL      287
REMARK 921   NORMALIZED FREE ENERGY PREDICTED BY IDOCK:   -2.00 KCAL/MOL
REMARK 922        TOTAL FREE ENERGY PREDICTED BY IDOCK:   -3.52 KCAL/MOL
REMARK 923 INTER-LIGAND FREE ENERGY PREDICTED BY IDOCK:   -3.84 KCAL/MOL
REMARK 924 INTRA-LIGAND FREE ENERGY PREDICTED BY IDOCK:    0.32 KCAL/MOL
REMARK 927      BINDING AFFINITY PREDICTED BY RF-SCORE:    0.00 PKD
ROOT
HETATM    1  C   UNL     1      -5.742  10.788  71.439  1.00  0.00     0.188 C  
HETATM    2  C   UNL     1      -5.632   9.447  70.718  1.00  0.00    -0.046 C  
ENDROOT
BRANCH   2   3
HETATM    3  N   UNL     1      -6.791   9.104  69.873  1.00  0.00    -0.049 NA 
BRANCH   3   4
HETATM    4  C   UNL     1      -8.060   8.991  70.602  1.00  0.00    -0.162 C  
HETATM    5  C   UNL     1      -8.314   7.660  71.300  1.00  0.00    -0.108 C  
ENDBRANCH   3   4
BRANCH   3   6
HETATM    6  C   UNL     1      -6.837  10.015  68.705  1.00  0.00    -0.054 C  
BRANCH   6   7
HETATM    7  C   UNL     1      -8.255  10.345  68.211  1.00  0.00    -0.114 C  
BRANCH   7   8
HETATM    8  O   UNL     1      -8.648  11.714  68.440  1.00  0.00    -0.153 OA 
BRANCH   8   9
HETATM    9  C   UNL     1      -8.173  12.609  67.535  1.00  0.00    -0.178 C  
HETATM   10  O   UNL     1      -7.138  12.452  66.903  1.00  0.00    -0.059 OA 
BRANCH   9  11
HETATM   11  C   UNL     1      -9.108  13.836  67.359  1.00  0.00    -0.221 C  
HETATM   12  C   UNL     1      -9.989  14.028  68.622  1.00  0.00    -0.203 C  
HETATM   13  C   UNL     1     -10.039  13.474  66.154  1.00  0.00    -0.307 C  
HETATM   14  C   UNL     1     -11.036  12.348  66.447  1.00  0.00    -0.315 C  
HETATM   15  C   UNL     1     -10.992  12.904  68.881  1.00  0.00    -0.271 C  
HETATM   16  C   UNL     1     -11.879  12.676  67.669  1.00  0.00    -0.390 C  
BRANCH  11  17
HETATM   17  C   UNL     1      -8.179  15.082  67.027  1.00  0.00    -0.246 C  
HETATM   18  C   UNL     1      -8.845  16.258  66.278  1.00  0.00    -0.367 C  
HETATM   19  C   UNL     1      -9.033  17.660  68.355  1.00  0.00    -0.280 C  
HETATM   20  C   UNL     1      -8.173  16.650  69.114  1.00  0.00    -0.126 C  
HETATM   21  C   UNL     1      -9.778  17.072  67.164  1.00  0.00    -0.259 C  
HETATM   22  C   UNL     1      -7.391  15.678  68.220  1.00  0.00    -0.117 C  
ENDBRANCH  11  17
ENDBRANCH   9  11
ENDBRANCH   8   9
ENDBRANCH   7   8
ENDBRANCH   6   7
ENDBRANCH   3   6
ENDBRANCH   2   3
TORSDOF 8
ENDMDL
MODEL      288
REMARK 921   NORMALIZED FREE ENERGY PREDICTED BY IDOCK:   -2.00 KCAL/MOL
REMARK 922        TOTAL FREE ENERGY PREDICTED BY IDOCK:   -3.52 KCAL/MOL
REMARK 923 INTER-LIGAND FREE ENERGY PREDICTED BY IDOCK:   -3.67 KCAL/MOL
REMARK 924 INTRA-LIGAND FREE ENERGY PREDICTED BY IDOCK:    0.15 KCAL/MOL
REMARK 927      BINDING AFFINITY PREDICTED BY RF-SCORE:    0.00 PKD
ROOT
HETATM    1  C   UNL     1      -6.997   4.273  62.507  1.00  0.00    -0.031 C  
HETATM    2  C   UNL     1      -6.496   4.268  63.949  1.00  0.00    -0.038 C  
ENDROOT
BRANCH   2   3
HETATM    3  N   UNL     1      -7.552   4.140  64.970  1.00  0.00    -0.077 NA 
BRANCH   3   4
HETATM    4  C   UNL     1      -7.520   2.878  65.720  1.00  0.00    -0.072 C  
HETATM    5  C   UNL     1      -7.724   1.608  64.902  1.00  0.00    -0.064 C  
ENDBRANCH   3   4
BRANCH   3   6
HETATM    6  C   UNL     1      -7.568   5.354  65.820  1.00  0.00    -0.083 C  
BRANCH   6   7
HETATM    7  C   UNL     1      -8.936   5.678  66.442  1.00  0.00    -0.134 C  
BRANCH   7   8
HETATM    8  O   UNL     1      -8.931   6.850  67.283  1.00  0.00    -0.117 OA 
BRANCH   8   9
HETATM    9  C   UNL     1     -10.155   7.386  67.531  1.00  0.00    -0.192 C  
HETATM   10  O   UNL     1     -11.153   7.136  66.871  1.00  0.00    -0.327 OA 
BRANCH   9  11
HETATM   11  C   UNL     1     -10.158   8.320  68.772  1.00  0.00    -0.212 C  
HETATM   12  C   UNL     1     -10.690   9.725  68.387  1.00  0.00    -0.262 C  
HETATM   13  C   UNL     1      -8.655   8.454  69.189  1.00  0.00    -0.134 C  
HETATM   14  C   UNL     1      -7.796   9.241  68.195  1.00  0.00    -0.095 C  
HETATM   15  C   UNL     1      -9.805  10.502  67.413  1.00  0.00    -0.204 C  
HETATM   16  C   UNL     1      -8.385  10.620  67.943  1.00  0.00    -0.120 C  
BRANCH  11  17
HETATM   17  C   UNL     1     -11.015   7.593  69.897  1.00  0.00    -0.208 C  
HETATM   18  C   UNL     1     -10.955   6.049  69.919  1.00  0.00    -0.458 C  
HETATM   19  C   UNL     1      -9.376   5.998  71.873  1.00  0.00    -0.160 C  
HETATM   20  C   UNL     1      -9.566   7.501  72.066  1.00  0.00    -0.189 C  
HETATM   21  C   UNL     1      -9.632   5.516  70.452  1.00  0.00    -0.224 C  
HETATM   22  C   UNL     1     -10.789   8.088  71.347  1.00  0.00    -0.271 C  
ENDBRANCH  11  17
ENDBRANCH   9  11
ENDBRANCH   8   9
ENDBRANCH   7   8
ENDBRANCH   6   7
ENDBRANCH   3   6
ENDBRANCH   2   3
TORSDOF 8
ENDMDL
MODEL      289
REMARK 921   NORMALIZED FREE ENERGY PREDICTED BY IDOCK:   -1.97 KCAL/MOL
REMARK 922        TOTAL FREE ENERGY PREDICTED BY IDOCK:   -3.47 KCAL/MOL
REMARK 923 INTER-LIGAND FREE ENERGY PREDICTED BY IDOCK:   -3.14 KCAL/MOL
REMARK 924 INTRA-LIGAND FREE ENERGY PREDICTED BY IDOCK:   -0.33 KCAL/MOL
REMARK 927      BINDING AFFINITY PREDICTED BY RF-SCORE:    0.00 PKD
ROOT
HETATM    1  C   UNL     1      -8.989   1.552  66.442  1.00  0.00    -0.097 C  
HETATM    2  C   UNL     1      -9.291   3.045  66.343  1.00  0.00    -0.066 C  
ENDROOT
BRANCH   2   3
HETATM    3  N   UNL     1      -8.427   3.789  65.407  1.00  0.00    -0.108 NA 
BRANCH   3   4
HETATM    4  C   UNL     1      -9.153   4.491  64.341  1.00  0.00    -0.143 C  
HETATM    5  C   UNL     1      -9.565   3.645  63.142  1.00  0.00    -0.120 C  
ENDBRANCH   3   4
BRANCH   3   6
HETATM    6  C   UNL     1      -7.490   4.645  66.173  1.00  0.00    -0.082 C  
BRANCH   6   7
HETATM    7  C   UNL     1      -8.128   5.378  67.364  1.00  0.00    -0.101 C  
BRANCH   7   8
HETATM    8  O   UNL     1      -8.430   6.764  67.102  1.00  0.00    -0.119 OA 
BRANCH   8   9
HETATM    9  C   UNL     1      -8.401   7.576  68.190  1.00  0.00    -0.125 C  
HETATM   10  O   UNL     1      -8.031   7.216  69.298  1.00  0.00    -0.115 OA 
BRANCH   9  11
HETATM   11  C   UNL     1      -8.852   9.026  67.866  1.00  0.00    -0.129 C  
HETATM   12  C   UNL     1      -8.289   9.471  66.490  1.00  0.00    -0.119 C  
HETATM   13  C   UNL     1      -8.204   9.916  68.979  1.00  0.00    -0.124 C  
HETATM   14  C   UNL     1      -6.679  10.025  68.888  1.00  0.00    -0.053 C  
HETATM   15  C   UNL     1      -6.767   9.595  66.429  1.00  0.00    -0.076 C  
HETATM   16  C   UNL     1      -6.253  10.524  67.516  1.00  0.00    -0.056 C  
BRANCH  11  17
HETATM   17  C   UNL     1     -10.439   9.048  67.950  1.00  0.00    -0.291 C  
HETATM   18  C   UNL     1     -11.056   9.009  69.366  1.00  0.00    -0.000 C  
HETATM   19  C   UNL     1     -11.579  11.468  69.358  1.00  0.00    -0.388 C  
HETATM   20  C   UNL     1     -11.206  11.541  67.878  1.00  0.00    -0.344 C  
HETATM   21  C   UNL     1     -10.906  10.328  70.112  1.00  0.00    -0.362 C  
HETATM   22  C   UNL     1     -11.144  10.183  67.166  1.00  0.00    -0.122 C  
ENDBRANCH  11  17
ENDBRANCH   9  11
ENDBRANCH   8   9
ENDBRANCH   7   8
ENDBRANCH   6   7
ENDBRANCH   3   6
ENDBRANCH   2   3
TORSDOF 8
ENDMDL
MODEL      290
REMARK 921   NORMALIZED FREE ENERGY PREDICTED BY IDOCK:   -1.96 KCAL/MOL
REMARK 922        TOTAL FREE ENERGY PREDICTED BY IDOCK:   -3.46 KCAL/MOL
REMARK 923 INTER-LIGAND FREE ENERGY PREDICTED BY IDOCK:   -2.97 KCAL/MOL
REMARK 924 INTRA-LIGAND FREE ENERGY PREDICTED BY IDOCK:   -0.48 KCAL/MOL
REMARK 927      BINDING AFFINITY PREDICTED BY RF-SCORE:    0.00 PKD
ROOT
HETATM    1  C   UNL     1      -9.808  10.306  64.287  1.00  0.00    -0.357 C  
HETATM    2  C   UNL     1      -8.424  10.343  64.930  1.00  0.00    -0.175 C  
ENDROOT
BRANCH   2   3
HETATM    3  N   UNL     1      -7.436   9.433  64.323  1.00  0.00    -0.106 NA 
BRANCH   3   4
HETATM    4  C   UNL     1      -6.037   9.823  64.542  1.00  0.00    -0.096 C  
HETATM    5  C   UNL     1      -5.354  10.542  63.385  1.00  0.00    -0.167 C  
ENDBRANCH   3   4
BRANCH   3   6
HETATM    6  C   UNL     1      -7.747   8.037  64.711  1.00  0.00    -0.120 C  
BRANCH   6   7
HETATM    7  C   UNL     1      -7.685   7.767  66.223  1.00  0.00    -0.089 C  
BRANCH   7   8
HETATM    8  O   UNL     1      -8.296   6.522  66.619  1.00  0.00    -0.109 OA 
BRANCH   8   9
HETATM    9  C   UNL     1      -7.538   5.415  66.404  1.00  0.00    -0.088 C  
HETATM   10  O   UNL     1      -6.317   5.406  66.453  1.00  0.00    -0.036 OA 
BRANCH   9  11
HETATM   11  C   UNL     1      -8.395   4.149  66.128  1.00  0.00    -0.109 C  
HETATM   12  C   UNL     1      -9.851   4.367  66.615  1.00  0.00    -0.246 C  
HETATM   13  C   UNL     1      -7.746   3.017  66.993  1.00  0.00    -0.075 C  
HETATM   14  C   UNL     1      -7.922   3.202  68.503  1.00  0.00    -0.063 C  
HETATM   15  C   UNL     1     -10.006   4.526  68.127  1.00  0.00    -0.098 C  
HETATM   16  C   UNL     1      -9.392   3.347  68.863  1.00  0.00    -0.237 C  
BRANCH  11  17
HETATM   17  C   UNL     1      -8.275   3.839  64.573  1.00  0.00    -0.093 C  
HETATM   18  C   UNL     1      -8.086   2.357  64.178  1.00  0.00    -0.081 C  
HETATM   19  C   UNL     1     -10.485   2.090  63.480  1.00  0.00    -0.139 C  
HETATM   20  C   UNL     1     -10.693   3.597  63.621  1.00  0.00    -0.260 C  
HETATM   21  C   UNL     1      -9.357   1.535  64.339  1.00  0.00    -0.132 C  
HETATM   22  C   UNL     1      -9.398   4.419  63.678  1.00  0.00    -0.096 C  
ENDBRANCH  11  17
ENDBRANCH   9  11
ENDBRANCH   8   9
ENDBRANCH   7   8
ENDBRANCH   6   7
ENDBRANCH   3   6
ENDBRANCH   2   3
TORSDOF 8
ENDMDL
MODEL      291
REMARK 921   NORMALIZED FREE ENERGY PREDICTED BY IDOCK:   -1.95 KCAL/MOL
REMARK 922        TOTAL FREE ENERGY PREDICTED BY IDOCK:   -3.45 KCAL/MOL
REMARK 923 INTER-LIGAND FREE ENERGY PREDICTED BY IDOCK:   -3.78 KCAL/MOL
REMARK 924 INTRA-LIGAND FREE ENERGY PREDICTED BY IDOCK:    0.34 KCAL/MOL
REMARK 927      BINDING AFFINITY PREDICTED BY RF-SCORE:    0.00 PKD
ROOT
HETATM    1  C   UNL     1      -7.282   4.201  65.118  1.00  0.00    -0.071 C  
HETATM    2  C   UNL     1      -6.916   4.663  66.526  1.00  0.00    -0.066 C  
ENDROOT
BRANCH   2   3
HETATM    3  N   UNL     1      -7.466   3.830  67.612  1.00  0.00    -0.066 NA 
BRANCH   3   4
HETATM    4  C   UNL     1      -6.626   2.684  67.981  1.00  0.00    -0.036 C  
HETATM    5  C   UNL     1      -5.182   3.003  68.348  1.00  0.00    -0.012 C  
ENDBRANCH   3   4
BRANCH   3   6
HETATM    6  C   UNL     1      -7.851   4.696  68.752  1.00  0.00    -0.075 C  
BRANCH   6   7
HETATM    7  C   UNL     1      -7.600   6.196  68.525  1.00  0.00    -0.092 C  
BRANCH   7   8
HETATM    8  O   UNL     1      -8.220   7.046  69.512  1.00  0.00    -0.128 OA 
BRANCH   8   9
HETATM    9  C   UNL     1      -9.417   7.574  69.147  1.00  0.00    -0.150 C  
HETATM   10  O   UNL     1     -10.282   6.949  68.550  1.00  0.00    -0.162 OA 
BRANCH   9  11
HETATM   11  C   UNL     1      -9.587   9.047  69.608  1.00  0.00    -0.175 C  
HETATM   12  C   UNL     1     -10.648   9.766  68.733  1.00  0.00    -0.244 C  
HETATM   13  C   UNL     1      -8.196   9.719  69.356  1.00  0.00    -0.135 C  
HETATM   14  C   UNL     1      -7.838   9.884  67.876  1.00  0.00    -0.090 C  
HETATM   15  C   UNL     1     -10.258   9.940  67.266  1.00  0.00    -0.277 C  
HETATM   16  C   UNL     1      -8.922  10.652  67.138  1.00  0.00    -0.143 C  
BRANCH  11  17
HETATM   17  C   UNL     1      -9.947   9.010  71.156  1.00  0.00    -0.365 C  
HETATM   18  C   UNL     1     -11.403   9.364  71.534  1.00  0.00    -0.464 C  
HETATM   19  C   UNL     1     -12.042   6.961  71.898  1.00  0.00    -0.370 C  
HETATM   20  C   UNL     1     -10.575   6.552  71.769  1.00  0.00    -0.245 C  
HETATM   21  C   UNL     1     -12.390   8.260  71.183  1.00  0.00    -0.224 C  
HETATM   22  C   UNL     1      -9.575   7.708  71.908  1.00  0.00    -0.191 C  
ENDBRANCH  11  17
ENDBRANCH   9  11
ENDBRANCH   8   9
ENDBRANCH   7   8
ENDBRANCH   6   7
ENDBRANCH   3   6
ENDBRANCH   2   3
TORSDOF 8
ENDMDL
MODEL      292
REMARK 921   NORMALIZED FREE ENERGY PREDICTED BY IDOCK:   -1.94 KCAL/MOL
REMARK 922        TOTAL FREE ENERGY PREDICTED BY IDOCK:   -3.43 KCAL/MOL
REMARK 923 INTER-LIGAND FREE ENERGY PREDICTED BY IDOCK:   -3.66 KCAL/MOL
REMARK 924 INTRA-LIGAND FREE ENERGY PREDICTED BY IDOCK:    0.24 KCAL/MOL
REMARK 927      BINDING AFFINITY PREDICTED BY RF-SCORE:    0.00 PKD
ROOT
HETATM    1  C   UNL     1     -10.403  12.439  66.966  1.00  0.00    -0.235 C  
HETATM    2  C   UNL     1     -10.067  11.684  68.249  1.00  0.00    -0.202 C  
ENDROOT
BRANCH   2   3
HETATM    3  N   UNL     1     -10.860  12.083  69.427  1.00  0.00    -0.079 NA 
BRANCH   3   4
HETATM    4  C   UNL     1     -12.067  12.859  69.110  1.00  0.00    -0.168 C  
HETATM    5  C   UNL     1     -12.343  14.061  70.004  1.00  0.00    -0.397 C  
ENDBRANCH   3   4
BRANCH   3   6
HETATM    6  C   UNL     1     -11.105  10.899  70.283  1.00  0.00    -0.093 C  
BRANCH   6   7
HETATM    7  C   UNL     1     -10.476   9.596  69.761  1.00  0.00    -0.238 C  
BRANCH   7   8
HETATM    8  O   UNL     1      -9.341   9.148  70.530  1.00  0.00    -0.200 OA 
BRANCH   8   9
HETATM    9  C   UNL     1      -8.742   8.019  70.070  1.00  0.00    -0.135 C  
HETATM   10  O   UNL     1      -8.852   7.610  68.923  1.00  0.00    -0.135 OA 
BRANCH   9  11
HETATM   11  C   UNL     1      -7.868   7.323  71.148  1.00  0.00    -0.093 C  
HETATM   12  C   UNL     1      -7.347   8.364  72.174  1.00  0.00    -0.127 C  
HETATM   13  C   UNL     1      -6.643   6.738  70.369  1.00  0.00    -0.048 C  
HETATM   14  C   UNL     1      -5.687   7.797  69.814  1.00  0.00    -0.023 C  
HETATM   15  C   UNL     1      -6.376   9.398  71.603  1.00  0.00     0.056 C  
HETATM   16  C   UNL     1      -5.200   8.720  70.920  1.00  0.00    -0.028 C  
BRANCH  11  17
HETATM   17  C   UNL     1      -8.756   6.173  71.793  1.00  0.00    -0.137 C  
HETATM   18  C   UNL     1      -9.201   6.385  73.257  1.00  0.00    -0.136 C  
HETATM   19  C   UNL     1     -11.534   7.050  72.600  1.00  0.00    -0.250 C  
HETATM   20  C   UNL     1     -11.244   6.637  71.157  1.00  0.00    -0.340 C  
HETATM   21  C   UNL     1     -10.295   7.435  73.397  1.00  0.00    -0.411 C  
HETATM   22  C   UNL     1     -10.006   5.747  70.983  1.00  0.00    -0.243 C  
ENDBRANCH  11  17
ENDBRANCH   9  11
ENDBRANCH   8   9
ENDBRANCH   7   8
ENDBRANCH   6   7
ENDBRANCH   3   6
ENDBRANCH   2   3
TORSDOF 8
ENDMDL
MODEL      293
REMARK 921   NORMALIZED FREE ENERGY PREDICTED BY IDOCK:   -1.94 KCAL/MOL
REMARK 922        TOTAL FREE ENERGY PREDICTED BY IDOCK:   -3.43 KCAL/MOL
REMARK 923 INTER-LIGAND FREE ENERGY PREDICTED BY IDOCK:   -3.04 KCAL/MOL
REMARK 924 INTRA-LIGAND FREE ENERGY PREDICTED BY IDOCK:   -0.39 KCAL/MOL
REMARK 927      BINDING AFFINITY PREDICTED BY RF-SCORE:    0.00 PKD
ROOT
HETATM    1  C   UNL     1     -11.664   9.873  70.658  1.00  0.00    -0.404 C  
HETATM    2  C   UNL     1     -11.363  10.336  69.235  1.00  0.00    -0.196 C  
ENDROOT
BRANCH   2   3
HETATM    3  N   UNL     1      -9.956  10.181  68.820  1.00  0.00    -0.171 NA 
BRANCH   3   4
HETATM    4  C   UNL     1      -9.411  11.332  68.088  1.00  0.00    -0.181 C  
HETATM    5  C   UNL     1      -8.298  11.025  67.093  1.00  0.00    -0.132 C  
ENDBRANCH   3   4
BRANCH   3   6
HETATM    6  C   UNL     1      -9.142   9.756  69.983  1.00  0.00    -0.223 C  
BRANCH   6   7
HETATM    7  C   UNL     1      -8.279   8.508  69.733  1.00  0.00    -0.121 C  
BRANCH   7   8
HETATM    8  O   UNL     1      -8.780   7.655  68.683  1.00  0.00    -0.129 OA 
BRANCH   8   9
HETATM    9  C   UNL     1      -7.826   7.076  67.907  1.00  0.00    -0.114 C  
HETATM   10  O   UNL     1      -7.016   7.706  67.243  1.00  0.00    -0.078 OA 
BRANCH   9  11
HETATM   11  C   UNL     1      -7.850   5.526  67.987  1.00  0.00    -0.096 C  
HETATM   12  C   UNL     1      -7.732   4.911  66.568  1.00  0.00    -0.095 C  
HETATM   13  C   UNL     1      -9.256   5.165  68.570  1.00  0.00    -0.145 C  
HETATM   14  C   UNL     1     -10.423   5.457  67.621  1.00  0.00    -0.217 C  
HETATM   15  C   UNL     1      -8.918   5.195  65.646  1.00  0.00    -0.154 C  
HETATM   16  C   UNL     1     -10.224   4.755  66.287  1.00  0.00    -0.315 C  
BRANCH  11  17
HETATM   17  C   UNL     1      -6.679   5.095  68.973  1.00  0.00    -0.053 C  
HETATM   18  C   UNL     1      -6.957   5.255  70.485  1.00  0.00    -0.052 C  
HETATM   19  C   UNL     1      -7.382   2.800  70.811  1.00  0.00    -0.033 C  
HETATM   20  C   UNL     1      -6.893   2.528  69.389  1.00  0.00    -0.033 C  
HETATM   21  C   UNL     1      -7.922   4.208  71.023  1.00  0.00    -0.071 C  
HETATM   22  C   UNL     1      -6.097   3.677  68.756  1.00  0.00    -0.028 C  
ENDBRANCH  11  17
ENDBRANCH   9  11
ENDBRANCH   8   9
ENDBRANCH   7   8
ENDBRANCH   6   7
ENDBRANCH   3   6
ENDBRANCH   2   3
TORSDOF 8
ENDMDL
MODEL      294
REMARK 921   NORMALIZED FREE ENERGY PREDICTED BY IDOCK:   -1.93 KCAL/MOL
REMARK 922        TOTAL FREE ENERGY PREDICTED BY IDOCK:   -3.42 KCAL/MOL
REMARK 923 INTER-LIGAND FREE ENERGY PREDICTED BY IDOCK:   -3.07 KCAL/MOL
REMARK 924 INTRA-LIGAND FREE ENERGY PREDICTED BY IDOCK:   -0.35 KCAL/MOL
REMARK 927      BINDING AFFINITY PREDICTED BY RF-SCORE:    0.00 PKD
ROOT
HETATM    1  C   UNL     1      -6.617  10.433  68.595  1.00  0.00    -0.052 C  
HETATM    2  C   UNL     1      -7.952  10.014  67.984  1.00  0.00    -0.101 C  
ENDROOT
BRANCH   2   3
HETATM    3  N   UNL     1      -7.930   8.717  67.282  1.00  0.00    -0.101 NA 
BRANCH   3   4
HETATM    4  C   UNL     1      -7.239   8.741  65.986  1.00  0.00    -0.088 C  
HETATM    5  C   UNL     1      -8.089   8.395  64.770  1.00  0.00    -0.155 C  
ENDBRANCH   3   4
BRANCH   3   6
HETATM    6  C   UNL     1      -7.452   7.663  68.208  1.00  0.00    -0.104 C  
BRANCH   6   7
HETATM    7  C   UNL     1      -8.312   6.388  68.219  1.00  0.00    -0.116 C  
BRANCH   7   8
HETATM    8  O   UNL     1      -8.320   5.701  69.487  1.00  0.00    -0.101 OA 
BRANCH   8   9
HETATM    9  C   UNL     1      -9.552   5.377  69.959  1.00  0.00    -0.169 C  
HETATM   10  O   UNL     1     -10.197   4.414  69.571  1.00  0.00    -0.115 OA 
BRANCH   9  11
HETATM   11  C   UNL     1     -10.037   6.340  71.077  1.00  0.00    -0.221 C  
HETATM   12  C   UNL     1      -8.824   7.009  71.775  1.00  0.00    -0.127 C  
HETATM   13  C   UNL     1     -10.768   5.427  72.117  1.00  0.00    -0.286 C  
HETATM   14  C   UNL     1      -9.839   4.483  72.886  1.00  0.00    -0.185 C  
HETATM   15  C   UNL     1      -7.924   6.051  72.556  1.00  0.00    -0.105 C  
HETATM   16  C   UNL     1      -8.727   5.258  73.574  1.00  0.00    -0.114 C  
BRANCH  11  17
HETATM   17  C   UNL     1     -11.038   7.372  70.397  1.00  0.00    -0.284 C  
HETATM   18  C   UNL     1     -12.254   7.811  71.243  1.00  0.00    -0.325 C  
HETATM   19  C   UNL     1     -11.232  10.034  71.815  1.00  0.00     0.443 C  
HETATM   20  C   UNL     1     -10.108   9.774  70.813  1.00  0.00    -0.200 C  
HETATM   21  C   UNL     1     -11.879   8.770  72.364  1.00  0.00    -0.356 C  
HETATM   22  C   UNL     1     -10.395   8.651  69.807  1.00  0.00    -0.212 C  
ENDBRANCH  11  17
ENDBRANCH   9  11
ENDBRANCH   8   9
ENDBRANCH   7   8
ENDBRANCH   6   7
ENDBRANCH   3   6
ENDBRANCH   2   3
TORSDOF 8
ENDMDL
MODEL      295
REMARK 921   NORMALIZED FREE ENERGY PREDICTED BY IDOCK:   -1.93 KCAL/MOL
REMARK 922        TOTAL FREE ENERGY PREDICTED BY IDOCK:   -3.42 KCAL/MOL
REMARK 923 INTER-LIGAND FREE ENERGY PREDICTED BY IDOCK:   -3.12 KCAL/MOL
REMARK 924 INTRA-LIGAND FREE ENERGY PREDICTED BY IDOCK:   -0.30 KCAL/MOL
REMARK 927      BINDING AFFINITY PREDICTED BY RF-SCORE:    0.00 PKD
ROOT
HETATM    1  C   UNL     1     -10.013   9.974  64.393  1.00  0.00    -0.091 C  
HETATM    2  C   UNL     1      -8.560  10.385  64.619  1.00  0.00    -0.185 C  
ENDROOT
BRANCH   2   3
HETATM    3  N   UNL     1      -7.569   9.330  64.339  1.00  0.00    -0.111 NA 
BRANCH   3   4
HETATM    4  C   UNL     1      -6.258   9.830  63.903  1.00  0.00    -0.117 C  
HETATM    5  C   UNL     1      -6.132  10.175  62.425  1.00  0.00    -0.118 C  
ENDBRANCH   3   4
BRANCH   3   6
HETATM    6  C   UNL     1      -7.513   8.388  65.482  1.00  0.00    -0.085 C  
BRANCH   6   7
HETATM    7  C   UNL     1      -7.447   9.064  66.861  1.00  0.00    -0.090 C  
BRANCH   7   8
HETATM    8  O   UNL     1      -8.115   8.326  67.905  1.00  0.00    -0.123 OA 
BRANCH   8   9
HETATM    9  C   UNL     1      -9.413   8.667  68.112  1.00  0.00    -0.141 C  
HETATM   10  O   UNL     1     -10.362   8.006  67.715  1.00  0.00    -0.212 OA 
BRANCH   9  11
HETATM   11  C   UNL     1      -9.564   9.969  68.945  1.00  0.00    -0.181 C  
HETATM   12  C   UNL     1      -8.264  10.252  69.743  1.00  0.00    -0.111 C  
HETATM   13  C   UNL     1     -10.717   9.675  69.961  1.00  0.00    -0.298 C  
HETATM   14  C   UNL     1     -10.359   8.645  71.036  1.00  0.00    -0.275 C  
HETATM   15  C   UNL     1      -7.939   9.223  70.826  1.00  0.00    -0.187 C  
HETATM   16  C   UNL     1      -9.104   9.059  71.788  1.00  0.00    -0.127 C  
BRANCH  11  17
HETATM   17  C   UNL     1      -9.960  11.126  67.929  1.00  0.00    -0.189 C  
HETATM   18  C   UNL     1     -11.285  11.868  68.211  1.00  0.00    -0.317 C  
HETATM   19  C   UNL     1     -10.120  13.875  69.175  1.00  0.00     0.066 C  
HETATM   20  C   UNL     1      -8.775  13.315  68.714  1.00  0.00     0.143 C  
HETATM   21  C   UNL     1     -11.191  12.816  69.399  1.00  0.00    -0.198 C  
HETATM   22  C   UNL     1      -8.873  12.198  67.666  1.00  0.00    -0.172 C  
ENDBRANCH  11  17
ENDBRANCH   9  11
ENDBRANCH   8   9
ENDBRANCH   7   8
ENDBRANCH   6   7
ENDBRANCH   3   6
ENDBRANCH   2   3
TORSDOF 8
ENDMDL
MODEL      296
REMARK 921   NORMALIZED FREE ENERGY PREDICTED BY IDOCK:   -1.91 KCAL/MOL
REMARK 922        TOTAL FREE ENERGY PREDICTED BY IDOCK:   -3.39 KCAL/MOL
REMARK 923 INTER-LIGAND FREE ENERGY PREDICTED BY IDOCK:   -3.15 KCAL/MOL
REMARK 924 INTRA-LIGAND FREE ENERGY PREDICTED BY IDOCK:   -0.24 KCAL/MOL
REMARK 927      BINDING AFFINITY PREDICTED BY RF-SCORE:    0.00 PKD
ROOT
HETATM    1  C   UNL     1     -11.841  12.549  68.401  1.00  0.00    -0.353 C  
HETATM    2  C   UNL     1     -10.653  11.636  68.693  1.00  0.00    -0.209 C  
ENDROOT
BRANCH   2   3
HETATM    3  N   UNL     1     -10.891  10.628  69.742  1.00  0.00    -0.269 NA 
BRANCH   3   4
HETATM    4  C   UNL     1     -12.309  10.356  70.010  1.00  0.00    -0.159 C  
HETATM    5  C   UNL     1     -12.755  10.498  71.460  1.00  0.00    -0.558 C  
ENDBRANCH   3   4
BRANCH   3   6
HETATM    6  C   UNL     1     -10.081   9.419  69.459  1.00  0.00    -0.205 C  
BRANCH   6   7
HETATM    7  C   UNL     1      -9.167   9.539  68.229  1.00  0.00    -0.130 C  
BRANCH   7   8
HETATM    8  O   UNL     1      -8.682   8.273  67.737  1.00  0.00    -0.133 OA 
BRANCH   8   9
HETATM    9  C   UNL     1      -9.237   7.857  66.569  1.00  0.00    -0.191 C  
HETATM   10  O   UNL     1     -10.416   8.010  66.284  1.00  0.00     0.022 OA 
BRANCH   9  11
HETATM   11  C   UNL     1      -8.202   7.202  65.615  1.00  0.00    -0.138 C  
HETATM   12  C   UNL     1      -8.779   5.895  65.009  1.00  0.00    -0.010 C  
HETATM   13  C   UNL     1      -6.982   6.833  66.523  1.00  0.00    -0.063 C  
HETATM   14  C   UNL     1      -7.260   5.704  67.520  1.00  0.00    -0.076 C  
HETATM   15  C   UNL     1      -9.027   4.775  66.019  1.00  0.00    -0.126 C  
HETATM   16  C   UNL     1      -7.764   4.461  66.804  1.00  0.00    -0.094 C  
BRANCH  11  17
HETATM   17  C   UNL     1      -7.814   8.297  64.530  1.00  0.00    -0.130 C  
HETATM   18  C   UNL     1      -6.550   9.137  64.820  1.00  0.00    -0.074 C  
HETATM   19  C   UNL     1      -5.141   7.835  63.196  1.00  0.00    -0.038 C  
HETATM   20  C   UNL     1      -6.392   7.121  62.685  1.00  0.00    -0.053 C  
HETATM   21  C   UNL     1      -5.260   8.352  64.623  1.00  0.00    -0.036 C  
HETATM   22  C   UNL     1      -7.716   7.798  63.067  1.00  0.00    -0.132 C  
ENDBRANCH  11  17
ENDBRANCH   9  11
ENDBRANCH   8   9
ENDBRANCH   7   8
ENDBRANCH   6   7
ENDBRANCH   3   6
ENDBRANCH   2   3
TORSDOF 8
ENDMDL
MODEL      297
REMARK 921   NORMALIZED FREE ENERGY PREDICTED BY IDOCK:   -1.87 KCAL/MOL
REMARK 922        TOTAL FREE ENERGY PREDICTED BY IDOCK:   -3.33 KCAL/MOL
REMARK 923 INTER-LIGAND FREE ENERGY PREDICTED BY IDOCK:   -3.25 KCAL/MOL
REMARK 924 INTRA-LIGAND FREE ENERGY PREDICTED BY IDOCK:   -0.08 KCAL/MOL
REMARK 927      BINDING AFFINITY PREDICTED BY RF-SCORE:    0.00 PKD
ROOT
HETATM    1  C   UNL     1     -11.649  10.227  70.465  1.00  0.00    -0.424 C  
HETATM    2  C   UNL     1     -12.142  10.843  69.158  1.00  0.00    -0.221 C  
ENDROOT
BRANCH   2   3
HETATM    3  N   UNL     1     -11.138  10.889  68.079  1.00  0.00    -0.270 NA 
BRANCH   3   4
HETATM    4  C   UNL     1     -11.273  12.037  67.174  1.00  0.00    -0.316 C  
HETATM    5  C   UNL     1     -11.790  13.326  67.801  1.00  0.00    -0.394 C  
ENDBRANCH   3   4
BRANCH   3   6
HETATM    6  C   UNL     1      -9.783  10.725  68.657  1.00  0.00    -0.186 C  
BRANCH   6   7
HETATM    7  C   UNL     1      -8.858   9.795  67.856  1.00  0.00    -0.122 C  
BRANCH   7   8
HETATM    8  O   UNL     1      -9.451   8.520  67.533  1.00  0.00    -0.144 OA 
BRANCH   8   9
HETATM    9  C   UNL     1      -8.609   7.457  67.608  1.00  0.00    -0.119 C  
HETATM   10  O   UNL     1      -7.907   7.077  66.681  1.00  0.00    -0.102 OA 
BRANCH   9  11
HETATM   11  C   UNL     1      -8.601   6.799  69.014  1.00  0.00    -0.131 C  
HETATM   12  C   UNL     1      -7.847   5.443  68.972  1.00  0.00    -0.090 C  
HETATM   13  C   UNL     1     -10.106   6.520  69.346  1.00  0.00    -0.198 C  
HETATM   14  C   UNL     1     -10.747   5.429  68.483  1.00  0.00    -0.075 C  
HETATM   15  C   UNL     1      -8.517   4.363  68.124  1.00  0.00    -0.100 C  
HETATM   16  C   UNL     1      -9.953   4.135  68.568  1.00  0.00     0.028 C  
BRANCH  11  17
HETATM   17  C   UNL     1      -7.967   7.857  70.018  1.00  0.00    -0.111 C  
HETATM   18  C   UNL     1      -8.025   7.502  71.521  1.00  0.00    -0.094 C  
HETATM   19  C   UNL     1      -5.608   6.816  71.596  1.00  0.00    -0.036 C  
HETATM   20  C   UNL     1      -5.410   7.363  70.183  1.00  0.00    -0.023 C  
HETATM   21  C   UNL     1      -7.042   6.406  71.908  1.00  0.00    -0.081 C  
HETATM   22  C   UNL     1      -6.520   8.308  69.702  1.00  0.00    -0.037 C  
ENDBRANCH  11  17
ENDBRANCH   9  11
ENDBRANCH   8   9
ENDBRANCH   7   8
ENDBRANCH   6   7
ENDBRANCH   3   6
ENDBRANCH   2   3
TORSDOF 8
ENDMDL
MODEL      298
REMARK 921   NORMALIZED FREE ENERGY PREDICTED BY IDOCK:   -1.67 KCAL/MOL
REMARK 922        TOTAL FREE ENERGY PREDICTED BY IDOCK:   -3.04 KCAL/MOL
REMARK 923 INTER-LIGAND FREE ENERGY PREDICTED BY IDOCK:   -4.10 KCAL/MOL
REMARK 924 INTRA-LIGAND FREE ENERGY PREDICTED BY IDOCK:    1.07 KCAL/MOL
REMARK 927      BINDING AFFINITY PREDICTED BY RF-SCORE:    0.00 PKD
ROOT
HETATM    1  C   UNL     1     -11.729  11.832  67.816  1.00  0.00    -0.337 C  
HETATM    2  C   UNL     1     -10.937  11.973  66.519  1.00  0.00    -0.295 C  
ENDROOT
BRANCH   2   3
HETATM    3  N   UNL     1      -9.744  11.111  66.428  1.00  0.00    -0.199 NA 
BRANCH   3   4
HETATM    4  C   UNL     1      -9.228  10.933  65.064  1.00  0.00    -0.207 C  
HETATM    5  C   UNL     1      -8.649   9.561  64.741  1.00  0.00    -0.196 C  
ENDBRANCH   3   4
BRANCH   3   6
HETATM    6  C   UNL     1      -8.730  11.564  67.409  1.00  0.00    -0.147 C  
BRANCH   6   7
HETATM    7  C   UNL     1      -8.223  10.464  68.356  1.00  0.00    -0.114 C  
BRANCH   7   8
HETATM    8  O   UNL     1      -9.219   9.994  69.288  1.00  0.00    -0.178 OA 
BRANCH   8   9
HETATM    9  C   UNL     1      -8.730   9.322  70.363  1.00  0.00    -0.229 C  
HETATM   10  O   UNL     1      -7.787   9.710  71.036  1.00  0.00    -0.310 OA 
BRANCH   9  11
HETATM   11  C   UNL     1      -9.527   8.025  70.670  1.00  0.00    -0.167 C  
HETATM   12  C   UNL     1     -10.130   8.087  72.098  1.00  0.00    -0.298 C  
HETATM   13  C   UNL     1      -8.468   6.873  70.627  1.00  0.00    -0.136 C  
HETATM   14  C   UNL     1      -7.455   6.908  71.776  1.00  0.00    -0.089 C  
HETATM   15  C   UNL     1      -9.102   8.099  73.228  1.00  0.00    -0.327 C  
HETATM   16  C   UNL     1      -8.163   6.908  73.122  1.00  0.00    -0.118 C  
BRANCH  11  17
HETATM   17  C   UNL     1     -10.612   7.864  69.519  1.00  0.00    -0.220 C  
HETATM   18  C   UNL     1     -10.088   7.904  68.066  1.00  0.00    -0.235 C  
HETATM   19  C   UNL     1     -10.243   5.410  67.793  1.00  0.00    -0.230 C  
HETATM   20  C   UNL     1     -10.983   5.311  69.126  1.00  0.00     0.353 C  
HETATM   21  C   UNL     1      -9.346   6.635  67.670  1.00  0.00    -0.119 C  
HETATM   22  C   UNL     1     -11.553   6.640  69.641  1.00  0.00    -0.305 C  
ENDBRANCH  11  17
ENDBRANCH   9  11
ENDBRANCH   8   9
ENDBRANCH   7   8
ENDBRANCH   6   7
ENDBRANCH   3   6
ENDBRANCH   2   3
TORSDOF 8
ENDMDL
MODEL      299
REMARK 921   NORMALIZED FREE ENERGY PREDICTED BY IDOCK:   -1.66 KCAL/MOL
REMARK 922        TOTAL FREE ENERGY PREDICTED BY IDOCK:   -3.02 KCAL/MOL
REMARK 923 INTER-LIGAND FREE ENERGY PREDICTED BY IDOCK:   -3.57 KCAL/MOL
REMARK 924 INTRA-LIGAND FREE ENERGY PREDICTED BY IDOCK:    0.55 KCAL/MOL
REMARK 927      BINDING AFFINITY PREDICTED BY RF-SCORE:    0.00 PKD
ROOT
HETATM    1  C   UNL     1      -5.835  10.901  70.514  1.00  0.00    -0.130 C  
HETATM    2  C   UNL     1      -5.411   9.725  69.639  1.00  0.00    -0.034 C  
ENDROOT
BRANCH   2   3
HETATM    3  N   UNL     1      -6.225   9.533  68.425  1.00  0.00    -0.048 NA 
BRANCH   3   4
HETATM    4  C   UNL     1      -7.658   9.337  68.681  1.00  0.00    -0.081 C  
HETATM    5  C   UNL     1      -8.085   7.919  69.043  1.00  0.00    -0.124 C  
ENDBRANCH   3   4
BRANCH   3   6
HETATM    6  C   UNL     1      -5.921  10.608  67.451  1.00  0.00    -0.052 C  
BRANCH   6   7
HETATM    7  C   UNL     1      -7.102  11.000  66.546  1.00  0.00    -0.136 C  
BRANCH   7   8
HETATM    8  O   UNL     1      -7.832  12.155  67.009  1.00  0.00    -0.163 OA 
BRANCH   8   9
HETATM    9  C   UNL     1      -7.078  13.264  67.227  1.00  0.00    -0.001 C  
HETATM   10  O   UNL     1      -5.865  13.300  67.083  1.00  0.00    -0.317 OA 
BRANCH   9  11
HETATM   11  C   UNL     1      -7.930  14.494  67.640  1.00  0.00    -0.190 C  
HETATM   12  C   UNL     1      -7.213  15.808  67.232  1.00  0.00    -0.254 C  
HETATM   13  C   UNL     1      -8.009  14.434  69.202  1.00  0.00    -0.002 C  
HETATM   14  C   UNL     1      -6.679  14.713  69.908  1.00  0.00    -0.157 C  
HETATM   15  C   UNL     1      -5.900  16.076  67.966  1.00  0.00    -0.135 C  
HETATM   16  C   UNL     1      -6.103  16.051  69.472  1.00  0.00    -0.161 C  
BRANCH  11  17
HETATM   17  C   UNL     1      -9.363  14.310  66.974  1.00  0.00    -0.249 C  
HETATM   18  C   UNL     1     -10.482  13.761  67.887  1.00  0.00    -0.247 C  
HETATM   19  C   UNL     1     -11.533  16.024  68.196  1.00  0.00    -0.250 C  
HETATM   20  C   UNL     1     -10.610  16.598  67.122  1.00  0.00    -0.264 C  
HETATM   21  C   UNL     1     -10.980  14.789  68.895  1.00  0.00    -0.262 C  
HETATM   22  C   UNL     1      -9.931  15.546  66.234  1.00  0.00    -0.313 C  
ENDBRANCH  11  17
ENDBRANCH   9  11
ENDBRANCH   8   9
ENDBRANCH   7   8
ENDBRANCH   6   7
ENDBRANCH   3   6
ENDBRANCH   2   3
TORSDOF 8
ENDMDL
MODEL      300
REMARK 921   NORMALIZED FREE ENERGY PREDICTED BY IDOCK:   -1.58 KCAL/MOL
REMARK 922        TOTAL FREE ENERGY PREDICTED BY IDOCK:   -2.90 KCAL/MOL
REMARK 923 INTER-LIGAND FREE ENERGY PREDICTED BY IDOCK:   -3.40 KCAL/MOL
REMARK 924 INTRA-LIGAND FREE ENERGY PREDICTED BY IDOCK:    0.50 KCAL/MOL
REMARK 927      BINDING AFFINITY PREDICTED BY RF-SCORE:    0.00 PKD
ROOT
HETATM    1  C   UNL     1     -10.554  12.420  64.007  1.00  0.00    -0.444 C  
HETATM    2  C   UNL     1     -11.505  12.025  65.133  1.00  0.00    -0.287 C  
ENDROOT
BRANCH   2   3
HETATM    3  N   UNL     1     -11.400  12.852  66.350  1.00  0.00    -0.304 NA 
BRANCH   3   4
HETATM    4  C   UNL     1     -12.202  14.082  66.318  1.00  0.00    -0.462 C  
HETATM    5  C   UNL     1     -12.189  14.921  67.589  1.00  0.00     0.101 C  
ENDBRANCH   3   4
BRANCH   3   6
HETATM    6  C   UNL     1     -11.630  12.004  67.544  1.00  0.00    -0.330 C  
BRANCH   6   7
HETATM    7  C   UNL     1     -10.768  10.732  67.597  1.00  0.00    -0.258 C  
BRANCH   7   8
HETATM    8  O   UNL     1      -9.387  10.977  67.937  1.00  0.00    -0.152 OA 
BRANCH   8   9
HETATM    9  C   UNL     1      -8.535  11.029  66.880  1.00  0.00    -0.139 C  
HETATM   10  O   UNL     1      -8.427  11.996  66.140  1.00  0.00    -0.006 OA 
BRANCH   9  11
HETATM   11  C   UNL     1      -7.679   9.741  66.738  1.00  0.00    -0.098 C  
HETATM   12  C   UNL     1      -6.472   9.996  65.798  1.00  0.00    -0.099 C  
HETATM   13  C   UNL     1      -8.624   8.693  66.061  1.00  0.00    -0.173 C  
HETATM   14  C   UNL     1      -8.972   9.011  64.604  1.00  0.00    -0.112 C  
HETATM   15  C   UNL     1      -6.842  10.288  64.344  1.00  0.00    -0.059 C  
HETATM   16  C   UNL     1      -7.711   9.181  63.771  1.00  0.00    -0.119 C  
BRANCH  11  17
HETATM   17  C   UNL     1      -7.268   9.294  68.208  1.00  0.00    -0.077 C  
HETATM   18  C   UNL     1      -8.270   8.390  68.959  1.00  0.00    -0.118 C  
HETATM   19  C   UNL     1      -6.918   6.311  68.549  1.00  0.00    -0.080 C  
HETATM   20  C   UNL     1      -5.774   7.164  68.002  1.00  0.00    -0.022 C  
HETATM   21  C   UNL     1      -8.290   6.962  68.431  1.00  0.00    -0.120 C  
HETATM   22  C   UNL     1      -5.864   8.655  68.354  1.00  0.00    -0.042 C  
ENDBRANCH  11  17
ENDBRANCH   9  11
ENDBRANCH   8   9
ENDBRANCH   7   8
ENDBRANCH   6   7
ENDBRANCH   3   6
ENDBRANCH   2   3
TORSDOF 8
ENDMDL
MODEL      301
REMARK 921   NORMALIZED FREE ENERGY PREDICTED BY IDOCK:   -1.54 KCAL/MOL
REMARK 922        TOTAL FREE ENERGY PREDICTED BY IDOCK:   -2.85 KCAL/MOL
REMARK 923 INTER-LIGAND FREE ENERGY PREDICTED BY IDOCK:   -2.21 KCAL/MOL
REMARK 924 INTRA-LIGAND FREE ENERGY PREDICTED BY IDOCK:   -0.63 KCAL/MOL
REMARK 927      BINDING AFFINITY PREDICTED BY RF-SCORE:    0.00 PKD
ROOT
HETATM    1  C   UNL     1      -6.545  10.419  68.669  1.00  0.00    -0.052 C  
HETATM    2  C   UNL     1      -7.730   9.735  67.992  1.00  0.00    -0.083 C  
ENDROOT
BRANCH   2   3
HETATM    3  N   UNL     1      -7.425   8.424  67.389  1.00  0.00    -0.092 NA 
BRANCH   3   4
HETATM    4  C   UNL     1      -6.537   8.486  66.222  1.00  0.00    -0.061 C  
HETATM    5  C   UNL     1      -7.115   7.961  64.913  1.00  0.00    -0.067 C  
ENDBRANCH   3   4
BRANCH   3   6
HETATM    6  C   UNL     1      -6.979   7.486  68.447  1.00  0.00    -0.079 C  
BRANCH   6   7
HETATM    7  C   UNL     1      -7.703   6.129  68.441  1.00  0.00    -0.103 C  
BRANCH   7   8
HETATM    8  O   UNL     1      -7.953   5.608  67.119  1.00  0.00    -0.101 OA 
BRANCH   8   9
HETATM    9  C   UNL     1      -7.106   4.624  66.719  1.00  0.00    -0.075 C  
HETATM   10  O   UNL     1      -5.891   4.683  66.838  1.00  0.00    -0.024 OA 
BRANCH   9  11
HETATM   11  C   UNL     1      -7.852   3.397  66.129  1.00  0.00    -0.085 C  
HETATM   12  C   UNL     1      -9.218   3.204  66.838  1.00  0.00    -0.187 C  
HETATM   13  C   UNL     1      -6.942   2.166  66.458  1.00  0.00    -0.044 C  
HETATM   14  C   UNL     1      -6.874   1.816  67.947  1.00  0.00    -0.035 C  
HETATM   15  C   UNL     1      -9.125   2.832  68.318  1.00  0.00    -0.227 C  
HETATM   16  C   UNL     1      -8.267   1.594  68.516  1.00  0.00    -0.071 C  
BRANCH  11  17
HETATM   17  C   UNL     1      -7.969   3.635  64.561  1.00  0.00    -0.086 C  
HETATM   18  C   UNL     1      -7.988   2.372  63.671  1.00  0.00    -0.073 C  
HETATM   19  C   UNL     1     -10.473   2.492  63.312  1.00  0.00    -0.190 C  
HETATM   20  C   UNL     1     -10.502   3.867  63.978  1.00  0.00    -0.237 C  
HETATM   21  C   UNL     1      -9.307   1.615  63.748  1.00  0.00    -0.110 C  
HETATM   22  C   UNL     1      -9.132   4.548  64.099  1.00  0.00    -0.132 C  
ENDBRANCH  11  17
ENDBRANCH   9  11
ENDBRANCH   8   9
ENDBRANCH   7   8
ENDBRANCH   6   7
ENDBRANCH   3   6
ENDBRANCH   2   3
TORSDOF 8
ENDMDL
MODEL      302
REMARK 921   NORMALIZED FREE ENERGY PREDICTED BY IDOCK:   -1.53 KCAL/MOL
REMARK 922        TOTAL FREE ENERGY PREDICTED BY IDOCK:   -2.82 KCAL/MOL
REMARK 923 INTER-LIGAND FREE ENERGY PREDICTED BY IDOCK:   -3.97 KCAL/MOL
REMARK 924 INTRA-LIGAND FREE ENERGY PREDICTED BY IDOCK:    1.15 KCAL/MOL
REMARK 927      BINDING AFFINITY PREDICTED BY RF-SCORE:    0.00 PKD
ROOT
HETATM    1  C   UNL     1     -10.655  13.043  64.341  1.00  0.00    -0.429 C  
HETATM    2  C   UNL     1     -11.473  12.208  65.324  1.00  0.00    -0.336 C  
ENDROOT
BRANCH   2   3
HETATM    3  N   UNL     1     -11.216  12.500  66.746  1.00  0.00    -0.280 NA 
BRANCH   3   4
HETATM    4  C   UNL     1     -11.852  13.729  67.237  1.00  0.00    -0.401 C  
HETATM    5  C   UNL     1     -11.690  14.018  68.724  1.00  0.00    -0.388 C  
ENDBRANCH   3   4
BRANCH   3   6
HETATM    6  C   UNL     1     -11.509  11.296  67.558  1.00  0.00    -0.246 C  
BRANCH   6   7
HETATM    7  C   UNL     1     -10.409  10.222  67.523  1.00  0.00    -0.229 C  
BRANCH   7   8
HETATM    8  O   UNL     1      -9.789   9.981  68.803  1.00  0.00    -0.156 OA 
BRANCH   8   9
HETATM    9  C   UNL     1      -8.436   9.857  68.774  1.00  0.00    -0.122 C  
HETATM   10  O   UNL     1      -7.678  10.514  69.472  1.00  0.00    -0.146 OA 
BRANCH   9  11
HETATM   11  C   UNL     1      -7.957   8.760  67.784  1.00  0.00    -0.106 C  
HETATM   12  C   UNL     1      -6.412   8.629  67.832  1.00  0.00    -0.057 C  
HETATM   13  C   UNL     1      -8.369   9.278  66.366  1.00  0.00    -0.120 C  
HETATM   14  C   UNL     1      -7.583  10.503  65.892  1.00  0.00    -0.148 C  
HETATM   15  C   UNL     1      -5.649   9.855  67.333  1.00  0.00    -0.042 C  
HETATM   16  C   UNL     1      -6.087  10.234  65.928  1.00  0.00    -0.103 C  
BRANCH  11  17
HETATM   17  C   UNL     1      -8.729   7.423  68.166  1.00  0.00    -0.122 C  
HETATM   18  C   UNL     1      -9.301   6.598  66.992  1.00  0.00    -0.160 C  
HETATM   19  C   UNL     1      -7.450   4.900  67.099  1.00  0.00    -0.086 C  
HETATM   20  C   UNL     1      -6.957   5.522  68.405  1.00  0.00    -0.064 C  
HETATM   21  C   UNL     1      -8.224   5.862  66.207  1.00  0.00    -0.114 C  
HETATM   22  C   UNL     1      -7.970   6.445  69.097  1.00  0.00    -0.111 C  
ENDBRANCH  11  17
ENDBRANCH   9  11
ENDBRANCH   8   9
ENDBRANCH   7   8
ENDBRANCH   6   7
ENDBRANCH   3   6
ENDBRANCH   2   3
TORSDOF 8
ENDMDL
MODEL      303
REMARK 921   NORMALIZED FREE ENERGY PREDICTED BY IDOCK:   -1.43 KCAL/MOL
REMARK 922        TOTAL FREE ENERGY PREDICTED BY IDOCK:   -2.68 KCAL/MOL
REMARK 923 INTER-LIGAND FREE ENERGY PREDICTED BY IDOCK:   -3.58 KCAL/MOL
REMARK 924 INTRA-LIGAND FREE ENERGY PREDICTED BY IDOCK:    0.90 KCAL/MOL
REMARK 927      BINDING AFFINITY PREDICTED BY RF-SCORE:    0.00 PKD
ROOT
HETATM    1  C   UNL     1     -12.719   8.355  72.368  1.00  0.00    -0.346 C  
HETATM    2  C   UNL     1     -12.077   8.956  71.120  1.00  0.00    -0.277 C  
ENDROOT
BRANCH   2   3
HETATM    3  N   UNL     1     -10.976   8.160  70.547  1.00  0.00    -0.242 NA 
BRANCH   3   4
HETATM    4  C   UNL     1     -11.386   6.854  70.015  1.00  0.00    -0.294 C  
HETATM    5  C   UNL     1     -10.542   5.661  70.446  1.00  0.00    -0.364 C  
ENDBRANCH   3   4
BRANCH   3   6
HETATM    6  C   UNL     1     -10.208   8.994  69.593  1.00  0.00    -0.206 C  
BRANCH   6   7
HETATM    7  C   UNL     1      -8.682   8.829  69.689  1.00  0.00    -0.136 C  
BRANCH   7   8
HETATM    8  O   UNL     1      -8.024   8.745  68.408  1.00  0.00    -0.106 OA 
BRANCH   8   9
HETATM    9  C   UNL     1      -8.855   8.660  67.337  1.00  0.00    -0.134 C  
HETATM   10  O   UNL     1      -9.982   9.133  67.312  1.00  0.00    -0.181 OA 
BRANCH   9  11
HETATM   11  C   UNL     1      -8.203   7.930  66.132  1.00  0.00    -0.117 C  
HETATM   12  C   UNL     1      -6.670   7.816  66.335  1.00  0.00    -0.054 C  
HETATM   13  C   UNL     1      -8.474   8.853  64.897  1.00  0.00    -0.195 C  
HETATM   14  C   UNL     1      -7.706  10.178  64.924  1.00  0.00    -0.143 C  
HETATM   15  C   UNL     1      -5.922   9.149  66.335  1.00  0.00    -0.059 C  
HETATM   16  C   UNL     1      -6.212   9.936  65.068  1.00  0.00    -0.102 C  
BRANCH  11  17
HETATM   17  C   UNL     1      -8.939   6.528  65.986  1.00  0.00    -0.139 C  
HETATM   18  C   UNL     1      -8.370   5.557  64.927  1.00  0.00    -0.142 C  
HETATM   19  C   UNL     1      -7.209   4.139  66.646  1.00  0.00    -0.072 C  
HETATM   20  C   UNL     1      -7.921   4.906  67.759  1.00  0.00    -0.094 C  
HETATM   21  C   UNL     1      -7.052   4.926  65.352  1.00  0.00    -0.063 C  
HETATM   22  C   UNL     1      -9.134   5.725  67.296  1.00  0.00    -0.110 C  
ENDBRANCH  11  17
ENDBRANCH   9  11
ENDBRANCH   8   9
ENDBRANCH   7   8
ENDBRANCH   6   7
ENDBRANCH   3   6
ENDBRANCH   2   3
TORSDOF 8
ENDMDL
MODEL      304
REMARK 921   NORMALIZED FREE ENERGY PREDICTED BY IDOCK:   -1.41 KCAL/MOL
REMARK 922        TOTAL FREE ENERGY PREDICTED BY IDOCK:   -2.65 KCAL/MOL
REMARK 923 INTER-LIGAND FREE ENERGY PREDICTED BY IDOCK:   -2.43 KCAL/MOL
REMARK 924 INTRA-LIGAND FREE ENERGY PREDICTED BY IDOCK:   -0.22 KCAL/MOL
REMARK 927      BINDING AFFINITY PREDICTED BY RF-SCORE:    0.00 PKD
ROOT
HETATM    1  C   UNL     1     -10.229   4.965  66.051  1.00  0.00    -0.287 C  
HETATM    2  C   UNL     1      -9.866   3.600  66.630  1.00  0.00     0.045 C  
ENDROOT
BRANCH   2   3
HETATM    3  N   UNL     1      -8.464   3.468  67.069  1.00  0.00    -0.102 NA 
BRANCH   3   4
HETATM    4  C   UNL     1      -7.685   4.710  66.990  1.00  0.00    -0.091 C  
HETATM    5  C   UNL     1      -6.450   4.782  67.879  1.00  0.00    -0.045 C  
ENDBRANCH   3   4
BRANCH   3   6
HETATM    6  C   UNL     1      -8.423   2.805  68.394  1.00  0.00    -0.073 C  
BRANCH   6   7
HETATM    7  C   UNL     1      -9.398   3.389  69.429  1.00  0.00    -0.166 C  
BRANCH   7   8
HETATM    8  O   UNL     1      -8.749   3.983  70.572  1.00  0.00    -0.072 OA 
BRANCH   8   9
HETATM    9  C   UNL     1      -9.096   5.271  70.827  1.00  0.00    -0.137 C  
HETATM   10  O   UNL     1     -10.070   5.823  70.335  1.00  0.00    -0.186 OA 
BRANCH   9  11
HETATM   11  C   UNL     1      -8.147   5.956  71.847  1.00  0.00    -0.112 C  
HETATM   12  C   UNL     1      -7.894   5.023  73.060  1.00  0.00    -0.097 C  
HETATM   13  C   UNL     1      -8.922   7.221  72.346  1.00  0.00    -0.149 C  
HETATM   14  C   UNL     1     -10.147   6.906  73.209  1.00  0.00    -0.260 C  
HETATM   15  C   UNL     1      -9.125   4.741  73.920  1.00  0.00    -0.112 C  
HETATM   16  C   UNL     1      -9.765   6.035  74.395  1.00  0.00    -0.242 C  
BRANCH  11  17
HETATM   17  C   UNL     1      -6.827   6.354  71.055  1.00  0.00    -0.066 C  
HETATM   18  C   UNL     1      -7.019   7.194  69.772  1.00  0.00    -0.054 C  
HETATM   19  C   UNL     1      -6.319   9.330  70.897  1.00  0.00    -0.076 C  
HETATM   20  C   UNL     1      -5.882   8.538  72.128  1.00  0.00    -0.059 C  
HETATM   21  C   UNL     1      -7.392   8.642  70.063  1.00  0.00    -0.052 C  
HETATM   22  C   UNL     1      -5.712   7.031  71.891  1.00  0.00    -0.037 C  
ENDBRANCH  11  17
ENDBRANCH   9  11
ENDBRANCH   8   9
ENDBRANCH   7   8
ENDBRANCH   6   7
ENDBRANCH   3   6
ENDBRANCH   2   3
TORSDOF 8
ENDMDL
MODEL      305
REMARK 921   NORMALIZED FREE ENERGY PREDICTED BY IDOCK:   -1.12 KCAL/MOL
REMARK 922        TOTAL FREE ENERGY PREDICTED BY IDOCK:   -2.22 KCAL/MOL
REMARK 923 INTER-LIGAND FREE ENERGY PREDICTED BY IDOCK:   -2.20 KCAL/MOL
REMARK 924 INTRA-LIGAND FREE ENERGY PREDICTED BY IDOCK:   -0.02 KCAL/MOL
REMARK 927      BINDING AFFINITY PREDICTED BY RF-SCORE:    0.00 PKD
ROOT
HETATM    1  C   UNL     1      -8.812   1.467  66.911  1.00  0.00    -0.127 C  
HETATM    2  C   UNL     1      -9.127   2.928  67.224  1.00  0.00    -0.174 C  
ENDROOT
BRANCH   2   3
HETATM    3  N   UNL     1      -8.636   3.894  66.224  1.00  0.00    -0.110 NA 
BRANCH   3   4
HETATM    4  C   UNL     1      -9.694   4.561  65.455  1.00  0.00    -0.187 C  
HETATM    5  C   UNL     1     -10.743   5.308  66.269  1.00  0.00    -0.260 C  
ENDBRANCH   3   4
BRANCH   3   6
HETATM    6  C   UNL     1      -7.671   4.820  66.865  1.00  0.00    -0.091 C  
BRANCH   6   7
HETATM    7  C   UNL     1      -8.023   5.204  68.311  1.00  0.00    -0.087 C  
BRANCH   7   8
HETATM    8  O   UNL     1      -8.359   6.597  68.478  1.00  0.00    -0.121 OA 
BRANCH   8   9
HETATM    9  C   UNL     1      -7.414   7.473  68.049  1.00  0.00    -0.105 C  
HETATM   10  O   UNL     1      -6.215   7.324  68.234  1.00  0.00    -0.033 OA 
BRANCH   9  11
HETATM   11  C   UNL     1      -8.018   8.667  67.261  1.00  0.00    -0.101 C  
HETATM   12  C   UNL     1      -8.662   8.169  65.940  1.00  0.00    -0.184 C  
HETATM   13  C   UNL     1      -6.800   9.583  66.905  1.00  0.00    -0.080 C  
HETATM   14  C   UNL     1      -5.836   8.977  65.882  1.00  0.00    -0.051 C  
HETATM   15  C   UNL     1      -7.678   7.590  64.924  1.00  0.00    -0.115 C  
HETATM   16  C   UNL     1      -6.571   8.583  64.611  1.00  0.00    -0.066 C  
BRANCH  11  17
HETATM   17  C   UNL     1      -9.037   9.399  68.238  1.00  0.00    -0.128 C  
HETATM   18  C   UNL     1      -8.527   9.701  69.664  1.00  0.00    -0.181 C  
HETATM   19  C   UNL     1      -8.130  12.132  69.160  1.00  0.00     0.381 C  
HETATM   20  C   UNL     1      -8.837  11.967  67.815  1.00  0.00    -0.166 C  
HETATM   21  C   UNL     1      -7.522  10.845  69.704  1.00  0.00    -0.030 C  
HETATM   22  C   UNL     1      -9.687  10.695  67.692  1.00  0.00    -0.186 C  
ENDBRANCH  11  17
ENDBRANCH   9  11
ENDBRANCH   8   9
ENDBRANCH   7   8
ENDBRANCH   6   7
ENDBRANCH   3   6
ENDBRANCH   2   3
TORSDOF 8
ENDMDL
MODEL      306
REMARK 921   NORMALIZED FREE ENERGY PREDICTED BY IDOCK:   -1.10 KCAL/MOL
REMARK 922        TOTAL FREE ENERGY PREDICTED BY IDOCK:   -2.20 KCAL/MOL
REMARK 923 INTER-LIGAND FREE ENERGY PREDICTED BY IDOCK:   -3.05 KCAL/MOL
REMARK 924 INTRA-LIGAND FREE ENERGY PREDICTED BY IDOCK:    0.85 KCAL/MOL
REMARK 927      BINDING AFFINITY PREDICTED BY RF-SCORE:    0.00 PKD
ROOT
HETATM    1  C   UNL     1     -10.957  10.532  67.748  1.00  0.00    -0.372 C  
HETATM    2  C   UNL     1      -9.899  10.846  66.694  1.00  0.00    -0.198 C  
ENDROOT
BRANCH   2   3
HETATM    3  N   UNL     1      -8.508  10.806  67.184  1.00  0.00    -0.125 NA 
BRANCH   3   4
HETATM    4  C   UNL     1      -8.201  11.805  68.216  1.00  0.00    -0.157 C  
HETATM    5  C   UNL     1      -6.722  12.080  68.460  1.00  0.00    -0.066 C  
ENDBRANCH   3   4
BRANCH   3   6
HETATM    6  C   UNL     1      -8.156   9.415  67.557  1.00  0.00    -0.110 C  
BRANCH   6   7
HETATM    7  C   UNL     1      -8.825   8.335  66.691  1.00  0.00    -0.144 C  
BRANCH   7   8
HETATM    8  O   UNL     1      -9.272   7.184  67.437  1.00  0.00    -0.125 OA 
BRANCH   8   9
HETATM    9  C   UNL     1      -8.424   6.764  68.411  1.00  0.00    -0.122 C  
HETATM   10  O   UNL     1      -7.256   7.115  68.493  1.00  0.00    -0.088 OA 
BRANCH   9  11
HETATM   11  C   UNL     1      -9.110   5.820  69.435  1.00  0.00    -0.138 C  
HETATM   12  C   UNL     1      -8.131   4.702  69.878  1.00  0.00    -0.068 C  
HETATM   13  C   UNL     1     -10.297   5.162  68.656  1.00  0.00    -0.148 C  
HETATM   14  C   UNL     1      -9.863   4.185  67.559  1.00  0.00    -0.139 C  
HETATM   15  C   UNL     1      -7.730   3.725  68.773  1.00  0.00    -0.053 C  
HETATM   16  C   UNL     1      -8.956   3.104  68.125  1.00  0.00    -0.187 C  
BRANCH  11  17
HETATM   17  C   UNL     1      -9.629   6.732  70.630  1.00  0.00    -0.174 C  
HETATM   18  C   UNL     1     -10.027   6.002  71.932  1.00  0.00    -0.195 C  
HETATM   19  C   UNL     1      -7.899   6.640  73.108  1.00  0.00    -0.098 C  
HETATM   20  C   UNL     1      -7.542   7.574  71.952  1.00  0.00    -0.085 C  
HETATM   21  C   UNL     1      -8.825   5.495  72.718  1.00  0.00    -0.122 C  
HETATM   22  C   UNL     1      -8.714   7.919  71.024  1.00  0.00    -0.138 C  
ENDBRANCH  11  17
ENDBRANCH   9  11
ENDBRANCH   8   9
ENDBRANCH   7   8
ENDBRANCH   6   7
ENDBRANCH   3   6
ENDBRANCH   2   3
TORSDOF 8
ENDMDL
MODEL      307
REMARK 921   NORMALIZED FREE ENERGY PREDICTED BY IDOCK:   -0.75 KCAL/MOL
REMARK 922        TOTAL FREE ENERGY PREDICTED BY IDOCK:   -1.68 KCAL/MOL
REMARK 923 INTER-LIGAND FREE ENERGY PREDICTED BY IDOCK:   -4.27 KCAL/MOL
REMARK 924 INTRA-LIGAND FREE ENERGY PREDICTED BY IDOCK:    2.59 KCAL/MOL
REMARK 927      BINDING AFFINITY PREDICTED BY RF-SCORE:    0.00 PKD
ROOT
HETATM    1  C   UNL     1     -10.897   5.442  66.352  1.00  0.00    -0.202 C  
HETATM    2  C   UNL     1      -9.969   4.480  65.614  1.00  0.00    -0.231 C  
ENDROOT
BRANCH   2   3
HETATM    3  N   UNL     1      -8.621   4.351  66.198  1.00  0.00    -0.113 NA 
BRANCH   3   4
HETATM    4  C   UNL     1      -7.835   5.592  66.187  1.00  0.00    -0.100 C  
HETATM    5  C   UNL     1      -8.634   6.889  66.183  1.00  0.00    -0.147 C  
ENDBRANCH   3   4
BRANCH   3   6
HETATM    6  C   UNL     1      -8.719   3.702  67.527  1.00  0.00    -0.108 C  
BRANCH   6   7
HETATM    7  C   UNL     1      -9.834   4.260  68.427  1.00  0.00    -0.034 C  
BRANCH   7   8
HETATM    8  O   UNL     1      -9.357   4.805  69.675  1.00  0.00    -0.109 OA 
BRANCH   8   9
HETATM    9  C   UNL     1     -10.235   5.614  70.323  1.00  0.00    -0.243 C  
HETATM   10  O   UNL     1     -11.403   5.755  69.991  1.00  0.00    -0.285 OA 
BRANCH   9  11
HETATM   11  C   UNL     1      -9.605   6.311  71.559  1.00  0.00    -0.168 C  
HETATM   12  C   UNL     1      -8.460   5.442  72.143  1.00  0.00    -0.126 C  
HETATM   13  C   UNL     1     -10.756   6.393  72.616  1.00  0.00    -0.262 C  
HETATM   14  C   UNL     1     -11.177   5.037  73.191  1.00  0.00    -0.408 C  
HETATM   15  C   UNL     1      -8.907   4.105  72.733  1.00  0.00    -0.111 C  
HETATM   16  C   UNL     1      -9.984   4.306  73.786  1.00  0.00    -0.174 C  
BRANCH  11  17
HETATM   17  C   UNL     1      -9.139   7.757  71.088  1.00  0.00    -0.152 C  
HETATM   18  C   UNL     1      -9.330   8.089  69.591  1.00  0.00    -0.156 C  
HETATM   19  C   UNL     1     -11.369   9.495  70.017  1.00  0.00    -0.204 C  
HETATM   20  C   UNL     1     -11.113   9.409  71.521  1.00  0.00    -0.446 C  
HETATM   21  C   UNL     1     -10.786   8.335  69.220  1.00  0.00    -0.140 C  
HETATM   22  C   UNL     1      -9.699   8.949  71.904  1.00  0.00    -0.349 C  
ENDBRANCH  11  17
ENDBRANCH   9  11
ENDBRANCH   8   9
ENDBRANCH   7   8
ENDBRANCH   6   7
ENDBRANCH   3   6
ENDBRANCH   2   3
TORSDOF 8
ENDMDL
MODEL      308
REMARK 921   NORMALIZED FREE ENERGY PREDICTED BY IDOCK:    3.83 KCAL/MOL
REMARK 922        TOTAL FREE ENERGY PREDICTED BY IDOCK:    5.04 KCAL/MOL
REMARK 923 INTER-LIGAND FREE ENERGY PREDICTED BY IDOCK:    0.99 KCAL/MOL
REMARK 924 INTRA-LIGAND FREE ENERGY PREDICTED BY IDOCK:    4.05 KCAL/MOL
REMARK 927      BINDING AFFINITY PREDICTED BY RF-SCORE:    0.00 PKD
ROOT
HETATM    1  C   UNL     1     -10.827  14.997  65.834  1.00  0.00    -0.339 C  
HETATM    2  C   UNL     1     -10.816  16.344  66.552  1.00  0.00    -0.073 C  
ENDROOT
BRANCH   2   3
HETATM    3  N   UNL     1     -10.155  16.335  67.871  1.00  0.00    -0.242 NA 
BRANCH   3   4
HETATM    4  C   UNL     1     -10.916  15.652  68.925  1.00  0.00    -0.266 C  
HETATM    5  C   UNL     1     -10.521  15.986  70.358  1.00  0.00    -0.019 C  
ENDBRANCH   3   4
BRANCH   3   6
HETATM    6  C   UNL     1      -8.759  15.860  67.721  1.00  0.00    -0.170 C  
BRANCH   6   7
HETATM    7  C   UNL     1      -8.590  14.678  66.752  1.00  0.00    -0.162 C  
BRANCH   7   8
HETATM    8  O   UNL     1      -7.342  13.971  66.908  1.00  0.00     0.140 OA 
BRANCH   8   9
HETATM    9  C   UNL     1      -7.462  12.658  67.234  1.00  0.00    -0.109 C  
HETATM   10  O   UNL     1      -8.012  11.828  66.524  1.00  0.00    -0.119 OA 
BRANCH   9  11
HETATM   11  C   UNL     1      -6.786  12.314  68.589  1.00  0.00    -0.087 C  
HETATM   12  C   UNL     1      -7.452  13.112  69.741  1.00  0.00     0.936 C  
HETATM   13  C   UNL     1      -5.304  12.795  68.443  1.00  0.00    -0.061 C  
HETATM   14  C   UNL     1      -5.141  14.317  68.379  1.00  0.00    -0.105 C  
HETATM   15  C   UNL     1      -7.257  14.626  69.669  1.00  0.00    -0.098 C  
HETATM   16  C   UNL     1      -5.782  14.981  69.587  1.00  0.00    -0.105 C  
BRANCH  11  17
HETATM   17  C   UNL     1      -6.874  10.736  68.763  1.00  0.00    -0.067 C  
HETATM   18  C   UNL     1      -6.348  10.159  70.096  1.00  0.00    -0.107 C  
HETATM   19  C   UNL     1      -8.658   9.833  71.031  1.00  0.00     0.623 C  
HETATM   20  C   UNL     1      -9.256  10.167  69.665  1.00  0.00    -0.206 C  
HETATM   21  C   UNL     1      -7.279  10.434  71.269  1.00  0.00     1.737 C  
HETATM   22  C   UNL     1      -8.262  10.101  68.498  1.00  0.00    -0.111 C  
ENDBRANCH  11  17
ENDBRANCH   9  11
ENDBRANCH   8   9
ENDBRANCH   7   8
ENDBRANCH   6   7
ENDBRANCH   3   6
ENDBRANCH   2   3
TORSDOF 8
ENDMDL
MODEL      309
REMARK 921   NORMALIZED FREE ENERGY PREDICTED BY IDOCK:    9.28 KCAL/MOL
REMARK 922        TOTAL FREE ENERGY PREDICTED BY IDOCK:   13.04 KCAL/MOL
REMARK 923 INTER-LIGAND FREE ENERGY PREDICTED BY IDOCK:    3.54 KCAL/MOL
REMARK 924 INTRA-LIGAND FREE ENERGY PREDICTED BY IDOCK:    9.50 KCAL/MOL
REMARK 927      BINDING AFFINITY PREDICTED BY RF-SCORE:    0.00 PKD
ROOT
HETATM    1  C   UNL     1      -7.453  18.307  70.134  1.00  0.00     1.538 C  
HETATM    2  C   UNL     1      -6.975  18.735  68.750  1.00  0.00    -0.304 C  
ENDROOT
BRANCH   2   3
HETATM    3  N   UNL     1      -7.529  17.947  67.633  1.00  0.00    -0.201 NA 
BRANCH   3   4
HETATM    4  C   UNL     1      -8.413  18.703  66.737  1.00  0.00    -0.286 C  
HETATM    5  C   UNL     1      -8.031  20.158  66.493  1.00  0.00    -0.317 C  
ENDBRANCH   3   4
BRANCH   3   6
HETATM    6  C   UNL     1      -6.432  17.228  66.944  1.00  0.00    -0.192 C  
BRANCH   6   7
HETATM    7  C   UNL     1      -6.868  15.943  66.221  1.00  0.00     1.464 C  
BRANCH   7   8
HETATM    8  O   UNL     1      -8.282  15.672  66.318  1.00  0.00    -0.199 OA 
BRANCH   8   9
HETATM    9  C   UNL     1      -8.803  15.772  67.568  1.00  0.00    -0.186 C  
HETATM   10  O   UNL     1      -8.605  16.720  68.313  1.00  0.00    -0.210 OA 
BRANCH   9  11
HETATM   11  C   UNL     1      -9.714  14.569  67.934  1.00  0.00    -0.218 C  
HETATM   12  C   UNL     1     -10.901  15.039  68.815  1.00  0.00    -0.249 C  
HETATM   13  C   UNL     1      -8.811  13.614  68.785  1.00  0.00     0.076 C  
HETATM   14  C   UNL     1      -8.438  14.167  70.164  1.00  0.00     1.772 C  
HETATM   15  C   UNL     1     -10.507  15.565  70.195  1.00  0.00    -0.317 C  
HETATM   16  C   UNL     1      -9.683  14.538  70.954  1.00  0.00     2.426 C  
BRANCH  11  17
HETATM   17  C   UNL     1     -10.157  13.889  66.567  1.00  0.00    -0.286 C  
HETATM   18  C   UNL     1     -11.592  13.320  66.513  1.00  0.00    -0.392 C  
HETATM   19  C   UNL     1     -12.466  15.266  65.184  1.00  0.00     0.392 C  
HETATM   20  C   UNL     1     -11.038  15.774  64.991  1.00  0.00    -0.380 C  
HETATM   21  C   UNL     1     -12.656  14.405  66.426  1.00  0.00    -0.058 C  
HETATM   22  C   UNL     1      -9.945  14.738  65.288  1.00  0.00    -0.331 C  
ENDBRANCH  11  17
ENDBRANCH   9  11
ENDBRANCH   8   9
ENDBRANCH   7   8
ENDBRANCH   6   7
ENDBRANCH   3   6
ENDBRANCH   2   3
TORSDOF 8
ENDMDL
MODEL      310
REMARK 921   NORMALIZED FREE ENERGY PREDICTED BY IDOCK:   10.32 KCAL/MOL
REMARK 922        TOTAL FREE ENERGY PREDICTED BY IDOCK:   14.56 KCAL/MOL
REMARK 923 INTER-LIGAND FREE ENERGY PREDICTED BY IDOCK:    3.83 KCAL/MOL
REMARK 924 INTRA-LIGAND FREE ENERGY PREDICTED BY IDOCK:   10.73 KCAL/MOL
REMARK 927      BINDING AFFINITY PREDICTED BY RF-SCORE:    0.00 PKD
ROOT
HETATM    1  C   UNL     1     -11.976   9.858  70.844  1.00  0.00    -0.434 C  
HETATM    2  C   UNL     1     -11.036  10.820  70.124  1.00  0.00    -0.159 C  
ENDROOT
BRANCH   2   3
HETATM    3  N   UNL     1      -9.631  10.377  70.056  1.00  0.00     0.050 NA 
BRANCH   3   4
HETATM    4  C   UNL     1      -8.648  11.434  70.325  1.00  0.00     3.047 C  
HETATM    5  C   UNL     1      -7.263  11.227  69.725  1.00  0.00     0.124 C  
ENDBRANCH   3   4
BRANCH   3   6
HETATM    6  C   UNL     1      -9.457   9.158  70.881  1.00  0.00    -0.276 C  
BRANCH   6   7
HETATM    7  C   UNL     1      -9.650   7.838  70.116  1.00  0.00    -0.168 C  
BRANCH   7   8
HETATM    8  O   UNL     1     -10.526   7.949  68.975  1.00  0.00    -0.214 OA 
BRANCH   8   9
HETATM    9  C   UNL     1     -10.301   9.026  68.178  1.00  0.00    -0.214 C  
HETATM   10  O   UNL     1     -11.026  10.009  68.143  1.00  0.00    -0.255 OA 
BRANCH   9  11
HETATM   11  C   UNL     1      -8.997   8.891  67.345  1.00  0.00    -0.143 C  
HETATM   12  C   UNL     1      -8.659  10.237  66.652  1.00  0.00    -0.130 C  
HETATM   13  C   UNL     1      -9.323   7.831  66.241  1.00  0.00    -0.210 C  
HETATM   14  C   UNL     1     -10.329   8.309  65.189  1.00  0.00     3.290 C  
HETATM   15  C   UNL     1      -9.664  10.682  65.590  1.00  0.00    -0.283 C  
HETATM   16  C   UNL     1      -9.861   9.602  64.540  1.00  0.00     0.187 C  
BRANCH  11  17
HETATM   17  C   UNL     1      -7.866   8.375  68.336  1.00  0.00    -0.113 C  
HETATM   18  C   UNL     1      -7.286   6.972  68.050  1.00  0.00    -0.095 C  
HETATM   19  C   UNL     1      -5.186   7.895  67.022  1.00  0.00    -0.031 C  
HETATM   20  C   UNL     1      -5.579   9.298  67.482  1.00  0.00    -0.041 C  
HETATM   21  C   UNL     1      -6.365   6.949  66.837  1.00  0.00    -0.045 C  
HETATM   22  C   UNL     1      -6.671   9.336  68.560  1.00  0.00    -0.058 C  
ENDBRANCH  11  17
ENDBRANCH   9  11
ENDBRANCH   8   9
ENDBRANCH   7   8
ENDBRANCH   6   7
ENDBRANCH   3   6
ENDBRANCH   2   3
TORSDOF 8
ENDMDL
MODEL      311
REMARK 921   NORMALIZED FREE ENERGY PREDICTED BY IDOCK:   13.24 KCAL/MOL
REMARK 922        TOTAL FREE ENERGY PREDICTED BY IDOCK:   18.85 KCAL/MOL
REMARK 923 INTER-LIGAND FREE ENERGY PREDICTED BY IDOCK:   15.78 KCAL/MOL
REMARK 924 INTRA-LIGAND FREE ENERGY PREDICTED BY IDOCK:    3.06 KCAL/MOL
REMARK 927      BINDING AFFINITY PREDICTED BY RF-SCORE:    0.00 PKD
ROOT
HETATM    1  C   UNL     1     -12.582   7.646  65.755  1.00  0.00    13.216 C  
HETATM    2  C   UNL     1     -11.928   6.282  65.956  1.00  0.00     3.637 C  
ENDROOT
BRANCH   2   3
HETATM    3  N   UNL     1     -10.553   6.328  66.487  1.00  0.00    -0.160 NA 
BRANCH   3   4
HETATM    4  C   UNL     1      -9.980   7.678  66.569  1.00  0.00    -0.155 C  
HETATM    5  C   UNL     1      -9.558   8.307  65.247  1.00  0.00     0.697 C  
ENDBRANCH   3   4
BRANCH   3   6
HETATM    6  C   UNL     1     -10.485   5.559  67.752  1.00  0.00    -0.180 C  
BRANCH   6   7
HETATM    7  C   UNL     1      -9.737   6.272  68.891  1.00  0.00    -0.129 C  
BRANCH   7   8
HETATM    8  O   UNL     1      -8.742   5.452  69.537  1.00  0.00    -0.101 OA 
BRANCH   8   9
HETATM    9  C   UNL     1      -7.980   6.091  70.463  1.00  0.00    -0.111 C  
HETATM   10  O   UNL     1      -8.346   6.314  71.608  1.00  0.00    -0.126 OA 
BRANCH   9  11
HETATM   11  C   UNL     1      -6.577   6.474  69.920  1.00  0.00    -0.048 C  
HETATM   12  C   UNL     1      -6.345   5.837  68.525  1.00  0.00    -0.041 C  
HETATM   13  C   UNL     1      -5.560   5.844  70.929  1.00  0.00    -0.017 C  
HETATM   14  C   UNL     1      -5.511   4.313  70.897  1.00  0.00    -0.008 C  
HETATM   15  C   UNL     1      -6.277   4.310  68.520  1.00  0.00    -0.032 C  
HETATM   16  C   UNL     1      -5.221   3.810  69.492  1.00  0.00    -0.008 C  
BRANCH  11  17
HETATM   17  C   UNL     1      -6.496   8.062  69.924  1.00  0.00    -0.036 C  
HETATM   18  C   UNL     1      -7.443   8.803  68.953  1.00  0.00    -0.083 C  
HETATM   19  C   UNL     1      -9.050   9.436  70.779  1.00  0.00    -0.268 C  
HETATM   20  C   UNL     1      -8.056   8.934  71.826  1.00  0.00    -0.045 C  
HETATM   21  C   UNL     1      -8.894   8.783  69.412  1.00  0.00    -0.143 C  
HETATM   22  C   UNL     1      -6.624   8.744  71.309  1.00  0.00    -0.075 C  
ENDBRANCH  11  17
ENDBRANCH   9  11
ENDBRANCH   8   9
ENDBRANCH   7   8
ENDBRANCH   6   7
ENDBRANCH   3   6
ENDBRANCH   2   3
TORSDOF 8
ENDMDL
