MODEL        1
REMARK 921   NORMALIZED FREE ENERGY PREDICTED BY IDOCK:   -6.51 KCAL/MOL
REMARK 922        TOTAL FREE ENERGY PREDICTED BY IDOCK:   -7.57 KCAL/MOL
REMARK 923 INTER-LIGAND FREE ENERGY PREDICTED BY IDOCK:   -7.27 KCAL/MOL
REMARK 924 INTRA-LIGAND FREE ENERGY PREDICTED BY IDOCK:   -0.30 KCAL/MOL
REMARK 927      BINDING AFFINITY PREDICTED BY RF-SCORE:    0.00 PKD
ROOT
HETATM    1  O   UNL     1     -12.990  11.012  71.939  1.00  0.00    -0.457 OA 
HETATM    2  C   UNL     1     -12.463  11.658  70.779  1.00  0.00    -0.330 C  
HETATM    3  H   UNL     1     -13.282  11.665  72.563  1.00  0.00     0.000 HD 
ENDROOT
BRANCH   2   4
HETATM    4  C   UNL     1     -11.990  10.602  69.768  1.00  0.00    -0.291 C  
HETATM    5  C   UNL     1     -10.482  10.436  69.743  1.00  0.00    -0.284 C  
HETATM    6  C   UNL     1     -10.040  11.373  68.646  1.00  0.00    -0.217 C  
HETATM    7  C   UNL     1     -11.210  11.352  67.676  1.00  0.00    -0.283 C  
HETATM    8  O   UNL     1     -12.379  10.990  68.437  1.00  0.00    -0.528 OA 
BRANCH   7   9
HETATM    9  N   UNL     1     -11.429  12.620  67.005  1.00  0.00    -0.326 NA 
HETATM   10  C   UNL     1     -11.371  13.855  67.613  1.00  0.00    -0.309 A  
HETATM   11  N   UNL     1     -11.645  14.838  66.776  1.00  0.00    -0.354 NA 
HETATM   12  C   UNL     1     -11.866  14.222  65.561  1.00  0.00    -0.363 A  
HETATM   13  C   UNL     1     -11.729  12.867  65.704  1.00  0.00    -0.387 A  
HETATM   14  N   UNL     1     -11.876  12.014  64.681  1.00  0.00    -0.304 NA 
HETATM   15  C   UNL     1     -12.166  12.582  63.464  1.00  0.00    -0.558 C  
HETATM   16  N   UNL     1     -12.329  13.846  63.210  1.00  0.00    -1.148 N  
HETATM   17  H   UNL     1     -12.550  14.154  62.263  1.00  0.00     0.000 HD 
HETATM   18  C   UNL     1     -12.199  14.784  64.245  1.00  0.00    -0.379 C  
HETATM   19  O   UNL     1     -12.361  15.985  64.066  1.00  0.00    -0.752 OA 
ENDBRANCH   7   9
ENDBRANCH   2   4
TORSDOF 2
ENDMDL
MODEL        2
REMARK 921   NORMALIZED FREE ENERGY PREDICTED BY IDOCK:   -6.45 KCAL/MOL
REMARK 922        TOTAL FREE ENERGY PREDICTED BY IDOCK:   -7.51 KCAL/MOL
REMARK 923 INTER-LIGAND FREE ENERGY PREDICTED BY IDOCK:   -7.18 KCAL/MOL
REMARK 924 INTRA-LIGAND FREE ENERGY PREDICTED BY IDOCK:   -0.32 KCAL/MOL
REMARK 927      BINDING AFFINITY PREDICTED BY RF-SCORE:    0.00 PKD
ROOT
HETATM    1  O   UNL     1     -11.613  16.385  63.714  1.00  0.00    -1.605 OA 
HETATM    2  C   UNL     1     -11.035  16.089  64.985  1.00  0.00    -0.380 C  
HETATM    3  H   UNL     1     -11.913  17.287  63.701  1.00  0.00     0.000 HD 
ENDROOT
BRANCH   2   4
HETATM    4  C   UNL     1     -10.550  14.632  65.007  1.00  0.00    -0.439 C  
HETATM    5  C   UNL     1     -11.602  13.649  64.525  1.00  0.00    -0.415 C  
HETATM    6  C   UNL     1     -12.289  13.214  65.797  1.00  0.00    -0.496 C  
HETATM    7  C   UNL     1     -11.182  13.288  66.835  1.00  0.00    -0.305 C  
HETATM    8  O   UNL     1     -10.219  14.245  66.354  1.00  0.00    -0.277 OA 
BRANCH   7   9
HETATM    9  N   UNL     1     -11.651  13.676  68.153  1.00  0.00    -0.311 NA 
HETATM   10  C   UNL     1     -11.817  14.975  68.581  1.00  0.00    -0.296 A  
HETATM   11  N   UNL     1     -12.222  15.040  69.836  1.00  0.00    -0.318 NA 
HETATM   12  C   UNL     1     -12.350  13.726  70.239  1.00  0.00    -0.337 A  
HETATM   13  C   UNL     1     -12.004  12.896  69.206  1.00  0.00    -0.260 A  
HETATM   14  N   UNL     1     -12.047  11.560  69.309  1.00  0.00    -0.309 NA 
HETATM   15  C   UNL     1     -12.470  11.065  70.519  1.00  0.00    -0.344 C  
HETATM   16  N   UNL     1     -12.813  11.751  71.568  1.00  0.00    -0.389 N  
HETATM   17  H   UNL     1     -13.106  11.272  72.420  1.00  0.00     0.000 HD 
HETATM   18  C   UNL     1     -12.776  13.152  71.523  1.00  0.00    -0.269 C  
HETATM   19  O   UNL     1     -13.070  13.848  72.488  1.00  0.00    -0.433 OA 
ENDBRANCH   7   9
ENDBRANCH   2   4
TORSDOF 2
ENDMDL
MODEL        3
REMARK 921   NORMALIZED FREE ENERGY PREDICTED BY IDOCK:   -6.42 KCAL/MOL
REMARK 922        TOTAL FREE ENERGY PREDICTED BY IDOCK:   -7.46 KCAL/MOL
REMARK 923 INTER-LIGAND FREE ENERGY PREDICTED BY IDOCK:   -7.17 KCAL/MOL
REMARK 924 INTRA-LIGAND FREE ENERGY PREDICTED BY IDOCK:   -0.30 KCAL/MOL
REMARK 927      BINDING AFFINITY PREDICTED BY RF-SCORE:    0.00 PKD
ROOT
HETATM    1  O   UNL     1     -12.934  16.397  74.505  1.00  0.00    -0.920 OA 
HETATM    2  C   UNL     1     -12.440  16.188  73.181  1.00  0.00    -0.519 C  
HETATM    3  H   UNL     1     -12.310  16.915  75.001  1.00  0.00     0.000 HD 
ENDROOT
BRANCH   2   4
HETATM    4  C   UNL     1     -13.448  15.350  72.380  1.00  0.00    -0.490 C  
HETATM    5  C   UNL     1     -13.094  13.875  72.338  1.00  0.00    -0.532 C  
HETATM    6  C   UNL     1     -12.294  13.738  71.065  1.00  0.00    -0.452 C  
HETATM    7  C   UNL     1     -12.899  14.797  70.157  1.00  0.00    -0.148 C  
HETATM    8  O   UNL     1     -13.481  15.800  71.012  1.00  0.00    -0.581 OA 
BRANCH   7   9
HETATM    9  N   UNL     1     -11.935  15.409  69.260  1.00  0.00    -0.329 NA 
HETATM   10  C   UNL     1     -11.106  16.459  69.589  1.00  0.00    -0.306 A  
HETATM   11  N   UNL     1     -10.355  16.840  68.573  1.00  0.00    -0.295 NA 
HETATM   12  C   UNL     1     -10.688  15.986  67.542  1.00  0.00    -0.314 A  
HETATM   13  C   UNL     1     -11.650  15.109  67.967  1.00  0.00    -0.328 A  
HETATM   14  N   UNL     1     -12.156  14.153  67.176  1.00  0.00    -0.430 NA 
HETATM   15  C   UNL     1     -11.643  14.094  65.903  1.00  0.00    -0.348 C  
HETATM   16  N   UNL     1     -10.740  14.873  65.387  1.00  0.00    -0.349 N  
HETATM   17  H   UNL     1     -10.438  14.738  64.422  1.00  0.00     0.000 HD 
HETATM   18  C   UNL     1     -10.183  15.900  66.164  1.00  0.00    -0.324 C  
HETATM   19  O   UNL     1      -9.343  16.675  65.723  1.00  0.00    -0.501 OA 
ENDBRANCH   7   9
ENDBRANCH   2   4
TORSDOF 2
ENDMDL
MODEL        4
REMARK 921   NORMALIZED FREE ENERGY PREDICTED BY IDOCK:   -6.34 KCAL/MOL
REMARK 922        TOTAL FREE ENERGY PREDICTED BY IDOCK:   -7.38 KCAL/MOL
REMARK 923 INTER-LIGAND FREE ENERGY PREDICTED BY IDOCK:   -7.08 KCAL/MOL
REMARK 924 INTRA-LIGAND FREE ENERGY PREDICTED BY IDOCK:   -0.30 KCAL/MOL
REMARK 927      BINDING AFFINITY PREDICTED BY RF-SCORE:    0.00 PKD
ROOT
HETATM    1  O   UNL     1     -11.934  11.451  63.163  1.00  0.00    -0.896 OA 
HETATM    2  C   UNL     1     -12.243  12.326  64.249  1.00  0.00    -0.425 C  
HETATM    3  H   UNL     1     -12.591  11.541  62.483  1.00  0.00     0.000 HD 
ENDROOT
BRANCH   2   4
HETATM    4  C   UNL     1     -11.181  12.180  65.349  1.00  0.00    -0.333 C  
HETATM    5  C   UNL     1     -11.774  12.138  66.745  1.00  0.00    -0.377 C  
HETATM    6  C   UNL     1     -11.732  13.579  67.192  1.00  0.00    -0.419 C  
HETATM    7  C   UNL     1     -10.502  14.128  66.486  1.00  0.00    -0.280 C  
HETATM    8  O   UNL     1     -10.288  13.310  65.320  1.00  0.00    -0.298 OA 
BRANCH   7   9
HETATM    9  N   UNL     1     -10.630  15.521  66.099  1.00  0.00    -0.307 NA 
HETATM   10  C   UNL     1     -11.036  15.961  64.859  1.00  0.00    -0.411 A  
HETATM   11  N   UNL     1     -11.030  17.278  64.769  1.00  0.00    -0.911 NA 
HETATM   12  C   UNL     1     -10.627  17.720  66.013  1.00  0.00    -0.229 A  
HETATM   13  C   UNL     1     -10.388  16.642  66.825  1.00  0.00    -0.295 A  
HETATM   14  N   UNL     1      -9.995  16.773  68.099  1.00  0.00    -0.260 NA 
HETATM   15  C   UNL     1      -9.852  18.061  68.555  1.00  0.00    -0.378 C  
HETATM   16  N   UNL     1     -10.040  19.155  67.879  1.00  0.00    -0.363 N  
HETATM   17  H   UNL     1      -9.897  20.062  68.322  1.00  0.00     0.000 HD 
HETATM   18  C   UNL     1     -10.440  19.080  66.536  1.00  0.00    -0.443 C  
HETATM   19  O   UNL     1     -10.613  20.078  65.846  1.00  0.00    -0.456 OA 
ENDBRANCH   7   9
ENDBRANCH   2   4
TORSDOF 2
ENDMDL
MODEL        5
REMARK 921   NORMALIZED FREE ENERGY PREDICTED BY IDOCK:   -6.25 KCAL/MOL
REMARK 922        TOTAL FREE ENERGY PREDICTED BY IDOCK:   -7.27 KCAL/MOL
REMARK 923 INTER-LIGAND FREE ENERGY PREDICTED BY IDOCK:   -6.98 KCAL/MOL
REMARK 924 INTRA-LIGAND FREE ENERGY PREDICTED BY IDOCK:   -0.30 KCAL/MOL
REMARK 927      BINDING AFFINITY PREDICTED BY RF-SCORE:    0.00 PKD
ROOT
HETATM    1  O   UNL     1     -11.570  16.351  63.817  1.00  0.00    -1.605 OA 
HETATM    2  C   UNL     1     -11.159  15.578  64.945  1.00  0.00    -0.416 C  
HETATM    3  H   UNL     1     -12.099  15.816  63.238  1.00  0.00     0.000 HD 
ENDROOT
BRANCH   2   4
HETATM    4  C   UNL     1     -10.303  16.443  65.882  1.00  0.00    -0.362 C  
HETATM    5  C   UNL     1      -8.901  15.896  66.081  1.00  0.00    -0.363 C  
HETATM    6  C   UNL     1      -9.024  15.050  67.325  1.00  0.00    -0.212 C  
HETATM    7  C   UNL     1     -10.100  15.764  68.128  1.00  0.00    -0.220 C  
HETATM    8  O   UNL     1     -10.908  16.497  67.188  1.00  0.00    -0.262 OA 
BRANCH   7   9
HETATM    9  N   UNL     1     -10.934  14.865  68.904  1.00  0.00    -0.240 NA 
HETATM   10  C   UNL     1     -11.303  13.596  68.515  1.00  0.00    -0.290 A  
HETATM   11  N   UNL     1     -12.093  13.013  69.396  1.00  0.00    -0.255 NA 
HETATM   12  C   UNL     1     -12.228  13.930  70.419  1.00  0.00    -0.368 A  
HETATM   13  C   UNL     1     -11.513  15.058  70.117  1.00  0.00    -0.277 A  
HETATM   14  N   UNL     1     -11.451  16.114  70.940  1.00  0.00    -0.416 NA 
HETATM   15  C   UNL     1     -12.143  15.997  72.120  1.00  0.00    -0.526 C  
HETATM   16  N   UNL     1     -12.859  14.985  72.509  1.00  0.00    -0.331 N  
HETATM   17  H   UNL     1     -13.337  15.011  73.410  1.00  0.00     0.000 HD 
HETATM   18  C   UNL     1     -12.971  13.856  71.684  1.00  0.00    -0.352 C  
HETATM   19  O   UNL     1     -13.648  12.882  71.992  1.00  0.00    -0.478 OA 
ENDBRANCH   7   9
ENDBRANCH   2   4
TORSDOF 2
ENDMDL
MODEL        6
REMARK 921   NORMALIZED FREE ENERGY PREDICTED BY IDOCK:   -6.23 KCAL/MOL
REMARK 922        TOTAL FREE ENERGY PREDICTED BY IDOCK:   -7.26 KCAL/MOL
REMARK 923 INTER-LIGAND FREE ENERGY PREDICTED BY IDOCK:   -7.22 KCAL/MOL
REMARK 924 INTRA-LIGAND FREE ENERGY PREDICTED BY IDOCK:   -0.04 KCAL/MOL
REMARK 927      BINDING AFFINITY PREDICTED BY RF-SCORE:    0.00 PKD
ROOT
HETATM    1  O   UNL     1     -11.563  16.226  63.896  1.00  0.00    -1.489 OA 
HETATM    2  C   UNL     1     -10.935  15.547  64.985  1.00  0.00    -0.440 C  
HETATM    3  H   UNL     1     -11.726  17.130  64.135  1.00  0.00     0.000 HD 
ENDROOT
BRANCH   2   4
HETATM    4  C   UNL     1     -10.671  14.084  64.599  1.00  0.00    -0.399 C  
HETATM    5  C   UNL     1     -11.890  13.394  64.014  1.00  0.00    -0.498 C  
HETATM    6  C   UNL     1     -12.535  12.738  65.210  1.00  0.00    -0.528 C  
HETATM    7  C   UNL     1     -11.353  12.407  66.107  1.00  0.00    -0.352 C  
HETATM    8  O   UNL     1     -10.299  13.328  65.768  1.00  0.00    -0.278 OA 
BRANCH   7   9
HETATM    9  N   UNL     1     -11.657  12.502  67.523  1.00  0.00    -0.341 NA 
HETATM   10  C   UNL     1     -11.773  11.428  68.379  1.00  0.00    -0.303 A  
HETATM   11  N   UNL     1     -12.090  11.799  69.605  1.00  0.00    -0.283 NA 
HETATM   12  C   UNL     1     -12.160  13.176  69.556  1.00  0.00    -0.238 A  
HETATM   13  C   UNL     1     -11.890  13.602  68.283  1.00  0.00    -0.369 A  
HETATM   14  N   UNL     1     -11.875  14.899  67.944  1.00  0.00    -0.315 NA 
HETATM   15  C   UNL     1     -12.139  15.787  68.958  1.00  0.00    -0.171 C  
HETATM   16  N   UNL     1     -12.416  15.502  70.195  1.00  0.00    -0.528 N  
HETATM   17  H   UNL     1     -12.602  16.249  70.864  1.00  0.00     0.000 HD 
HETATM   18  C   UNL     1     -12.459  14.161  70.605  1.00  0.00    -0.362 C  
HETATM   19  O   UNL     1     -12.734  13.834  71.753  1.00  0.00    -0.324 OA 
ENDBRANCH   7   9
ENDBRANCH   2   4
TORSDOF 2
ENDMDL
MODEL        7
REMARK 921   NORMALIZED FREE ENERGY PREDICTED BY IDOCK:   -6.20 KCAL/MOL
REMARK 922        TOTAL FREE ENERGY PREDICTED BY IDOCK:   -7.22 KCAL/MOL
REMARK 923 INTER-LIGAND FREE ENERGY PREDICTED BY IDOCK:   -6.91 KCAL/MOL
REMARK 924 INTRA-LIGAND FREE ENERGY PREDICTED BY IDOCK:   -0.32 KCAL/MOL
REMARK 927      BINDING AFFINITY PREDICTED BY RF-SCORE:    0.00 PKD
ROOT
HETATM    1  O   UNL     1      -8.595  20.870  66.746  1.00  0.00    -0.547 OA 
HETATM    2  C   UNL     1      -9.868  20.328  67.098  1.00  0.00    -0.466 C  
HETATM    3  H   UNL     1      -8.704  21.537  66.078  1.00  0.00     0.000 HD 
ENDROOT
BRANCH   2   4
HETATM    4  C   UNL     1      -9.691  19.250  68.177  1.00  0.00    -0.363 C  
HETATM    5  C   UNL     1      -8.304  18.632  68.179  1.00  0.00    -0.332 C  
HETATM    6  C   UNL     1      -8.455  17.418  67.295  1.00  0.00    -0.220 C  
HETATM    7  C   UNL     1      -9.897  16.996  67.526  1.00  0.00    -0.258 C  
HETATM    8  O   UNL     1     -10.616  18.170  67.948  1.00  0.00    -0.400 OA 
BRANCH   7   9
HETATM    9  N   UNL     1     -10.528  16.424  66.350  1.00  0.00    -0.304 NA 
HETATM   10  C   UNL     1     -10.762  17.099  65.173  1.00  0.00     0.004 A  
HETATM   11  N   UNL     1     -11.381  16.349  64.281  1.00  0.00    -0.942 NA 
HETATM   12  C   UNL     1     -11.536  15.121  64.891  1.00  0.00    -0.374 A  
HETATM   13  C   UNL     1     -11.008  15.169  66.155  1.00  0.00    -0.331 A  
HETATM   14  N   UNL     1     -11.007  14.111  66.977  1.00  0.00    -0.295 NA 
HETATM   15  C   UNL     1     -11.561  12.959  66.473  1.00  0.00    -0.371 C  
HETATM   16  N   UNL     1     -12.097  12.797  65.301  1.00  0.00    -0.432 N  
HETATM   17  H   UNL     1     -12.485  11.892  65.036  1.00  0.00     0.000 HD 
HETATM   18  C   UNL     1     -12.138  13.873  64.402  1.00  0.00    -0.443 C  
HETATM   19  O   UNL     1     -12.649  13.782  63.292  1.00  0.00    -0.830 OA 
ENDBRANCH   7   9
ENDBRANCH   2   4
TORSDOF 2
ENDMDL
MODEL        8
REMARK 921   NORMALIZED FREE ENERGY PREDICTED BY IDOCK:   -6.17 KCAL/MOL
REMARK 922        TOTAL FREE ENERGY PREDICTED BY IDOCK:   -7.19 KCAL/MOL
REMARK 923 INTER-LIGAND FREE ENERGY PREDICTED BY IDOCK:   -7.03 KCAL/MOL
REMARK 924 INTRA-LIGAND FREE ENERGY PREDICTED BY IDOCK:   -0.16 KCAL/MOL
REMARK 927      BINDING AFFINITY PREDICTED BY RF-SCORE:    0.00 PKD
ROOT
HETATM    1  O   UNL     1     -11.551  16.549  63.780  1.00  0.00    -1.617 OA 
HETATM    2  C   UNL     1     -12.318  15.397  64.134  1.00  0.00     0.004 C  
HETATM    3  H   UNL     1     -12.123  17.217  63.422  1.00  0.00     0.000 HD 
ENDROOT
BRANCH   2   4
HETATM    4  C   UNL     1     -11.392  14.317  64.713  1.00  0.00    -0.382 C  
HETATM    5  C   UNL     1     -12.114  13.342  65.625  1.00  0.00    -0.488 C  
HETATM    6  C   UNL     1     -11.927  13.936  67.000  1.00  0.00    -0.459 C  
HETATM    7  C   UNL     1     -10.575  14.625  66.900  1.00  0.00    -0.281 C  
HETATM    8  O   UNL     1     -10.361  14.931  65.509  1.00  0.00    -0.312 OA 
BRANCH   7   9
HETATM    9  N   UNL     1     -10.484  15.837  67.694  1.00  0.00    -0.276 NA 
HETATM   10  C   UNL     1     -10.485  15.880  69.071  1.00  0.00    -0.234 A  
HETATM   11  N   UNL     1     -10.426  17.116  69.532  1.00  0.00    -0.230 NA 
HETATM   12  C   UNL     1     -10.359  17.914  68.409  1.00  0.00    -0.374 A  
HETATM   13  C   UNL     1     -10.389  17.129  67.288  1.00  0.00    -0.320 A  
HETATM   14  N   UNL     1     -10.324  17.636  66.049  1.00  0.00    -0.501 NA 
HETATM   15  C   UNL     1     -10.215  19.003  65.966  1.00  0.00    -0.401 C  
HETATM   16  N   UNL     1     -10.186  19.847  66.953  1.00  0.00    -0.441 N  
HETATM   17  H   UNL     1     -10.108  20.847  66.771  1.00  0.00     0.000 HD 
HETATM   18  C   UNL     1     -10.263  19.374  68.272  1.00  0.00    -0.433 C  
HETATM   19  O   UNL     1     -10.260  20.126  69.240  1.00  0.00    -0.285 OA 
ENDBRANCH   7   9
ENDBRANCH   2   4
TORSDOF 2
ENDMDL
MODEL        9
REMARK 921   NORMALIZED FREE ENERGY PREDICTED BY IDOCK:   -6.17 KCAL/MOL
REMARK 922        TOTAL FREE ENERGY PREDICTED BY IDOCK:   -7.19 KCAL/MOL
REMARK 923 INTER-LIGAND FREE ENERGY PREDICTED BY IDOCK:   -6.72 KCAL/MOL
REMARK 924 INTRA-LIGAND FREE ENERGY PREDICTED BY IDOCK:   -0.47 KCAL/MOL
REMARK 927      BINDING AFFINITY PREDICTED BY RF-SCORE:    0.00 PKD
ROOT
HETATM    1  O   UNL     1     -11.514  16.416  63.711  1.00  0.00    -1.590 OA 
HETATM    2  C   UNL     1     -12.385  15.548  64.439  1.00  0.00    -0.001 C  
HETATM    3  H   UNL     1     -12.013  17.135  63.343  1.00  0.00     0.000 HD 
ENDROOT
BRANCH   2   4
HETATM    4  C   UNL     1     -11.578  14.385  65.034  1.00  0.00    -0.374 C  
HETATM    5  C   UNL     1     -11.915  14.111  66.488  1.00  0.00    -0.466 C  
HETATM    6  C   UNL     1     -10.896  14.925  67.248  1.00  0.00    -0.306 C  
HETATM    7  C   UNL     1      -9.683  14.910  66.331  1.00  0.00    -0.285 C  
HETATM    8  O   UNL     1     -10.172  14.693  64.994  1.00  0.00    -0.401 OA 
BRANCH   7   9
HETATM    9  N   UNL     1      -8.904  16.134  66.382  1.00  0.00    -0.290 NA 
HETATM   10  C   UNL     1      -7.548  16.197  66.612  1.00  0.00    -0.203 A  
HETATM   11  N   UNL     1      -7.103  17.439  66.640  1.00  0.00    -0.213 NA 
HETATM   12  C   UNL     1      -8.212  18.223  66.394  1.00  0.00    -0.251 A  
HETATM   13  C   UNL     1      -9.310  17.421  66.232  1.00  0.00    -0.217 A  
HETATM   14  N   UNL     1     -10.529  17.911  65.967  1.00  0.00    -0.470 NA 
HETATM   15  C   UNL     1     -10.614  19.278  65.856  1.00  0.00    -0.435 C  
HETATM   16  N   UNL     1      -9.649  20.136  65.998  1.00  0.00    -0.600 N  
HETATM   17  H   UNL     1      -9.832  21.134  65.899  1.00  0.00     0.000 HD 
HETATM   18  C   UNL     1      -8.354  19.681  66.289  1.00  0.00    -0.352 C  
HETATM   19  O   UNL     1      -7.411  20.446  66.452  1.00  0.00    -0.264 OA 
ENDBRANCH   7   9
ENDBRANCH   2   4
TORSDOF 2
ENDMDL
MODEL       10
REMARK 921   NORMALIZED FREE ENERGY PREDICTED BY IDOCK:   -6.00 KCAL/MOL
REMARK 922        TOTAL FREE ENERGY PREDICTED BY IDOCK:   -7.00 KCAL/MOL
REMARK 923 INTER-LIGAND FREE ENERGY PREDICTED BY IDOCK:   -6.63 KCAL/MOL
REMARK 924 INTRA-LIGAND FREE ENERGY PREDICTED BY IDOCK:   -0.37 KCAL/MOL
REMARK 927      BINDING AFFINITY PREDICTED BY RF-SCORE:    0.00 PKD
ROOT
HETATM    1  O   UNL     1     -13.077  12.198  63.707  1.00  0.00    -0.774 OA 
HETATM    2  C   UNL     1     -11.936  13.041  63.542  1.00  0.00    -0.545 C  
HETATM    3  H   UNL     1     -12.971  11.411  63.186  1.00  0.00     0.000 HD 
ENDROOT
BRANCH   2   4
HETATM    4  C   UNL     1     -12.106  14.313  64.385  1.00  0.00    -0.468 C  
HETATM    5  C   UNL     1     -10.789  14.994  64.708  1.00  0.00    -0.375 C  
HETATM    6  C   UNL     1     -10.409  14.414  66.049  1.00  0.00    -0.319 C  
HETATM    7  C   UNL     1     -11.753  14.150  66.708  1.00  0.00    -0.410 C  
HETATM    8  O   UNL     1     -12.715  13.986  65.649  1.00  0.00    -0.526 OA 
BRANCH   7   9
HETATM    9  N   UNL     1     -11.756  12.980  67.567  1.00  0.00    -0.358 NA 
HETATM   10  C   UNL     1     -11.476  11.697  67.153  1.00  0.00    -0.271 A  
HETATM   11  N   UNL     1     -11.586  10.820  68.134  1.00  0.00    -0.489 NA 
HETATM   12  C   UNL     1     -11.927  11.565  69.244  1.00  0.00    -0.330 A  
HETATM   13  C   UNL     1     -12.026  12.886  68.894  1.00  0.00    -0.250 A  
HETATM   14  N   UNL     1     -12.332  13.845  69.779  1.00  0.00    -0.316 NA 
HETATM   15  C   UNL     1     -12.535  13.427  71.071  1.00  0.00    -0.353 C  
HETATM   16  N   UNL     1     -12.479  12.208  71.517  1.00  0.00    -0.133 N  
HETATM   17  H   UNL     1     -12.655  12.014  72.503  1.00  0.00     0.000 HD 
HETATM   18  C   UNL     1     -12.174  11.160  70.635  1.00  0.00    -0.397 C  
HETATM   19  O   UNL     1     -12.127   9.991  70.996  1.00  0.00    -0.317 OA 
ENDBRANCH   7   9
ENDBRANCH   2   4
TORSDOF 2
ENDMDL
MODEL       11
REMARK 921   NORMALIZED FREE ENERGY PREDICTED BY IDOCK:   -5.99 KCAL/MOL
REMARK 922        TOTAL FREE ENERGY PREDICTED BY IDOCK:   -6.99 KCAL/MOL
REMARK 923 INTER-LIGAND FREE ENERGY PREDICTED BY IDOCK:   -6.70 KCAL/MOL
REMARK 924 INTRA-LIGAND FREE ENERGY PREDICTED BY IDOCK:   -0.30 KCAL/MOL
REMARK 927      BINDING AFFINITY PREDICTED BY RF-SCORE:    0.00 PKD
ROOT
HETATM    1  O   UNL     1     -11.397  16.408  64.051  1.00  0.00    -1.416 OA 
HETATM    2  C   UNL     1     -11.197  15.390  65.033  1.00  0.00    -0.387 C  
HETATM    3  H   UNL     1     -11.624  17.225  64.479  1.00  0.00     0.000 HD 
ENDROOT
BRANCH   2   4
HETATM    4  C   UNL     1     -10.830  14.069  64.341  1.00  0.00    -0.249 C  
HETATM    5  C   UNL     1     -12.023  13.381  63.704  1.00  0.00    -0.504 C  
HETATM    6  C   UNL     1     -12.504  12.437  64.779  1.00  0.00    -0.480 C  
HETATM    7  C   UNL     1     -11.226  12.065  65.514  1.00  0.00    -0.321 C  
HETATM    8  O   UNL     1     -10.294  13.143  65.306  1.00  0.00    -0.294 OA 
BRANCH   7   9
HETATM    9  N   UNL     1     -11.421  11.846  66.936  1.00  0.00    -0.452 NA 
HETATM   10  C   UNL     1     -11.929  12.776  67.816  1.00  0.00    -0.260 A  
HETATM   11  N   UNL     1     -11.965  12.323  69.056  1.00  0.00    -0.284 NA 
HETATM   12  C   UNL     1     -11.484  11.032  68.980  1.00  0.00    -0.299 A  
HETATM   13  C   UNL     1     -11.157  10.742  67.682  1.00  0.00    -0.319 A  
HETATM   14  N   UNL     1     -10.674   9.549  67.308  1.00  0.00    -0.246 NA 
HETATM   15  C   UNL     1     -10.533   8.619  68.309  1.00  0.00    -0.184 C  
HETATM   16  N   UNL     1     -10.800   8.782  69.571  1.00  0.00    -0.372 N  
HETATM   17  H   UNL     1     -10.649   8.017  70.229  1.00  0.00     0.000 HD 
HETATM   18  C   UNL     1     -11.296  10.014  70.022  1.00  0.00    -0.275 C  
HETATM   19  O   UNL     1     -11.545  10.229  71.202  1.00  0.00    -0.355 OA 
ENDBRANCH   7   9
ENDBRANCH   2   4
TORSDOF 2
ENDMDL
MODEL       12
REMARK 921   NORMALIZED FREE ENERGY PREDICTED BY IDOCK:   -5.93 KCAL/MOL
REMARK 922        TOTAL FREE ENERGY PREDICTED BY IDOCK:   -6.92 KCAL/MOL
REMARK 923 INTER-LIGAND FREE ENERGY PREDICTED BY IDOCK:   -6.76 KCAL/MOL
REMARK 924 INTRA-LIGAND FREE ENERGY PREDICTED BY IDOCK:   -0.16 KCAL/MOL
REMARK 927      BINDING AFFINITY PREDICTED BY RF-SCORE:    0.00 PKD
ROOT
HETATM    1  O   UNL     1      -9.776  20.344  65.842  1.00  0.00    -0.652 OA 
HETATM    2  C   UNL     1     -10.560  19.266  66.354  1.00  0.00    -0.450 C  
HETATM    3  H   UNL     1     -10.116  20.615  64.998  1.00  0.00     0.000 HD 
ENDROOT
BRANCH   2   4
HETATM    4  C   UNL     1     -10.009  18.827  67.719  1.00  0.00    -0.350 C  
HETATM    5  C   UNL     1      -8.586  18.305  67.645  1.00  0.00    -0.261 C  
HETATM    6  C   UNL     1      -8.762  16.816  67.477  1.00  0.00    -0.206 C  
HETATM    7  C   UNL     1     -10.049  16.529  68.235  1.00  0.00    -0.259 C  
HETATM    8  O   UNL     1     -10.809  17.753  68.247  1.00  0.00    -0.300 OA 
BRANCH   7   9
HETATM    9  N   UNL     1     -10.838  15.461  67.649  1.00  0.00    -0.297 NA 
HETATM   10  C   UNL     1     -11.341  14.381  68.341  1.00  0.00    -0.287 A  
HETATM   11  N   UNL     1     -11.992  13.543  67.556  1.00  0.00    -0.362 NA 
HETATM   12  C   UNL     1     -11.935  14.112  66.300  1.00  0.00    -0.429 A  
HETATM   13  C   UNL     1     -11.233  15.287  66.362  1.00  0.00    -0.224 A  
HETATM   14  N   UNL     1     -11.030  16.064  65.289  1.00  0.00    -0.333 NA 
HETATM   15  C   UNL     1     -11.579  15.616  64.112  1.00  0.00    -0.076 C  
HETATM   16  N   UNL     1     -12.253  14.520  63.930  1.00  0.00    -1.006 N  
HETATM   17  H   UNL     1     -12.610  14.286  63.004  1.00  0.00     0.000 HD 
HETATM   18  C   UNL     1     -12.487  13.661  65.015  1.00  0.00    -0.414 C  
HETATM   19  O   UNL     1     -13.098  12.606  64.897  1.00  0.00    -0.850 OA 
ENDBRANCH   7   9
ENDBRANCH   2   4
TORSDOF 2
ENDMDL
MODEL       13
REMARK 921   NORMALIZED FREE ENERGY PREDICTED BY IDOCK:   -5.92 KCAL/MOL
REMARK 922        TOTAL FREE ENERGY PREDICTED BY IDOCK:   -6.91 KCAL/MOL
REMARK 923 INTER-LIGAND FREE ENERGY PREDICTED BY IDOCK:   -6.62 KCAL/MOL
REMARK 924 INTRA-LIGAND FREE ENERGY PREDICTED BY IDOCK:   -0.29 KCAL/MOL
REMARK 927      BINDING AFFINITY PREDICTED BY RF-SCORE:    0.00 PKD
ROOT
HETATM    1  O   UNL     1     -12.072  10.778  68.167  1.00  0.00    -0.802 OA 
HETATM    2  C   UNL     1     -11.542  12.103  68.118  1.00  0.00    -0.337 C  
HETATM    3  H   UNL     1     -11.931  10.408  69.030  1.00  0.00     0.000 HD 
ENDROOT
BRANCH   2   4
HETATM    4  C   UNL     1     -11.770  12.701  66.722  1.00  0.00    -0.392 C  
HETATM    5  C   UNL     1     -10.525  12.675  65.854  1.00  0.00    -0.295 C  
HETATM    6  C   UNL     1      -9.897  14.026  66.095  1.00  0.00    -0.319 C  
HETATM    7  C   UNL     1     -11.094  14.927  66.354  1.00  0.00    -0.342 C  
HETATM    8  O   UNL     1     -12.156  14.084  66.838  1.00  0.00    -0.424 OA 
BRANCH   7   9
HETATM    9  N   UNL     1     -10.826  15.985  67.311  1.00  0.00    -0.293 NA 
HETATM   10  C   UNL     1     -10.772  15.819  68.677  1.00  0.00    -0.263 A  
HETATM   11  N   UNL     1     -10.545  16.955  69.310  1.00  0.00    -0.345 NA 
HETATM   12  C   UNL     1     -10.420  17.901  68.313  1.00  0.00    -0.354 A  
HETATM   13  C   UNL     1     -10.587  17.304  67.092  1.00  0.00    -0.256 A  
HETATM   14  N   UNL     1     -10.504  17.982  65.940  1.00  0.00    -0.549 NA 
HETATM   15  C   UNL     1     -10.230  19.324  66.052  1.00  0.00    -0.435 C  
HETATM   16  N   UNL     1     -10.062  19.999  67.149  1.00  0.00    -0.425 N  
HETATM   17  H   UNL     1      -9.868  20.999  67.111  1.00  0.00     0.000 HD 
HETATM   18  C   UNL     1     -10.149  19.344  68.387  1.00  0.00    -0.444 C  
HETATM   19  O   UNL     1     -10.019  19.934  69.452  1.00  0.00    -0.345 OA 
ENDBRANCH   7   9
ENDBRANCH   2   4
TORSDOF 2
ENDMDL
MODEL       14
REMARK 921   NORMALIZED FREE ENERGY PREDICTED BY IDOCK:   -5.86 KCAL/MOL
REMARK 922        TOTAL FREE ENERGY PREDICTED BY IDOCK:   -6.84 KCAL/MOL
REMARK 923 INTER-LIGAND FREE ENERGY PREDICTED BY IDOCK:   -6.51 KCAL/MOL
REMARK 924 INTRA-LIGAND FREE ENERGY PREDICTED BY IDOCK:   -0.33 KCAL/MOL
REMARK 927      BINDING AFFINITY PREDICTED BY RF-SCORE:    0.00 PKD
ROOT
HETATM    1  O   UNL     1     -13.049  12.228  64.565  1.00  0.00    -0.791 OA 
HETATM    2  C   UNL     1     -11.805  12.894  64.347  1.00  0.00    -0.383 C  
HETATM    3  H   UNL     1     -12.982  11.324  64.280  1.00  0.00     0.000 HD 
ENDROOT
BRANCH   2   4
HETATM    4  C   UNL     1     -11.913  14.356  64.808  1.00  0.00    -0.447 C  
HETATM    5  C   UNL     1     -10.562  15.014  65.018  1.00  0.00    -0.437 C  
HETATM    6  C   UNL     1     -10.286  14.796  66.486  1.00  0.00    -0.281 C  
HETATM    7  C   UNL     1     -11.673  14.805  67.107  1.00  0.00    -0.334 C  
HETATM    8  O   UNL     1     -12.599  14.421  66.073  1.00  0.00    -0.382 OA 
BRANCH   7   9
HETATM    9  N   UNL     1     -11.803  13.913  68.245  1.00  0.00    -0.362 NA 
HETATM   10  C   UNL     1     -12.130  14.308  69.524  1.00  0.00    -0.330 A  
HETATM   11  N   UNL     1     -12.145  13.296  70.371  1.00  0.00    -0.352 NA 
HETATM   12  C   UNL     1     -11.840  12.187  69.609  1.00  0.00    -0.322 A  
HETATM   13  C   UNL     1     -11.636  12.568  68.309  1.00  0.00    -0.328 A  
HETATM   14  N   UNL     1     -11.337  11.693  67.339  1.00  0.00    -0.353 NA 
HETATM   15  C   UNL     1     -11.253  10.377  67.723  1.00  0.00    -0.237 C  
HETATM   16  N   UNL     1     -11.415   9.900  68.921  1.00  0.00    -0.484 N  
HETATM   17  H   UNL     1     -11.323   8.898  69.091  1.00  0.00     0.000 HD 
HETATM   18  C   UNL     1     -11.718  10.770  69.979  1.00  0.00    -0.336 C  
HETATM   19  O   UNL     1     -11.862  10.378  71.131  1.00  0.00    -0.356 OA 
ENDBRANCH   7   9
ENDBRANCH   2   4
TORSDOF 2
ENDMDL
MODEL       15
REMARK 921   NORMALIZED FREE ENERGY PREDICTED BY IDOCK:   -5.84 KCAL/MOL
REMARK 922        TOTAL FREE ENERGY PREDICTED BY IDOCK:   -6.82 KCAL/MOL
REMARK 923 INTER-LIGAND FREE ENERGY PREDICTED BY IDOCK:   -6.59 KCAL/MOL
REMARK 924 INTRA-LIGAND FREE ENERGY PREDICTED BY IDOCK:   -0.23 KCAL/MOL
REMARK 927      BINDING AFFINITY PREDICTED BY RF-SCORE:    0.00 PKD
ROOT
HETATM    1  O   UNL     1      -9.467  15.171  70.290  1.00  0.00    -0.391 OA 
HETATM    2  C   UNL     1      -9.691  16.000  69.148  1.00  0.00    -0.251 C  
HETATM    3  H   UNL     1      -8.546  15.186  70.521  1.00  0.00     0.000 HD 
ENDROOT
BRANCH   2   4
HETATM    4  C   UNL     1     -11.180  15.976  68.776  1.00  0.00    -0.360 C  
HETATM    5  C   UNL     1     -11.996  15.038  69.646  1.00  0.00    -0.356 C  
HETATM    6  C   UNL     1     -12.000  13.745  68.867  1.00  0.00    -0.394 C  
HETATM    7  C   UNL     1     -11.948  14.209  67.420  1.00  0.00    -0.404 C  
HETATM    8  O   UNL     1     -11.339  15.514  67.420  1.00  0.00    -0.302 OA 
BRANCH   7   9
HETATM    9  N   UNL     1     -11.203  13.314  66.553  1.00  0.00    -0.298 NA 
HETATM   10  C   UNL     1      -9.936  12.839  66.810  1.00  0.00    -0.237 A  
HETATM   11  N   UNL     1      -9.483  12.071  65.836  1.00  0.00    -0.225 NA 
HETATM   12  C   UNL     1     -10.508  12.021  64.914  1.00  0.00    -0.285 A  
HETATM   13  C   UNL     1     -11.560  12.778  65.358  1.00  0.00    -0.358 A  
HETATM   14  N   UNL     1     -12.701  12.902  64.667  1.00  0.00    -0.709 NA 
HETATM   15  C   UNL     1     -12.763  12.212  63.481  1.00  0.00    -0.431 C  
HETATM   16  N   UNL     1     -11.832  11.474  62.956  1.00  0.00    -0.897 N  
HETATM   17  H   UNL     1     -11.988  11.011  62.061  1.00  0.00     0.000 HD 
HETATM   18  C   UNL     1     -10.610  11.317  63.628  1.00  0.00    -0.388 C  
HETATM   19  O   UNL     1      -9.691  10.649  63.171  1.00  0.00    -0.307 OA 
ENDBRANCH   7   9
ENDBRANCH   2   4
TORSDOF 2
ENDMDL
MODEL       16
REMARK 921   NORMALIZED FREE ENERGY PREDICTED BY IDOCK:   -5.83 KCAL/MOL
REMARK 922        TOTAL FREE ENERGY PREDICTED BY IDOCK:   -6.81 KCAL/MOL
REMARK 923 INTER-LIGAND FREE ENERGY PREDICTED BY IDOCK:   -6.38 KCAL/MOL
REMARK 924 INTRA-LIGAND FREE ENERGY PREDICTED BY IDOCK:   -0.43 KCAL/MOL
REMARK 927      BINDING AFFINITY PREDICTED BY RF-SCORE:    0.00 PKD
ROOT
HETATM    1  O   UNL     1     -12.839  15.046  69.566  1.00  0.00    -0.540 OA 
HETATM    2  C   UNL     1     -11.813  14.066  69.729  1.00  0.00    -0.324 C  
HETATM    3  H   UNL     1     -12.842  15.633  70.312  1.00  0.00     0.000 HD 
ENDROOT
BRANCH   2   4
HETATM    4  C   UNL     1     -11.808  13.116  68.522  1.00  0.00    -0.342 C  
HETATM    5  C   UNL     1     -10.433  12.554  68.214  1.00  0.00    -0.243 C  
HETATM    6  C   UNL     1      -9.879  13.514  67.189  1.00  0.00    -0.245 C  
HETATM    7  C   UNL     1     -11.118  13.982  66.443  1.00  0.00    -0.316 C  
HETATM    8  O   UNL     1     -12.233  13.823  67.341  1.00  0.00    -0.368 OA 
BRANCH   7   9
HETATM    9  N   UNL     1     -11.036  15.360  65.993  1.00  0.00    -0.282 NA 
HETATM   10  C   UNL     1     -11.211  15.776  64.692  1.00  0.00    -0.363 A  
HETATM   11  N   UNL     1     -11.047  17.080  64.559  1.00  0.00    -1.062 NA 
HETATM   12  C   UNL     1     -10.779  17.539  65.832  1.00  0.00    -0.119 A  
HETATM   13  C   UNL     1     -10.778  16.485  66.707  1.00  0.00    -0.155 A  
HETATM   14  N   UNL     1     -10.559  16.638  68.020  1.00  0.00    -0.325 NA 
HETATM   15  C   UNL     1     -10.341  17.926  68.446  1.00  0.00    -0.374 C  
HETATM   16  N   UNL     1     -10.309  18.998  67.712  1.00  0.00    -0.396 N  
HETATM   17  H   UNL     1     -10.132  19.907  68.140  1.00  0.00     0.000 HD 
HETATM   18  C   UNL     1     -10.520  18.898  66.329  1.00  0.00    -0.445 C  
HETATM   19  O   UNL     1     -10.482  19.872  65.587  1.00  0.00    -0.477 OA 
ENDBRANCH   7   9
ENDBRANCH   2   4
TORSDOF 2
ENDMDL
MODEL       17
REMARK 921   NORMALIZED FREE ENERGY PREDICTED BY IDOCK:   -5.82 KCAL/MOL
REMARK 922        TOTAL FREE ENERGY PREDICTED BY IDOCK:   -6.80 KCAL/MOL
REMARK 923 INTER-LIGAND FREE ENERGY PREDICTED BY IDOCK:   -6.31 KCAL/MOL
REMARK 924 INTRA-LIGAND FREE ENERGY PREDICTED BY IDOCK:   -0.49 KCAL/MOL
REMARK 927      BINDING AFFINITY PREDICTED BY RF-SCORE:    0.00 PKD
ROOT
HETATM    1  O   UNL     1      -9.819  10.607  66.100  1.00  0.00    -0.200 OA 
HETATM    2  C   UNL     1     -10.615  10.030  67.136  1.00  0.00    -0.232 C  
HETATM    3  H   UNL     1     -10.021  10.189  65.271  1.00  0.00     0.000 HD 
ENDROOT
BRANCH   2   4
HETATM    4  C   UNL     1     -10.289  10.706  68.476  1.00  0.00    -0.183 C  
HETATM    5  C   UNL     1     -11.516  10.937  69.339  1.00  0.00    -0.373 C  
HETATM    6  C   UNL     1     -11.943  12.340  68.980  1.00  0.00    -0.300 C  
HETATM    7  C   UNL     1     -10.630  13.030  68.648  1.00  0.00    -0.236 C  
HETATM    8  O   UNL     1      -9.706  12.002  68.242  1.00  0.00    -0.197 OA 
BRANCH   7   9
HETATM    9  N   UNL     1     -10.751  14.030  67.603  1.00  0.00    -0.255 NA 
HETATM   10  C   UNL     1     -10.293  15.326  67.693  1.00  0.00    -0.250 A  
HETATM   11  N   UNL     1     -10.566  16.029  66.610  1.00  0.00    -0.316 NA 
HETATM   12  C   UNL     1     -11.208  15.149  65.764  1.00  0.00    -0.287 A  
HETATM   13  C   UNL     1     -11.315  13.926  66.372  1.00  0.00    -0.328 A  
HETATM   14  N   UNL     1     -11.886  12.871  65.775  1.00  0.00    -0.396 NA 
HETATM   15  C   UNL     1     -12.355  13.083  64.502  1.00  0.00    -0.398 C  
HETATM   16  N   UNL     1     -12.318  14.194  63.830  1.00  0.00    -1.027 N  
HETATM   17  H   UNL     1     -12.705  14.236  62.887  1.00  0.00     0.000 HD 
HETATM   18  C   UNL     1     -11.743  15.336  64.408  1.00  0.00    -0.285 C  
HETATM   19  O   UNL     1     -11.699  16.414  63.828  1.00  0.00    -1.049 OA 
ENDBRANCH   7   9
ENDBRANCH   2   4
TORSDOF 2
ENDMDL
MODEL       18
REMARK 921   NORMALIZED FREE ENERGY PREDICTED BY IDOCK:   -5.80 KCAL/MOL
REMARK 922        TOTAL FREE ENERGY PREDICTED BY IDOCK:   -6.78 KCAL/MOL
REMARK 923 INTER-LIGAND FREE ENERGY PREDICTED BY IDOCK:   -6.40 KCAL/MOL
REMARK 924 INTRA-LIGAND FREE ENERGY PREDICTED BY IDOCK:   -0.38 KCAL/MOL
REMARK 927      BINDING AFFINITY PREDICTED BY RF-SCORE:    0.00 PKD
ROOT
HETATM    1  O   UNL     1     -13.002  10.470  70.194  1.00  0.00    -0.484 OA 
HETATM    2  C   UNL     1     -11.654  10.381  70.660  1.00  0.00    -0.349 C  
HETATM    3  H   UNL     1     -13.525  10.954  70.822  1.00  0.00     0.000 HD 
ENDROOT
BRANCH   2   4
HETATM    4  C   UNL     1     -10.807   9.599  69.645  1.00  0.00    -0.244 C  
HETATM    5  C   UNL     1      -9.340   9.987  69.671  1.00  0.00    -0.242 C  
HETATM    6  C   UNL     1      -9.237  11.057  68.611  1.00  0.00    -0.186 C  
HETATM    7  C   UNL     1     -10.295  10.648  67.599  1.00  0.00    -0.209 C  
HETATM    8  O   UNL     1     -11.274   9.865  68.309  1.00  0.00    -0.195 OA 
BRANCH   7   9
HETATM    9  N   UNL     1     -10.938  11.774  66.947  1.00  0.00    -0.270 NA 
HETATM   10  C   UNL     1     -11.520  12.838  67.602  1.00  0.00    -0.334 A  
HETATM   11  N   UNL     1     -12.062  13.703  66.766  1.00  0.00    -0.407 NA 
HETATM   12  C   UNL     1     -11.802  13.197  65.508  1.00  0.00    -0.380 A  
HETATM   13  C   UNL     1     -11.111  12.021  65.624  1.00  0.00    -0.313 A  
HETATM   14  N   UNL     1     -10.711  11.311  64.559  1.00  0.00    -0.336 NA 
HETATM   15  C   UNL     1     -11.029  11.841  63.332  1.00  0.00    -0.380 C  
HETATM   16  N   UNL     1     -11.685  12.938  63.100  1.00  0.00    -0.844 N  
HETATM   17  H   UNL     1     -11.869  13.232  62.140  1.00  0.00     0.000 HD 
HETATM   18  C   UNL     1     -12.139  13.716  64.175  1.00  0.00    -0.435 C  
HETATM   19  O   UNL     1     -12.779  14.748  64.015  1.00  0.00    -0.786 OA 
ENDBRANCH   7   9
ENDBRANCH   2   4
TORSDOF 2
ENDMDL
MODEL       19
REMARK 921   NORMALIZED FREE ENERGY PREDICTED BY IDOCK:   -5.75 KCAL/MOL
REMARK 922        TOTAL FREE ENERGY PREDICTED BY IDOCK:   -6.72 KCAL/MOL
REMARK 923 INTER-LIGAND FREE ENERGY PREDICTED BY IDOCK:   -6.87 KCAL/MOL
REMARK 924 INTRA-LIGAND FREE ENERGY PREDICTED BY IDOCK:    0.15 KCAL/MOL
REMARK 927      BINDING AFFINITY PREDICTED BY RF-SCORE:    0.00 PKD
ROOT
HETATM    1  O   UNL     1     -10.773  13.354  69.697  1.00  0.00    -0.435 OA 
HETATM    2  C   UNL     1     -11.789  12.378  69.935  1.00  0.00    -0.305 C  
HETATM    3  H   UNL     1     -10.940  14.125  70.226  1.00  0.00     0.000 HD 
ENDROOT
BRANCH   2   4
HETATM    4  C   UNL     1     -11.520  11.131  69.080  1.00  0.00    -0.296 C  
HETATM    5  C   UNL     1     -10.043  10.894  68.822  1.00  0.00    -0.205 C  
HETATM    6  C   UNL     1      -9.797  11.588  67.505  1.00  0.00    -0.203 C  
HETATM    7  C   UNL     1     -11.124  11.440  66.779  1.00  0.00    -0.281 C  
HETATM    8  O   UNL     1     -12.139  11.281  67.788  1.00  0.00    -0.631 OA 
BRANCH   7   9
HETATM    9  N   UNL     1     -11.446  12.569  65.925  1.00  0.00    -0.353 NA 
HETATM   10  C   UNL     1     -12.290  12.521  64.838  1.00  0.00    -0.470 A  
HETATM   11  N   UNL     1     -12.376  13.685  64.220  1.00  0.00    -0.624 NA 
HETATM   12  C   UNL     1     -11.573  14.538  64.950  1.00  0.00    -0.401 A  
HETATM   13  C   UNL     1     -11.010  13.853  65.994  1.00  0.00    -0.285 A  
HETATM   14  N   UNL     1     -10.191  14.435  66.881  1.00  0.00    -0.262 NA 
HETATM   15  C   UNL     1      -9.952  15.774  66.687  1.00  0.00    -0.257 C  
HETATM   16  N   UNL     1     -10.419  16.522  65.733  1.00  0.00    -0.355 N  
HETATM   17  H   UNL     1     -10.167  17.510  65.686  1.00  0.00     0.000 HD 
HETATM   18  C   UNL     1     -11.272  15.965  64.769  1.00  0.00    -0.355 C  
HETATM   19  O   UNL     1     -11.725  16.618  63.837  1.00  0.00    -1.153 OA 
ENDBRANCH   7   9
ENDBRANCH   2   4
TORSDOF 2
ENDMDL
MODEL       20
REMARK 921   NORMALIZED FREE ENERGY PREDICTED BY IDOCK:   -5.74 KCAL/MOL
REMARK 922        TOTAL FREE ENERGY PREDICTED BY IDOCK:   -6.71 KCAL/MOL
REMARK 923 INTER-LIGAND FREE ENERGY PREDICTED BY IDOCK:   -6.38 KCAL/MOL
REMARK 924 INTRA-LIGAND FREE ENERGY PREDICTED BY IDOCK:   -0.33 KCAL/MOL
REMARK 927      BINDING AFFINITY PREDICTED BY RF-SCORE:    0.00 PKD
ROOT
HETATM    1  O   UNL     1      -7.487  19.639  68.799  1.00  0.00    -0.339 OA 
HETATM    2  C   UNL     1      -7.534  18.488  67.954  1.00  0.00    -0.238 C  
HETATM    3  H   UNL     1      -7.002  19.436  69.589  1.00  0.00     0.000 HD 
ENDROOT
BRANCH   2   4
HETATM    4  C   UNL     1      -8.319  18.815  66.675  1.00  0.00    -0.288 C  
HETATM    5  C   UNL     1      -9.533  19.690  66.931  1.00  0.00    -0.456 C  
HETATM    6  C   UNL     1     -10.655  18.697  67.109  1.00  0.00    -0.468 C  
HETATM    7  C   UNL     1     -10.244  17.541  66.210  1.00  0.00    -0.355 C  
HETATM    8  O   UNL     1      -8.811  17.601  66.078  1.00  0.00    -0.502 OA 
BRANCH   7   9
HETATM    9  N   UNL     1     -10.643  16.242  66.720  1.00  0.00    -0.290 NA 
HETATM   10  C   UNL     1     -10.546  15.847  68.036  1.00  0.00    -0.287 A  
HETATM   11  N   UNL     1     -10.947  14.602  68.215  1.00  0.00    -0.245 NA 
HETATM   12  C   UNL     1     -11.347  14.172  66.966  1.00  0.00    -0.332 A  
HETATM   13  C   UNL     1     -11.164  15.179  66.056  1.00  0.00    -0.275 A  
HETATM   14  N   UNL     1     -11.481  15.046  64.760  1.00  0.00    -0.412 NA 
HETATM   15  C   UNL     1     -12.014  13.835  64.394  1.00  0.00    -0.445 C  
HETATM   16  N   UNL     1     -12.224  12.808  65.162  1.00  0.00    -0.454 N  
HETATM   17  H   UNL     1     -12.622  11.952  64.776  1.00  0.00     0.000 HD 
HETATM   18  C   UNL     1     -11.900  12.884  66.525  1.00  0.00    -0.407 C  
HETATM   19  O   UNL     1     -12.059  11.941  67.291  1.00  0.00    -0.582 OA 
ENDBRANCH   7   9
ENDBRANCH   2   4
TORSDOF 2
ENDMDL
MODEL       21
REMARK 921   NORMALIZED FREE ENERGY PREDICTED BY IDOCK:   -5.72 KCAL/MOL
REMARK 922        TOTAL FREE ENERGY PREDICTED BY IDOCK:   -6.69 KCAL/MOL
REMARK 923 INTER-LIGAND FREE ENERGY PREDICTED BY IDOCK:   -6.37 KCAL/MOL
REMARK 924 INTRA-LIGAND FREE ENERGY PREDICTED BY IDOCK:   -0.32 KCAL/MOL
REMARK 927      BINDING AFFINITY PREDICTED BY RF-SCORE:    0.00 PKD
ROOT
HETATM    1  O   UNL     1     -12.402   6.723  70.458  1.00  0.00    -0.559 OA 
HETATM    2  C   UNL     1     -11.269   7.593  70.438  1.00  0.00    -0.244 C  
HETATM    3  H   UNL     1     -12.350   6.113  69.732  1.00  0.00     0.000 HD 
ENDROOT
BRANCH   2   4
HETATM    4  C   UNL     1     -11.354   8.580  71.612  1.00  0.00    -0.295 C  
HETATM    5  C   UNL     1     -12.771   8.790  72.111  1.00  0.00    -0.461 C  
HETATM    6  C   UNL     1     -13.244   9.998  71.341  1.00  0.00    -0.486 C  
HETATM    7  C   UNL     1     -11.970  10.803  71.139  1.00  0.00    -0.258 C  
HETATM    8  O   UNL     1     -10.872   9.873  71.200  1.00  0.00    -0.309 OA 
BRANCH   7   9
HETATM    9  N   UNL     1     -11.937  11.528  69.881  1.00  0.00    -0.336 NA 
HETATM   10  C   UNL     1     -11.841  10.944  68.637  1.00  0.00    -0.199 A  
HETATM   11  N   UNL     1     -11.796  11.839  67.667  1.00  0.00    -0.603 NA 
HETATM   12  C   UNL     1     -11.892  13.061  68.303  1.00  0.00    -0.343 A  
HETATM   13  C   UNL     1     -11.983  12.866  69.656  1.00  0.00    -0.292 A  
HETATM   14  N   UNL     1     -12.101  13.879  70.524  1.00  0.00    -0.348 NA 
HETATM   15  C   UNL     1     -12.136  15.138  69.976  1.00  0.00    -0.345 C  
HETATM   16  N   UNL     1     -12.049  15.445  68.716  1.00  0.00    -0.587 N  
HETATM   17  H   UNL     1     -12.081  16.422  68.424  1.00  0.00     0.000 HD 
HETATM   18  C   UNL     1     -11.912  14.427  67.762  1.00  0.00    -0.333 C  
HETATM   19  O   UNL     1     -11.806  14.660  66.564  1.00  0.00    -0.373 OA 
ENDBRANCH   7   9
ENDBRANCH   2   4
TORSDOF 2
ENDMDL
MODEL       22
REMARK 921   NORMALIZED FREE ENERGY PREDICTED BY IDOCK:   -5.72 KCAL/MOL
REMARK 922        TOTAL FREE ENERGY PREDICTED BY IDOCK:   -6.68 KCAL/MOL
REMARK 923 INTER-LIGAND FREE ENERGY PREDICTED BY IDOCK:   -6.39 KCAL/MOL
REMARK 924 INTRA-LIGAND FREE ENERGY PREDICTED BY IDOCK:   -0.30 KCAL/MOL
REMARK 927      BINDING AFFINITY PREDICTED BY RF-SCORE:    0.00 PKD
ROOT
HETATM    1  O   UNL     1     -11.300  14.504  64.056  1.00  0.00    -0.591 OA 
HETATM    2  C   UNL     1     -10.805  14.949  65.320  1.00  0.00    -0.386 C  
HETATM    3  H   UNL     1     -11.731  15.223  63.610  1.00  0.00     0.000 HD 
ENDROOT
BRANCH   2   4
HETATM    4  C   UNL     1     -10.109  13.786  66.042  1.00  0.00    -0.311 C  
HETATM    5  C   UNL     1     -10.926  12.507  66.034  1.00  0.00    -0.318 C  
HETATM    6  C   UNL     1     -11.696  12.569  67.330  1.00  0.00    -0.432 C  
HETATM    7  C   UNL     1     -10.756  13.321  68.259  1.00  0.00    -0.252 C  
HETATM    8  O   UNL     1      -9.898  14.124  67.426  1.00  0.00    -0.233 OA 
BRANCH   7   9
HETATM    9  N   UNL     1     -11.444  14.163  69.220  1.00  0.00    -0.275 NA 
HETATM   10  C   UNL     1     -11.462  15.540  69.193  1.00  0.00    -0.348 A  
HETATM   11  N   UNL     1     -12.134  16.052  70.207  1.00  0.00    -0.256 NA 
HETATM   12  C   UNL     1     -12.598  14.962  70.915  1.00  0.00    -0.341 A  
HETATM   13  C   UNL     1     -12.178  13.809  70.306  1.00  0.00    -0.359 A  
HETATM   14  N   UNL     1     -12.493  12.592  70.770  1.00  0.00    -0.325 NA 
HETATM   15  C   UNL     1     -13.277  12.564  71.897  1.00  0.00    -0.392 C  
HETATM   16  N   UNL     1     -13.725  13.585  72.564  1.00  0.00    -0.591 N  
HETATM   17  H   UNL     1     -14.298  13.443  73.396  1.00  0.00     0.000 HD 
HETATM   18  C   UNL     1     -13.418  14.884  72.132  1.00  0.00    -0.393 C  
HETATM   19  O   UNL     1     -13.797  15.883  72.733  1.00  0.00    -0.584 OA 
ENDBRANCH   7   9
ENDBRANCH   2   4
TORSDOF 2
ENDMDL
MODEL       23
REMARK 921   NORMALIZED FREE ENERGY PREDICTED BY IDOCK:   -5.70 KCAL/MOL
REMARK 922        TOTAL FREE ENERGY PREDICTED BY IDOCK:   -6.66 KCAL/MOL
REMARK 923 INTER-LIGAND FREE ENERGY PREDICTED BY IDOCK:   -6.28 KCAL/MOL
REMARK 924 INTRA-LIGAND FREE ENERGY PREDICTED BY IDOCK:   -0.38 KCAL/MOL
REMARK 927      BINDING AFFINITY PREDICTED BY RF-SCORE:    0.00 PKD
ROOT
HETATM    1  O   UNL     1     -13.246  12.687  64.603  1.00  0.00    -0.828 OA 
HETATM    2  C   UNL     1     -12.455  12.308  63.475  1.00  0.00    -0.534 C  
HETATM    3  H   UNL     1     -14.157  12.470  64.442  1.00  0.00     0.000 HD 
ENDROOT
BRANCH   2   4
HETATM    4  C   UNL     1     -10.983  12.659  63.736  1.00  0.00    -0.435 C  
HETATM    5  C   UNL     1     -10.064  11.452  63.673  1.00  0.00    -0.421 C  
HETATM    6  C   UNL     1      -9.986  10.991  65.109  1.00  0.00    -0.333 C  
HETATM    7  C   UNL     1     -10.127  12.283  65.898  1.00  0.00    -0.251 C  
HETATM    8  O   UNL     1     -10.837  13.213  65.057  1.00  0.00    -0.292 OA 
BRANCH   7   9
HETATM    9  N   UNL     1     -10.829  12.118  67.157  1.00  0.00    -0.235 NA 
HETATM   10  C   UNL     1     -11.521  10.987  67.532  1.00  0.00    -0.185 A  
HETATM   11  N   UNL     1     -12.094  11.121  68.714  1.00  0.00    -0.552 NA 
HETATM   12  C   UNL     1     -11.741  12.384  69.143  1.00  0.00    -0.322 A  
HETATM   13  C   UNL     1     -10.964  12.988  68.190  1.00  0.00    -0.244 A  
HETATM   14  N   UNL     1     -10.464  14.222  68.344  1.00  0.00    -0.242 NA 
HETATM   15  C   UNL     1     -10.769  14.851  69.526  1.00  0.00    -0.244 C  
HETATM   16  N   UNL     1     -11.500  14.384  70.494  1.00  0.00    -0.479 N  
HETATM   17  H   UNL     1     -11.665  14.946  71.329  1.00  0.00     0.000 HD 
HETATM   18  C   UNL     1     -12.060  13.102  70.384  1.00  0.00    -0.317 C  
HETATM   19  O   UNL     1     -12.773  12.620  71.256  1.00  0.00    -0.364 OA 
ENDBRANCH   7   9
ENDBRANCH   2   4
TORSDOF 2
ENDMDL
MODEL       24
REMARK 921   NORMALIZED FREE ENERGY PREDICTED BY IDOCK:   -5.69 KCAL/MOL
REMARK 922        TOTAL FREE ENERGY PREDICTED BY IDOCK:   -6.66 KCAL/MOL
REMARK 923 INTER-LIGAND FREE ENERGY PREDICTED BY IDOCK:   -6.30 KCAL/MOL
REMARK 924 INTRA-LIGAND FREE ENERGY PREDICTED BY IDOCK:   -0.36 KCAL/MOL
REMARK 927      BINDING AFFINITY PREDICTED BY RF-SCORE:    0.00 PKD
ROOT
HETATM    1  O   UNL     1     -13.285  12.499  64.600  1.00  0.00    -0.848 OA 
HETATM    2  C   UNL     1     -12.566  11.986  63.478  1.00  0.00    -0.507 C  
HETATM    3  H   UNL     1     -14.145  12.098  64.639  1.00  0.00     0.000 HD 
ENDROOT
BRANCH   2   4
HETATM    4  C   UNL     1     -11.175  12.635  63.414  1.00  0.00    -0.344 C  
HETATM    5  C   UNL     1     -10.055  11.676  63.774  1.00  0.00    -0.416 C  
HETATM    6  C   UNL     1      -9.857  11.901  65.253  1.00  0.00    -0.255 C  
HETATM    7  C   UNL     1     -10.210  13.369  65.433  1.00  0.00    -0.298 C  
HETATM    8  O   UNL     1     -11.098  13.722  64.356  1.00  0.00    -0.379 OA 
BRANCH   7   9
HETATM    9  N   UNL     1     -10.837  13.660  66.710  1.00  0.00    -0.289 NA 
HETATM   10  C   UNL     1     -11.533  12.749  67.473  1.00  0.00    -0.336 A  
HETATM   11  N   UNL     1     -12.028  13.292  68.570  1.00  0.00    -0.340 NA 
HETATM   12  C   UNL     1     -11.617  14.608  68.536  1.00  0.00    -0.317 A  
HETATM   13  C   UNL     1     -10.885  14.829  67.400  1.00  0.00    -0.300 A  
HETATM   14  N   UNL     1     -10.344  16.020  67.109  1.00  0.00    -0.290 NA 
HETATM   15  C   UNL     1     -10.560  17.017  68.029  1.00  0.00    -0.373 C  
HETATM   16  N   UNL     1     -11.241  16.929  69.132  1.00  0.00    -0.235 N  
HETATM   17  H   UNL     1     -11.340  17.743  69.740  1.00  0.00     0.000 HD 
HETATM   18  C   UNL     1     -11.841  15.710  69.482  1.00  0.00    -0.372 C  
HETATM   19  O   UNL     1     -12.510  15.576  70.500  1.00  0.00    -0.399 OA 
ENDBRANCH   7   9
ENDBRANCH   2   4
TORSDOF 2
ENDMDL
MODEL       25
REMARK 921   NORMALIZED FREE ENERGY PREDICTED BY IDOCK:   -5.68 KCAL/MOL
REMARK 922        TOTAL FREE ENERGY PREDICTED BY IDOCK:   -6.65 KCAL/MOL
REMARK 923 INTER-LIGAND FREE ENERGY PREDICTED BY IDOCK:   -6.34 KCAL/MOL
REMARK 924 INTRA-LIGAND FREE ENERGY PREDICTED BY IDOCK:   -0.31 KCAL/MOL
REMARK 927      BINDING AFFINITY PREDICTED BY RF-SCORE:    0.00 PKD
ROOT
HETATM    1  O   UNL     1     -12.894  10.426  69.657  1.00  0.00    -0.633 OA 
HETATM    2  C   UNL     1     -11.542  10.762  69.974  1.00  0.00    -0.334 C  
HETATM    3  H   UNL     1     -13.481  10.841  70.277  1.00  0.00     0.000 HD 
ENDROOT
BRANCH   2   4
HETATM    4  C   UNL     1     -10.593  10.090  68.971  1.00  0.00    -0.214 C  
HETATM    5  C   UNL     1      -9.133  10.425  69.218  1.00  0.00    -0.188 C  
HETATM    6  C   UNL     1      -8.886  11.617  68.326  1.00  0.00    -0.167 C  
HETATM    7  C   UNL     1      -9.823  11.375  67.153  1.00  0.00    -0.190 C  
HETATM    8  O   UNL     1     -10.892  10.539  67.636  1.00  0.00    -0.256 OA 
BRANCH   7   9
HETATM    9  N   UNL     1     -10.365  12.596  66.584  1.00  0.00    -0.235 NA 
HETATM   10  C   UNL     1     -10.242  13.849  67.143  1.00  0.00    -0.258 A  
HETATM   11  N   UNL     1     -10.860  14.775  66.433  1.00  0.00    -0.316 NA 
HETATM   12  C   UNL     1     -11.390  14.102  65.351  1.00  0.00    -0.322 A  
HETATM   13  C   UNL     1     -11.081  12.771  65.444  1.00  0.00    -0.284 A  
HETATM   14  N   UNL     1     -11.456  11.877  64.519  1.00  0.00    -0.317 NA 
HETATM   15  C   UNL     1     -12.168  12.376  63.456  1.00  0.00    -0.563 C  
HETATM   16  N   UNL     1     -12.527  13.611  63.265  1.00  0.00    -1.048 N  
HETATM   17  H   UNL     1     -13.063  13.866  62.436  1.00  0.00     0.000 HD 
HETATM   18  C   UNL     1     -12.172  14.589  64.206  1.00  0.00    -0.415 C  
HETATM   19  O   UNL     1     -12.500  15.764  64.087  1.00  0.00    -0.599 OA 
ENDBRANCH   7   9
ENDBRANCH   2   4
TORSDOF 2
ENDMDL
MODEL       26
REMARK 921   NORMALIZED FREE ENERGY PREDICTED BY IDOCK:   -5.67 KCAL/MOL
REMARK 922        TOTAL FREE ENERGY PREDICTED BY IDOCK:   -6.63 KCAL/MOL
REMARK 923 INTER-LIGAND FREE ENERGY PREDICTED BY IDOCK:   -6.75 KCAL/MOL
REMARK 924 INTRA-LIGAND FREE ENERGY PREDICTED BY IDOCK:    0.13 KCAL/MOL
REMARK 927      BINDING AFFINITY PREDICTED BY RF-SCORE:    0.00 PKD
ROOT
HETATM    1  O   UNL     1     -13.432  13.989  71.331  1.00  0.00    -0.335 OA 
HETATM    2  C   UNL     1     -13.021  15.223  70.741  1.00  0.00    -0.436 C  
HETATM    3  H   UNL     1     -14.375  13.985  71.441  1.00  0.00     0.000 HD 
ENDROOT
BRANCH   2   4
HETATM    4  C   UNL     1     -11.496  15.230  70.564  1.00  0.00    -0.310 C  
HETATM    5  C   UNL     1     -10.986  16.467  69.847  1.00  0.00    -0.339 C  
HETATM    6  C   UNL     1     -10.938  16.044  68.399  1.00  0.00    -0.331 C  
HETATM    7  C   UNL     1     -10.627  14.558  68.480  1.00  0.00    -0.252 C  
HETATM    8  O   UNL     1     -11.091  14.101  69.765  1.00  0.00    -0.201 OA 
BRANCH   7   9
HETATM    9  N   UNL     1     -11.248  13.779  67.424  1.00  0.00    -0.299 NA 
HETATM   10  C   UNL     1     -11.666  12.472  67.548  1.00  0.00    -0.374 A  
HETATM   11  N   UNL     1     -12.164  11.998  66.421  1.00  0.00    -0.393 NA 
HETATM   12  C   UNL     1     -12.092  13.047  65.528  1.00  0.00    -0.452 A  
HETATM   13  C   UNL     1     -11.536  14.135  66.146  1.00  0.00    -0.370 A  
HETATM   14  N   UNL     1     -11.355  15.306  65.519  1.00  0.00    -0.273 NA 
HETATM   15  C   UNL     1     -11.771  15.357  64.211  1.00  0.00    -0.206 C  
HETATM   16  N   UNL     1     -12.300  14.392  63.521  1.00  0.00    -1.114 N  
HETATM   17  H   UNL     1     -12.567  14.544  62.548  1.00  0.00     0.000 HD 
HETATM   18  C   UNL     1     -12.503  13.140  64.120  1.00  0.00    -0.274 C  
HETATM   19  O   UNL     1     -12.979  12.190  63.511  1.00  0.00    -0.794 OA 
ENDBRANCH   7   9
ENDBRANCH   2   4
TORSDOF 2
ENDMDL
MODEL       27
REMARK 921   NORMALIZED FREE ENERGY PREDICTED BY IDOCK:   -5.67 KCAL/MOL
REMARK 922        TOTAL FREE ENERGY PREDICTED BY IDOCK:   -6.63 KCAL/MOL
REMARK 923 INTER-LIGAND FREE ENERGY PREDICTED BY IDOCK:   -6.32 KCAL/MOL
REMARK 924 INTRA-LIGAND FREE ENERGY PREDICTED BY IDOCK:   -0.31 KCAL/MOL
REMARK 927      BINDING AFFINITY PREDICTED BY RF-SCORE:    0.00 PKD
ROOT
HETATM    1  O   UNL     1     -11.271  14.299  70.781  1.00  0.00    -0.511 OA 
HETATM    2  C   UNL     1     -11.094  15.443  69.945  1.00  0.00    -0.293 C  
HETATM    3  H   UNL     1     -12.101  14.362  71.238  1.00  0.00     0.000 HD 
ENDROOT
BRANCH   2   4
HETATM    4  C   UNL     1      -9.751  15.341  69.206  1.00  0.00    -0.254 C  
HETATM    5  C   UNL     1      -9.392  16.607  68.450  1.00  0.00    -0.224 C  
HETATM    6  C   UNL     1      -9.931  16.357  67.062  1.00  0.00    -0.261 C  
HETATM    7  C   UNL     1      -9.797  14.851  66.902  1.00  0.00    -0.240 C  
HETATM    8  O   UNL     1      -9.810  14.286  68.227  1.00  0.00    -0.221 OA 
BRANCH   7   9
HETATM    9  N   UNL     1     -10.853  14.259  66.101  1.00  0.00    -0.305 NA 
HETATM   10  C   UNL     1     -12.188  14.587  66.188  1.00  0.00    -0.251 A  
HETATM   11  N   UNL     1     -12.933  13.870  65.367  1.00  0.00    -0.748 NA 
HETATM   12  C   UNL     1     -12.045  13.056  64.696  1.00  0.00    -0.409 A  
HETATM   13  C   UNL     1     -10.773  13.300  65.144  1.00  0.00    -0.322 A  
HETATM   14  N   UNL     1      -9.702  12.660  64.657  1.00  0.00    -0.002 NA 
HETATM   15  C   UNL     1      -9.950  11.741  63.666  1.00  0.00    -0.381 C  
HETATM   16  N   UNL     1     -11.107  11.420  63.170  1.00  0.00    -0.843 N  
HETATM   17  H   UNL     1     -11.172  10.714  62.436  1.00  0.00     0.000 HD 
HETATM   18  C   UNL     1     -12.266  12.048  63.649  1.00  0.00    -0.538 C  
HETATM   19  O   UNL     1     -13.384  11.770  63.232  1.00  0.00    -0.510 OA 
ENDBRANCH   7   9
ENDBRANCH   2   4
TORSDOF 2
ENDMDL
MODEL       28
REMARK 921   NORMALIZED FREE ENERGY PREDICTED BY IDOCK:   -5.65 KCAL/MOL
REMARK 922        TOTAL FREE ENERGY PREDICTED BY IDOCK:   -6.61 KCAL/MOL
REMARK 923 INTER-LIGAND FREE ENERGY PREDICTED BY IDOCK:   -6.29 KCAL/MOL
REMARK 924 INTRA-LIGAND FREE ENERGY PREDICTED BY IDOCK:   -0.32 KCAL/MOL
REMARK 927      BINDING AFFINITY PREDICTED BY RF-SCORE:    0.00 PKD
ROOT
HETATM    1  O   UNL     1     -12.377  11.483  62.908  1.00  0.00    -0.958 OA 
HETATM    2  C   UNL     1     -11.538  12.557  63.334  1.00  0.00    -0.473 C  
HETATM    3  H   UNL     1     -11.909  10.937  62.289  1.00  0.00     0.000 HD 
ENDROOT
BRANCH   2   4
HETATM    4  C   UNL     1     -12.296  13.441  64.336  1.00  0.00    -0.341 C  
HETATM    5  C   UNL     1     -11.439  14.550  64.917  1.00  0.00    -0.396 C  
HETATM    6  C   UNL     1     -10.893  13.948  66.188  1.00  0.00    -0.290 C  
HETATM    7  C   UNL     1     -12.000  13.005  66.631  1.00  0.00    -0.387 C  
HETATM    8  O   UNL     1     -12.742  12.645  65.450  1.00  0.00    -0.635 OA 
BRANCH   7   9
HETATM    9  N   UNL     1     -11.511  11.809  67.293  1.00  0.00    -0.449 NA 
HETATM   10  C   UNL     1     -10.778  10.814  66.684  1.00  0.00    -0.207 A  
HETATM   11  N   UNL     1     -10.495   9.825  67.511  1.00  0.00    -0.235 NA 
HETATM   12  C   UNL     1     -11.043  10.201  68.720  1.00  0.00    -0.203 A  
HETATM   13  C   UNL     1     -11.660  11.416  68.584  1.00  0.00    -0.320 A  
HETATM   14  N   UNL     1     -12.269  12.034  69.605  1.00  0.00    -0.194 NA 
HETATM   15  C   UNL     1     -12.234  11.378  70.811  1.00  0.00    -0.376 C  
HETATM   16  N   UNL     1     -11.691  10.224  71.058  1.00  0.00    -0.369 N  
HETATM   17  H   UNL     1     -11.731   9.829  71.997  1.00  0.00     0.000 HD 
HETATM   18  C   UNL     1     -11.049   9.524  70.025  1.00  0.00    -0.237 C  
HETATM   19  O   UNL     1     -10.537   8.424  70.196  1.00  0.00    -0.224 OA 
ENDBRANCH   7   9
ENDBRANCH   2   4
TORSDOF 2
ENDMDL
MODEL       29
REMARK 921   NORMALIZED FREE ENERGY PREDICTED BY IDOCK:   -5.60 KCAL/MOL
REMARK 922        TOTAL FREE ENERGY PREDICTED BY IDOCK:   -6.56 KCAL/MOL
REMARK 923 INTER-LIGAND FREE ENERGY PREDICTED BY IDOCK:   -6.38 KCAL/MOL
REMARK 924 INTRA-LIGAND FREE ENERGY PREDICTED BY IDOCK:   -0.17 KCAL/MOL
REMARK 927      BINDING AFFINITY PREDICTED BY RF-SCORE:    0.00 PKD
ROOT
HETATM    1  O   UNL     1     -12.421  14.139  63.254  1.00  0.00    -1.146 OA 
HETATM    2  C   UNL     1     -12.147  12.741  63.361  1.00  0.00    -0.534 C  
HETATM    3  H   UNL     1     -13.332  14.269  63.021  1.00  0.00     0.000 HD 
ENDROOT
BRANCH   2   4
HETATM    4  C   UNL     1     -10.673  12.530  63.738  1.00  0.00    -0.445 C  
HETATM    5  C   UNL     1     -10.314  11.070  63.938  1.00  0.00    -0.436 C  
HETATM    6  C   UNL     1     -10.502  10.858  65.421  1.00  0.00    -0.291 C  
HETATM    7  C   UNL     1     -10.154  12.214  66.014  1.00  0.00    -0.235 C  
HETATM    8  O   UNL     1     -10.386  13.194  64.984  1.00  0.00    -0.317 OA 
BRANCH   7   9
HETATM    9  N   UNL     1     -10.928  12.544  67.196  1.00  0.00    -0.253 NA 
HETATM   10  C   UNL     1     -11.693  13.679  67.347  1.00  0.00    -0.381 A  
HETATM   11  N   UNL     1     -12.264  13.743  68.536  1.00  0.00    -0.279 NA 
HETATM   12  C   UNL     1     -11.875  12.587  69.182  1.00  0.00    -0.296 A  
HETATM   13  C   UNL     1     -11.063  11.854  68.358  1.00  0.00    -0.244 A  
HETATM   14  N   UNL     1     -10.545  10.672  68.720  1.00  0.00    -0.193 NA 
HETATM   15  C   UNL     1     -10.886  10.227  69.974  1.00  0.00    -0.307 C  
HETATM   16  N   UNL     1     -11.636  10.835  70.843  1.00  0.00    -0.343 N  
HETATM   17  H   UNL     1     -11.817  10.409  71.752  1.00  0.00     0.000 HD 
HETATM   18  C   UNL     1     -12.195  12.082  70.524  1.00  0.00    -0.325 C  
HETATM   19  O   UNL     1     -12.894  12.709  71.312  1.00  0.00    -0.355 OA 
ENDBRANCH   7   9
ENDBRANCH   2   4
TORSDOF 2
ENDMDL
MODEL       30
REMARK 921   NORMALIZED FREE ENERGY PREDICTED BY IDOCK:   -5.58 KCAL/MOL
REMARK 922        TOTAL FREE ENERGY PREDICTED BY IDOCK:   -6.53 KCAL/MOL
REMARK 923 INTER-LIGAND FREE ENERGY PREDICTED BY IDOCK:   -6.08 KCAL/MOL
REMARK 924 INTRA-LIGAND FREE ENERGY PREDICTED BY IDOCK:   -0.45 KCAL/MOL
REMARK 927      BINDING AFFINITY PREDICTED BY RF-SCORE:    0.00 PKD
ROOT
HETATM    1  O   UNL     1      -9.152  10.205  64.813  1.00  0.00    -0.184 OA 
HETATM    2  C   UNL     1      -9.867   9.354  65.710  1.00  0.00    -0.275 C  
HETATM    3  H   UNL     1      -9.320   9.939  63.917  1.00  0.00     0.000 HD 
ENDROOT
BRANCH   2   4
HETATM    4  C   UNL     1      -9.595   9.784  67.159  1.00  0.00    -0.169 C  
HETATM    5  C   UNL     1     -10.776   9.545  68.082  1.00  0.00    -0.247 C  
HETATM    6  C   UNL     1     -11.519  10.858  68.057  1.00  0.00    -0.356 C  
HETATM    7  C   UNL     1     -10.412  11.881  67.856  1.00  0.00    -0.204 C  
HETATM    8  O   UNL     1      -9.322  11.198  67.208  1.00  0.00    -0.159 OA 
BRANCH   7   9
HETATM    9  N   UNL     1     -10.820  13.027  67.064  1.00  0.00    -0.258 NA 
HETATM   10  C   UNL     1     -10.713  14.341  67.465  1.00  0.00    -0.270 A  
HETATM   11  N   UNL     1     -11.193  15.178  66.563  1.00  0.00    -0.322 NA 
HETATM   12  C   UNL     1     -11.607  14.379  65.517  1.00  0.00    -0.347 A  
HETATM   13  C   UNL     1     -11.374  13.066  65.825  1.00  0.00    -0.301 A  
HETATM   14  N   UNL     1     -11.667  12.064  64.984  1.00  0.00    -0.298 NA 
HETATM   15  C   UNL     1     -12.212  12.433  63.779  1.00  0.00    -0.533 C  
HETATM   16  N   UNL     1     -12.487  13.640  63.381  1.00  0.00    -1.016 N  
HETATM   17  H   UNL     1     -12.899  13.795  62.461  1.00  0.00     0.000 HD 
HETATM   18  C   UNL     1     -12.213  14.727  64.224  1.00  0.00    -0.379 C  
HETATM   19  O   UNL     1     -12.469  15.883  63.909  1.00  0.00    -0.760 OA 
ENDBRANCH   7   9
ENDBRANCH   2   4
TORSDOF 2
ENDMDL
MODEL       31
REMARK 921   NORMALIZED FREE ENERGY PREDICTED BY IDOCK:   -5.57 KCAL/MOL
REMARK 922        TOTAL FREE ENERGY PREDICTED BY IDOCK:   -6.52 KCAL/MOL
REMARK 923 INTER-LIGAND FREE ENERGY PREDICTED BY IDOCK:   -6.20 KCAL/MOL
REMARK 924 INTRA-LIGAND FREE ENERGY PREDICTED BY IDOCK:   -0.32 KCAL/MOL
REMARK 927      BINDING AFFINITY PREDICTED BY RF-SCORE:    0.00 PKD
ROOT
HETATM    1  O   UNL     1      -8.646  11.131  64.263  1.00  0.00    -0.375 OA 
HETATM    2  C   UNL     1      -9.681  11.702  63.461  1.00  0.00    -0.322 C  
HETATM    3  H   UNL     1      -7.806  11.253  63.836  1.00  0.00     0.000 HD 
ENDROOT
BRANCH   2   4
HETATM    4  C   UNL     1     -11.039  11.504  64.151  1.00  0.00    -0.344 C  
HETATM    5  C   UNL     1     -12.206  12.006  63.321  1.00  0.00    -0.531 C  
HETATM    6  C   UNL     1     -12.406  13.420  63.808  1.00  0.00    -0.418 C  
HETATM    7  C   UNL     1     -11.986  13.349  65.268  1.00  0.00    -0.380 C  
HETATM    8  O   UNL     1     -11.072  12.241  65.388  1.00  0.00    -0.293 OA 
BRANCH   7   9
HETATM    9  N   UNL     1     -11.356  14.565  65.749  1.00  0.00    -0.332 NA 
HETATM   10  C   UNL     1     -10.691  15.476  64.957  1.00  0.00    -0.441 A  
HETATM   11  N   UNL     1     -10.185  16.473  65.659  1.00  0.00    -0.535 NA 
HETATM   12  C   UNL     1     -10.557  16.217  66.963  1.00  0.00    -0.284 A  
HETATM   13  C   UNL     1     -11.277  15.053  67.013  1.00  0.00    -0.328 A  
HETATM   14  N   UNL     1     -11.780  14.564  68.155  1.00  0.00    -0.331 NA 
HETATM   15  C   UNL     1     -11.539  15.309  69.284  1.00  0.00    -0.332 C  
HETATM   16  N   UNL     1     -10.866  16.417  69.361  1.00  0.00    -0.314 N  
HETATM   17  H   UNL     1     -10.746  16.883  70.260  1.00  0.00     0.000 HD 
HETATM   18  C   UNL     1     -10.305  16.970  68.200  1.00  0.00    -0.347 C  
HETATM   19  O   UNL     1      -9.645  18.002  68.217  1.00  0.00    -0.291 OA 
ENDBRANCH   7   9
ENDBRANCH   2   4
TORSDOF 2
ENDMDL
MODEL       32
REMARK 921   NORMALIZED FREE ENERGY PREDICTED BY IDOCK:   -5.54 KCAL/MOL
REMARK 922        TOTAL FREE ENERGY PREDICTED BY IDOCK:   -6.49 KCAL/MOL
REMARK 923 INTER-LIGAND FREE ENERGY PREDICTED BY IDOCK:   -6.49 KCAL/MOL
REMARK 924 INTRA-LIGAND FREE ENERGY PREDICTED BY IDOCK:    0.00 KCAL/MOL
REMARK 927      BINDING AFFINITY PREDICTED BY RF-SCORE:    0.00 PKD
ROOT
HETATM    1  O   UNL     1      -7.652  11.087  70.161  1.00  0.00    -0.370 OA 
HETATM    2  C   UNL     1      -8.325  11.083  68.901  1.00  0.00    -0.123 C  
HETATM    3  H   UNL     1      -6.790  11.473  70.063  1.00  0.00     0.000 HD 
ENDROOT
BRANCH   2   4
HETATM    4  C   UNL     1      -9.719  10.459  69.060  1.00  0.00    -0.206 C  
HETATM    5  C   UNL     1     -10.040   9.438  67.985  1.00  0.00    -0.230 C  
HETATM    6  C   UNL     1     -10.757  10.246  66.930  1.00  0.00    -0.252 C  
HETATM    7  C   UNL     1     -11.467  11.320  67.738  1.00  0.00    -0.275 C  
HETATM    8  O   UNL     1     -10.727  11.483  68.963  1.00  0.00    -0.208 OA 
BRANCH   7   9
HETATM    9  N   UNL     1     -11.567  12.593  67.045  1.00  0.00    -0.346 NA 
HETATM   10  C   UNL     1     -11.333  13.823  67.618  1.00  0.00    -0.304 A  
HETATM   11  N   UNL     1     -11.530  14.815  66.769  1.00  0.00    -0.353 NA 
HETATM   12  C   UNL     1     -11.883  14.206  65.582  1.00  0.00    -0.375 A  
HETATM   13  C   UNL     1     -11.899  12.847  65.754  1.00  0.00    -0.419 A  
HETATM   14  N   UNL     1     -12.197  11.998  64.760  1.00  0.00    -0.308 NA 
HETATM   15  C   UNL     1     -12.478  12.573  63.545  1.00  0.00    -0.459 C  
HETATM   16  N   UNL     1     -12.502  13.842  63.266  1.00  0.00    -1.092 N  
HETATM   17  H   UNL     1     -12.732  14.155  62.323  1.00  0.00     0.000 HD 
HETATM   18  C   UNL     1     -12.211  14.778  64.269  1.00  0.00    -0.379 C  
HETATM   19  O   UNL     1     -12.238  15.986  64.068  1.00  0.00    -0.792 OA 
ENDBRANCH   7   9
ENDBRANCH   2   4
TORSDOF 2
ENDMDL
MODEL       33
REMARK 921   NORMALIZED FREE ENERGY PREDICTED BY IDOCK:   -5.53 KCAL/MOL
REMARK 922        TOTAL FREE ENERGY PREDICTED BY IDOCK:   -6.47 KCAL/MOL
REMARK 923 INTER-LIGAND FREE ENERGY PREDICTED BY IDOCK:   -6.18 KCAL/MOL
REMARK 924 INTRA-LIGAND FREE ENERGY PREDICTED BY IDOCK:   -0.30 KCAL/MOL
REMARK 927      BINDING AFFINITY PREDICTED BY RF-SCORE:    0.00 PKD
ROOT
HETATM    1  O   UNL     1     -10.900   5.818  70.704  1.00  0.00    -0.275 OA 
HETATM    2  C   UNL     1     -11.909   6.803  70.474  1.00  0.00    -0.362 C  
HETATM    3  H   UNL     1     -10.552   5.517  69.873  1.00  0.00     0.000 HD 
ENDROOT
BRANCH   2   4
HETATM    4  C   UNL     1     -12.472   7.290  71.817  1.00  0.00    -0.343 C  
HETATM    5  C   UNL     1     -13.986   7.396  71.823  1.00  0.00    -0.469 C  
HETATM    6  C   UNL     1     -14.243   8.833  71.438  1.00  0.00    -0.293 C  
HETATM    7  C   UNL     1     -13.041   9.567  72.011  1.00  0.00    -0.438 C  
HETATM    8  O   UNL     1     -11.971   8.609  72.109  1.00  0.00    -0.343 OA 
BRANCH   7   9
HETATM    9  N   UNL     1     -12.620  10.701  71.207  1.00  0.00    -0.394 NA 
HETATM   10  C   UNL     1     -11.838  10.619  70.076  1.00  0.00    -0.322 A  
HETATM   11  N   UNL     1     -11.577  11.806  69.562  1.00  0.00    -0.310 NA 
HETATM   12  C   UNL     1     -12.238  12.703  70.377  1.00  0.00    -0.288 A  
HETATM   13  C   UNL     1     -12.878  12.022  71.379  1.00  0.00    -0.288 A  
HETATM   14  N   UNL     1     -13.613  12.639  72.315  1.00  0.00    -0.515 NA 
HETATM   15  C   UNL     1     -13.697  14.006  72.207  1.00  0.00    -0.548 C  
HETATM   16  N   UNL     1     -13.129  14.756  71.311  1.00  0.00    -0.346 N  
HETATM   17  H   UNL     1     -13.258  15.768  71.333  1.00  0.00     0.000 HD 
HETATM   18  C   UNL     1     -12.338  14.167  70.313  1.00  0.00    -0.356 C  
HETATM   19  O   UNL     1     -11.763  14.827  69.456  1.00  0.00    -0.286 OA 
ENDBRANCH   7   9
ENDBRANCH   2   4
TORSDOF 2
ENDMDL
MODEL       34
REMARK 921   NORMALIZED FREE ENERGY PREDICTED BY IDOCK:   -5.49 KCAL/MOL
REMARK 922        TOTAL FREE ENERGY PREDICTED BY IDOCK:   -6.43 KCAL/MOL
REMARK 923 INTER-LIGAND FREE ENERGY PREDICTED BY IDOCK:   -6.10 KCAL/MOL
REMARK 924 INTRA-LIGAND FREE ENERGY PREDICTED BY IDOCK:   -0.33 KCAL/MOL
REMARK 927      BINDING AFFINITY PREDICTED BY RF-SCORE:    0.00 PKD
ROOT
HETATM    1  O   UNL     1     -11.532   6.531  66.744  1.00  0.00    -0.774 OA 
HETATM    2  C   UNL     1     -10.632   6.882  67.796  1.00  0.00    -0.244 C  
HETATM    3  H   UNL     1     -12.341   6.196  67.114  1.00  0.00     0.000 HD 
ENDROOT
BRANCH   2   4
HETATM    4  C   UNL     1      -9.324   7.423  67.198  1.00  0.00    -0.142 C  
HETATM    5  C   UNL     1      -8.404   8.035  68.238  1.00  0.00    -0.123 C  
HETATM    6  C   UNL     1      -8.768   9.499  68.218  1.00  0.00    -0.120 C  
HETATM    7  C   UNL     1      -9.182   9.736  66.774  1.00  0.00    -0.148 C  
HETATM    8  O   UNL     1      -9.615   8.466  66.249  1.00  0.00    -0.223 OA 
BRANCH   7   9
HETATM    9  N   UNL     1     -10.240  10.719  66.630  1.00  0.00    -0.225 NA 
HETATM   10  C   UNL     1     -11.148  11.052  67.611  1.00  0.00    -0.300 A  
HETATM   11  N   UNL     1     -12.023  11.950  67.198  1.00  0.00    -0.603 NA 
HETATM   12  C   UNL     1     -11.656  12.237  65.899  1.00  0.00    -0.393 A  
HETATM   13  C   UNL     1     -10.563  11.486  65.557  1.00  0.00    -0.281 A  
HETATM   14  N   UNL     1      -9.980  11.568  64.353  1.00  0.00    -0.256 NA 
HETATM   15  C   UNL     1     -10.540  12.463  63.475  1.00  0.00    -0.413 C  
HETATM   16  N   UNL     1     -11.576  13.219  63.683  1.00  0.00    -0.655 N  
HETATM   17  H   UNL     1     -11.909  13.846  62.950  1.00  0.00     0.000 HD 
HETATM   18  C   UNL     1     -12.235  13.167  64.920  1.00  0.00    -0.428 C  
HETATM   19  O   UNL     1     -13.228  13.842  65.164  1.00  0.00    -0.768 OA 
ENDBRANCH   7   9
ENDBRANCH   2   4
TORSDOF 2
ENDMDL
MODEL       35
REMARK 921   NORMALIZED FREE ENERGY PREDICTED BY IDOCK:   -5.48 KCAL/MOL
REMARK 922        TOTAL FREE ENERGY PREDICTED BY IDOCK:   -6.41 KCAL/MOL
REMARK 923 INTER-LIGAND FREE ENERGY PREDICTED BY IDOCK:   -6.45 KCAL/MOL
REMARK 924 INTRA-LIGAND FREE ENERGY PREDICTED BY IDOCK:    0.04 KCAL/MOL
REMARK 927      BINDING AFFINITY PREDICTED BY RF-SCORE:    0.00 PKD
ROOT
HETATM    1  O   UNL     1     -11.595  16.248  63.813  1.00  0.00    -1.539 OA 
HETATM    2  C   UNL     1     -11.147  15.461  64.917  1.00  0.00    -0.423 C  
HETATM    3  H   UNL     1     -12.052  15.695  63.190  1.00  0.00     0.000 HD 
ENDROOT
BRANCH   2   4
HETATM    4  C   UNL     1     -10.408  16.356  65.924  1.00  0.00    -0.362 C  
HETATM    5  C   UNL     1      -8.953  15.968  66.108  1.00  0.00    -0.381 C  
HETATM    6  C   UNL     1      -8.982  15.028  67.289  1.00  0.00    -0.212 C  
HETATM    7  C   UNL     1     -10.142  15.551  68.122  1.00  0.00    -0.218 C  
HETATM    8  O   UNL     1     -11.025  16.246  67.221  1.00  0.00    -0.264 OA 
BRANCH   7   9
HETATM    9  N   UNL     1     -10.868  14.507  68.822  1.00  0.00    -0.240 NA 
HETATM   10  C   UNL     1     -11.506  14.665  70.032  1.00  0.00    -0.265 A  
HETATM   11  N   UNL     1     -12.057  13.543  70.457  1.00  0.00    -0.352 NA 
HETATM   12  C   UNL     1     -11.790  12.617  69.470  1.00  0.00    -0.312 A  
HETATM   13  C   UNL     1     -11.067  13.211  68.470  1.00  0.00    -0.266 A  
HETATM   14  N   UNL     1     -10.676  12.550  67.372  1.00  0.00    -0.225 NA 
HETATM   15  C   UNL     1     -11.053  11.231  67.299  1.00  0.00    -0.305 C  
HETATM   16  N   UNL     1     -11.727  10.561  68.185  1.00  0.00    -0.438 N  
HETATM   17  H   UNL     1     -11.946   9.577  68.026  1.00  0.00     0.000 HD 
HETATM   18  C   UNL     1     -12.153  11.197  69.360  1.00  0.00    -0.326 C  
HETATM   19  O   UNL     1     -12.774  10.609  70.237  1.00  0.00    -0.319 OA 
ENDBRANCH   7   9
ENDBRANCH   2   4
TORSDOF 2
ENDMDL
MODEL       36
REMARK 921   NORMALIZED FREE ENERGY PREDICTED BY IDOCK:   -5.47 KCAL/MOL
REMARK 922        TOTAL FREE ENERGY PREDICTED BY IDOCK:   -6.40 KCAL/MOL
REMARK 923 INTER-LIGAND FREE ENERGY PREDICTED BY IDOCK:   -5.93 KCAL/MOL
REMARK 924 INTRA-LIGAND FREE ENERGY PREDICTED BY IDOCK:   -0.47 KCAL/MOL
REMARK 927      BINDING AFFINITY PREDICTED BY RF-SCORE:    0.00 PKD
ROOT
HETATM    1  O   UNL     1      -7.681  14.340  66.832  1.00  0.00    -0.331 OA 
HETATM    2  C   UNL     1      -7.563  15.318  67.866  1.00  0.00    -0.139 C  
HETATM    3  H   UNL     1      -7.480  13.480  67.180  1.00  0.00     0.000 HD 
ENDROOT
BRANCH   2   4
HETATM    4  C   UNL     1      -7.888  16.709  67.302  1.00  0.00    -0.166 C  
HETATM    5  C   UNL     1      -8.843  17.498  68.179  1.00  0.00    -0.263 C  
HETATM    6  C   UNL     1     -10.201  17.181  67.599  1.00  0.00    -0.329 C  
HETATM    7  C   UNL     1      -9.909  16.974  66.121  1.00  0.00    -0.278 C  
HETATM    8  O   UNL     1      -8.528  16.580  66.017  1.00  0.00    -0.381 OA 
BRANCH   7   9
HETATM    9  N   UNL     1     -10.758  15.974  65.500  1.00  0.00    -0.373 NA 
HETATM   10  C   UNL     1     -11.485  16.163  64.345  1.00  0.00    -0.193 A  
HETATM   11  N   UNL     1     -12.197  15.099  64.023  1.00  0.00    -0.582 NA 
HETATM   12  C   UNL     1     -11.905  14.165  64.995  1.00  0.00    -0.389 A  
HETATM   13  C   UNL     1     -11.021  14.701  65.893  1.00  0.00    -0.332 A  
HETATM   14  N   UNL     1     -10.549  14.012  66.941  1.00  0.00    -0.279 NA 
HETATM   15  C   UNL     1     -10.998  12.719  67.060  1.00  0.00    -0.263 C  
HETATM   16  N   UNL     1     -11.839  12.108  66.280  1.00  0.00    -0.329 N  
HETATM   17  H   UNL     1     -12.107  11.143  66.470  1.00  0.00     0.000 HD 
HETATM   18  C   UNL     1     -12.376  12.784  65.174  1.00  0.00    -0.496 C  
HETATM   19  O   UNL     1     -13.186  12.264  64.417  1.00  0.00    -0.806 OA 
ENDBRANCH   7   9
ENDBRANCH   2   4
TORSDOF 2
ENDMDL
MODEL       37
REMARK 921   NORMALIZED FREE ENERGY PREDICTED BY IDOCK:   -5.46 KCAL/MOL
REMARK 922        TOTAL FREE ENERGY PREDICTED BY IDOCK:   -6.39 KCAL/MOL
REMARK 923 INTER-LIGAND FREE ENERGY PREDICTED BY IDOCK:   -6.03 KCAL/MOL
REMARK 924 INTRA-LIGAND FREE ENERGY PREDICTED BY IDOCK:   -0.36 KCAL/MOL
REMARK 927      BINDING AFFINITY PREDICTED BY RF-SCORE:    0.00 PKD
ROOT
HETATM    1  O   UNL     1     -12.611   8.142  73.075  1.00  0.00    -0.656 OA 
HETATM    2  C   UNL     1     -11.327   8.098  72.450  1.00  0.00    -0.391 C  
HETATM    3  H   UNL     1     -12.513   8.054  74.015  1.00  0.00     0.000 HD 
ENDROOT
BRANCH   2   4
HETATM    4  C   UNL     1     -11.486   8.239  70.929  1.00  0.00    -0.274 C  
HETATM    5  C   UNL     1     -10.226   8.736  70.244  1.00  0.00    -0.220 C  
HETATM    6  C   UNL     1     -10.419  10.232  70.187  1.00  0.00    -0.259 C  
HETATM    7  C   UNL     1     -11.927  10.385  70.063  1.00  0.00    -0.247 C  
HETATM    8  O   UNL     1     -12.517   9.200  70.632  1.00  0.00    -0.086 OA 
BRANCH   7   9
HETATM    9  N   UNL     1     -12.445  11.566  70.730  1.00  0.00    -0.366 NA 
HETATM   10  C   UNL     1     -13.149  11.559  71.913  1.00  0.00    -0.387 A  
HETATM   11  N   UNL     1     -13.530  12.770  72.275  1.00  0.00    -0.558 NA 
HETATM   12  C   UNL     1     -13.032  13.609  71.299  1.00  0.00    -0.322 A  
HETATM   13  C   UNL     1     -12.365  12.869  70.359  1.00  0.00    -0.258 A  
HETATM   14  N   UNL     1     -11.764  13.425  69.298  1.00  0.00    -0.310 NA 
HETATM   15  C   UNL     1     -11.847  14.793  69.209  1.00  0.00    -0.318 C  
HETATM   16  N   UNL     1     -12.457  15.594  70.030  1.00  0.00    -0.518 N  
HETATM   17  H   UNL     1     -12.458  16.600  69.860  1.00  0.00     0.000 HD 
HETATM   18  C   UNL     1     -13.114  15.068  71.153  1.00  0.00    -0.415 C  
HETATM   19  O   UNL     1     -13.721  15.775  71.949  1.00  0.00    -0.444 OA 
ENDBRANCH   7   9
ENDBRANCH   2   4
TORSDOF 2
ENDMDL
MODEL       38
REMARK 921   NORMALIZED FREE ENERGY PREDICTED BY IDOCK:   -5.41 KCAL/MOL
REMARK 922        TOTAL FREE ENERGY PREDICTED BY IDOCK:   -6.34 KCAL/MOL
REMARK 923 INTER-LIGAND FREE ENERGY PREDICTED BY IDOCK:   -6.18 KCAL/MOL
REMARK 924 INTRA-LIGAND FREE ENERGY PREDICTED BY IDOCK:   -0.16 KCAL/MOL
REMARK 927      BINDING AFFINITY PREDICTED BY RF-SCORE:    0.00 PKD
ROOT
HETATM    1  O   UNL     1     -12.302  10.905  68.304  1.00  0.00    -0.730 OA 
HETATM    2  C   UNL     1     -11.106  11.085  67.544  1.00  0.00    -0.302 C  
HETATM    3  H   UNL     1     -12.128  10.336  69.045  1.00  0.00     0.000 HD 
ENDROOT
BRANCH   2   4
HETATM    4  C   UNL     1     -11.388  12.004  66.347  1.00  0.00    -0.354 C  
HETATM    5  C   UNL     1     -10.124  12.485  65.657  1.00  0.00    -0.285 C  
HETATM    6  C   UNL     1      -9.834  13.806  66.329  1.00  0.00    -0.314 C  
HETATM    7  C   UNL     1     -11.217  14.330  66.680  1.00  0.00    -0.334 C  
HETATM    8  O   UNL     1     -12.085  13.185  66.788  1.00  0.00    -0.382 OA 
BRANCH   7   9
HETATM    9  N   UNL     1     -11.249  15.095  67.913  1.00  0.00    -0.318 NA 
HETATM   10  C   UNL     1     -10.794  16.387  68.052  1.00  0.00    -0.342 A  
HETATM   11  N   UNL     1     -10.912  16.828  69.291  1.00  0.00    -0.261 NA 
HETATM   12  C   UNL     1     -11.493  15.788  69.988  1.00  0.00    -0.356 A  
HETATM   13  C   UNL     1     -11.702  14.732  69.141  1.00  0.00    -0.313 A  
HETATM   14  N   UNL     1     -12.267  13.586  69.544  1.00  0.00    -0.280 NA 
HETATM   15  C   UNL     1     -12.638  13.531  70.865  1.00  0.00    -0.337 C  
HETATM   16  N   UNL     1     -12.482  14.460  71.760  1.00  0.00    -0.346 N  
HETATM   17  H   UNL     1     -12.793  14.305  72.719  1.00  0.00     0.000 HD 
HETATM   18  C   UNL     1     -11.885  15.678  71.399  1.00  0.00    -0.421 C  
HETATM   19  O   UNL     1     -11.696  16.581  72.206  1.00  0.00    -0.501 OA 
ENDBRANCH   7   9
ENDBRANCH   2   4
TORSDOF 2
ENDMDL
MODEL       39
REMARK 921   NORMALIZED FREE ENERGY PREDICTED BY IDOCK:   -5.30 KCAL/MOL
REMARK 922        TOTAL FREE ENERGY PREDICTED BY IDOCK:   -6.22 KCAL/MOL
REMARK 923 INTER-LIGAND FREE ENERGY PREDICTED BY IDOCK:   -5.80 KCAL/MOL
REMARK 924 INTRA-LIGAND FREE ENERGY PREDICTED BY IDOCK:   -0.42 KCAL/MOL
REMARK 927      BINDING AFFINITY PREDICTED BY RF-SCORE:    0.00 PKD
ROOT
HETATM    1  O   UNL     1     -10.326   9.347  66.365  1.00  0.00    -0.242 OA 
HETATM    2  C   UNL     1     -10.147  10.700  65.944  1.00  0.00    -0.261 C  
HETATM    3  H   UNL     1      -9.639   8.804  65.998  1.00  0.00     0.000 HD 
ENDROOT
BRANCH   2   4
HETATM    4  C   UNL     1     -11.258  11.578  66.537  1.00  0.00    -0.259 C  
HETATM    5  C   UNL     1     -10.742  12.888  67.103  1.00  0.00    -0.268 C  
HETATM    6  C   UNL     1     -10.504  12.577  68.561  1.00  0.00    -0.246 C  
HETATM    7  C   UNL     1     -11.566  11.534  68.872  1.00  0.00    -0.320 C  
HETATM    8  O   UNL     1     -11.898  10.888  67.628  1.00  0.00    -0.572 OA 
BRANCH   7   9
HETATM    9  N   UNL     1     -11.139  10.546  69.846  1.00  0.00    -0.288 NA 
HETATM   10  C   UNL     1      -9.851  10.077  69.981  1.00  0.00    -0.197 A  
HETATM   11  N   UNL     1      -9.751   9.157  70.922  1.00  0.00    -0.264 NA 
HETATM   12  C   UNL     1     -11.023   9.038  71.444  1.00  0.00    -0.324 A  
HETATM   13  C   UNL     1     -11.868   9.893  70.787  1.00  0.00    -0.330 A  
HETATM   14  N   UNL     1     -13.168  10.000  71.094  1.00  0.00    -0.389 NA 
HETATM   15  C   UNL     1     -13.609   9.203  72.122  1.00  0.00    -0.474 C  
HETATM   16  N   UNL     1     -12.907   8.353  72.809  1.00  0.00    -0.618 N  
HETATM   17  H   UNL     1     -13.345   7.807  73.551  1.00  0.00     0.000 HD 
HETATM   18  C   UNL     1     -11.543   8.188  72.524  1.00  0.00    -0.404 C  
HETATM   19  O   UNL     1     -10.838   7.387  73.126  1.00  0.00    -0.343 OA 
ENDBRANCH   7   9
ENDBRANCH   2   4
TORSDOF 2
ENDMDL
MODEL       40
REMARK 921   NORMALIZED FREE ENERGY PREDICTED BY IDOCK:   -5.30 KCAL/MOL
REMARK 922        TOTAL FREE ENERGY PREDICTED BY IDOCK:   -6.21 KCAL/MOL
REMARK 923 INTER-LIGAND FREE ENERGY PREDICTED BY IDOCK:   -6.01 KCAL/MOL
REMARK 924 INTRA-LIGAND FREE ENERGY PREDICTED BY IDOCK:   -0.20 KCAL/MOL
REMARK 927      BINDING AFFINITY PREDICTED BY RF-SCORE:    0.00 PKD
ROOT
HETATM    1  O   UNL     1      -7.650  12.589  66.743  1.00  0.00    -0.380 OA 
HETATM    2  C   UNL     1      -7.566  11.166  66.650  1.00  0.00    -0.147 C  
HETATM    3  H   UNL     1      -6.862  12.980  66.387  1.00  0.00     0.000 HD 
ENDROOT
BRANCH   2   4
HETATM    4  C   UNL     1      -8.841  10.533  67.226  1.00  0.00    -0.136 C  
HETATM    5  C   UNL     1      -9.385   9.405  66.367  1.00  0.00    -0.241 C  
HETATM    6  C   UNL     1     -10.387  10.092  65.472  1.00  0.00    -0.196 C  
HETATM    7  C   UNL     1     -10.911  11.226  66.340  1.00  0.00    -0.251 C  
HETATM    8  O   UNL     1      -9.885  11.522  67.307  1.00  0.00    -0.188 OA 
BRANCH   7   9
HETATM    9  N   UNL     1     -11.245  12.422  65.589  1.00  0.00    -0.309 NA 
HETATM   10  C   UNL     1     -12.081  12.460  64.495  1.00  0.00    -0.417 A  
HETATM   11  N   UNL     1     -12.180  13.673  63.984  1.00  0.00    -0.621 NA 
HETATM   12  C   UNL     1     -11.396  14.468  64.793  1.00  0.00    -0.396 A  
HETATM   13  C   UNL     1     -10.829  13.701  65.776  1.00  0.00    -0.273 A  
HETATM   14  N   UNL     1     -10.025  14.214  66.718  1.00  0.00    -0.260 NA 
HETATM   15  C   UNL     1      -9.806  15.568  66.648  1.00  0.00    -0.254 C  
HETATM   16  N   UNL     1     -10.279  16.392  65.761  1.00  0.00    -0.356 N  
HETATM   17  H   UNL     1     -10.042  17.383  65.804  1.00  0.00     0.000 HD 
HETATM   18  C   UNL     1     -11.116  15.910  64.743  1.00  0.00    -0.384 C  
HETATM   19  O   UNL     1     -11.574  16.638  63.871  1.00  0.00    -1.204 OA 
ENDBRANCH   7   9
ENDBRANCH   2   4
TORSDOF 2
ENDMDL
MODEL       41
REMARK 921   NORMALIZED FREE ENERGY PREDICTED BY IDOCK:   -5.30 KCAL/MOL
REMARK 922        TOTAL FREE ENERGY PREDICTED BY IDOCK:   -6.21 KCAL/MOL
REMARK 923 INTER-LIGAND FREE ENERGY PREDICTED BY IDOCK:   -5.86 KCAL/MOL
REMARK 924 INTRA-LIGAND FREE ENERGY PREDICTED BY IDOCK:   -0.35 KCAL/MOL
REMARK 927      BINDING AFFINITY PREDICTED BY RF-SCORE:    0.00 PKD
ROOT
HETATM    1  O   UNL     1      -8.387  15.045  69.693  1.00  0.00    -0.401 OA 
HETATM    2  C   UNL     1      -7.684  14.986  68.452  1.00  0.00    -0.113 C  
HETATM    3  H   UNL     1      -7.862  15.505  70.337  1.00  0.00     0.000 HD 
ENDROOT
BRANCH   2   4
HETATM    4  C   UNL     1      -8.533  14.242  67.410  1.00  0.00    -0.203 C  
HETATM    5  C   UNL     1      -9.194  15.171  66.409  1.00  0.00    -0.334 C  
HETATM    6  C   UNL     1     -10.551  15.436  67.012  1.00  0.00    -0.309 C  
HETATM    7  C   UNL     1     -10.861  14.146  67.754  1.00  0.00    -0.252 C  
HETATM    8  O   UNL     1      -9.598  13.528  68.066  1.00  0.00    -0.207 OA 
BRANCH   7   9
HETATM    9  N   UNL     1     -11.628  14.348  68.970  1.00  0.00    -0.278 NA 
HETATM   10  C   UNL     1     -12.026  15.573  69.458  1.00  0.00    -0.350 A  
HETATM   11  N   UNL     1     -12.681  15.468  70.599  1.00  0.00    -0.457 NA 
HETATM   12  C   UNL     1     -12.736  14.113  70.857  1.00  0.00    -0.361 A  
HETATM   13  C   UNL     1     -12.096  13.431  69.856  1.00  0.00    -0.322 A  
HETATM   14  N   UNL     1     -12.004  12.095  69.838  1.00  0.00    -0.325 NA 
HETATM   15  C   UNL     1     -12.604  11.438  70.885  1.00  0.00    -0.356 C  
HETATM   16  N   UNL     1     -13.228  11.975  71.890  1.00  0.00    -0.450 N  
HETATM   17  H   UNL     1     -13.632  11.384  72.618  1.00  0.00     0.000 HD 
HETATM   18  C   UNL     1     -13.345  13.371  71.969  1.00  0.00    -0.479 C  
HETATM   19  O   UNL     1     -13.905  13.931  72.904  1.00  0.00    -0.662 OA 
ENDBRANCH   7   9
ENDBRANCH   2   4
TORSDOF 2
ENDMDL
MODEL       42
REMARK 921   NORMALIZED FREE ENERGY PREDICTED BY IDOCK:   -5.29 KCAL/MOL
REMARK 922        TOTAL FREE ENERGY PREDICTED BY IDOCK:   -6.20 KCAL/MOL
REMARK 923 INTER-LIGAND FREE ENERGY PREDICTED BY IDOCK:   -5.86 KCAL/MOL
REMARK 924 INTRA-LIGAND FREE ENERGY PREDICTED BY IDOCK:   -0.34 KCAL/MOL
REMARK 927      BINDING AFFINITY PREDICTED BY RF-SCORE:    0.00 PKD
ROOT
HETATM    1  O   UNL     1     -12.475  13.992  63.165  1.00  0.00    -1.137 OA 
HETATM    2  C   UNL     1     -11.940  14.610  64.336  1.00  0.00    -0.437 C  
HETATM    3  H   UNL     1     -12.064  14.361  62.392  1.00  0.00     0.000 HD 
ENDROOT
BRANCH   2   4
HETATM    4  C   UNL     1     -12.605  14.015  65.586  1.00  0.00    -0.512 C  
HETATM    5  C   UNL     1     -11.924  14.430  66.877  1.00  0.00    -0.425 C  
HETATM    6  C   UNL     1     -10.939  13.315  67.133  1.00  0.00    -0.288 C  
HETATM    7  C   UNL     1     -11.631  12.096  66.544  1.00  0.00    -0.359 C  
HETATM    8  O   UNL     1     -12.542  12.577  65.537  1.00  0.00    -0.642 OA 
BRANCH   7   9
HETATM    9  N   UNL     1     -10.712  11.134  65.963  1.00  0.00    -0.243 NA 
HETATM   10  C   UNL     1     -10.082  11.279  64.747  1.00  0.00    -0.285 A  
HETATM   11  N   UNL     1      -9.328  10.238  64.448  1.00  0.00    -0.253 NA 
HETATM   12  C   UNL     1      -9.449   9.386  65.526  1.00  0.00    -0.260 A  
HETATM   13  C   UNL     1     -10.292   9.940  66.453  1.00  0.00    -0.176 A  
HETATM   14  N   UNL     1     -10.585   9.336  67.613  1.00  0.00    -0.272 NA 
HETATM   15  C   UNL     1      -9.980   8.122  67.828  1.00  0.00    -0.181 C  
HETATM   16  N   UNL     1      -9.174   7.497  67.023  1.00  0.00    -0.133 N  
HETATM   17  H   UNL     1      -8.786   6.591  67.287  1.00  0.00     0.000 HD 
HETATM   18  C   UNL     1      -8.840   8.075  65.789  1.00  0.00    -0.132 C  
HETATM   19  O   UNL     1      -8.101   7.521  64.983  1.00  0.00    -0.127 OA 
ENDBRANCH   7   9
ENDBRANCH   2   4
TORSDOF 2
ENDMDL
MODEL       43
REMARK 921   NORMALIZED FREE ENERGY PREDICTED BY IDOCK:   -5.27 KCAL/MOL
REMARK 922        TOTAL FREE ENERGY PREDICTED BY IDOCK:   -6.19 KCAL/MOL
REMARK 923 INTER-LIGAND FREE ENERGY PREDICTED BY IDOCK:   -6.02 KCAL/MOL
REMARK 924 INTRA-LIGAND FREE ENERGY PREDICTED BY IDOCK:   -0.17 KCAL/MOL
REMARK 927      BINDING AFFINITY PREDICTED BY RF-SCORE:    0.00 PKD
ROOT
HETATM    1  O   UNL     1     -12.111  11.476  62.953  1.00  0.00    -0.913 OA 
HETATM    2  C   UNL     1     -11.333  12.594  63.381  1.00  0.00    -0.394 C  
HETATM    3  H   UNL     1     -11.564  10.872  62.464  1.00  0.00     0.000 HD 
ENDROOT
BRANCH   2   4
HETATM    4  C   UNL     1     -12.218  13.569  64.170  1.00  0.00    -0.394 C  
HETATM    5  C   UNL     1     -11.449  14.752  64.728  1.00  0.00    -0.410 C  
HETATM    6  C   UNL     1     -11.070  14.306  66.119  1.00  0.00    -0.324 C  
HETATM    7  C   UNL     1     -12.222  13.397  66.519  1.00  0.00    -0.356 C  
HETATM    8  O   UNL     1     -12.803  12.895  65.301  1.00  0.00    -0.668 OA 
BRANCH   7   9
HETATM    9  N   UNL     1     -11.819  12.292  67.369  1.00  0.00    -0.536 NA 
HETATM   10  C   UNL     1     -12.078  12.199  68.719  1.00  0.00    -0.113 A  
HETATM   11  N   UNL     1     -11.566  11.105  69.252  1.00  0.00    -0.288 NA 
HETATM   12  C   UNL     1     -10.968  10.441  68.200  1.00  0.00    -0.281 A  
HETATM   13  C   UNL     1     -11.129  11.167  67.050  1.00  0.00    -0.273 A  
HETATM   14  N   UNL     1     -10.659  10.755  65.865  1.00  0.00    -0.192 NA 
HETATM   15  C   UNL     1     -10.009   9.545  65.865  1.00  0.00    -0.272 C  
HETATM   16  N   UNL     1      -9.788   8.776  66.889  1.00  0.00    -0.206 N  
HETATM   17  H   UNL     1      -9.285   7.896  66.771  1.00  0.00     0.000 HD 
HETATM   18  C   UNL     1     -10.246   9.162  68.158  1.00  0.00    -0.207 C  
HETATM   19  O   UNL     1     -10.049   8.485  69.160  1.00  0.00    -0.192 OA 
ENDBRANCH   7   9
ENDBRANCH   2   4
TORSDOF 2
ENDMDL
MODEL       44
REMARK 921   NORMALIZED FREE ENERGY PREDICTED BY IDOCK:   -5.27 KCAL/MOL
REMARK 922        TOTAL FREE ENERGY PREDICTED BY IDOCK:   -6.19 KCAL/MOL
REMARK 923 INTER-LIGAND FREE ENERGY PREDICTED BY IDOCK:   -5.93 KCAL/MOL
REMARK 924 INTRA-LIGAND FREE ENERGY PREDICTED BY IDOCK:   -0.26 KCAL/MOL
REMARK 927      BINDING AFFINITY PREDICTED BY RF-SCORE:    0.00 PKD
ROOT
HETATM    1  O   UNL     1     -12.536  14.000  63.186  1.00  0.00    -1.137 OA 
HETATM    2  C   UNL     1     -12.064  14.601  64.393  1.00  0.00    -0.462 C  
HETATM    3  H   UNL     1     -13.021  14.640  62.678  1.00  0.00     0.000 HD 
ENDROOT
BRANCH   2   4
HETATM    4  C   UNL     1     -11.280  13.567  65.214  1.00  0.00    -0.292 C  
HETATM    5  C   UNL     1     -12.087  12.982  66.359  1.00  0.00    -0.428 C  
HETATM    6  C   UNL     1     -11.733  13.865  67.531  1.00  0.00    -0.416 C  
HETATM    7  C   UNL     1     -10.300  14.280  67.234  1.00  0.00    -0.260 C  
HETATM    8  O   UNL     1     -10.124  14.188  65.807  1.00  0.00    -0.310 OA 
BRANCH   7   9
HETATM    9  N   UNL     1      -9.982  15.622  67.687  1.00  0.00    -0.235 NA 
HETATM   10  C   UNL     1     -10.876  16.491  68.272  1.00  0.00    -0.352 A  
HETATM   11  N   UNL     1     -10.327  17.658  68.555  1.00  0.00    -0.369 NA 
HETATM   12  C   UNL     1      -9.010  17.539  68.162  1.00  0.00    -0.266 A  
HETATM   13  C   UNL     1      -8.801  16.291  67.637  1.00  0.00    -0.190 A  
HETATM   14  N   UNL     1      -7.605  15.890  67.185  1.00  0.00    -0.199 NA 
HETATM   15  C   UNL     1      -6.587  16.805  67.287  1.00  0.00    -0.172 C  
HETATM   16  N   UNL     1      -6.667  18.015  67.756  1.00  0.00    -0.196 N  
HETATM   17  H   UNL     1      -5.840  18.612  67.777  1.00  0.00     0.000 HD 
HETATM   18  C   UNL     1      -7.896  18.494  68.232  1.00  0.00    -0.303 C  
HETATM   19  O   UNL     1      -8.033  19.632  68.667  1.00  0.00    -0.343 OA 
ENDBRANCH   7   9
ENDBRANCH   2   4
TORSDOF 2
ENDMDL
MODEL       45
REMARK 921   NORMALIZED FREE ENERGY PREDICTED BY IDOCK:   -5.27 KCAL/MOL
REMARK 922        TOTAL FREE ENERGY PREDICTED BY IDOCK:   -6.18 KCAL/MOL
REMARK 923 INTER-LIGAND FREE ENERGY PREDICTED BY IDOCK:   -5.97 KCAL/MOL
REMARK 924 INTRA-LIGAND FREE ENERGY PREDICTED BY IDOCK:   -0.22 KCAL/MOL
REMARK 927      BINDING AFFINITY PREDICTED BY RF-SCORE:    0.00 PKD
ROOT
HETATM    1  O   UNL     1     -10.777  10.654  70.368  1.00  0.00    -0.445 OA 
HETATM    2  C   UNL     1     -10.288  10.219  69.098  1.00  0.00    -0.223 C  
HETATM    3  H   UNL     1     -10.176  10.383  71.052  1.00  0.00     0.000 HD 
ENDROOT
BRANCH   2   4
HETATM    4  C   UNL     1     -11.261  10.656  67.992  1.00  0.00    -0.307 C  
HETATM    5  C   UNL     1     -10.564  11.311  66.813  1.00  0.00    -0.305 C  
HETATM    6  C   UNL     1     -10.615  12.783  67.144  1.00  0.00    -0.249 C  
HETATM    7  C   UNL     1     -11.910  12.919  67.929  1.00  0.00    -0.339 C  
HETATM    8  O   UNL     1     -12.186  11.631  68.511  1.00  0.00    -0.485 OA 
BRANCH   7   9
HETATM    9  N   UNL     1     -11.851  13.931  68.969  1.00  0.00    -0.338 NA 
HETATM   10  C   UNL     1     -11.276  15.174  68.828  1.00  0.00    -0.284 A  
HETATM   11  N   UNL     1     -11.332  15.880  69.943  1.00  0.00    -0.323 NA 
HETATM   12  C   UNL     1     -11.996  15.073  70.844  1.00  0.00    -0.319 A  
HETATM   13  C   UNL     1     -12.316  13.884  70.244  1.00  0.00    -0.345 A  
HETATM   14  N   UNL     1     -12.979  12.909  70.881  1.00  0.00    -0.100 NA 
HETATM   15  C   UNL     1     -13.332  13.175  72.181  1.00  0.00    -0.524 C  
HETATM   16  N   UNL     1     -13.076  14.255  72.856  1.00  0.00    -0.514 N  
HETATM   17  H   UNL     1     -13.385  14.340  73.825  1.00  0.00     0.000 HD 
HETATM   18  C   UNL     1     -12.375  15.305  72.245  1.00  0.00    -0.370 C  
HETATM   19  O   UNL     1     -12.090  16.338  72.839  1.00  0.00    -0.497 OA 
ENDBRANCH   7   9
ENDBRANCH   2   4
TORSDOF 2
ENDMDL
MODEL       46
REMARK 921   NORMALIZED FREE ENERGY PREDICTED BY IDOCK:   -5.27 KCAL/MOL
REMARK 922        TOTAL FREE ENERGY PREDICTED BY IDOCK:   -6.18 KCAL/MOL
REMARK 923 INTER-LIGAND FREE ENERGY PREDICTED BY IDOCK:   -6.03 KCAL/MOL
REMARK 924 INTRA-LIGAND FREE ENERGY PREDICTED BY IDOCK:   -0.14 KCAL/MOL
REMARK 927      BINDING AFFINITY PREDICTED BY RF-SCORE:    0.00 PKD
ROOT
HETATM    1  O   UNL     1     -14.199   8.750  73.054  1.00  0.00    -1.075 OA 
HETATM    2  C   UNL     1     -13.085   9.411  72.453  1.00  0.00    -0.379 C  
HETATM    3  H   UNL     1     -14.756   9.388  73.484  1.00  0.00     0.000 HD 
ENDROOT
BRANCH   2   4
HETATM    4  C   UNL     1     -12.184   8.380  71.758  1.00  0.00    -0.330 C  
HETATM    5  C   UNL     1     -10.726   8.496  72.162  1.00  0.00    -0.426 C  
HETATM    6  C   UNL     1     -10.137   9.403  71.108  1.00  0.00    -0.335 C  
HETATM    7  C   UNL     1     -10.961   9.081  69.871  1.00  0.00    -0.193 C  
HETATM    8  O   UNL     1     -12.228   8.574  70.331  1.00  0.00     0.108 OA 
BRANCH   7   9
HETATM    9  N   UNL     1     -11.170  10.225  69.002  1.00  0.00    -0.226 NA 
HETATM   10  C   UNL     1     -10.951  10.234  67.643  1.00  0.00    -0.294 A  
HETATM   11  N   UNL     1     -11.189  11.416  67.106  1.00  0.00    -0.341 NA 
HETATM   12  C   UNL     1     -11.606  12.209  68.156  1.00  0.00    -0.337 A  
HETATM   13  C   UNL     1     -11.598  11.475  69.312  1.00  0.00    -0.322 A  
HETATM   14  N   UNL     1     -11.971  11.987  70.493  1.00  0.00    -0.319 NA 
HETATM   15  C   UNL     1     -12.375  13.300  70.478  1.00  0.00    -0.316 C  
HETATM   16  N   UNL     1     -12.416  14.093  69.449  1.00  0.00    -0.491 N  
HETATM   17  H   UNL     1     -12.730  15.058  69.558  1.00  0.00     0.000 HD 
HETATM   18  C   UNL     1     -12.025  13.616  68.189  1.00  0.00    -0.355 C  
HETATM   19  O   UNL     1     -12.025  14.326  67.190  1.00  0.00    -0.405 OA 
ENDBRANCH   7   9
ENDBRANCH   2   4
TORSDOF 2
ENDMDL
MODEL       47
REMARK 921   NORMALIZED FREE ENERGY PREDICTED BY IDOCK:   -5.25 KCAL/MOL
REMARK 922        TOTAL FREE ENERGY PREDICTED BY IDOCK:   -6.16 KCAL/MOL
REMARK 923 INTER-LIGAND FREE ENERGY PREDICTED BY IDOCK:   -5.87 KCAL/MOL
REMARK 924 INTRA-LIGAND FREE ENERGY PREDICTED BY IDOCK:   -0.29 KCAL/MOL
REMARK 927      BINDING AFFINITY PREDICTED BY RF-SCORE:    0.00 PKD
ROOT
HETATM    1  O   UNL     1      -9.189  11.736  68.844  1.00  0.00    -0.393 OA 
HETATM    2  C   UNL     1      -9.515  12.745  67.887  1.00  0.00    -0.208 C  
HETATM    3  H   UNL     1      -8.434  11.244  68.546  1.00  0.00     0.000 HD 
ENDROOT
BRANCH   2   4
HETATM    4  C   UNL     1     -10.737  13.540  68.369  1.00  0.00    -0.259 C  
HETATM    5  C   UNL     1     -11.874  13.551  67.363  1.00  0.00    -0.423 C  
HETATM    6  C   UNL     1     -11.634  14.812  66.569  1.00  0.00    -0.306 C  
HETATM    7  C   UNL     1     -10.994  15.746  67.584  1.00  0.00    -0.302 C  
HETATM    8  O   UNL     1     -10.372  14.917  68.584  1.00  0.00    -0.224 OA 
BRANCH   7   9
HETATM    9  N   UNL     1     -10.012  16.644  67.003  1.00  0.00    -0.263 NA 
HETATM   10  C   UNL     1      -8.941  16.251  66.232  1.00  0.00    -0.331 A  
HETATM   11  N   UNL     1      -8.189  17.271  65.864  1.00  0.00    -0.543 NA 
HETATM   12  C   UNL     1      -8.809  18.384  66.396  1.00  0.00    -0.248 A  
HETATM   13  C   UNL     1      -9.926  17.997  67.087  1.00  0.00    -0.325 A  
HETATM   14  N   UNL     1     -10.734  18.872  67.701  1.00  0.00    -0.425 NA 
HETATM   15  C   UNL     1     -10.381  20.195  67.588  1.00  0.00    -0.325 C  
HETATM   16  N   UNL     1      -9.345  20.678  66.969  1.00  0.00    -0.621 N  
HETATM   17  H   UNL     1      -9.179  21.685  66.957  1.00  0.00     0.000 HD 
HETATM   18  C   UNL     1      -8.457  19.808  66.320  1.00  0.00    -0.361 C  
HETATM   19  O   UNL     1      -7.455  20.207  65.738  1.00  0.00    -0.313 OA 
ENDBRANCH   7   9
ENDBRANCH   2   4
TORSDOF 2
ENDMDL
MODEL       48
REMARK 921   NORMALIZED FREE ENERGY PREDICTED BY IDOCK:   -5.23 KCAL/MOL
REMARK 922        TOTAL FREE ENERGY PREDICTED BY IDOCK:   -6.14 KCAL/MOL
REMARK 923 INTER-LIGAND FREE ENERGY PREDICTED BY IDOCK:   -5.65 KCAL/MOL
REMARK 924 INTRA-LIGAND FREE ENERGY PREDICTED BY IDOCK:   -0.49 KCAL/MOL
REMARK 927      BINDING AFFINITY PREDICTED BY RF-SCORE:    0.00 PKD
ROOT
HETATM    1  O   UNL     1      -8.843  13.974  68.921  1.00  0.00    -0.357 OA 
HETATM    2  C   UNL     1      -9.000  13.747  67.520  1.00  0.00    -0.201 C  
HETATM    3  H   UNL     1      -8.596  14.878  69.073  1.00  0.00     0.000 HD 
ENDROOT
BRANCH   2   4
HETATM    4  C   UNL     1      -9.399  12.285  67.274  1.00  0.00    -0.185 C  
HETATM    5  C   UNL     1     -10.539  12.138  66.283  1.00  0.00    -0.285 C  
HETATM    6  C   UNL     1     -11.768  12.102  67.158  1.00  0.00    -0.372 C  
HETATM    7  C   UNL     1     -11.268  11.443  68.434  1.00  0.00    -0.263 C  
HETATM    8  O   UNL     1      -9.850  11.686  68.504  1.00  0.00    -0.197 OA 
BRANCH   7   9
HETATM    9  N   UNL     1     -11.916  11.941  69.634  1.00  0.00    -0.309 NA 
HETATM   10  C   UNL     1     -12.449  11.151  70.629  1.00  0.00    -0.356 A  
HETATM   11  N   UNL     1     -13.009  11.864  71.588  1.00  0.00    -0.398 NA 
HETATM   12  C   UNL     1     -12.811  13.179  71.218  1.00  0.00    -0.296 A  
HETATM   13  C   UNL     1     -12.139  13.222  70.025  1.00  0.00    -0.315 A  
HETATM   14  N   UNL     1     -11.798  14.373  69.430  1.00  0.00    -0.306 NA 
HETATM   15  C   UNL     1     -12.156  15.520  70.094  1.00  0.00    -0.378 C  
HETATM   16  N   UNL     1     -12.800  15.604  71.219  1.00  0.00    -0.478 N  
HETATM   17  H   UNL     1     -13.018  16.518  71.618  1.00  0.00     0.000 HD 
HETATM   18  C   UNL     1     -13.194  14.432  71.882  1.00  0.00    -0.365 C  
HETATM   19  O   UNL     1     -13.820  14.453  72.935  1.00  0.00    -0.589 OA 
ENDBRANCH   7   9
ENDBRANCH   2   4
TORSDOF 2
ENDMDL
MODEL       49
REMARK 921   NORMALIZED FREE ENERGY PREDICTED BY IDOCK:   -5.21 KCAL/MOL
REMARK 922        TOTAL FREE ENERGY PREDICTED BY IDOCK:   -6.12 KCAL/MOL
REMARK 923 INTER-LIGAND FREE ENERGY PREDICTED BY IDOCK:   -5.95 KCAL/MOL
REMARK 924 INTRA-LIGAND FREE ENERGY PREDICTED BY IDOCK:   -0.17 KCAL/MOL
REMARK 927      BINDING AFFINITY PREDICTED BY RF-SCORE:    0.00 PKD
ROOT
HETATM    1  O   UNL     1     -12.351  15.401  69.057  1.00  0.00    -0.598 OA 
HETATM    2  C   UNL     1     -12.063  15.841  70.385  1.00  0.00    -0.370 C  
HETATM    3  H   UNL     1     -11.600  15.559  68.498  1.00  0.00     0.000 HD 
ENDROOT
BRANCH   2   4
HETATM    4  C   UNL     1     -13.278  15.585  71.290  1.00  0.00    -0.515 C  
HETATM    5  C   UNL     1     -12.926  15.564  72.766  1.00  0.00    -0.559 C  
HETATM    6  C   UNL     1     -12.676  14.103  73.050  1.00  0.00    -0.310 C  
HETATM    7  C   UNL     1     -13.615  13.395  72.087  1.00  0.00    -0.567 C  
HETATM    8  O   UNL     1     -13.850  14.298  70.990  1.00  0.00    -0.239 OA 
BRANCH   7   9
HETATM    9  N   UNL     1     -13.090  12.135  71.590  1.00  0.00    -0.388 NA 
HETATM   10  C   UNL     1     -13.384  10.896  72.115  1.00  0.00    -0.189 A  
HETATM   11  N   UNL     1     -12.742   9.925  71.492  1.00  0.00    -0.380 NA 
HETATM   12  C   UNL     1     -12.017  10.554  70.500  1.00  0.00    -0.342 A  
HETATM   13  C   UNL     1     -12.236  11.904  70.560  1.00  0.00    -0.336 A  
HETATM   14  N   UNL     1     -11.669  12.766  69.705  1.00  0.00    -0.304 NA 
HETATM   15  C   UNL     1     -10.853  12.213  68.749  1.00  0.00    -0.228 C  
HETATM   16  N   UNL     1     -10.564  10.955  68.600  1.00  0.00    -0.183 N  
HETATM   17  H   UNL     1      -9.937  10.658  67.852  1.00  0.00     0.000 HD 
HETATM   18  C   UNL     1     -11.119  10.007  69.473  1.00  0.00    -0.238 C  
HETATM   19  O   UNL     1     -10.866   8.811  69.391  1.00  0.00    -0.205 OA 
ENDBRANCH   7   9
ENDBRANCH   2   4
TORSDOF 2
ENDMDL
MODEL       50
REMARK 921   NORMALIZED FREE ENERGY PREDICTED BY IDOCK:   -5.15 KCAL/MOL
REMARK 922        TOTAL FREE ENERGY PREDICTED BY IDOCK:   -6.05 KCAL/MOL
REMARK 923 INTER-LIGAND FREE ENERGY PREDICTED BY IDOCK:   -5.90 KCAL/MOL
REMARK 924 INTRA-LIGAND FREE ENERGY PREDICTED BY IDOCK:   -0.15 KCAL/MOL
REMARK 927      BINDING AFFINITY PREDICTED BY RF-SCORE:    0.00 PKD
ROOT
HETATM    1  O   UNL     1     -10.844  13.995  67.204  1.00  0.00    -0.281 OA 
HETATM    2  C   UNL     1     -10.211  14.817  68.185  1.00  0.00    -0.228 C  
HETATM    3  H   UNL     1     -10.239  13.326  66.908  1.00  0.00     0.000 HD 
ENDROOT
BRANCH   2   4
HETATM    4  C   UNL     1     -11.189  15.900  68.663  1.00  0.00    -0.360 C  
HETATM    5  C   UNL     1     -10.648  16.723  69.817  1.00  0.00    -0.174 C  
HETATM    6  C   UNL     1     -11.174  16.010  71.039  1.00  0.00    -0.347 C  
HETATM    7  C   UNL     1     -12.500  15.437  70.565  1.00  0.00    -0.422 C  
HETATM    8  O   UNL     1     -12.405  15.288  69.135  1.00  0.00    -0.190 OA 
BRANCH   7   9
HETATM    9  N   UNL     1     -12.830  14.162  71.176  1.00  0.00    -0.343 NA 
HETATM   10  C   UNL     1     -13.528  14.009  72.353  1.00  0.00    -0.539 A  
HETATM   11  N   UNL     1     -13.657  12.741  72.696  1.00  0.00    -0.450 NA 
HETATM   12  C   UNL     1     -13.039  12.032  71.686  1.00  0.00    -0.318 A  
HETATM   13  C   UNL     1     -12.539  12.904  70.756  1.00  0.00    -0.232 A  
HETATM   14  N   UNL     1     -11.896  12.494  69.655  1.00  0.00    -0.323 NA 
HETATM   15  C   UNL     1     -11.773  11.134  69.503  1.00  0.00    -0.335 C  
HETATM   16  N   UNL     1     -12.196  10.215  70.318  1.00  0.00    -0.462 N  
HETATM   17  H   UNL     1     -12.042   9.230  70.104  1.00  0.00     0.000 HD 
HETATM   18  C   UNL     1     -12.865  10.586  71.494  1.00  0.00    -0.463 C  
HETATM   19  O   UNL     1     -13.268   9.762  72.308  1.00  0.00    -0.437 OA 
ENDBRANCH   7   9
ENDBRANCH   2   4
TORSDOF 2
ENDMDL
MODEL       51
REMARK 921   NORMALIZED FREE ENERGY PREDICTED BY IDOCK:   -5.15 KCAL/MOL
REMARK 922        TOTAL FREE ENERGY PREDICTED BY IDOCK:   -6.04 KCAL/MOL
REMARK 923 INTER-LIGAND FREE ENERGY PREDICTED BY IDOCK:   -5.94 KCAL/MOL
REMARK 924 INTRA-LIGAND FREE ENERGY PREDICTED BY IDOCK:   -0.10 KCAL/MOL
REMARK 927      BINDING AFFINITY PREDICTED BY RF-SCORE:    0.00 PKD
ROOT
HETATM    1  O   UNL     1      -8.532  11.887  66.129  1.00  0.00    -0.381 OA 
HETATM    2  C   UNL     1      -8.498  10.918  65.081  1.00  0.00    -0.038 C  
HETATM    3  H   UNL     1      -7.652  12.043  66.449  1.00  0.00     0.000 HD 
ENDROOT
BRANCH   2   4
HETATM    4  C   UNL     1      -9.922  10.665  64.563  1.00  0.00    -0.345 C  
HETATM    5  C   UNL     1     -10.320  11.599  63.436  1.00  0.00    -0.482 C  
HETATM    6  C   UNL     1     -11.010  12.738  64.145  1.00  0.00    -0.435 C  
HETATM    7  C   UNL     1     -11.645  12.064  65.352  1.00  0.00    -0.286 C  
HETATM    8  O   UNL     1     -10.874  10.878  65.623  1.00  0.00    -0.165 OA 
BRANCH   7   9
HETATM    9  N   UNL     1     -11.686  12.910  66.531  1.00  0.00    -0.374 NA 
HETATM   10  C   UNL     1     -11.566  14.282  66.522  1.00  0.00    -0.378 A  
HETATM   11  N   UNL     1     -11.604  14.794  67.739  1.00  0.00    -0.348 NA 
HETATM   12  C   UNL     1     -11.783  13.713  68.577  1.00  0.00    -0.357 A  
HETATM   13  C   UNL     1     -11.838  12.564  67.835  1.00  0.00    -0.323 A  
HETATM   14  N   UNL     1     -12.019  11.356  68.387  1.00  0.00    -0.590 NA 
HETATM   15  C   UNL     1     -12.158  11.336  69.753  1.00  0.00    -0.325 C  
HETATM   16  N   UNL     1     -12.114  12.355  70.559  1.00  0.00    -0.484 N  
HETATM   17  H   UNL     1     -12.225  12.219  71.564  1.00  0.00     0.000 HD 
HETATM   18  C   UNL     1     -11.915  13.642  70.039  1.00  0.00    -0.343 C  
HETATM   19  O   UNL     1     -11.846  14.635  70.753  1.00  0.00    -0.289 OA 
ENDBRANCH   7   9
ENDBRANCH   2   4
TORSDOF 2
ENDMDL
MODEL       52
REMARK 921   NORMALIZED FREE ENERGY PREDICTED BY IDOCK:   -5.15 KCAL/MOL
REMARK 922        TOTAL FREE ENERGY PREDICTED BY IDOCK:   -6.04 KCAL/MOL
REMARK 923 INTER-LIGAND FREE ENERGY PREDICTED BY IDOCK:   -5.72 KCAL/MOL
REMARK 924 INTRA-LIGAND FREE ENERGY PREDICTED BY IDOCK:   -0.33 KCAL/MOL
REMARK 927      BINDING AFFINITY PREDICTED BY RF-SCORE:    0.00 PKD
ROOT
HETATM    1  O   UNL     1     -11.002   8.508  68.122  1.00  0.00    -0.462 OA 
HETATM    2  C   UNL     1     -10.249   9.639  67.681  1.00  0.00    -0.216 C  
HETATM    3  H   UNL     1     -11.158   7.923  67.391  1.00  0.00     0.000 HD 
ENDROOT
BRANCH   2   4
HETATM    4  C   UNL     1      -9.996  10.586  68.863  1.00  0.00    -0.204 C  
HETATM    5  C   UNL     1     -11.212  10.763  69.754  1.00  0.00    -0.365 C  
HETATM    6  C   UNL     1     -11.888  11.990  69.192  1.00  0.00    -0.369 C  
HETATM    7  C   UNL     1     -10.727  12.816  68.663  1.00  0.00    -0.246 C  
HETATM    8  O   UNL     1      -9.655  11.898  68.376  1.00  0.00    -0.203 OA 
BRANCH   7   9
HETATM    9  N   UNL     1     -11.056  13.581  67.474  1.00  0.00    -0.267 NA 
HETATM   10  C   UNL     1     -11.887  13.150  66.463  1.00  0.00    -0.400 A  
HETATM   11  N   UNL     1     -11.984  14.032  65.486  1.00  0.00    -0.366 NA 
HETATM   12  C   UNL     1     -11.203  15.097  65.886  1.00  0.00    -0.280 A  
HETATM   13  C   UNL     1     -10.641  14.820  67.104  1.00  0.00    -0.285 A  
HETATM   14  N   UNL     1      -9.842  15.684  67.743  1.00  0.00    -0.220 NA 
HETATM   15  C   UNL     1      -9.622  16.882  67.107  1.00  0.00    -0.244 C  
HETATM   16  N   UNL     1     -10.090  17.251  65.952  1.00  0.00    -0.255 N  
HETATM   17  H   UNL     1      -9.853  18.168  65.573  1.00  0.00     0.000 HD 
HETATM   18  C   UNL     1     -10.922  16.382  65.231  1.00  0.00    -0.195 C  
HETATM   19  O   UNL     1     -11.375  16.671  64.130  1.00  0.00    -1.141 OA 
ENDBRANCH   7   9
ENDBRANCH   2   4
TORSDOF 2
ENDMDL
MODEL       53
REMARK 921   NORMALIZED FREE ENERGY PREDICTED BY IDOCK:   -5.13 KCAL/MOL
REMARK 922        TOTAL FREE ENERGY PREDICTED BY IDOCK:   -6.03 KCAL/MOL
REMARK 923 INTER-LIGAND FREE ENERGY PREDICTED BY IDOCK:   -5.58 KCAL/MOL
REMARK 924 INTRA-LIGAND FREE ENERGY PREDICTED BY IDOCK:   -0.45 KCAL/MOL
REMARK 927      BINDING AFFINITY PREDICTED BY RF-SCORE:    0.00 PKD
ROOT
HETATM    1  O   UNL     1      -9.585  15.606  67.108  1.00  0.00    -0.215 OA 
HETATM    2  C   UNL     1     -10.541  16.204  66.232  1.00  0.00    -0.274 C  
HETATM    3  H   UNL     1      -9.471  16.150  67.878  1.00  0.00     0.000 HD 
ENDROOT
BRANCH   2   4
HETATM    4  C   UNL     1     -10.725  15.325  64.987  1.00  0.00    -0.439 C  
HETATM    5  C   UNL     1     -12.174  15.207  64.550  1.00  0.00    -0.278 C  
HETATM    6  C   UNL     1     -12.653  13.954  65.242  1.00  0.00    -0.508 C  
HETATM    7  C   UNL     1     -11.402  13.091  65.306  1.00  0.00    -0.295 C  
HETATM    8  O   UNL     1     -10.273  13.985  65.262  1.00  0.00    -0.344 OA 
BRANCH   7   9
HETATM    9  N   UNL     1     -11.332  12.262  66.496  1.00  0.00    -0.331 NA 
HETATM   10  C   UNL     1     -10.997  10.926  66.508  1.00  0.00    -0.121 A  
HETATM   11  N   UNL     1     -11.046  10.410  67.722  1.00  0.00    -0.311 NA 
HETATM   12  C   UNL     1     -11.404  11.459  68.543  1.00  0.00    -0.271 A  
HETATM   13  C   UNL     1     -11.574  12.591  67.791  1.00  0.00    -0.343 A  
HETATM   14  N   UNL     1     -11.912  13.771  68.329  1.00  0.00    -0.370 NA 
HETATM   15  C   UNL     1     -12.071  13.784  69.693  1.00  0.00    -0.336 C  
HETATM   16  N   UNL     1     -11.947  12.778  70.505  1.00  0.00    -0.532 N  
HETATM   17  H   UNL     1     -12.096  12.905  71.506  1.00  0.00     0.000 HD 
HETATM   18  C   UNL     1     -11.607  11.515  69.997  1.00  0.00    -0.282 C  
HETATM   19  O   UNL     1     -11.495  10.527  70.714  1.00  0.00    -0.331 OA 
ENDBRANCH   7   9
ENDBRANCH   2   4
TORSDOF 2
ENDMDL
MODEL       54
REMARK 921   NORMALIZED FREE ENERGY PREDICTED BY IDOCK:   -5.13 KCAL/MOL
REMARK 922        TOTAL FREE ENERGY PREDICTED BY IDOCK:   -6.03 KCAL/MOL
REMARK 923 INTER-LIGAND FREE ENERGY PREDICTED BY IDOCK:   -5.67 KCAL/MOL
REMARK 924 INTRA-LIGAND FREE ENERGY PREDICTED BY IDOCK:   -0.36 KCAL/MOL
REMARK 927      BINDING AFFINITY PREDICTED BY RF-SCORE:    0.00 PKD
ROOT
HETATM    1  O   UNL     1     -10.891   8.597  67.298  1.00  0.00    -0.437 OA 
HETATM    2  C   UNL     1      -9.818   9.508  67.054  1.00  0.00    -0.190 C  
HETATM    3  H   UNL     1     -10.564   7.834  67.759  1.00  0.00     0.000 HD 
ENDROOT
BRANCH   2   4
HETATM    4  C   UNL     1     -10.346  10.742  66.308  1.00  0.00    -0.244 C  
HETATM    5  C   UNL     1      -9.369  11.904  66.313  1.00  0.00    -0.234 C  
HETATM    6  C   UNL     1      -9.789  12.716  67.514  1.00  0.00    -0.203 C  
HETATM    7  C   UNL     1     -11.290  12.481  67.585  1.00  0.00    -0.306 C  
HETATM    8  O   UNL     1     -11.549  11.220  66.940  1.00  0.00    -0.464 OA 
BRANCH   7   9
HETATM    9  N   UNL     1     -11.808  12.461  68.942  1.00  0.00    -0.313 NA 
HETATM   10  C   UNL     1     -12.021  11.322  69.687  1.00  0.00    -0.353 A  
HETATM   11  N   UNL     1     -12.531  11.592  70.875  1.00  0.00    -0.389 NA 
HETATM   12  C   UNL     1     -12.632  12.967  70.918  1.00  0.00    -0.280 A  
HETATM   13  C   UNL     1     -12.184  13.495  69.736  1.00  0.00    -0.269 A  
HETATM   14  N   UNL     1     -12.154  14.814  69.501  1.00  0.00    -0.305 NA 
HETATM   15  C   UNL     1     -12.593  15.616  70.525  1.00  0.00    -0.379 C  
HETATM   16  N   UNL     1     -13.047  15.232  71.681  1.00  0.00    -0.389 N  
HETATM   17  H   UNL     1     -13.352  15.922  72.367  1.00  0.00     0.000 HD 
HETATM   18  C   UNL     1     -13.113  13.863  71.979  1.00  0.00    -0.393 C  
HETATM   19  O   UNL     1     -13.550  13.443  73.044  1.00  0.00    -0.517 OA 
ENDBRANCH   7   9
ENDBRANCH   2   4
TORSDOF 2
ENDMDL
MODEL       55
REMARK 921   NORMALIZED FREE ENERGY PREDICTED BY IDOCK:   -5.12 KCAL/MOL
REMARK 922        TOTAL FREE ENERGY PREDICTED BY IDOCK:   -6.01 KCAL/MOL
REMARK 923 INTER-LIGAND FREE ENERGY PREDICTED BY IDOCK:   -5.71 KCAL/MOL
REMARK 924 INTRA-LIGAND FREE ENERGY PREDICTED BY IDOCK:   -0.30 KCAL/MOL
REMARK 927      BINDING AFFINITY PREDICTED BY RF-SCORE:    0.00 PKD
ROOT
HETATM    1  O   UNL     1     -12.385   6.124  72.643  1.00  0.00    -0.535 OA 
HETATM    2  C   UNL     1     -12.144   7.092  71.620  1.00  0.00    -0.347 C  
HETATM    3  H   UNL     1     -12.527   5.272  72.249  1.00  0.00     0.000 HD 
ENDROOT
BRANCH   2   4
HETATM    4  C   UNL     1     -11.913   8.471  72.256  1.00  0.00    -0.385 C  
HETATM    5  C   UNL     1     -13.179   9.303  72.346  1.00  0.00    -0.501 C  
HETATM    6  C   UNL     1     -13.157  10.122  71.078  1.00  0.00    -0.458 C  
HETATM    7  C   UNL     1     -11.672  10.320  70.818  1.00  0.00    -0.360 C  
HETATM    8  O   UNL     1     -10.984   9.229  71.459  1.00  0.00    -0.336 OA 
BRANCH   7   9
HETATM    9  N   UNL     1     -11.333  10.360  69.407  1.00  0.00    -0.250 NA 
HETATM   10  C   UNL     1     -10.775   9.318  68.700  1.00  0.00    -0.143 A  
HETATM   11  N   UNL     1     -10.538   9.639  67.441  1.00  0.00    -0.272 NA 
HETATM   12  C   UNL     1     -10.983  10.939  67.313  1.00  0.00    -0.294 A  
HETATM   13  C   UNL     1     -11.473  11.374  68.515  1.00  0.00    -0.297 A  
HETATM   14  N   UNL     1     -11.987  12.601  68.684  1.00  0.00    -0.282 NA 
HETATM   15  C   UNL     1     -12.003  13.402  67.568  1.00  0.00    -0.339 C  
HETATM   16  N   UNL     1     -11.561  13.103  66.383  1.00  0.00    -0.332 N  
HETATM   17  H   UNL     1     -11.621  13.785  65.627  1.00  0.00     0.000 HD 
HETATM   18  C   UNL     1     -11.001  11.838  66.151  1.00  0.00    -0.307 C  
HETATM   19  O   UNL     1     -10.551  11.510  65.060  1.00  0.00    -0.277 OA 
ENDBRANCH   7   9
ENDBRANCH   2   4
TORSDOF 2
ENDMDL
MODEL       56
REMARK 921   NORMALIZED FREE ENERGY PREDICTED BY IDOCK:   -5.09 KCAL/MOL
REMARK 922        TOTAL FREE ENERGY PREDICTED BY IDOCK:   -5.98 KCAL/MOL
REMARK 923 INTER-LIGAND FREE ENERGY PREDICTED BY IDOCK:   -5.50 KCAL/MOL
REMARK 924 INTRA-LIGAND FREE ENERGY PREDICTED BY IDOCK:   -0.48 KCAL/MOL
REMARK 927      BINDING AFFINITY PREDICTED BY RF-SCORE:    0.00 PKD
ROOT
HETATM    1  O   UNL     1     -10.805  15.093  71.462  1.00  0.00    -0.529 OA 
HETATM    2  C   UNL     1     -11.353  15.907  70.423  1.00  0.00    -0.385 C  
HETATM    3  H   UNL     1     -11.235  15.293  72.285  1.00  0.00     0.000 HD 
ENDROOT
BRANCH   2   4
HETATM    4  C   UNL     1     -10.658  15.584  69.092  1.00  0.00    -0.234 C  
HETATM    5  C   UNL     1     -11.615  15.554  67.915  1.00  0.00    -0.231 C  
HETATM    6  C   UNL     1     -12.010  14.100  67.816  1.00  0.00    -0.389 C  
HETATM    7  C   UNL     1     -10.770  13.368  68.302  1.00  0.00    -0.258 C  
HETATM    8  O   UNL     1     -10.054  14.278  69.159  1.00  0.00    -0.174 OA 
BRANCH   7   9
HETATM    9  N   UNL     1     -11.066  12.141  69.019  1.00  0.00    -0.241 NA 
HETATM   10  C   UNL     1     -10.561  10.900  68.702  1.00  0.00    -0.195 A  
HETATM   11  N   UNL     1     -11.024   9.954  69.499  1.00  0.00    -0.239 NA 
HETATM   12  C   UNL     1     -11.847  10.608  70.392  1.00  0.00    -0.349 A  
HETATM   13  C   UNL     1     -11.867  11.946  70.099  1.00  0.00    -0.308 A  
HETATM   14  N   UNL     1     -12.576  12.831  70.813  1.00  0.00    -0.276 NA 
HETATM   15  C   UNL     1     -13.282  12.317  71.873  1.00  0.00    -0.376 C  
HETATM   16  N   UNL     1     -13.348  11.073  72.240  1.00  0.00    -0.562 N  
HETATM   17  H   UNL     1     -13.913  10.805  73.046  1.00  0.00     0.000 HD 
HETATM   18  C   UNL     1     -12.636  10.100  71.522  1.00  0.00    -0.434 C  
HETATM   19  O   UNL     1     -12.677   8.910  71.812  1.00  0.00    -0.323 OA 
ENDBRANCH   7   9
ENDBRANCH   2   4
TORSDOF 2
ENDMDL
MODEL       57
REMARK 921   NORMALIZED FREE ENERGY PREDICTED BY IDOCK:   -5.05 KCAL/MOL
REMARK 922        TOTAL FREE ENERGY PREDICTED BY IDOCK:   -5.94 KCAL/MOL
REMARK 923 INTER-LIGAND FREE ENERGY PREDICTED BY IDOCK:   -5.61 KCAL/MOL
REMARK 924 INTRA-LIGAND FREE ENERGY PREDICTED BY IDOCK:   -0.33 KCAL/MOL
REMARK 927      BINDING AFFINITY PREDICTED BY RF-SCORE:    0.00 PKD
ROOT
HETATM    1  O   UNL     1     -13.638   8.899  73.225  1.00  0.00    -1.012 OA 
HETATM    2  C   UNL     1     -13.622   8.356  71.904  1.00  0.00    -0.379 C  
HETATM    3  H   UNL     1     -14.464   9.341  73.379  1.00  0.00     0.000 HD 
ENDROOT
BRANCH   2   4
HETATM    4  C   UNL     1     -12.286   7.641  71.654  1.00  0.00    -0.317 C  
HETATM    5  C   UNL     1     -11.141   8.218  72.467  1.00  0.00    -0.439 C  
HETATM    6  C   UNL     1     -10.525   9.236  71.539  1.00  0.00    -0.385 C  
HETATM    7  C   UNL     1     -10.764   8.641  70.160  1.00  0.00    -0.234 C  
HETATM    8  O   UNL     1     -11.909   7.774  70.271  1.00  0.00    -0.060 OA 
BRANCH   7   9
HETATM    9  N   UNL     1     -10.994   9.639  69.131  1.00  0.00    -0.192 NA 
HETATM   10  C   UNL     1     -11.783  10.758  69.280  1.00  0.00    -0.303 A  
HETATM   11  N   UNL     1     -11.844  11.476  68.174  1.00  0.00    -0.573 NA 
HETATM   12  C   UNL     1     -11.041  10.812  67.270  1.00  0.00    -0.270 A  
HETATM   13  C   UNL     1     -10.519   9.691  67.861  1.00  0.00    -0.246 A  
HETATM   14  N   UNL     1      -9.688   8.858  67.219  1.00  0.00    -0.169 NA 
HETATM   15  C   UNL     1      -9.378   9.199  65.925  1.00  0.00    -0.243 C  
HETATM   16  N   UNL     1      -9.817  10.225  65.260  1.00  0.00    -0.286 N  
HETATM   17  H   UNL     1      -9.521  10.376  64.295  1.00  0.00     0.000 HD 
HETATM   18  C   UNL     1     -10.699  11.126  65.876  1.00  0.00    -0.198 C  
HETATM   19  O   UNL     1     -11.159  12.099  65.290  1.00  0.00    -0.303 OA 
ENDBRANCH   7   9
ENDBRANCH   2   4
TORSDOF 2
ENDMDL
MODEL       58
REMARK 921   NORMALIZED FREE ENERGY PREDICTED BY IDOCK:   -5.03 KCAL/MOL
REMARK 922        TOTAL FREE ENERGY PREDICTED BY IDOCK:   -5.91 KCAL/MOL
REMARK 923 INTER-LIGAND FREE ENERGY PREDICTED BY IDOCK:   -5.62 KCAL/MOL
REMARK 924 INTRA-LIGAND FREE ENERGY PREDICTED BY IDOCK:   -0.29 KCAL/MOL
REMARK 927      BINDING AFFINITY PREDICTED BY RF-SCORE:    0.00 PKD
ROOT
HETATM    1  O   UNL     1     -14.122   8.760  73.208  1.00  0.00    -1.180 OA 
HETATM    2  C   UNL     1     -13.518   9.802  72.440  1.00  0.00    -0.272 C  
HETATM    3  H   UNL     1     -14.416   9.106  74.042  1.00  0.00     0.000 HD 
ENDROOT
BRANCH   2   4
HETATM    4  C   UNL     1     -13.042   9.243  71.091  1.00  0.00    -0.190 C  
HETATM    5  C   UNL     1     -11.579   8.841  71.097  1.00  0.00    -0.344 C  
HETATM    6  C   UNL     1     -10.870  10.075  70.592  1.00  0.00    -0.367 C  
HETATM    7  C   UNL     1     -11.884  10.696  69.644  1.00  0.00    -0.286 C  
HETATM    8  O   UNL     1     -13.185  10.245  70.067  1.00  0.00     0.034 OA 
BRANCH   7   9
HETATM    9  N   UNL     1     -11.843  12.147  69.623  1.00  0.00    -0.322 NA 
HETATM   10  C   UNL     1     -12.146  12.960  70.693  1.00  0.00    -0.235 A  
HETATM   11  N   UNL     1     -12.061  14.241  70.386  1.00  0.00    -0.317 NA 
HETATM   12  C   UNL     1     -11.661  14.267  69.066  1.00  0.00    -0.305 A  
HETATM   13  C   UNL     1     -11.524  12.985  68.604  1.00  0.00    -0.307 A  
HETATM   14  N   UNL     1     -11.132  12.707  67.353  1.00  0.00    -0.261 NA 
HETATM   15  C   UNL     1     -10.863  13.790  66.554  1.00  0.00    -0.287 C  
HETATM   16  N   UNL     1     -10.965  15.045  66.876  1.00  0.00    -0.320 N  
HETATM   17  H   UNL     1     -10.742  15.769  66.193  1.00  0.00     0.000 HD 
HETATM   18  C   UNL     1     -11.383  15.397  68.168  1.00  0.00    -0.348 C  
HETATM   19  O   UNL     1     -11.515  16.563  68.520  1.00  0.00    -0.317 OA 
ENDBRANCH   7   9
ENDBRANCH   2   4
TORSDOF 2
ENDMDL
MODEL       59
REMARK 921   NORMALIZED FREE ENERGY PREDICTED BY IDOCK:   -5.03 KCAL/MOL
REMARK 922        TOTAL FREE ENERGY PREDICTED BY IDOCK:   -5.91 KCAL/MOL
REMARK 923 INTER-LIGAND FREE ENERGY PREDICTED BY IDOCK:   -5.62 KCAL/MOL
REMARK 924 INTRA-LIGAND FREE ENERGY PREDICTED BY IDOCK:   -0.29 KCAL/MOL
REMARK 927      BINDING AFFINITY PREDICTED BY RF-SCORE:    0.00 PKD
ROOT
HETATM    1  O   UNL     1     -12.320  14.149  65.762  1.00  0.00    -0.438 OA 
HETATM    2  C   UNL     1     -12.093  13.976  67.162  1.00  0.00    -0.401 C  
HETATM    3  H   UNL     1     -13.152  14.586  65.625  1.00  0.00     0.000 HD 
ENDROOT
BRANCH   2   4
HETATM    4  C   UNL     1     -10.748  13.268  67.384  1.00  0.00    -0.258 C  
HETATM    5  C   UNL     1     -10.623  11.971  66.607  1.00  0.00    -0.266 C  
HETATM    6  C   UNL     1     -11.093  10.923  67.587  1.00  0.00    -0.376 C  
HETATM    7  C   UNL     1     -10.680  11.496  68.933  1.00  0.00    -0.207 C  
HETATM    8  O   UNL     1     -10.599  12.925  68.775  1.00  0.00    -0.242 OA 
BRANCH   7   9
HETATM    9  N   UNL     1     -11.599  11.166  70.008  1.00  0.00    -0.321 NA 
HETATM   10  C   UNL     1     -12.437  12.064  70.632  1.00  0.00    -0.247 A  
HETATM   11  N   UNL     1     -13.140  11.502  71.598  1.00  0.00    -0.439 NA 
HETATM   12  C   UNL     1     -12.765  10.174  71.589  1.00  0.00    -0.447 A  
HETATM   13  C   UNL     1     -11.826   9.972  70.612  1.00  0.00    -0.325 A  
HETATM   14  N   UNL     1     -11.290   8.769  70.365  1.00  0.00    -0.233 NA 
HETATM   15  C   UNL     1     -11.745   7.737  71.149  1.00  0.00    -0.284 C  
HETATM   16  N   UNL     1     -12.620   7.809  72.106  1.00  0.00    -0.468 N  
HETATM   17  H   UNL     1     -12.879   6.972  72.629  1.00  0.00     0.000 HD 
HETATM   18  C   UNL     1     -13.207   9.045  72.418  1.00  0.00    -0.447 C  
HETATM   19  O   UNL     1     -14.022   9.175  73.323  1.00  0.00    -0.227 OA 
ENDBRANCH   7   9
ENDBRANCH   2   4
TORSDOF 2
ENDMDL
MODEL       60
REMARK 921   NORMALIZED FREE ENERGY PREDICTED BY IDOCK:   -5.00 KCAL/MOL
REMARK 922        TOTAL FREE ENERGY PREDICTED BY IDOCK:   -5.88 KCAL/MOL
REMARK 923 INTER-LIGAND FREE ENERGY PREDICTED BY IDOCK:   -5.55 KCAL/MOL
REMARK 924 INTRA-LIGAND FREE ENERGY PREDICTED BY IDOCK:   -0.33 KCAL/MOL
REMARK 927      BINDING AFFINITY PREDICTED BY RF-SCORE:    0.00 PKD
ROOT
HETATM    1  O   UNL     1      -9.736  20.380  65.772  1.00  0.00    -0.640 OA 
HETATM    2  C   UNL     1     -10.609  19.696  66.672  1.00  0.00    -0.487 C  
HETATM    3  H   UNL     1     -10.147  20.449  64.918  1.00  0.00     0.000 HD 
ENDROOT
BRANCH   2   4
HETATM    4  C   UNL     1      -9.945  19.583  68.052  1.00  0.00    -0.406 C  
HETATM    5  C   UNL     1      -8.436  19.439  67.976  1.00  0.00    -0.355 C  
HETATM    6  C   UNL     1      -8.221  17.945  67.988  1.00  0.00    -0.257 C  
HETATM    7  C   UNL     1      -9.379  17.433  68.829  1.00  0.00    -0.244 C  
HETATM    8  O   UNL     1     -10.431  18.412  68.736  1.00  0.00    -0.270 OA 
BRANCH   7   9
HETATM    9  N   UNL     1      -9.871  16.134  68.406  1.00  0.00    -0.218 NA 
HETATM   10  C   UNL     1      -9.612  15.552  67.185  1.00  0.00    -0.222 A  
HETATM   11  N   UNL     1     -10.213  14.384  67.051  1.00  0.00    -0.260 NA 
HETATM   12  C   UNL     1     -10.872  14.182  68.246  1.00  0.00    -0.247 A  
HETATM   13  C   UNL     1     -10.657  15.252  69.074  1.00  0.00    -0.245 A  
HETATM   14  N   UNL     1     -11.168  15.321  70.311  1.00  0.00    -0.275 NA 
HETATM   15  C   UNL     1     -11.921  14.244  70.711  1.00  0.00    -0.320 C  
HETATM   16  N   UNL     1     -12.200  13.183  70.014  1.00  0.00    -0.288 N  
HETATM   17  H   UNL     1     -12.778  12.444  70.415  1.00  0.00     0.000 HD 
HETATM   18  C   UNL     1     -11.702  13.060  68.708  1.00  0.00    -0.324 C  
HETATM   19  O   UNL     1     -11.950  12.092  68.000  1.00  0.00    -0.495 OA 
ENDBRANCH   7   9
ENDBRANCH   2   4
TORSDOF 2
ENDMDL
MODEL       61
REMARK 921   NORMALIZED FREE ENERGY PREDICTED BY IDOCK:   -5.00 KCAL/MOL
REMARK 922        TOTAL FREE ENERGY PREDICTED BY IDOCK:   -5.88 KCAL/MOL
REMARK 923 INTER-LIGAND FREE ENERGY PREDICTED BY IDOCK:   -6.01 KCAL/MOL
REMARK 924 INTRA-LIGAND FREE ENERGY PREDICTED BY IDOCK:    0.14 KCAL/MOL
REMARK 927      BINDING AFFINITY PREDICTED BY RF-SCORE:    0.00 PKD
ROOT
HETATM    1  O   UNL     1     -11.990  10.830  67.856  1.00  0.00    -0.753 OA 
HETATM    2  C   UNL     1     -11.189  11.747  67.110  1.00  0.00    -0.316 C  
HETATM    3  H   UNL     1     -11.554  10.613  68.670  1.00  0.00     0.000 HD 
ENDROOT
BRANCH   2   4
HETATM    4  C   UNL     1     -11.894  12.099  65.792  1.00  0.00    -0.274 C  
HETATM    5  C   UNL     1     -10.989  11.971  64.581  1.00  0.00    -0.367 C  
HETATM    6  C   UNL     1     -10.433  13.364  64.405  1.00  0.00    -0.403 C  
HETATM    7  C   UNL     1     -11.559  14.255  64.905  1.00  0.00    -0.384 C  
HETATM    8  O   UNL     1     -12.340  13.468  65.825  1.00  0.00    -0.431 OA 
BRANCH   7   9
HETATM    9  N   UNL     1     -11.093  15.464  65.558  1.00  0.00    -0.323 NA 
HETATM   10  C   UNL     1     -10.683  16.606  64.905  1.00  0.00    -0.082 A  
HETATM   11  N   UNL     1     -10.277  17.542  65.743  1.00  0.00    -0.602 NA 
HETATM   12  C   UNL     1     -10.451  16.999  66.999  1.00  0.00    -0.279 A  
HETATM   13  C   UNL     1     -10.955  15.730  66.882  1.00  0.00    -0.207 A  
HETATM   14  N   UNL     1     -11.237  14.965  67.946  1.00  0.00    -0.302 NA 
HETATM   15  C   UNL     1     -11.000  15.534  69.173  1.00  0.00    -0.259 C  
HETATM   16  N   UNL     1     -10.518  16.718  69.407  1.00  0.00    -0.327 N  
HETATM   17  H   UNL     1     -10.377  17.033  70.367  1.00  0.00     0.000 HD 
HETATM   18  C   UNL     1     -10.192  17.558  68.333  1.00  0.00    -0.372 C  
HETATM   19  O   UNL     1      -9.717  18.676  68.494  1.00  0.00    -0.333 OA 
ENDBRANCH   7   9
ENDBRANCH   2   4
TORSDOF 2
ENDMDL
MODEL       62
REMARK 921   NORMALIZED FREE ENERGY PREDICTED BY IDOCK:   -4.95 KCAL/MOL
REMARK 922        TOTAL FREE ENERGY PREDICTED BY IDOCK:   -5.83 KCAL/MOL
REMARK 923 INTER-LIGAND FREE ENERGY PREDICTED BY IDOCK:   -5.54 KCAL/MOL
REMARK 924 INTRA-LIGAND FREE ENERGY PREDICTED BY IDOCK:   -0.28 KCAL/MOL
REMARK 927      BINDING AFFINITY PREDICTED BY RF-SCORE:    0.00 PKD
ROOT
HETATM    1  O   UNL     1     -13.191  15.308  71.893  1.00  0.00    -0.354 OA 
HETATM    2  C   UNL     1     -12.116  15.686  71.032  1.00  0.00    -0.400 C  
HETATM    3  H   UNL     1     -13.011  15.602  72.778  1.00  0.00     0.000 HD 
ENDROOT
BRANCH   2   4
HETATM    4  C   UNL     1     -12.407  15.209  69.601  1.00  0.00    -0.207 C  
HETATM    5  C   UNL     1     -11.665  13.937  69.236  1.00  0.00    -0.381 C  
HETATM    6  C   UNL     1     -10.400  14.438  68.583  1.00  0.00    -0.245 C  
HETATM    7  C   UNL     1     -10.838  15.737  67.925  1.00  0.00    -0.314 C  
HETATM    8  O   UNL     1     -11.985  16.211  68.656  1.00  0.00    -0.254 OA 
BRANCH   7   9
HETATM    9  N   UNL     1      -9.804  16.755  67.910  1.00  0.00    -0.251 NA 
HETATM   10  C   UNL     1      -8.603  16.670  68.579  1.00  0.00    -0.234 A  
HETATM   11  N   UNL     1      -7.864  17.753  68.420  1.00  0.00    -0.275 NA 
HETATM   12  C   UNL     1      -8.603  18.572  67.591  1.00  0.00    -0.264 A  
HETATM   13  C   UNL     1      -9.786  17.956  67.277  1.00  0.00    -0.309 A  
HETATM   14  N   UNL     1     -10.700  18.517  66.473  1.00  0.00    -0.304 NA 
HETATM   15  C   UNL     1     -10.377  19.753  65.968  1.00  0.00    -0.511 C  
HETATM   16  N   UNL     1      -9.296  20.435  66.200  1.00  0.00    -0.642 N  
HETATM   17  H   UNL     1      -9.166  21.351  65.772  1.00  0.00     0.000 HD 
HETATM   18  C   UNL     1      -8.309  19.904  67.044  1.00  0.00    -0.319 C  
HETATM   19  O   UNL     1      -7.280  20.511  67.314  1.00  0.00    -0.280 OA 
ENDBRANCH   7   9
ENDBRANCH   2   4
TORSDOF 2
ENDMDL
MODEL       63
REMARK 921   NORMALIZED FREE ENERGY PREDICTED BY IDOCK:   -4.93 KCAL/MOL
REMARK 922        TOTAL FREE ENERGY PREDICTED BY IDOCK:   -5.81 KCAL/MOL
REMARK 923 INTER-LIGAND FREE ENERGY PREDICTED BY IDOCK:   -5.51 KCAL/MOL
REMARK 924 INTRA-LIGAND FREE ENERGY PREDICTED BY IDOCK:   -0.30 KCAL/MOL
REMARK 927      BINDING AFFINITY PREDICTED BY RF-SCORE:    0.00 PKD
ROOT
HETATM    1  O   UNL     1     -11.954  10.559  68.022  1.00  0.00    -0.758 OA 
HETATM    2  C   UNL     1     -12.459  10.726  69.347  1.00  0.00     0.077 C  
HETATM    3  H   UNL     1     -12.499   9.943  67.547  1.00  0.00     0.000 HD 
ENDROOT
BRANCH   2   4
HETATM    4  C   UNL     1     -11.578  11.723  70.115  1.00  0.00    -0.195 C  
HETATM    5  C   UNL     1     -12.380  12.720  70.931  1.00  0.00    -0.356 C  
HETATM    6  C   UNL     1     -12.532  13.899  70.001  1.00  0.00    -0.325 C  
HETATM    7  C   UNL     1     -11.256  13.859  69.175  1.00  0.00    -0.269 C  
HETATM    8  O   UNL     1     -10.790  12.496  69.189  1.00  0.00    -0.189 OA 
BRANCH   7   9
HETATM    9  N   UNL     1     -11.438  14.307  67.807  1.00  0.00    -0.310 NA 
HETATM   10  C   UNL     1     -12.033  13.569  66.807  1.00  0.00    -0.404 A  
HETATM   11  N   UNL     1     -12.036  14.205  65.650  1.00  0.00    -0.380 NA 
HETATM   12  C   UNL     1     -11.440  15.423  65.910  1.00  0.00    -0.014 A  
HETATM   13  C   UNL     1     -11.081  15.483  67.230  1.00  0.00    -0.271 A  
HETATM   14  N   UNL     1     -10.491  16.559  67.769  1.00  0.00    -0.299 NA 
HETATM   15  C   UNL     1     -10.273  17.614  66.916  1.00  0.00    -0.334 C  
HETATM   16  N   UNL     1     -10.561  17.668  65.650  1.00  0.00    -0.251 N  
HETATM   17  H   UNL     1     -10.346  18.507  65.111  1.00  0.00     0.000 HD 
HETATM   18  C   UNL     1     -11.168  16.567  65.029  1.00  0.00    -0.087 C  
HETATM   19  O   UNL     1     -11.443  16.556  63.835  1.00  0.00    -1.145 OA 
ENDBRANCH   7   9
ENDBRANCH   2   4
TORSDOF 2
ENDMDL
MODEL       64
REMARK 921   NORMALIZED FREE ENERGY PREDICTED BY IDOCK:   -4.92 KCAL/MOL
REMARK 922        TOTAL FREE ENERGY PREDICTED BY IDOCK:   -5.79 KCAL/MOL
REMARK 923 INTER-LIGAND FREE ENERGY PREDICTED BY IDOCK:   -5.30 KCAL/MOL
REMARK 924 INTRA-LIGAND FREE ENERGY PREDICTED BY IDOCK:   -0.49 KCAL/MOL
REMARK 927      BINDING AFFINITY PREDICTED BY RF-SCORE:    0.00 PKD
ROOT
HETATM    1  O   UNL     1      -8.356   8.783  72.284  1.00  0.00    -0.367 OA 
HETATM    2  C   UNL     1      -8.551   7.411  71.940  1.00  0.00    -0.111 C  
HETATM    3  H   UNL     1      -7.602   9.126  71.820  1.00  0.00     0.000 HD 
ENDROOT
BRANCH   2   4
HETATM    4  C   UNL     1      -9.771   6.857  72.691  1.00  0.00    -0.149 C  
HETATM    5  C   UNL     1     -10.620   5.929  71.842  1.00  0.00    -0.280 C  
HETATM    6  C   UNL     1     -11.666   6.844  71.253  1.00  0.00    -0.371 C  
HETATM    7  C   UNL     1     -11.852   7.901  72.331  1.00  0.00    -0.348 C  
HETATM    8  O   UNL     1     -10.631   7.940  73.094  1.00  0.00    -0.359 OA 
BRANCH   7   9
HETATM    9  N   UNL     1     -12.149   9.220  71.802  1.00  0.00    -0.369 NA 
HETATM   10  C   UNL     1     -13.206  10.009  72.197  1.00  0.00    -0.390 A  
HETATM   11  N   UNL     1     -13.259  11.145  71.527  1.00  0.00    -0.350 NA 
HETATM   12  C   UNL     1     -12.175  11.110  70.674  1.00  0.00    -0.397 A  
HETATM   13  C   UNL     1     -11.496   9.933  70.848  1.00  0.00    -0.376 A  
HETATM   14  N   UNL     1     -10.388   9.631  70.158  1.00  0.00    -0.247 NA 
HETATM   15  C   UNL     1      -9.961  10.582  69.263  1.00  0.00    -0.213 C  
HETATM   16  N   UNL     1     -10.525  11.724  69.007  1.00  0.00    -0.380 N  
HETATM   17  H   UNL     1     -10.119  12.351  68.312  1.00  0.00     0.000 HD 
HETATM   18  C   UNL     1     -11.695  12.089  69.690  1.00  0.00    -0.335 C  
HETATM   19  O   UNL     1     -12.279  13.144  69.474  1.00  0.00    -0.258 OA 
ENDBRANCH   7   9
ENDBRANCH   2   4
TORSDOF 2
ENDMDL
MODEL       65
REMARK 921   NORMALIZED FREE ENERGY PREDICTED BY IDOCK:   -4.92 KCAL/MOL
REMARK 922        TOTAL FREE ENERGY PREDICTED BY IDOCK:   -5.79 KCAL/MOL
REMARK 923 INTER-LIGAND FREE ENERGY PREDICTED BY IDOCK:   -5.90 KCAL/MOL
REMARK 924 INTRA-LIGAND FREE ENERGY PREDICTED BY IDOCK:    0.11 KCAL/MOL
REMARK 927      BINDING AFFINITY PREDICTED BY RF-SCORE:    0.00 PKD
ROOT
HETATM    1  O   UNL     1     -12.757  16.244  74.466  1.00  0.00    -0.892 OA 
HETATM    2  C   UNL     1     -12.389  16.200  73.087  1.00  0.00    -0.538 C  
HETATM    3  H   UNL     1     -12.040  16.599  74.977  1.00  0.00     0.000 HD 
ENDROOT
BRANCH   2   4
HETATM    4  C   UNL     1     -13.549  15.625  72.260  1.00  0.00    -0.496 C  
HETATM    5  C   UNL     1     -13.830  14.165  72.565  1.00  0.00    -0.590 C  
HETATM    6  C   UNL     1     -13.010  13.423  71.537  1.00  0.00    -0.429 C  
HETATM    7  C   UNL     1     -13.014  14.365  70.343  1.00  0.00    -0.155 C  
HETATM    8  O   UNL     1     -13.231  15.693  70.857  1.00  0.00    -0.515 OA 
BRANCH   7   9
HETATM    9  N   UNL     1     -11.785  14.325  69.572  1.00  0.00    -0.295 NA 
HETATM   10  C   UNL     1     -11.271  13.201  68.964  1.00  0.00    -0.258 A  
HETATM   11  N   UNL     1     -10.123  13.442  68.358  1.00  0.00    -0.245 NA 
HETATM   12  C   UNL     1      -9.888  14.787  68.557  1.00  0.00    -0.218 A  
HETATM   13  C   UNL     1     -10.909  15.325  69.295  1.00  0.00    -0.257 A  
HETATM   14  N   UNL     1     -10.952  16.621  69.630  1.00  0.00    -0.290 NA 
HETATM   15  C   UNL     1      -9.908  17.392  69.179  1.00  0.00    -0.158 C  
HETATM   16  N   UNL     1      -8.885  16.995  68.483  1.00  0.00    -0.247 N  
HETATM   17  H   UNL     1      -8.163  17.660  68.208  1.00  0.00     0.000 HD 
HETATM   18  C   UNL     1      -8.781  15.645  68.114  1.00  0.00    -0.168 C  
HETATM   19  O   UNL     1      -7.829  15.212  67.475  1.00  0.00    -0.149 OA 
ENDBRANCH   7   9
ENDBRANCH   2   4
TORSDOF 2
ENDMDL
MODEL       66
REMARK 921   NORMALIZED FREE ENERGY PREDICTED BY IDOCK:   -4.90 KCAL/MOL
REMARK 922        TOTAL FREE ENERGY PREDICTED BY IDOCK:   -5.77 KCAL/MOL
REMARK 923 INTER-LIGAND FREE ENERGY PREDICTED BY IDOCK:   -5.32 KCAL/MOL
REMARK 924 INTRA-LIGAND FREE ENERGY PREDICTED BY IDOCK:   -0.45 KCAL/MOL
REMARK 927      BINDING AFFINITY PREDICTED BY RF-SCORE:    0.00 PKD
ROOT
HETATM    1  O   UNL     1     -11.266  16.519  70.584  1.00  0.00    -0.471 OA 
HETATM    2  C   UNL     1     -11.336  15.133  70.924  1.00  0.00    -0.307 C  
HETATM    3  H   UNL     1     -10.684  16.967  71.186  1.00  0.00     0.000 HD 
ENDROOT
BRANCH   2   4
HETATM    4  C   UNL     1     -12.277  14.409  69.950  1.00  0.00    -0.340 C  
HETATM    5  C   UNL     1     -11.777  13.032  69.554  1.00  0.00    -0.381 C  
HETATM    6  C   UNL     1     -11.006  13.286  68.282  1.00  0.00    -0.280 C  
HETATM    7  C   UNL     1     -11.742  14.461  67.657  1.00  0.00    -0.391 C  
HETATM    8  O   UNL     1     -12.397  15.164  68.730  1.00  0.00    -0.115 OA 
BRANCH   7   9
HETATM    9  N   UNL     1     -10.872  15.366  66.928  1.00  0.00    -0.316 NA 
HETATM   10  C   UNL     1     -11.005  15.685  65.594  1.00  0.00    -0.272 A  
HETATM   11  N   UNL     1     -10.057  16.505  65.180  1.00  0.00    -0.483 NA 
HETATM   12  C   UNL     1      -9.285  16.754  66.297  1.00  0.00    -0.279 A  
HETATM   13  C   UNL     1      -9.790  16.060  67.364  1.00  0.00    -0.236 A  
HETATM   14  N   UNL     1      -9.247  16.123  68.588  1.00  0.00    -0.210 NA 
HETATM   15  C   UNL     1      -8.149  16.939  68.715  1.00  0.00    -0.251 C  
HETATM   16  N   UNL     1      -7.579  17.635  67.778  1.00  0.00    -0.203 N  
HETATM   17  H   UNL     1      -6.759  18.205  67.989  1.00  0.00     0.000 HD 
HETATM   18  C   UNL     1      -8.096  17.598  66.474  1.00  0.00    -0.270 C  
HETATM   19  O   UNL     1      -7.587  18.218  65.548  1.00  0.00    -0.518 OA 
ENDBRANCH   7   9
ENDBRANCH   2   4
TORSDOF 2
ENDMDL
MODEL       67
REMARK 921   NORMALIZED FREE ENERGY PREDICTED BY IDOCK:   -4.88 KCAL/MOL
REMARK 922        TOTAL FREE ENERGY PREDICTED BY IDOCK:   -5.75 KCAL/MOL
REMARK 923 INTER-LIGAND FREE ENERGY PREDICTED BY IDOCK:   -5.58 KCAL/MOL
REMARK 924 INTRA-LIGAND FREE ENERGY PREDICTED BY IDOCK:   -0.17 KCAL/MOL
REMARK 927      BINDING AFFINITY PREDICTED BY RF-SCORE:    0.00 PKD
ROOT
HETATM    1  O   UNL     1     -12.171  13.952  68.012  1.00  0.00    -0.471 OA 
HETATM    2  C   UNL     1     -11.575  13.381  69.178  1.00  0.00    -0.315 C  
HETATM    3  H   UNL     1     -11.840  14.833  67.882  1.00  0.00     0.000 HD 
ENDROOT
BRANCH   2   4
HETATM    4  C   UNL     1     -12.111  11.958  69.389  1.00  0.00    -0.216 C  
HETATM    5  C   UNL     1     -11.170  11.082  70.195  1.00  0.00    -0.264 C  
HETATM    6  C   UNL     1     -10.344  10.384  69.142  1.00  0.00    -0.241 C  
HETATM    7  C   UNL     1     -11.306  10.257  67.972  1.00  0.00    -0.146 C  
HETATM    8  O   UNL     1     -12.284  11.305  68.116  1.00  0.00    -0.622 OA 
BRANCH   7   9
HETATM    9  N   UNL     1     -10.658  10.358  66.677  1.00  0.00    -0.211 NA 
HETATM   10  C   UNL     1      -9.581   9.601  66.272  1.00  0.00    -0.221 A  
HETATM   11  N   UNL     1      -9.170   9.924  65.060  1.00  0.00    -0.221 NA 
HETATM   12  C   UNL     1     -10.032  10.918  64.643  1.00  0.00    -0.310 A  
HETATM   13  C   UNL     1     -10.943  11.177  65.632  1.00  0.00    -0.079 A  
HETATM   14  N   UNL     1     -11.913  12.092  65.497  1.00  0.00    -0.439 NA 
HETATM   15  C   UNL     1     -11.950  12.755  64.296  1.00  0.00    -0.405 C  
HETATM   16  N   UNL     1     -11.138  12.602  63.293  1.00  0.00    -0.701 N  
HETATM   17  H   UNL     1     -11.258  13.159  62.446  1.00  0.00     0.000 HD 
HETATM   18  C   UNL     1     -10.095  11.668  63.381  1.00  0.00    -0.440 C  
HETATM   19  O   UNL     1      -9.289  11.496  62.474  1.00  0.00    -0.274 OA 
ENDBRANCH   7   9
ENDBRANCH   2   4
TORSDOF 2
ENDMDL
MODEL       68
REMARK 921   NORMALIZED FREE ENERGY PREDICTED BY IDOCK:   -4.88 KCAL/MOL
REMARK 922        TOTAL FREE ENERGY PREDICTED BY IDOCK:   -5.75 KCAL/MOL
REMARK 923 INTER-LIGAND FREE ENERGY PREDICTED BY IDOCK:   -5.51 KCAL/MOL
REMARK 924 INTRA-LIGAND FREE ENERGY PREDICTED BY IDOCK:   -0.24 KCAL/MOL
REMARK 927      BINDING AFFINITY PREDICTED BY RF-SCORE:    0.00 PKD
ROOT
HETATM    1  O   UNL     1      -8.380  11.687  66.658  1.00  0.00    -0.170 OA 
HETATM    2  C   UNL     1      -8.500  10.666  65.667  1.00  0.00    -0.178 C  
HETATM    3  H   UNL     1      -7.465  11.812  66.880  1.00  0.00     0.000 HD 
ENDROOT
BRANCH   2   4
HETATM    4  C   UNL     1      -9.979  10.464  65.308  1.00  0.00    -0.309 C  
HETATM    5  C   UNL     1     -10.278  10.735  63.845  1.00  0.00    -0.377 C  
HETATM    6  C   UNL     1     -10.693  12.186  63.830  1.00  0.00    -0.488 C  
HETATM    7  C   UNL     1     -11.352  12.374  65.187  1.00  0.00    -0.323 C  
HETATM    8  O   UNL     1     -10.796  11.377  66.065  1.00  0.00    -0.279 OA 
BRANCH   7   9
HETATM    9  N   UNL     1     -11.152  13.698  65.749  1.00  0.00    -0.287 NA 
HETATM   10  C   UNL     1     -10.637  14.776  65.064  1.00  0.00    -0.429 A  
HETATM   11  N   UNL     1     -10.531  15.848  65.826  1.00  0.00    -0.351 NA 
HETATM   12  C   UNL     1     -11.022  15.462  67.057  1.00  0.00    -0.306 A  
HETATM   13  C   UNL     1     -11.405  14.148  67.004  1.00  0.00    -0.332 A  
HETATM   14  N   UNL     1     -11.934  13.508  68.056  1.00  0.00    -0.356 NA 
HETATM   15  C   UNL     1     -12.080  14.253  69.200  1.00  0.00    -0.302 C  
HETATM   16  N   UNL     1     -11.746  15.497  69.372  1.00  0.00    -0.345 N  
HETATM   17  H   UNL     1     -11.897  15.949  70.274  1.00  0.00     0.000 HD 
HETATM   18  C   UNL     1     -11.177  16.215  68.309  1.00  0.00    -0.343 C  
HETATM   19  O   UNL     1     -10.825  17.384  68.420  1.00  0.00    -0.336 OA 
ENDBRANCH   7   9
ENDBRANCH   2   4
TORSDOF 2
ENDMDL
MODEL       69
REMARK 921   NORMALIZED FREE ENERGY PREDICTED BY IDOCK:   -4.86 KCAL/MOL
REMARK 922        TOTAL FREE ENERGY PREDICTED BY IDOCK:   -5.73 KCAL/MOL
REMARK 923 INTER-LIGAND FREE ENERGY PREDICTED BY IDOCK:   -5.59 KCAL/MOL
REMARK 924 INTRA-LIGAND FREE ENERGY PREDICTED BY IDOCK:   -0.14 KCAL/MOL
REMARK 927      BINDING AFFINITY PREDICTED BY RF-SCORE:    0.00 PKD
ROOT
HETATM    1  O   UNL     1     -11.490  16.426  63.587  1.00  0.00    -1.446 OA 
HETATM    2  C   UNL     1     -11.655  15.618  64.753  1.00  0.00    -0.218 C  
HETATM    3  H   UNL     1     -11.508  17.344  63.829  1.00  0.00     0.000 HD 
ENDROOT
BRANCH   2   4
HETATM    4  C   UNL     1     -11.625  14.133  64.362  1.00  0.00    -0.362 C  
HETATM    5  C   UNL     1     -12.622  13.293  65.139  1.00  0.00    -0.512 C  
HETATM    6  C   UNL     1     -11.818  12.780  66.309  1.00  0.00    -0.485 C  
HETATM    7  C   UNL     1     -10.414  12.656  65.739  1.00  0.00    -0.277 C  
HETATM    8  O   UNL     1     -10.325  13.579  64.638  1.00  0.00    -0.408 OA 
BRANCH   7   9
HETATM    9  N   UNL     1      -9.370  12.936  66.708  1.00  0.00    -0.238 NA 
HETATM   10  C   UNL     1      -8.327  12.089  67.011  1.00  0.00    -0.178 A  
HETATM   11  N   UNL     1      -7.542  12.580  67.953  1.00  0.00    -0.119 NA 
HETATM   12  C   UNL     1      -8.081  13.812  68.262  1.00  0.00    -0.150 A  
HETATM   13  C   UNL     1      -9.195  14.029  67.495  1.00  0.00    -0.197 A  
HETATM   14  N   UNL     1      -9.918  15.155  67.573  1.00  0.00    -0.225 NA 
HETATM   15  C   UNL     1      -9.468  16.095  68.468  1.00  0.00    -0.216 C  
HETATM   16  N   UNL     1      -8.436  15.998  69.252  1.00  0.00    -0.251 N  
HETATM   17  H   UNL     1      -8.199  16.763  69.884  1.00  0.00     0.000 HD 
HETATM   18  C   UNL     1      -7.649  14.837  69.222  1.00  0.00    -0.144 C  
HETATM   19  O   UNL     1      -6.677  14.684  69.952  1.00  0.00    -0.163 OA 
ENDBRANCH   7   9
ENDBRANCH   2   4
TORSDOF 2
ENDMDL
MODEL       70
REMARK 921   NORMALIZED FREE ENERGY PREDICTED BY IDOCK:   -4.86 KCAL/MOL
REMARK 922        TOTAL FREE ENERGY PREDICTED BY IDOCK:   -5.72 KCAL/MOL
REMARK 923 INTER-LIGAND FREE ENERGY PREDICTED BY IDOCK:   -5.43 KCAL/MOL
REMARK 924 INTRA-LIGAND FREE ENERGY PREDICTED BY IDOCK:   -0.30 KCAL/MOL
REMARK 927      BINDING AFFINITY PREDICTED BY RF-SCORE:    0.00 PKD
ROOT
HETATM    1  O   UNL     1     -11.558  10.448  67.690  1.00  0.00    -0.615 OA 
HETATM    2  C   UNL     1     -10.878  11.535  67.060  1.00  0.00    -0.273 C  
HETATM    3  H   UNL     1     -10.930   9.781  67.942  1.00  0.00     0.000 HD 
ENDROOT
BRANCH   2   4
HETATM    4  C   UNL     1     -11.892  12.613  66.651  1.00  0.00    -0.380 C  
HETATM    5  C   UNL     1     -11.894  12.891  65.159  1.00  0.00    -0.415 C  
HETATM    6  C   UNL     1     -10.932  14.045  65.012  1.00  0.00    -0.379 C  
HETATM    7  C   UNL     1     -11.095  14.804  66.319  1.00  0.00    -0.341 C  
HETATM    8  O   UNL     1     -11.569  13.859  67.297  1.00  0.00    -0.325 OA 
BRANCH   7   9
HETATM    9  N   UNL     1      -9.868  15.426  66.783  1.00  0.00    -0.238 NA 
HETATM   10  C   UNL     1      -8.618  14.850  66.718  1.00  0.00    -0.222 A  
HETATM   11  N   UNL     1      -7.685  15.622  67.244  1.00  0.00    -0.187 NA 
HETATM   12  C   UNL     1      -8.349  16.762  67.647  1.00  0.00    -0.182 A  
HETATM   13  C   UNL     1      -9.682  16.641  67.359  1.00  0.00    -0.251 A  
HETATM   14  N   UNL     1     -10.570  17.608  67.630  1.00  0.00    -0.375 NA 
HETATM   15  C   UNL     1     -10.061  18.744  68.210  1.00  0.00    -0.383 C  
HETATM   16  N   UNL     1      -8.823  18.969  68.536  1.00  0.00    -0.352 N  
HETATM   17  H   UNL     1      -8.560  19.854  68.970  1.00  0.00     0.000 HD 
HETATM   18  C   UNL     1      -7.851  17.988  68.288  1.00  0.00    -0.288 C  
HETATM   19  O   UNL     1      -6.674  18.138  68.592  1.00  0.00    -0.220 OA 
ENDBRANCH   7   9
ENDBRANCH   2   4
TORSDOF 2
ENDMDL
MODEL       71
REMARK 921   NORMALIZED FREE ENERGY PREDICTED BY IDOCK:   -4.86 KCAL/MOL
REMARK 922        TOTAL FREE ENERGY PREDICTED BY IDOCK:   -5.72 KCAL/MOL
REMARK 923 INTER-LIGAND FREE ENERGY PREDICTED BY IDOCK:   -5.79 KCAL/MOL
REMARK 924 INTRA-LIGAND FREE ENERGY PREDICTED BY IDOCK:    0.07 KCAL/MOL
REMARK 927      BINDING AFFINITY PREDICTED BY RF-SCORE:    0.00 PKD
ROOT
HETATM    1  O   UNL     1     -14.346   8.626  73.082  1.00  0.00    -1.076 OA 
HETATM    2  C   UNL     1     -13.249   9.423  72.633  1.00  0.00    -0.203 C  
HETATM    3  H   UNL     1     -14.698   8.988  73.886  1.00  0.00     0.000 HD 
ENDROOT
BRANCH   2   4
HETATM    4  C   UNL     1     -12.681   8.837  71.332  1.00  0.00    -0.283 C  
HETATM    5  C   UNL     1     -11.189   8.566  71.405  1.00  0.00    -0.327 C  
HETATM    6  C   UNL     1     -10.572   9.829  70.854  1.00  0.00    -0.344 C  
HETATM    7  C   UNL     1     -11.601  10.308  69.843  1.00  0.00    -0.256 C  
HETATM    8  O   UNL     1     -12.873   9.769  70.251  1.00  0.00     0.053 OA 
BRANCH   7   9
HETATM    9  N   UNL     1     -11.684  11.754  69.743  1.00  0.00    -0.324 NA 
HETATM   10  C   UNL     1     -11.094  12.512  68.756  1.00  0.00    -0.270 A  
HETATM   11  N   UNL     1     -11.301  13.805  68.928  1.00  0.00    -0.270 NA 
HETATM   12  C   UNL     1     -12.081  13.895  70.062  1.00  0.00    -0.345 A  
HETATM   13  C   UNL     1     -12.317  12.639  70.555  1.00  0.00    -0.268 A  
HETATM   14  N   UNL     1     -13.061  12.421  71.648  1.00  0.00    -0.376 NA 
HETATM   15  C   UNL     1     -13.588  13.538  72.248  1.00  0.00    -0.592 C  
HETATM   16  N   UNL     1     -13.426  14.774  71.879  1.00  0.00    -0.340 N  
HETATM   17  H   UNL     1     -13.863  15.528  72.409  1.00  0.00     0.000 HD 
HETATM   18  C   UNL     1     -12.647  15.064  70.749  1.00  0.00    -0.370 C  
HETATM   19  O   UNL     1     -12.445  16.211  70.368  1.00  0.00    -0.196 OA 
ENDBRANCH   7   9
ENDBRANCH   2   4
TORSDOF 2
ENDMDL
MODEL       72
REMARK 921   NORMALIZED FREE ENERGY PREDICTED BY IDOCK:   -4.86 KCAL/MOL
REMARK 922        TOTAL FREE ENERGY PREDICTED BY IDOCK:   -5.72 KCAL/MOL
REMARK 923 INTER-LIGAND FREE ENERGY PREDICTED BY IDOCK:   -5.42 KCAL/MOL
REMARK 924 INTRA-LIGAND FREE ENERGY PREDICTED BY IDOCK:   -0.30 KCAL/MOL
REMARK 927      BINDING AFFINITY PREDICTED BY RF-SCORE:    0.00 PKD
ROOT
HETATM    1  O   UNL     1     -11.584  16.368  63.719  1.00  0.00    -1.605 OA 
HETATM    2  C   UNL     1     -11.065  15.378  64.608  1.00  0.00    -0.347 C  
HETATM    3  H   UNL     1     -11.118  17.186  63.844  1.00  0.00     0.000 HD 
ENDROOT
BRANCH   2   4
HETATM    4  C   UNL     1     -11.819  14.055  64.406  1.00  0.00    -0.431 C  
HETATM    5  C   UNL     1     -12.809  13.760  65.518  1.00  0.00    -0.464 C  
HETATM    6  C   UNL     1     -12.017  12.913  66.484  1.00  0.00    -0.447 C  
HETATM    7  C   UNL     1     -11.053  12.162  65.579  1.00  0.00    -0.316 C  
HETATM    8  O   UNL     1     -10.886  12.958  64.390  1.00  0.00    -0.335 OA 
BRANCH   7   9
HETATM    9  N   UNL     1      -9.761  11.911  66.193  1.00  0.00    -0.227 NA 
HETATM   10  C   UNL     1      -9.081  12.801  66.993  1.00  0.00    -0.220 A  
HETATM   11  N   UNL     1      -7.914  12.328  67.388  1.00  0.00    -0.162 NA 
HETATM   12  C   UNL     1      -7.838  11.062  66.843  1.00  0.00    -0.140 A  
HETATM   13  C   UNL     1      -8.971  10.809  66.117  1.00  0.00    -0.177 A  
HETATM   14  N   UNL     1      -9.177   9.646  65.484  1.00  0.00    -0.215 NA 
HETATM   15  C   UNL     1      -8.183   8.708  65.613  1.00  0.00    -0.123 C  
HETATM   16  N   UNL     1      -7.066   8.837  66.264  1.00  0.00    -0.081 N  
HETATM   17  H   UNL     1      -6.393   8.070  66.287  1.00  0.00     0.000 HD 
HETATM   18  C   UNL     1      -6.789  10.037  66.936  1.00  0.00    -0.087 C  
HETATM   19  O   UNL     1      -5.744  10.221  67.549  1.00  0.00    -0.045 OA 
ENDBRANCH   7   9
ENDBRANCH   2   4
TORSDOF 2
ENDMDL
MODEL       73
REMARK 921   NORMALIZED FREE ENERGY PREDICTED BY IDOCK:   -4.85 KCAL/MOL
REMARK 922        TOTAL FREE ENERGY PREDICTED BY IDOCK:   -5.72 KCAL/MOL
REMARK 923 INTER-LIGAND FREE ENERGY PREDICTED BY IDOCK:   -5.53 KCAL/MOL
REMARK 924 INTRA-LIGAND FREE ENERGY PREDICTED BY IDOCK:   -0.19 KCAL/MOL
REMARK 927      BINDING AFFINITY PREDICTED BY RF-SCORE:    0.00 PKD
ROOT
HETATM    1  O   UNL     1      -9.464  11.787  68.862  1.00  0.00    -0.394 OA 
HETATM    2  C   UNL     1      -8.333  11.068  68.369  1.00  0.00    -0.139 C  
HETATM    3  H   UNL     1      -9.175  12.588  69.283  1.00  0.00     0.000 HD 
ENDROOT
BRANCH   2   4
HETATM    4  C   UNL     1      -8.799   9.773  67.689  1.00  0.00    -0.125 C  
HETATM    5  C   UNL     1      -7.837   9.281  66.622  1.00  0.00    -0.104 C  
HETATM    6  C   UNL     1      -8.376   9.890  65.350  1.00  0.00    -0.150 C  
HETATM    7  C   UNL     1      -9.875   9.951  65.601  1.00  0.00    -0.298 C  
HETATM    8  O   UNL     1     -10.060   9.992  67.029  1.00  0.00    -0.197 OA 
BRANCH   7   9
HETATM    9  N   UNL     1     -10.518  11.097  64.984  1.00  0.00    -0.296 NA 
HETATM   10  C   UNL     1     -10.535  11.359  63.631  1.00  0.00    -0.414 A  
HETATM   11  N   UNL     1     -11.160  12.486  63.349  1.00  0.00    -0.437 NA 
HETATM   12  C   UNL     1     -11.594  12.970  64.566  1.00  0.00    -0.360 A  
HETATM   13  C   UNL     1     -11.204  12.115  65.563  1.00  0.00    -0.334 A  
HETATM   14  N   UNL     1     -11.500  12.328  66.852  1.00  0.00    -0.339 NA 
HETATM   15  C   UNL     1     -12.233  13.457  67.121  1.00  0.00    -0.256 C  
HETATM   16  N   UNL     1     -12.650  14.342  66.265  1.00  0.00    -0.481 N  
HETATM   17  H   UNL     1     -13.185  15.150  66.583  1.00  0.00     0.000 HD 
HETATM   18  C   UNL     1     -12.359  14.179  64.902  1.00  0.00    -0.430 C  
HETATM   19  O   UNL     1     -12.710  14.991  64.055  1.00  0.00    -0.772 OA 
ENDBRANCH   7   9
ENDBRANCH   2   4
TORSDOF 2
ENDMDL
MODEL       74
REMARK 921   NORMALIZED FREE ENERGY PREDICTED BY IDOCK:   -4.82 KCAL/MOL
REMARK 922        TOTAL FREE ENERGY PREDICTED BY IDOCK:   -5.68 KCAL/MOL
REMARK 923 INTER-LIGAND FREE ENERGY PREDICTED BY IDOCK:   -5.30 KCAL/MOL
REMARK 924 INTRA-LIGAND FREE ENERGY PREDICTED BY IDOCK:   -0.38 KCAL/MOL
REMARK 927      BINDING AFFINITY PREDICTED BY RF-SCORE:    0.00 PKD
ROOT
HETATM    1  O   UNL     1      -9.227  13.837  66.001  1.00  0.00    -0.493 OA 
HETATM    2  C   UNL     1      -9.531  14.908  66.896  1.00  0.00    -0.237 C  
HETATM    3  H   UNL     1      -8.292  13.816  65.833  1.00  0.00     0.000 HD 
ENDROOT
BRANCH   2   4
HETATM    4  C   UNL     1     -11.043  14.941  67.167  1.00  0.00    -0.332 C  
HETATM    5  C   UNL     1     -11.396  15.612  68.482  1.00  0.00    -0.361 C  
HETATM    6  C   UNL     1     -11.462  14.464  69.460  1.00  0.00    -0.333 C  
HETATM    7  C   UNL     1     -11.939  13.303  68.603  1.00  0.00    -0.310 C  
HETATM    8  O   UNL     1     -11.556  13.598  67.246  1.00  0.00    -0.318 OA 
BRANCH   7   9
HETATM    9  N   UNL     1     -11.389  12.021  69.006  1.00  0.00    -0.255 NA 
HETATM   10  C   UNL     1     -10.327  11.391  68.396  1.00  0.00    -0.195 A  
HETATM   11  N   UNL     1     -10.058  10.221  68.946  1.00  0.00    -0.193 NA 
HETATM   12  C   UNL     1     -10.967  10.092  69.976  1.00  0.00    -0.300 A  
HETATM   13  C   UNL     1     -11.776  11.196  70.013  1.00  0.00    -0.356 A  
HETATM   14  N   UNL     1     -12.747  11.349  70.924  1.00  0.00    -0.332 NA 
HETATM   15  C   UNL     1     -12.881  10.330  71.834  1.00  0.00    -0.426 C  
HETATM   16  N   UNL     1     -12.182   9.236  71.892  1.00  0.00    -0.374 N  
HETATM   17  H   UNL     1     -12.376   8.541  72.614  1.00  0.00     0.000 HD 
HETATM   18  C   UNL     1     -11.161   9.015  70.957  1.00  0.00    -0.289 C  
HETATM   19  O   UNL     1     -10.484   7.993  70.952  1.00  0.00    -0.201 OA 
ENDBRANCH   7   9
ENDBRANCH   2   4
TORSDOF 2
ENDMDL
MODEL       75
REMARK 921   NORMALIZED FREE ENERGY PREDICTED BY IDOCK:   -4.82 KCAL/MOL
REMARK 922        TOTAL FREE ENERGY PREDICTED BY IDOCK:   -5.68 KCAL/MOL
REMARK 923 INTER-LIGAND FREE ENERGY PREDICTED BY IDOCK:   -5.35 KCAL/MOL
REMARK 924 INTRA-LIGAND FREE ENERGY PREDICTED BY IDOCK:   -0.34 KCAL/MOL
REMARK 927      BINDING AFFINITY PREDICTED BY RF-SCORE:    0.00 PKD
ROOT
HETATM    1  O   UNL     1      -5.579  16.875  68.030  1.00  0.00    -0.114 OA 
HETATM    2  C   UNL     1      -6.541  17.769  68.592  1.00  0.00    -0.218 C  
HETATM    3  H   UNL     1      -5.192  16.347  68.718  1.00  0.00     0.000 HD 
ENDROOT
BRANCH   2   4
HETATM    4  C   UNL     1      -7.167  18.622  67.479  1.00  0.00    -0.211 C  
HETATM    5  C   UNL     1      -8.361  19.431  67.950  1.00  0.00    -0.343 C  
HETATM    6  C   UNL     1      -9.539  18.541  67.636  1.00  0.00    -0.304 C  
HETATM    7  C   UNL     1      -9.085  17.786  66.398  1.00  0.00    -0.234 C  
HETATM    8  O   UNL     1      -7.645  17.772  66.419  1.00  0.00    -0.234 OA 
BRANCH   7   9
HETATM    9  N   UNL     1      -9.593  16.428  66.330  1.00  0.00    -0.291 NA 
HETATM   10  C   UNL     1      -9.181  15.390  67.136  1.00  0.00    -0.213 A  
HETATM   11  N   UNL     1      -9.784  14.254  66.835  1.00  0.00    -0.255 NA 
HETATM   12  C   UNL     1     -10.647  14.568  65.805  1.00  0.00    -0.317 A  
HETATM   13  C   UNL     1     -10.531  15.899  65.502  1.00  0.00    -0.404 A  
HETATM   14  N   UNL     1     -11.262  16.488  64.546  1.00  0.00    -0.881 NA 
HETATM   15  C   UNL     1     -12.150  15.675  63.885  1.00  0.00     0.294 C  
HETATM   16  N   UNL     1     -12.341  14.404  64.077  1.00  0.00    -0.931 N  
HETATM   17  H   UNL     1     -13.029  13.898  63.519  1.00  0.00     0.000 HD 
HETATM   18  C   UNL     1     -11.595  13.732  65.057  1.00  0.00    -0.341 C  
HETATM   19  O   UNL     1     -11.719  12.531  65.267  1.00  0.00    -0.350 OA 
ENDBRANCH   7   9
ENDBRANCH   2   4
TORSDOF 2
ENDMDL
MODEL       76
REMARK 921   NORMALIZED FREE ENERGY PREDICTED BY IDOCK:   -4.82 KCAL/MOL
REMARK 922        TOTAL FREE ENERGY PREDICTED BY IDOCK:   -5.68 KCAL/MOL
REMARK 923 INTER-LIGAND FREE ENERGY PREDICTED BY IDOCK:   -5.61 KCAL/MOL
REMARK 924 INTRA-LIGAND FREE ENERGY PREDICTED BY IDOCK:   -0.07 KCAL/MOL
REMARK 927      BINDING AFFINITY PREDICTED BY RF-SCORE:    0.00 PKD
ROOT
HETATM    1  O   UNL     1      -9.385  10.201  66.736  1.00  0.00    -0.155 OA 
HETATM    2  C   UNL     1     -10.451  11.059  67.144  1.00  0.00    -0.232 C  
HETATM    3  H   UNL     1      -9.513   9.335  67.104  1.00  0.00     0.000 HD 
ENDROOT
BRANCH   2   4
HETATM    4  C   UNL     1     -10.244  12.460  66.549  1.00  0.00    -0.227 C  
HETATM    5  C   UNL     1      -8.936  13.100  66.976  1.00  0.00    -0.228 C  
HETATM    6  C   UNL     1      -9.317  13.907  68.193  1.00  0.00    -0.203 C  
HETATM    7  C   UNL     1     -10.752  14.318  67.905  1.00  0.00    -0.240 C  
HETATM    8  O   UNL     1     -11.293  13.341  66.994  1.00  0.00    -0.289 OA 
BRANCH   7   9
HETATM    9  N   UNL     1     -11.581  14.399  69.094  1.00  0.00    -0.287 NA 
HETATM   10  C   UNL     1     -12.111  15.562  69.608  1.00  0.00    -0.328 A  
HETATM   11  N   UNL     1     -12.796  15.351  70.717  1.00  0.00    -0.459 NA 
HETATM   12  C   UNL     1     -12.732  13.988  70.924  1.00  0.00    -0.350 A  
HETATM   13  C   UNL     1     -11.993  13.409  69.927  1.00  0.00    -0.338 A  
HETATM   14  N   UNL     1     -11.774  12.089  69.865  1.00  0.00    -0.316 NA 
HETATM   15  C   UNL     1     -12.348  11.338  70.862  1.00  0.00    -0.388 C  
HETATM   16  N   UNL     1     -13.058  11.774  71.859  1.00  0.00    -0.445 N  
HETATM   17  H   UNL     1     -13.430  11.121  72.548  1.00  0.00     0.000 HD 
HETATM   18  C   UNL     1     -13.309  13.149  71.983  1.00  0.00    -0.493 C  
HETATM   19  O   UNL     1     -13.955  13.617  72.912  1.00  0.00    -0.630 OA 
ENDBRANCH   7   9
ENDBRANCH   2   4
TORSDOF 2
ENDMDL
MODEL       77
REMARK 921   NORMALIZED FREE ENERGY PREDICTED BY IDOCK:   -4.81 KCAL/MOL
REMARK 922        TOTAL FREE ENERGY PREDICTED BY IDOCK:   -5.67 KCAL/MOL
REMARK 923 INTER-LIGAND FREE ENERGY PREDICTED BY IDOCK:   -5.44 KCAL/MOL
REMARK 924 INTRA-LIGAND FREE ENERGY PREDICTED BY IDOCK:   -0.23 KCAL/MOL
REMARK 927      BINDING AFFINITY PREDICTED BY RF-SCORE:    0.00 PKD
ROOT
HETATM    1  O   UNL     1     -12.928  16.306  74.133  1.00  0.00    -0.877 OA 
HETATM    2  C   UNL     1     -12.507  16.008  72.802  1.00  0.00    -0.487 C  
HETATM    3  H   UNL     1     -12.234  16.760  74.595  1.00  0.00     0.000 HD 
ENDROOT
BRANCH   2   4
HETATM    4  C   UNL     1     -13.630  15.274  72.055  1.00  0.00    -0.469 C  
HETATM    5  C   UNL     1     -13.773  13.822  72.475  1.00  0.00    -0.667 C  
HETATM    6  C   UNL     1     -12.916  13.078  71.480  1.00  0.00    -0.398 C  
HETATM    7  C   UNL     1     -13.032  13.923  70.220  1.00  0.00     0.059 C  
HETATM    8  O   UNL     1     -13.353  15.262  70.642  1.00  0.00    -0.374 OA 
BRANCH   7   9
HETATM    9  N   UNL     1     -11.823  13.932  69.417  1.00  0.00    -0.313 NA 
HETATM   10  C   UNL     1     -11.051  15.044  69.165  1.00  0.00    -0.270 A  
HETATM   11  N   UNL     1     -10.028  14.774  68.376  1.00  0.00    -0.217 NA 
HETATM   12  C   UNL     1     -10.120  13.421  68.121  1.00  0.00    -0.244 A  
HETATM   13  C   UNL     1     -11.216  12.909  68.763  1.00  0.00    -0.279 A  
HETATM   14  N   UNL     1     -11.546  11.611  68.703  1.00  0.00    -0.285 NA 
HETATM   15  C   UNL     1     -10.709  10.813  67.962  1.00  0.00    -0.228 C  
HETATM   16  N   UNL     1      -9.652  11.185  67.305  1.00  0.00    -0.165 N  
HETATM   17  H   UNL     1      -9.107  10.501  66.781  1.00  0.00     0.000 HD 
HETATM   18  C   UNL     1      -9.264  12.534  67.321  1.00  0.00    -0.190 C  
HETATM   19  O   UNL     1      -8.288  12.943  66.704  1.00  0.00    -0.033 OA 
ENDBRANCH   7   9
ENDBRANCH   2   4
TORSDOF 2
ENDMDL
MODEL       78
REMARK 921   NORMALIZED FREE ENERGY PREDICTED BY IDOCK:   -4.79 KCAL/MOL
REMARK 922        TOTAL FREE ENERGY PREDICTED BY IDOCK:   -5.65 KCAL/MOL
REMARK 923 INTER-LIGAND FREE ENERGY PREDICTED BY IDOCK:   -5.76 KCAL/MOL
REMARK 924 INTRA-LIGAND FREE ENERGY PREDICTED BY IDOCK:    0.12 KCAL/MOL
REMARK 927      BINDING AFFINITY PREDICTED BY RF-SCORE:    0.00 PKD
ROOT
HETATM    1  O   UNL     1     -11.199  16.253  64.090  1.00  0.00    -1.193 OA 
HETATM    2  C   UNL     1     -10.840  15.036  64.746  1.00  0.00    -0.355 C  
HETATM    3  H   UNL     1     -10.480  16.546  63.543  1.00  0.00     0.000 HD 
ENDROOT
BRANCH   2   4
HETATM    4  C   UNL     1     -12.003  14.562  65.630  1.00  0.00    -0.311 C  
HETATM    5  C   UNL     1     -11.772  14.827  67.107  1.00  0.00    -0.351 C  
HETATM    6  C   UNL     1     -11.153  13.543  67.605  1.00  0.00    -0.290 C  
HETATM    7  C   UNL     1     -11.784  12.483  66.716  1.00  0.00    -0.384 C  
HETATM    8  O   UNL     1     -12.174  13.138  65.494  1.00  0.00    -0.411 OA 
BRANCH   7   9
HETATM    9  N   UNL     1     -10.897  11.372  66.422  1.00  0.00    -0.277 NA 
HETATM   10  C   UNL     1     -10.459  10.447  67.344  1.00  0.00    -0.249 A  
HETATM   11  N   UNL     1      -9.633   9.565  66.813  1.00  0.00    -0.165 NA 
HETATM   12  C   UNL     1      -9.547   9.912  65.480  1.00  0.00    -0.277 A  
HETATM   13  C   UNL     1     -10.325  11.015  65.244  1.00  0.00    -0.275 A  
HETATM   14  N   UNL     1     -10.444  11.567  64.029  1.00  0.00    -0.334 NA 
HETATM   15  C   UNL     1      -9.741  10.955  63.020  1.00  0.00    -0.350 C  
HETATM   16  N   UNL     1      -8.968   9.916  63.125  1.00  0.00    -0.242 N  
HETATM   17  H   UNL     1      -8.488   9.549  62.303  1.00  0.00     0.000 HD 
HETATM   18  C   UNL     1      -8.796   9.302  64.375  1.00  0.00    -0.159 C  
HETATM   19  O   UNL     1      -8.064   8.333  64.535  1.00  0.00    -0.143 OA 
ENDBRANCH   7   9
ENDBRANCH   2   4
TORSDOF 2
ENDMDL
MODEL       79
REMARK 921   NORMALIZED FREE ENERGY PREDICTED BY IDOCK:   -4.75 KCAL/MOL
REMARK 922        TOTAL FREE ENERGY PREDICTED BY IDOCK:   -5.61 KCAL/MOL
REMARK 923 INTER-LIGAND FREE ENERGY PREDICTED BY IDOCK:   -5.31 KCAL/MOL
REMARK 924 INTRA-LIGAND FREE ENERGY PREDICTED BY IDOCK:   -0.30 KCAL/MOL
REMARK 927      BINDING AFFINITY PREDICTED BY RF-SCORE:    0.00 PKD
ROOT
HETATM    1  O   UNL     1     -10.515  17.935  67.513  1.00  0.00    -0.368 OA 
HETATM    2  C   UNL     1     -10.693  16.550  67.215  1.00  0.00    -0.243 C  
HETATM    3  H   UNL     1     -10.822  18.114  68.394  1.00  0.00     0.000 HD 
ENDROOT
BRANCH   2   4
HETATM    4  C   UNL     1     -10.197  16.259  65.791  1.00  0.00    -0.367 C  
HETATM    5  C   UNL     1     -11.302  16.315  64.752  1.00  0.00    -0.214 C  
HETATM    6  C   UNL     1     -11.768  14.882  64.653  1.00  0.00    -0.406 C  
HETATM    7  C   UNL     1     -10.506  14.085  64.940  1.00  0.00    -0.431 C  
HETATM    8  O   UNL     1      -9.645  14.930  65.726  1.00  0.00    -0.326 OA 
BRANCH   7   9
HETATM    9  N   UNL     1     -10.756  12.840  65.643  1.00  0.00    -0.269 NA 
HETATM   10  C   UNL     1     -11.600  12.699  66.722  1.00  0.00    -0.374 A  
HETATM   11  N   UNL     1     -11.613  11.465  67.189  1.00  0.00    -0.538 NA 
HETATM   12  C   UNL     1     -10.760  10.761  66.364  1.00  0.00    -0.163 A  
HETATM   13  C   UNL     1     -10.242  11.604  65.417  1.00  0.00    -0.263 A  
HETATM   14  N   UNL     1      -9.389  11.188  64.471  1.00  0.00    -0.198 NA 
HETATM   15  C   UNL     1      -9.068   9.853  64.497  1.00  0.00    -0.250 C  
HETATM   16  N   UNL     1      -9.487   8.964  65.347  1.00  0.00    -0.454 N  
HETATM   17  H   UNL     1      -9.174   7.996  65.273  1.00  0.00     0.000 HD 
HETATM   18  C   UNL     1     -10.371   9.344  66.368  1.00  0.00    -0.167 C  
HETATM   19  O   UNL     1     -10.783   8.552  67.208  1.00  0.00    -0.279 OA 
ENDBRANCH   7   9
ENDBRANCH   2   4
TORSDOF 2
ENDMDL
MODEL       80
REMARK 921   NORMALIZED FREE ENERGY PREDICTED BY IDOCK:   -4.74 KCAL/MOL
REMARK 922        TOTAL FREE ENERGY PREDICTED BY IDOCK:   -5.60 KCAL/MOL
REMARK 923 INTER-LIGAND FREE ENERGY PREDICTED BY IDOCK:   -5.24 KCAL/MOL
REMARK 924 INTRA-LIGAND FREE ENERGY PREDICTED BY IDOCK:   -0.36 KCAL/MOL
REMARK 927      BINDING AFFINITY PREDICTED BY RF-SCORE:    0.00 PKD
ROOT
HETATM    1  O   UNL     1      -5.830  16.430  69.338  1.00  0.00    -0.138 OA 
HETATM    2  C   UNL     1      -5.510  15.118  68.875  1.00  0.00    -0.095 C  
HETATM    3  H   UNL     1      -5.182  17.048  69.021  1.00  0.00     0.000 HD 
ENDROOT
BRANCH   2   4
HETATM    4  C   UNL     1      -6.557  14.118  69.388  1.00  0.00    -0.121 C  
HETATM    5  C   UNL     1      -6.499  12.779  68.676  1.00  0.00    -0.079 C  
HETATM    6  C   UNL     1      -7.502  12.928  67.557  1.00  0.00    -0.155 C  
HETATM    7  C   UNL     1      -8.542  13.869  68.144  1.00  0.00    -0.180 C  
HETATM    8  O   UNL     1      -7.882  14.639  69.166  1.00  0.00    -0.144 OA 
BRANCH   7   9
HETATM    9  N   UNL     1      -9.139  14.756  67.162  1.00  0.00    -0.206 NA 
HETATM   10  C   UNL     1      -8.813  16.083  66.996  1.00  0.00    -0.211 A  
HETATM   11  N   UNL     1      -9.535  16.661  66.054  1.00  0.00    -0.446 NA 
HETATM   12  C   UNL     1     -10.351  15.662  65.565  1.00  0.00    -0.396 A  
HETATM   13  C   UNL     1     -10.103  14.497  66.241  1.00  0.00    -0.295 A  
HETATM   14  N   UNL     1     -10.743  13.353  65.966  1.00  0.00    -0.276 NA 
HETATM   15  C   UNL     1     -11.666  13.411  64.951  1.00  0.00    -0.351 C  
HETATM   16  N   UNL     1     -11.992  14.455  64.248  1.00  0.00    -0.620 N  
HETATM   17  H   UNL     1     -12.701  14.381  63.518  1.00  0.00     0.000 HD 
HETATM   18  C   UNL     1     -11.363  15.684  64.500  1.00  0.00    -0.320 C  
HETATM   19  O   UNL     1     -11.645  16.703  63.882  1.00  0.00    -1.204 OA 
ENDBRANCH   7   9
ENDBRANCH   2   4
TORSDOF 2
ENDMDL
MODEL       81
REMARK 921   NORMALIZED FREE ENERGY PREDICTED BY IDOCK:   -4.73 KCAL/MOL
REMARK 922        TOTAL FREE ENERGY PREDICTED BY IDOCK:   -5.58 KCAL/MOL
REMARK 923 INTER-LIGAND FREE ENERGY PREDICTED BY IDOCK:   -5.27 KCAL/MOL
REMARK 924 INTRA-LIGAND FREE ENERGY PREDICTED BY IDOCK:   -0.31 KCAL/MOL
REMARK 927      BINDING AFFINITY PREDICTED BY RF-SCORE:    0.00 PKD
ROOT
HETATM    1  O   UNL     1     -10.029  20.381  65.773  1.00  0.00    -0.615 OA 
HETATM    2  C   UNL     1     -10.355  19.693  66.981  1.00  0.00    -0.460 C  
HETATM    3  H   UNL     1     -10.822  20.710  65.368  1.00  0.00     0.000 HD 
ENDROOT
BRANCH   2   4
HETATM    4  C   UNL     1      -9.072  19.161  67.636  1.00  0.00    -0.297 C  
HETATM    5  C   UNL     1      -8.028  18.718  66.627  1.00  0.00    -0.278 C  
HETATM    6  C   UNL     1      -8.300  17.243  66.460  1.00  0.00    -0.312 C  
HETATM    7  C   UNL     1      -8.819  16.827  67.827  1.00  0.00    -0.208 C  
HETATM    8  O   UNL     1      -9.375  18.005  68.441  1.00  0.00    -0.284 OA 
BRANCH   7   9
HETATM    9  N   UNL     1      -9.821  15.778  67.770  1.00  0.00    -0.224 NA 
HETATM   10  C   UNL     1     -11.162  15.952  68.033  1.00  0.00    -0.319 A  
HETATM   11  N   UNL     1     -11.840  14.822  67.941  1.00  0.00    -0.333 NA 
HETATM   12  C   UNL     1     -10.907  13.873  67.577  1.00  0.00    -0.266 A  
HETATM   13  C   UNL     1      -9.675  14.462  67.468  1.00  0.00    -0.215 A  
HETATM   14  N   UNL     1      -8.578  13.779  67.114  1.00  0.00    -0.211 NA 
HETATM   15  C   UNL     1      -8.761  12.443  66.853  1.00  0.00    -0.191 C  
HETATM   16  N   UNL     1      -9.873  11.776  66.931  1.00  0.00    -0.201 N  
HETATM   17  H   UNL     1      -9.889  10.778  66.719  1.00  0.00     0.000 HD 
HETATM   18  C   UNL     1     -11.052  12.436  67.310  1.00  0.00    -0.281 C  
HETATM   19  O   UNL     1     -12.125  11.853  67.418  1.00  0.00    -0.577 OA 
ENDBRANCH   7   9
ENDBRANCH   2   4
TORSDOF 2
ENDMDL
MODEL       82
REMARK 921   NORMALIZED FREE ENERGY PREDICTED BY IDOCK:   -4.72 KCAL/MOL
REMARK 922        TOTAL FREE ENERGY PREDICTED BY IDOCK:   -5.57 KCAL/MOL
REMARK 923 INTER-LIGAND FREE ENERGY PREDICTED BY IDOCK:   -5.55 KCAL/MOL
REMARK 924 INTRA-LIGAND FREE ENERGY PREDICTED BY IDOCK:   -0.02 KCAL/MOL
REMARK 927      BINDING AFFINITY PREDICTED BY RF-SCORE:    0.00 PKD
ROOT
HETATM    1  O   UNL     1     -11.331  12.216  69.755  1.00  0.00    -0.455 OA 
HETATM    2  C   UNL     1     -11.758  13.573  69.878  1.00  0.00    -0.271 C  
HETATM    3  H   UNL     1     -12.084  11.639  69.786  1.00  0.00     0.000 HD 
ENDROOT
BRANCH   2   4
HETATM    4  C   UNL     1     -10.540  14.507  69.826  1.00  0.00     0.014 C  
HETATM    5  C   UNL     1     -10.889  15.956  70.108  1.00  0.00    -0.359 C  
HETATM    6  C   UNL     1     -11.124  16.539  68.736  1.00  0.00    -0.309 C  
HETATM    7  C   UNL     1     -10.180  15.739  67.852  1.00  0.00    -0.242 C  
HETATM    8  O   UNL     1      -9.956  14.478  68.510  1.00  0.00    -0.226 OA 
BRANCH   7   9
HETATM    9  N   UNL     1     -10.693  15.516  66.512  1.00  0.00    -0.308 NA 
HETATM   10  C   UNL     1     -10.688  16.449  65.499  1.00  0.00    -0.287 A  
HETATM   11  N   UNL     1     -11.248  15.991  64.395  1.00  0.00    -0.549 NA 
HETATM   12  C   UNL     1     -11.612  14.693  64.690  1.00  0.00    -0.402 A  
HETATM   13  C   UNL     1     -11.267  14.405  65.983  1.00  0.00    -0.333 A  
HETATM   14  N   UNL     1     -11.490  13.206  66.539  1.00  0.00    -0.322 NA 
HETATM   15  C   UNL     1     -12.082  12.269  65.728  1.00  0.00    -0.213 C  
HETATM   16  N   UNL     1     -12.460  12.429  64.495  1.00  0.00    -0.501 N  
HETATM   17  H   UNL     1     -12.898  11.659  63.989  1.00  0.00     0.000 HD 
HETATM   18  C   UNL     1     -12.263  13.667  63.864  1.00  0.00    -0.374 C  
HETATM   19  O   UNL     1     -12.618  13.879  62.711  1.00  0.00    -0.414 OA 
ENDBRANCH   7   9
ENDBRANCH   2   4
TORSDOF 2
ENDMDL
MODEL       83
REMARK 921   NORMALIZED FREE ENERGY PREDICTED BY IDOCK:   -4.70 KCAL/MOL
REMARK 922        TOTAL FREE ENERGY PREDICTED BY IDOCK:   -5.55 KCAL/MOL
REMARK 923 INTER-LIGAND FREE ENERGY PREDICTED BY IDOCK:   -5.55 KCAL/MOL
REMARK 924 INTRA-LIGAND FREE ENERGY PREDICTED BY IDOCK:    0.00 KCAL/MOL
REMARK 927      BINDING AFFINITY PREDICTED BY RF-SCORE:    0.00 PKD
ROOT
HETATM    1  O   UNL     1     -10.486   9.600  66.204  1.00  0.00    -0.179 OA 
HETATM    2  C   UNL     1      -9.966  10.875  65.824  1.00  0.00    -0.247 C  
HETATM    3  H   UNL     1      -9.814   9.103  66.655  1.00  0.00     0.000 HD 
ENDROOT
BRANCH   2   4
HETATM    4  C   UNL     1     -11.052  11.679  65.094  1.00  0.00    -0.237 C  
HETATM    5  C   UNL     1     -10.505  12.896  64.369  1.00  0.00    -0.419 C  
HETATM    6  C   UNL     1     -10.660  14.009  65.378  1.00  0.00    -0.351 C  
HETATM    7  C   UNL     1     -11.900  13.602  66.158  1.00  0.00    -0.392 C  
HETATM    8  O   UNL     1     -12.018  12.171  66.042  1.00  0.00    -0.578 OA 
BRANCH   7   9
HETATM    9  N   UNL     1     -11.854  13.984  67.557  1.00  0.00    -0.387 NA 
HETATM   10  C   UNL     1     -12.250  13.186  68.607  1.00  0.00    -0.043 A  
HETATM   11  N   UNL     1     -12.133  13.797  69.772  1.00  0.00    -0.335 NA 
HETATM   12  C   UNL     1     -11.615  15.040  69.473  1.00  0.00    -0.311 A  
HETATM   13  C   UNL     1     -11.441  15.149  68.119  1.00  0.00    -0.342 A  
HETATM   14  N   UNL     1     -10.938  16.250  67.543  1.00  0.00    -0.260 NA 
HETATM   15  C   UNL     1     -10.593  17.270  68.396  1.00  0.00    -0.368 C  
HETATM   16  N   UNL     1     -10.721  17.284  69.689  1.00  0.00    -0.300 N  
HETATM   17  H   UNL     1     -10.435  18.105  70.223  1.00  0.00     0.000 HD 
HETATM   18  C   UNL     1     -11.253  16.165  70.346  1.00  0.00    -0.381 C  
HETATM   19  O   UNL     1     -11.413  16.132  71.561  1.00  0.00    -0.417 OA 
ENDBRANCH   7   9
ENDBRANCH   2   4
TORSDOF 2
ENDMDL
MODEL       84
REMARK 921   NORMALIZED FREE ENERGY PREDICTED BY IDOCK:   -4.68 KCAL/MOL
REMARK 922        TOTAL FREE ENERGY PREDICTED BY IDOCK:   -5.53 KCAL/MOL
REMARK 923 INTER-LIGAND FREE ENERGY PREDICTED BY IDOCK:   -5.43 KCAL/MOL
REMARK 924 INTRA-LIGAND FREE ENERGY PREDICTED BY IDOCK:   -0.10 KCAL/MOL
REMARK 927      BINDING AFFINITY PREDICTED BY RF-SCORE:    0.00 PKD
ROOT
HETATM    1  O   UNL     1     -12.303  15.342  68.713  1.00  0.00    -0.593 OA 
HETATM    2  C   UNL     1     -11.899  14.132  68.071  1.00  0.00    -0.365 C  
HETATM    3  H   UNL     1     -12.548  15.161  69.612  1.00  0.00     0.000 HD 
ENDROOT
BRANCH   2   4
HETATM    4  C   UNL     1     -11.503  14.425  66.616  1.00  0.00    -0.363 C  
HETATM    5  C   UNL     1     -12.636  14.190  65.634  1.00  0.00    -0.495 C  
HETATM    6  C   UNL     1     -12.422  12.766  65.180  1.00  0.00    -0.565 C  
HETATM    7  C   UNL     1     -10.913  12.601  65.248  1.00  0.00    -0.286 C  
HETATM    8  O   UNL     1     -10.430  13.553  66.215  1.00  0.00    -0.281 OA 
BRANCH   7   9
HETATM    9  N   UNL     1     -10.493  11.261  65.618  1.00  0.00    -0.259 NA 
HETATM   10  C   UNL     1      -9.743  10.422  64.824  1.00  0.00    -0.320 A  
HETATM   11  N   UNL     1      -9.536   9.249  65.394  1.00  0.00    -0.245 NA 
HETATM   12  C   UNL     1     -10.155   9.334  66.624  1.00  0.00    -0.271 A  
HETATM   13  C   UNL     1     -10.735  10.567  66.759  1.00  0.00    -0.188 A  
HETATM   14  N   UNL     1     -11.398  10.935  67.864  1.00  0.00    -0.403 NA 
HETATM   15  C   UNL     1     -11.456  10.000  68.869  1.00  0.00     0.002 C  
HETATM   16  N   UNL     1     -10.955   8.802  68.851  1.00  0.00    -0.440 N  
HETATM   17  H   UNL     1     -11.065   8.188  69.658  1.00  0.00     0.000 HD 
HETATM   18  C   UNL     1     -10.261   8.356  67.716  1.00  0.00    -0.224 C  
HETATM   19  O   UNL     1      -9.785   7.230  67.637  1.00  0.00    -0.135 OA 
ENDBRANCH   7   9
ENDBRANCH   2   4
TORSDOF 2
ENDMDL
MODEL       85
REMARK 921   NORMALIZED FREE ENERGY PREDICTED BY IDOCK:   -4.68 KCAL/MOL
REMARK 922        TOTAL FREE ENERGY PREDICTED BY IDOCK:   -5.52 KCAL/MOL
REMARK 923 INTER-LIGAND FREE ENERGY PREDICTED BY IDOCK:   -5.23 KCAL/MOL
REMARK 924 INTRA-LIGAND FREE ENERGY PREDICTED BY IDOCK:   -0.29 KCAL/MOL
REMARK 927      BINDING AFFINITY PREDICTED BY RF-SCORE:    0.00 PKD
ROOT
HETATM    1  O   UNL     1     -12.497  15.100  68.596  1.00  0.00    -0.560 OA 
HETATM    2  C   UNL     1     -11.909  13.981  67.930  1.00  0.00    -0.376 C  
HETATM    3  H   UNL     1     -12.660  14.880  69.505  1.00  0.00     0.000 HD 
ENDROOT
BRANCH   2   4
HETATM    4  C   UNL     1     -11.645  14.335  66.459  1.00  0.00    -0.378 C  
HETATM    5  C   UNL     1     -12.802  13.978  65.544  1.00  0.00    -0.453 C  
HETATM    6  C   UNL     1     -12.451  12.595  65.052  1.00  0.00    -0.556 C  
HETATM    7  C   UNL     1     -10.931  12.610  65.023  1.00  0.00    -0.289 C  
HETATM    8  O   UNL     1     -10.503  13.602  65.976  1.00  0.00    -0.288 OA 
BRANCH   7   9
HETATM    9  N   UNL     1     -10.333  11.326  65.341  1.00  0.00    -0.262 NA 
HETATM   10  C   UNL     1     -10.330  10.745  66.590  1.00  0.00    -0.241 A  
HETATM   11  N   UNL     1      -9.687   9.592  66.603  1.00  0.00    -0.195 NA 
HETATM   12  C   UNL     1      -9.273   9.398  65.301  1.00  0.00    -0.238 A  
HETATM   13  C   UNL     1      -9.675  10.458  64.531  1.00  0.00    -0.330 A  
HETATM   14  N   UNL     1      -9.421  10.532  63.217  1.00  0.00    -0.298 NA 
HETATM   15  C   UNL     1      -8.737   9.471  62.677  1.00  0.00    -0.230 C  
HETATM   16  N   UNL     1      -8.300   8.421  63.305  1.00  0.00    -0.360 N  
HETATM   17  H   UNL     1      -7.796   7.693  62.799  1.00  0.00     0.000 HD 
HETATM   18  C   UNL     1      -8.525   8.294  64.684  1.00  0.00    -0.051 C  
HETATM   19  O   UNL     1      -8.118   7.335  65.330  1.00  0.00    -0.122 OA 
ENDBRANCH   7   9
ENDBRANCH   2   4
TORSDOF 2
ENDMDL
MODEL       86
REMARK 921   NORMALIZED FREE ENERGY PREDICTED BY IDOCK:   -4.67 KCAL/MOL
REMARK 922        TOTAL FREE ENERGY PREDICTED BY IDOCK:   -5.52 KCAL/MOL
REMARK 923 INTER-LIGAND FREE ENERGY PREDICTED BY IDOCK:   -5.23 KCAL/MOL
REMARK 924 INTRA-LIGAND FREE ENERGY PREDICTED BY IDOCK:   -0.28 KCAL/MOL
REMARK 927      BINDING AFFINITY PREDICTED BY RF-SCORE:    0.00 PKD
ROOT
HETATM    1  O   UNL     1     -11.800  11.420  71.193  1.00  0.00    -0.241 OA 
HETATM    2  C   UNL     1     -13.080  11.886  71.624  1.00  0.00    -0.328 C  
HETATM    3  H   UNL     1     -11.893  10.574  70.773  1.00  0.00     0.000 HD 
ENDROOT
BRANCH   2   4
HETATM    4  C   UNL     1     -12.930  13.255  72.305  1.00  0.00    -0.271 C  
HETATM    5  C   UNL     1     -14.191  14.096  72.230  1.00  0.00    -0.598 C  
HETATM    6  C   UNL     1     -13.988  14.930  70.988  1.00  0.00    -0.297 C  
HETATM    7  C   UNL     1     -12.480  15.119  70.938  1.00  0.00    -0.365 C  
HETATM    8  O   UNL     1     -11.895  14.015  71.653  1.00  0.00    -0.063 OA 
BRANCH   7   9
HETATM    9  N   UNL     1     -11.949  15.173  69.588  1.00  0.00    -0.323 NA 
HETATM   10  C   UNL     1     -11.493  16.314  68.964  1.00  0.00    -0.268 A  
HETATM   11  N   UNL     1     -11.098  16.082  67.726  1.00  0.00    -0.308 NA 
HETATM   12  C   UNL     1     -11.280  14.727  67.540  1.00  0.00    -0.332 A  
HETATM   13  C   UNL     1     -11.795  14.174  68.682  1.00  0.00    -0.348 A  
HETATM   14  N   UNL     1     -12.062  12.865  68.793  1.00  0.00    -0.226 NA 
HETATM   15  C   UNL     1     -11.777  12.099  67.689  1.00  0.00    -0.316 C  
HETATM   16  N   UNL     1     -11.298  12.511  66.554  1.00  0.00    -0.314 N  
HETATM   17  H   UNL     1     -11.131  11.848  65.797  1.00  0.00     0.000 HD 
HETATM   18  C   UNL     1     -11.011  13.873  66.375  1.00  0.00    -0.303 C  
HETATM   19  O   UNL     1     -10.576  14.319  65.320  1.00  0.00    -0.333 OA 
ENDBRANCH   7   9
ENDBRANCH   2   4
TORSDOF 2
ENDMDL
MODEL       87
REMARK 921   NORMALIZED FREE ENERGY PREDICTED BY IDOCK:   -4.67 KCAL/MOL
REMARK 922        TOTAL FREE ENERGY PREDICTED BY IDOCK:   -5.51 KCAL/MOL
REMARK 923 INTER-LIGAND FREE ENERGY PREDICTED BY IDOCK:   -5.31 KCAL/MOL
REMARK 924 INTRA-LIGAND FREE ENERGY PREDICTED BY IDOCK:   -0.19 KCAL/MOL
REMARK 927      BINDING AFFINITY PREDICTED BY RF-SCORE:    0.00 PKD
ROOT
HETATM    1  O   UNL     1     -12.159   9.481  69.951  1.00  0.00    -0.444 OA 
HETATM    2  C   UNL     1     -10.878   9.861  70.455  1.00  0.00    -0.319 C  
HETATM    3  H   UNL     1     -12.841   9.913  70.452  1.00  0.00     0.000 HD 
ENDROOT
BRANCH   2   4
HETATM    4  C   UNL     1      -9.776   9.163  69.645  1.00  0.00    -0.176 C  
HETATM    5  C   UNL     1      -8.446   9.893  69.700  1.00  0.00    -0.198 C  
HETATM    6  C   UNL     1      -8.479  10.784  68.482  1.00  0.00    -0.143 C  
HETATM    7  C   UNL     1      -9.307   9.985  67.488  1.00  0.00    -0.144 C  
HETATM    8  O   UNL     1     -10.150   9.105  68.256  1.00  0.00    -0.176 OA 
BRANCH   7   9
HETATM    9  N   UNL     1     -10.118  10.812  66.614  1.00  0.00    -0.210 NA 
HETATM   10  C   UNL     1     -10.270  10.616  65.259  1.00  0.00    -0.282 A  
HETATM   11  N   UNL     1     -11.036  11.538  64.704  1.00  0.00    -0.310 NA 
HETATM   12  C   UNL     1     -11.422  12.357  65.745  1.00  0.00    -0.370 A  
HETATM   13  C   UNL     1     -10.863  11.908  66.912  1.00  0.00    -0.263 A  
HETATM   14  N   UNL     1     -11.077  12.506  68.091  1.00  0.00    -0.228 NA 
HETATM   15  C   UNL     1     -11.905  13.601  68.067  1.00  0.00    -0.362 C  
HETATM   16  N   UNL     1     -12.482  14.123  67.026  1.00  0.00    -0.548 N  
HETATM   17  H   UNL     1     -13.075  14.946  67.127  1.00  0.00     0.000 HD 
HETATM   18  C   UNL     1     -12.284  13.547  65.762  1.00  0.00    -0.461 C  
HETATM   19  O   UNL     1     -12.788  14.008  64.745  1.00  0.00    -0.681 OA 
ENDBRANCH   7   9
ENDBRANCH   2   4
TORSDOF 2
ENDMDL
MODEL       88
REMARK 921   NORMALIZED FREE ENERGY PREDICTED BY IDOCK:   -4.66 KCAL/MOL
REMARK 922        TOTAL FREE ENERGY PREDICTED BY IDOCK:   -5.51 KCAL/MOL
REMARK 923 INTER-LIGAND FREE ENERGY PREDICTED BY IDOCK:   -5.55 KCAL/MOL
REMARK 924 INTRA-LIGAND FREE ENERGY PREDICTED BY IDOCK:    0.04 KCAL/MOL
REMARK 927      BINDING AFFINITY PREDICTED BY RF-SCORE:    0.00 PKD
ROOT
HETATM    1  O   UNL     1      -8.657  15.398  69.872  1.00  0.00    -0.310 OA 
HETATM    2  C   UNL     1      -7.232  15.472  69.811  1.00  0.00    -0.110 C  
HETATM    3  H   UNL     1      -8.919  14.886  70.628  1.00  0.00     0.000 HD 
ENDROOT
BRANCH   2   4
HETATM    4  C   UNL     1      -6.809  16.301  68.589  1.00  0.00    -0.141 C  
HETATM    5  C   UNL     1      -7.574  17.606  68.462  1.00  0.00    -0.272 C  
HETATM    6  C   UNL     1      -8.728  17.253  67.555  1.00  0.00    -0.212 C  
HETATM    7  C   UNL     1      -8.148  16.173  66.656  1.00  0.00    -0.288 C  
HETATM    8  O   UNL     1      -7.066  15.559  67.382  1.00  0.00    -0.175 OA 
BRANCH   7   9
HETATM    9  N   UNL     1      -9.117  15.166  66.263  1.00  0.00    -0.294 NA 
HETATM   10  C   UNL     1      -9.084  13.845  66.653  1.00  0.00    -0.190 A  
HETATM   11  N   UNL     1     -10.067  13.143  66.121  1.00  0.00    -0.286 NA 
HETATM   12  C   UNL     1     -10.789  14.048  65.371  1.00  0.00    -0.328 A  
HETATM   13  C   UNL     1     -10.208  15.285  65.464  1.00  0.00    -0.388 A  
HETATM   14  N   UNL     1     -10.705  16.364  64.845  1.00  0.00    -0.705 NA 
HETATM   15  C   UNL     1     -11.849  16.161  64.111  1.00  0.00     0.224 C  
HETATM   16  N   UNL     1     -12.481  15.039  63.943  1.00  0.00    -1.043 N  
HETATM   17  H   UNL     1     -13.323  15.006  63.367  1.00  0.00     0.000 HD 
HETATM   18  C   UNL     1     -12.000  13.873  64.557  1.00  0.00    -0.437 C  
HETATM   19  O   UNL     1     -12.545  12.784  64.416  1.00  0.00    -0.591 OA 
ENDBRANCH   7   9
ENDBRANCH   2   4
TORSDOF 2
ENDMDL
MODEL       89
REMARK 921   NORMALIZED FREE ENERGY PREDICTED BY IDOCK:   -4.66 KCAL/MOL
REMARK 922        TOTAL FREE ENERGY PREDICTED BY IDOCK:   -5.51 KCAL/MOL
REMARK 923 INTER-LIGAND FREE ENERGY PREDICTED BY IDOCK:   -5.31 KCAL/MOL
REMARK 924 INTRA-LIGAND FREE ENERGY PREDICTED BY IDOCK:   -0.20 KCAL/MOL
REMARK 927      BINDING AFFINITY PREDICTED BY RF-SCORE:    0.00 PKD
ROOT
HETATM    1  O   UNL     1      -8.415  15.061  69.598  1.00  0.00    -0.416 OA 
HETATM    2  C   UNL     1      -8.861  16.214  68.883  1.00  0.00    -0.248 C  
HETATM    3  H   UNL     1      -7.492  14.918  69.430  1.00  0.00     0.000 HD 
ENDROOT
BRANCH   2   4
HETATM    4  C   UNL     1     -10.355  16.446  69.154  1.00  0.00    -0.289 C  
HETATM    5  C   UNL     1     -10.909  15.544  70.242  1.00  0.00    -0.358 C  
HETATM    6  C   UNL     1     -11.450  14.359  69.480  1.00  0.00    -0.333 C  
HETATM    7  C   UNL     1     -11.897  14.967  68.160  1.00  0.00    -0.260 C  
HETATM    8  O   UNL     1     -11.119  16.164  67.966  1.00  0.00    -0.342 OA 
BRANCH   7   9
HETATM    9  N   UNL     1     -11.729  14.076  67.027  1.00  0.00    -0.376 NA 
HETATM   10  C   UNL     1     -12.661  13.881  66.032  1.00  0.00    -0.362 A  
HETATM   11  N   UNL     1     -12.264  12.990  65.143  1.00  0.00    -0.432 NA 
HETATM   12  C   UNL     1     -11.006  12.604  65.560  1.00  0.00    -0.279 A  
HETATM   13  C   UNL     1     -10.681  13.274  66.709  1.00  0.00    -0.276 A  
HETATM   14  N   UNL     1      -9.507  13.107  67.334  1.00  0.00    -0.207 NA 
HETATM   15  C   UNL     1      -8.635  12.223  66.746  1.00  0.00    -0.149 C  
HETATM   16  N   UNL     1      -8.836  11.527  65.668  1.00  0.00    -0.389 N  
HETATM   17  H   UNL     1      -8.114  10.893  65.325  1.00  0.00     0.000 HD 
HETATM   18  C   UNL     1     -10.051  11.651  64.978  1.00  0.00    -0.263 C  
HETATM   19  O   UNL     1     -10.301  11.005  63.967  1.00  0.00    -0.330 OA 
ENDBRANCH   7   9
ENDBRANCH   2   4
TORSDOF 2
ENDMDL
MODEL       90
REMARK 921   NORMALIZED FREE ENERGY PREDICTED BY IDOCK:   -4.65 KCAL/MOL
REMARK 922        TOTAL FREE ENERGY PREDICTED BY IDOCK:   -5.50 KCAL/MOL
REMARK 923 INTER-LIGAND FREE ENERGY PREDICTED BY IDOCK:   -5.16 KCAL/MOL
REMARK 924 INTRA-LIGAND FREE ENERGY PREDICTED BY IDOCK:   -0.33 KCAL/MOL
REMARK 927      BINDING AFFINITY PREDICTED BY RF-SCORE:    0.00 PKD
ROOT
HETATM    1  O   UNL     1     -12.525  15.572  68.916  1.00  0.00    -0.590 OA 
HETATM    2  C   UNL     1     -11.549  14.629  68.470  1.00  0.00    -0.317 C  
HETATM    3  H   UNL     1     -12.694  15.444  69.842  1.00  0.00     0.000 HD 
ENDROOT
BRANCH   2   4
HETATM    4  C   UNL     1     -11.276  14.836  66.973  1.00  0.00    -0.345 C  
HETATM    5  C   UNL     1     -10.149  13.965  66.449  1.00  0.00    -0.298 C  
HETATM    6  C   UNL     1      -8.931  14.846  66.574  1.00  0.00    -0.288 C  
HETATM    7  C   UNL     1      -9.489  16.245  66.365  1.00  0.00    -0.294 C  
HETATM    8  O   UNL     1     -10.881  16.200  66.731  1.00  0.00    -0.277 OA 
BRANCH   7   9
HETATM    9  N   UNL     1      -8.804  17.263  67.142  1.00  0.00    -0.221 NA 
HETATM   10  C   UNL     1      -8.989  17.485  68.489  1.00  0.00    -0.279 A  
HETATM   11  N   UNL     1      -8.265  18.495  68.932  1.00  0.00    -0.234 NA 
HETATM   12  C   UNL     1      -7.556  18.938  67.834  1.00  0.00    -0.259 A  
HETATM   13  C   UNL     1      -7.885  18.178  66.742  1.00  0.00    -0.235 A  
HETATM   14  N   UNL     1      -7.338  18.375  65.535  1.00  0.00    -0.531 NA 
HETATM   15  C   UNL     1      -6.412  19.386  65.454  1.00  0.00    -0.270 C  
HETATM   16  N   UNL     1      -6.028  20.175  66.413  1.00  0.00    -0.171 N  
HETATM   17  H   UNL     1      -5.333  20.899  66.234  1.00  0.00     0.000 HD 
HETATM   18  C   UNL     1      -6.576  20.023  67.696  1.00  0.00    -0.229 C  
HETATM   19  O   UNL     1      -6.265  20.750  68.632  1.00  0.00    -0.328 OA 
ENDBRANCH   7   9
ENDBRANCH   2   4
TORSDOF 2
ENDMDL
MODEL       91
REMARK 921   NORMALIZED FREE ENERGY PREDICTED BY IDOCK:   -4.65 KCAL/MOL
REMARK 922        TOTAL FREE ENERGY PREDICTED BY IDOCK:   -5.49 KCAL/MOL
REMARK 923 INTER-LIGAND FREE ENERGY PREDICTED BY IDOCK:   -5.46 KCAL/MOL
REMARK 924 INTRA-LIGAND FREE ENERGY PREDICTED BY IDOCK:   -0.04 KCAL/MOL
REMARK 927      BINDING AFFINITY PREDICTED BY RF-SCORE:    0.00 PKD
ROOT
HETATM    1  O   UNL     1     -10.793   7.780  67.650  1.00  0.00    -0.468 OA 
HETATM    2  C   UNL     1     -10.555   7.618  69.049  1.00  0.00    -0.174 C  
HETATM    3  H   UNL     1     -11.272   7.030  67.318  1.00  0.00     0.000 HD 
ENDROOT
BRANCH   2   4
HETATM    4  C   UNL     1      -9.780   8.831  69.585  1.00  0.00    -0.173 C  
HETATM    5  C   UNL     1     -10.651   9.791  70.374  1.00  0.00    -0.365 C  
HETATM    6  C   UNL     1     -11.091  10.800  69.341  1.00  0.00    -0.324 C  
HETATM    7  C   UNL     1      -9.917  10.848  68.377  1.00  0.00    -0.178 C  
HETATM    8  O   UNL     1      -9.231   9.586  68.489  1.00  0.00    -0.130 OA 
BRANCH   7   9
HETATM    9  N   UNL     1     -10.310  11.078  66.998  1.00  0.00    -0.218 NA 
HETATM   10  C   UNL     1      -9.862  10.351  65.918  1.00  0.00    -0.235 A  
HETATM   11  N   UNL     1     -10.353  10.797  64.777  1.00  0.00    -0.327 NA 
HETATM   12  C   UNL     1     -11.178  11.846  65.128  1.00  0.00    -0.289 A  
HETATM   13  C   UNL     1     -11.153  12.012  66.487  1.00  0.00    -0.314 A  
HETATM   14  N   UNL     1     -11.873  12.953  67.113  1.00  0.00    -0.373 NA 
HETATM   15  C   UNL     1     -12.654  13.745  66.307  1.00  0.00    -0.321 C  
HETATM   16  N   UNL     1     -12.752  13.688  65.013  1.00  0.00    -0.681 N  
HETATM   17  H   UNL     1     -13.364  14.336  64.516  1.00  0.00     0.000 HD 
HETATM   18  C   UNL     1     -12.012  12.731  64.303  1.00  0.00    -0.405 C  
HETATM   19  O   UNL     1     -12.051  12.645  63.081  1.00  0.00    -0.482 OA 
ENDBRANCH   7   9
ENDBRANCH   2   4
TORSDOF 2
ENDMDL
MODEL       92
REMARK 921   NORMALIZED FREE ENERGY PREDICTED BY IDOCK:   -4.63 KCAL/MOL
REMARK 922        TOTAL FREE ENERGY PREDICTED BY IDOCK:   -5.47 KCAL/MOL
REMARK 923 INTER-LIGAND FREE ENERGY PREDICTED BY IDOCK:   -5.69 KCAL/MOL
REMARK 924 INTRA-LIGAND FREE ENERGY PREDICTED BY IDOCK:    0.22 KCAL/MOL
REMARK 927      BINDING AFFINITY PREDICTED BY RF-SCORE:    0.00 PKD
ROOT
HETATM    1  O   UNL     1      -6.596  18.221  68.875  1.00  0.00    -0.228 OA 
HETATM    2  C   UNL     1      -6.715  17.925  67.483  1.00  0.00    -0.176 C  
HETATM    3  H   UNL     1      -5.894  17.705  69.253  1.00  0.00     0.000 HD 
ENDROOT
BRANCH   2   4
HETATM    4  C   UNL     1      -7.851  18.759  66.871  1.00  0.00    -0.242 C  
HETATM    5  C   UNL     1      -8.762  19.378  67.915  1.00  0.00    -0.359 C  
HETATM    6  C   UNL     1      -9.872  18.366  68.063  1.00  0.00    -0.359 C  
HETATM    7  C   UNL     1      -9.971  17.752  66.675  1.00  0.00    -0.338 C  
HETATM    8  O   UNL     1      -8.685  17.921  66.049  1.00  0.00    -0.492 OA 
BRANCH   7   9
HETATM    9  N   UNL     1     -10.337  16.348  66.689  1.00  0.00    -0.290 NA 
HETATM   10  C   UNL     1     -10.040  15.445  65.692  1.00  0.00    -0.376 A  
HETATM   11  N   UNL     1     -10.522  14.243  65.946  1.00  0.00    -0.296 NA 
HETATM   12  C   UNL     1     -11.138  14.357  67.176  1.00  0.00    -0.312 A  
HETATM   13  C   UNL     1     -11.019  15.644  67.629  1.00  0.00    -0.315 A  
HETATM   14  N   UNL     1     -11.514  16.042  68.809  1.00  0.00    -0.377 NA 
HETATM   15  C   UNL     1     -12.147  15.075  69.551  1.00  0.00    -0.276 C  
HETATM   16  N   UNL     1     -12.329  13.831  69.222  1.00  0.00    -0.367 N  
HETATM   17  H   UNL     1     -12.823  13.201  69.854  1.00  0.00     0.000 HD 
HETATM   18  C   UNL     1     -11.843  13.360  67.993  1.00  0.00    -0.357 C  
HETATM   19  O   UNL     1     -12.004  12.203  67.624  1.00  0.00    -0.529 OA 
ENDBRANCH   7   9
ENDBRANCH   2   4
TORSDOF 2
ENDMDL
MODEL       93
REMARK 921   NORMALIZED FREE ENERGY PREDICTED BY IDOCK:   -4.62 KCAL/MOL
REMARK 922        TOTAL FREE ENERGY PREDICTED BY IDOCK:   -5.46 KCAL/MOL
REMARK 923 INTER-LIGAND FREE ENERGY PREDICTED BY IDOCK:   -5.47 KCAL/MOL
REMARK 924 INTRA-LIGAND FREE ENERGY PREDICTED BY IDOCK:    0.01 KCAL/MOL
REMARK 927      BINDING AFFINITY PREDICTED BY RF-SCORE:    0.00 PKD
ROOT
HETATM    1  O   UNL     1     -12.026  10.785  67.895  1.00  0.00    -0.753 OA 
HETATM    2  C   UNL     1     -12.116  11.345  69.206  1.00  0.00    -0.289 C  
HETATM    3  H   UNL     1     -12.538   9.987  67.852  1.00  0.00     0.000 HD 
ENDROOT
BRANCH   2   4
HETATM    4  C   UNL     1     -11.287  12.636  69.275  1.00  0.00    -0.245 C  
HETATM    5  C   UNL     1     -12.103  13.883  68.985  1.00  0.00    -0.365 C  
HETATM    6  C   UNL     1     -11.912  14.094  67.502  1.00  0.00    -0.419 C  
HETATM    7  C   UNL     1     -10.512  13.557  67.251  1.00  0.00    -0.248 C  
HETATM    8  O   UNL     1     -10.237  12.598  68.290  1.00  0.00    -0.229 OA 
BRANCH   7   9
HETATM    9  N   UNL     1     -10.357  12.936  65.948  1.00  0.00    -0.280 NA 
HETATM   10  C   UNL     1     -10.632  13.546  64.745  1.00  0.00    -0.417 A  
HETATM   11  N   UNL     1     -10.435  12.739  63.719  1.00  0.00    -0.378 NA 
HETATM   12  C   UNL     1      -9.988  11.558  64.273  1.00  0.00    -0.271 A  
HETATM   13  C   UNL     1      -9.936  11.683  65.636  1.00  0.00    -0.240 A  
HETATM   14  N   UNL     1      -9.524  10.691  66.437  1.00  0.00    -0.167 NA 
HETATM   15  C   UNL     1      -9.142   9.532  65.807  1.00  0.00    -0.196 C  
HETATM   16  N   UNL     1      -9.156   9.294  64.530  1.00  0.00    -0.421 N  
HETATM   17  H   UNL     1      -8.853   8.387  64.174  1.00  0.00     0.000 HD 
HETATM   18  C   UNL     1      -9.590  10.291  63.644  1.00  0.00    -0.277 C  
HETATM   19  O   UNL     1      -9.642  10.115  62.432  1.00  0.00    -0.276 OA 
ENDBRANCH   7   9
ENDBRANCH   2   4
TORSDOF 2
ENDMDL
MODEL       94
REMARK 921   NORMALIZED FREE ENERGY PREDICTED BY IDOCK:   -4.58 KCAL/MOL
REMARK 922        TOTAL FREE ENERGY PREDICTED BY IDOCK:   -5.42 KCAL/MOL
REMARK 923 INTER-LIGAND FREE ENERGY PREDICTED BY IDOCK:   -5.18 KCAL/MOL
REMARK 924 INTRA-LIGAND FREE ENERGY PREDICTED BY IDOCK:   -0.24 KCAL/MOL
REMARK 927      BINDING AFFINITY PREDICTED BY RF-SCORE:    0.00 PKD
ROOT
HETATM    1  O   UNL     1      -8.171  17.256  68.908  1.00  0.00    -0.255 OA 
HETATM    2  C   UNL     1      -7.260  16.210  68.570  1.00  0.00    -0.144 C  
HETATM    3  H   UNL     1      -7.896  18.066  68.496  1.00  0.00     0.000 HD 
ENDROOT
BRANCH   2   4
HETATM    4  C   UNL     1      -7.706  14.900  69.237  1.00  0.00    -0.166 C  
HETATM    5  C   UNL     1      -6.900  13.697  68.781  1.00  0.00    -0.107 C  
HETATM    6  C   UNL     1      -7.711  13.140  67.636  1.00  0.00    -0.168 C  
HETATM    7  C   UNL     1      -9.141  13.480  68.024  1.00  0.00    -0.201 C  
HETATM    8  O   UNL     1      -9.078  14.621  68.901  1.00  0.00    -0.192 OA 
BRANCH   7   9
HETATM    9  N   UNL     1      -9.994  13.775  66.886  1.00  0.00    -0.258 NA 
HETATM   10  C   UNL     1     -10.631  14.976  66.668  1.00  0.00    -0.301 A  
HETATM   11  N   UNL     1     -11.371  14.958  65.575  1.00  0.00    -0.350 NA 
HETATM   12  C   UNL     1     -11.190  13.699  65.041  1.00  0.00    -0.321 A  
HETATM   13  C   UNL     1     -10.344  12.980  65.843  1.00  0.00    -0.288 A  
HETATM   14  N   UNL     1      -9.977  11.722  65.560  1.00  0.00    -0.236 NA 
HETATM   15  C   UNL     1     -10.496  11.191  64.405  1.00  0.00    -0.353 C  
HETATM   16  N   UNL     1     -11.310  11.771  63.574  1.00  0.00    -0.570 N  
HETATM   17  H   UNL     1     -11.637  11.274  62.746  1.00  0.00     0.000 HD 
HETATM   18  C   UNL     1     -11.738  13.083  63.825  1.00  0.00    -0.485 C  
HETATM   19  O   UNL     1     -12.520  13.670  63.087  1.00  0.00    -0.786 OA 
ENDBRANCH   7   9
ENDBRANCH   2   4
TORSDOF 2
ENDMDL
MODEL       95
REMARK 921   NORMALIZED FREE ENERGY PREDICTED BY IDOCK:   -4.57 KCAL/MOL
REMARK 922        TOTAL FREE ENERGY PREDICTED BY IDOCK:   -5.40 KCAL/MOL
REMARK 923 INTER-LIGAND FREE ENERGY PREDICTED BY IDOCK:   -5.26 KCAL/MOL
REMARK 924 INTRA-LIGAND FREE ENERGY PREDICTED BY IDOCK:   -0.15 KCAL/MOL
REMARK 927      BINDING AFFINITY PREDICTED BY RF-SCORE:    0.00 PKD
ROOT
HETATM    1  O   UNL     1      -6.538  14.469  67.198  1.00  0.00    -0.358 OA 
HETATM    2  C   UNL     1      -7.597  15.299  67.675  1.00  0.00    -0.172 C  
HETATM    3  H   UNL     1      -5.862  14.399  67.861  1.00  0.00     0.000 HD 
ENDROOT
BRANCH   2   4
HETATM    4  C   UNL     1      -8.691  15.412  66.603  1.00  0.00    -0.296 C  
HETATM    5  C   UNL     1      -9.377  16.765  66.593  1.00  0.00    -0.274 C  
HETATM    6  C   UNL     1     -10.576  16.561  67.488  1.00  0.00    -0.313 C  
HETATM    7  C   UNL     1     -10.927  15.098  67.273  1.00  0.00    -0.327 C  
HETATM    8  O   UNL     1      -9.720  14.435  66.848  1.00  0.00    -0.245 OA 
BRANCH   7   9
HETATM    9  N   UNL     1     -11.458  14.450  68.459  1.00  0.00    -0.281 NA 
HETATM   10  C   UNL     1     -11.867  15.105  69.599  1.00  0.00    -0.334 A  
HETATM   11  N   UNL     1     -12.274  14.269  70.537  1.00  0.00    -0.333 NA 
HETATM   12  C   UNL     1     -12.149  13.015  69.976  1.00  0.00    -0.297 A  
HETATM   13  C   UNL     1     -11.654  13.130  68.704  1.00  0.00    -0.321 A  
HETATM   14  N   UNL     1     -11.442  12.068  67.914  1.00  0.00    -0.307 NA 
HETATM   15  C   UNL     1     -11.760  10.846  68.453  1.00  0.00    -0.218 C  
HETATM   16  N   UNL     1     -12.225  10.613  69.644  1.00  0.00    -0.514 N  
HETATM   17  H   UNL     1     -12.420   9.657  69.941  1.00  0.00     0.000 HD 
HETATM   18  C   UNL     1     -12.455  11.684  70.520  1.00  0.00    -0.257 C  
HETATM   19  O   UNL     1     -12.873  11.522  71.661  1.00  0.00    -0.408 OA 
ENDBRANCH   7   9
ENDBRANCH   2   4
TORSDOF 2
ENDMDL
MODEL       96
REMARK 921   NORMALIZED FREE ENERGY PREDICTED BY IDOCK:   -4.56 KCAL/MOL
REMARK 922        TOTAL FREE ENERGY PREDICTED BY IDOCK:   -5.39 KCAL/MOL
REMARK 923 INTER-LIGAND FREE ENERGY PREDICTED BY IDOCK:   -5.20 KCAL/MOL
REMARK 924 INTRA-LIGAND FREE ENERGY PREDICTED BY IDOCK:   -0.19 KCAL/MOL
REMARK 927      BINDING AFFINITY PREDICTED BY RF-SCORE:    0.00 PKD
ROOT
HETATM    1  O   UNL     1      -5.720  18.937  66.684  1.00  0.00    -0.157 OA 
HETATM    2  C   UNL     1      -5.959  17.637  67.225  1.00  0.00    -0.139 C  
HETATM    3  H   UNL     1      -5.151  18.868  65.927  1.00  0.00     0.000 HD 
ENDROOT
BRANCH   2   4
HETATM    4  C   UNL     1      -6.880  17.747  68.450  1.00  0.00    -0.221 C  
HETATM    5  C   UNL     1      -6.851  16.510  69.328  1.00  0.00    -0.224 C  
HETATM    6  C   UNL     1      -7.998  15.678  68.807  1.00  0.00    -0.172 C  
HETATM    7  C   UNL     1      -8.997  16.721  68.330  1.00  0.00    -0.233 C  
HETATM    8  O   UNL     1      -8.245  17.911  68.022  1.00  0.00    -0.243 OA 
BRANCH   7   9
HETATM    9  N   UNL     1      -9.760  16.302  67.169  1.00  0.00    -0.234 NA 
HETATM   10  C   UNL     1      -9.777  16.957  65.958  1.00  0.00    -0.233 A  
HETATM   11  N   UNL     1     -10.585  16.378  65.088  1.00  0.00    -0.663 NA 
HETATM   12  C   UNL     1     -11.099  15.282  65.751  1.00  0.00    -0.301 A  
HETATM   13  C   UNL     1     -10.588  15.236  67.021  1.00  0.00    -0.306 A  
HETATM   14  N   UNL     1     -10.905  14.267  67.891  1.00  0.00    -0.250 NA 
HETATM   15  C   UNL     1     -11.771  13.306  67.430  1.00  0.00    -0.373 C  
HETATM   16  N   UNL     1     -12.323  13.250  66.255  1.00  0.00    -0.365 N  
HETATM   17  H   UNL     1     -12.960  12.488  66.024  1.00  0.00     0.000 HD 
HETATM   18  C   UNL     1     -12.039  14.245  65.307  1.00  0.00    -0.400 C  
HETATM   19  O   UNL     1     -12.547  14.252  64.192  1.00  0.00    -0.689 OA 
ENDBRANCH   7   9
ENDBRANCH   2   4
TORSDOF 2
ENDMDL
MODEL       97
REMARK 921   NORMALIZED FREE ENERGY PREDICTED BY IDOCK:   -4.52 KCAL/MOL
REMARK 922        TOTAL FREE ENERGY PREDICTED BY IDOCK:   -5.35 KCAL/MOL
REMARK 923 INTER-LIGAND FREE ENERGY PREDICTED BY IDOCK:   -5.43 KCAL/MOL
REMARK 924 INTRA-LIGAND FREE ENERGY PREDICTED BY IDOCK:    0.08 KCAL/MOL
REMARK 927      BINDING AFFINITY PREDICTED BY RF-SCORE:    0.00 PKD
ROOT
HETATM    1  O   UNL     1      -9.393   7.850  68.994  1.00  0.00    -0.151 OA 
HETATM    2  C   UNL     1     -10.626   8.519  68.727  1.00  0.00    -0.133 C  
HETATM    3  H   UNL     1      -9.497   7.273  69.742  1.00  0.00     0.000 HD 
ENDROOT
BRANCH   2   4
HETATM    4  C   UNL     1     -10.457   9.452  67.519  1.00  0.00    -0.280 C  
HETATM    5  C   UNL     1      -9.092  10.114  67.465  1.00  0.00    -0.143 C  
HETATM    6  C   UNL     1      -9.307  11.427  68.178  1.00  0.00    -0.181 C  
HETATM    7  C   UNL     1     -10.756  11.763  67.862  1.00  0.00    -0.204 C  
HETATM    8  O   UNL     1     -11.424  10.518  67.584  1.00  0.00    -0.444 OA 
BRANCH   7   9
HETATM    9  N   UNL     1     -11.435  12.461  68.939  1.00  0.00    -0.284 NA 
HETATM   10  C   UNL     1     -11.520  13.830  69.062  1.00  0.00    -0.305 A  
HETATM   11  N   UNL     1     -12.165  14.195  70.154  1.00  0.00    -0.333 NA 
HETATM   12  C   UNL     1     -12.541  13.013  70.759  1.00  0.00    -0.241 A  
HETATM   13  C   UNL     1     -12.097  11.955  70.011  1.00  0.00    -0.291 A  
HETATM   14  N   UNL     1     -12.330  10.681  70.353  1.00  0.00    -0.323 NA 
HETATM   15  C   UNL     1     -13.056  10.492  71.504  1.00  0.00    -0.430 C  
HETATM   16  N   UNL     1     -13.519  11.411  72.296  1.00  0.00    -0.518 N  
HETATM   17  H   UNL     1     -14.042  11.152  73.132  1.00  0.00     0.000 HD 
HETATM   18  C   UNL     1     -13.295  12.763  71.996  1.00  0.00    -0.466 C  
HETATM   19  O   UNL     1     -13.692  13.671  72.717  1.00  0.00    -0.707 OA 
ENDBRANCH   7   9
ENDBRANCH   2   4
TORSDOF 2
ENDMDL
MODEL       98
REMARK 921   NORMALIZED FREE ENERGY PREDICTED BY IDOCK:   -4.52 KCAL/MOL
REMARK 922        TOTAL FREE ENERGY PREDICTED BY IDOCK:   -5.34 KCAL/MOL
REMARK 923 INTER-LIGAND FREE ENERGY PREDICTED BY IDOCK:   -5.44 KCAL/MOL
REMARK 924 INTRA-LIGAND FREE ENERGY PREDICTED BY IDOCK:    0.09 KCAL/MOL
REMARK 927      BINDING AFFINITY PREDICTED BY RF-SCORE:    0.00 PKD
ROOT
HETATM    1  O   UNL     1     -12.191  11.329  68.398  1.00  0.00    -0.604 OA 
HETATM    2  C   UNL     1     -11.747  12.516  67.739  1.00  0.00    -0.359 C  
HETATM    3  H   UNL     1     -13.066  11.463  68.743  1.00  0.00     0.000 HD 
ENDROOT
BRANCH   2   4
HETATM    4  C   UNL     1     -10.332  12.300  67.181  1.00  0.00    -0.218 C  
HETATM    5  C   UNL     1      -9.250  12.445  68.235  1.00  0.00    -0.189 C  
HETATM    6  C   UNL     1      -8.840  13.894  68.126  1.00  0.00    -0.184 C  
HETATM    7  C   UNL     1      -9.055  14.207  66.654  1.00  0.00    -0.216 C  
HETATM    8  O   UNL     1     -10.050  13.285  66.169  1.00  0.00    -0.282 OA 
BRANCH   7   9
HETATM    9  N   UNL     1      -9.484  15.573  66.410  1.00  0.00    -0.266 NA 
HETATM   10  C   UNL     1     -10.365  15.959  65.425  1.00  0.00    -0.372 A  
HETATM   11  N   UNL     1     -10.551  17.266  65.405  1.00  0.00    -0.631 NA 
HETATM   12  C   UNL     1      -9.777  17.753  66.438  1.00  0.00    -0.308 A  
HETATM   13  C   UNL     1      -9.130  16.715  67.053  1.00  0.00    -0.216 A  
HETATM   14  N   UNL     1      -8.316  16.892  68.103  1.00  0.00    -0.205 NA 
HETATM   15  C   UNL     1      -8.173  18.187  68.539  1.00  0.00    -0.307 C  
HETATM   16  N   UNL     1      -8.726  19.249  68.033  1.00  0.00    -0.307 N  
HETATM   17  H   UNL     1      -8.541  20.166  68.438  1.00  0.00     0.000 HD 
HETATM   18  C   UNL     1      -9.578  19.125  66.925  1.00  0.00    -0.325 C  
HETATM   19  O   UNL     1     -10.110  20.094  66.395  1.00  0.00    -0.449 OA 
ENDBRANCH   7   9
ENDBRANCH   2   4
TORSDOF 2
ENDMDL
MODEL       99
REMARK 921   NORMALIZED FREE ENERGY PREDICTED BY IDOCK:   -4.51 KCAL/MOL
REMARK 922        TOTAL FREE ENERGY PREDICTED BY IDOCK:   -5.34 KCAL/MOL
REMARK 923 INTER-LIGAND FREE ENERGY PREDICTED BY IDOCK:   -5.18 KCAL/MOL
REMARK 924 INTRA-LIGAND FREE ENERGY PREDICTED BY IDOCK:   -0.16 KCAL/MOL
REMARK 927      BINDING AFFINITY PREDICTED BY RF-SCORE:    0.00 PKD
ROOT
HETATM    1  O   UNL     1      -8.567  11.626  66.051  1.00  0.00    -0.345 OA 
HETATM    2  C   UNL     1      -9.789  10.952  66.353  1.00  0.00    -0.207 C  
HETATM    3  H   UNL     1      -7.871  10.990  65.933  1.00  0.00     0.000 HD 
ENDROOT
BRANCH   2   4
HETATM    4  C   UNL     1     -10.914  11.980  66.544  1.00  0.00    -0.295 C  
HETATM    5  C   UNL     1     -10.431  13.283  67.153  1.00  0.00    -0.248 C  
HETATM    6  C   UNL     1     -10.651  13.086  68.634  1.00  0.00    -0.257 C  
HETATM    7  C   UNL     1     -11.871  12.180  68.687  1.00  0.00    -0.306 C  
HETATM    8  O   UNL     1     -11.910  11.455  67.443  1.00  0.00    -0.609 OA 
BRANCH   7   9
HETATM    9  N   UNL     1     -11.852  11.250  69.802  1.00  0.00    -0.332 NA 
HETATM   10  C   UNL     1     -12.814  11.177  70.785  1.00  0.00    -0.234 A  
HETATM   11  N   UNL     1     -12.529  10.265  71.696  1.00  0.00    -0.405 NA 
HETATM   12  C   UNL     1     -11.341   9.700  71.278  1.00  0.00    -0.388 A  
HETATM   13  C   UNL     1     -10.933  10.301  70.117  1.00  0.00    -0.314 A  
HETATM   14  N   UNL     1      -9.813   9.943  69.474  1.00  0.00    -0.210 NA 
HETATM   15  C   UNL     1      -9.094   8.921  70.045  1.00  0.00    -0.166 C  
HETATM   16  N   UNL     1      -9.376   8.285  71.142  1.00  0.00    -0.156 N  
HETATM   17  H   UNL     1      -8.761   7.542  71.476  1.00  0.00     0.000 HD 
HETATM   18  C   UNL     1     -10.529   8.625  71.865  1.00  0.00    -0.340 C  
HETATM   19  O   UNL     1     -10.832   8.072  72.915  1.00  0.00    -0.366 OA 
ENDBRANCH   7   9
ENDBRANCH   2   4
TORSDOF 2
ENDMDL
MODEL      100
REMARK 921   NORMALIZED FREE ENERGY PREDICTED BY IDOCK:   -4.49 KCAL/MOL
REMARK 922        TOTAL FREE ENERGY PREDICTED BY IDOCK:   -5.31 KCAL/MOL
REMARK 923 INTER-LIGAND FREE ENERGY PREDICTED BY IDOCK:   -5.17 KCAL/MOL
REMARK 924 INTRA-LIGAND FREE ENERGY PREDICTED BY IDOCK:   -0.15 KCAL/MOL
REMARK 927      BINDING AFFINITY PREDICTED BY RF-SCORE:    0.00 PKD
ROOT
HETATM    1  O   UNL     1     -13.017  15.845  69.981  1.00  0.00    -0.621 OA 
HETATM    2  C   UNL     1     -12.236  14.649  69.993  1.00  0.00    -0.333 C  
HETATM    3  H   UNL     1     -13.578  15.868  70.747  1.00  0.00     0.000 HD 
ENDROOT
BRANCH   2   4
HETATM    4  C   UNL     1     -11.328  14.610  68.755  1.00  0.00    -0.281 C  
HETATM    5  C   UNL     1     -12.046  14.135  67.506  1.00  0.00    -0.363 C  
HETATM    6  C   UNL     1     -11.777  12.650  67.484  1.00  0.00    -0.429 C  
HETATM    7  C   UNL     1     -10.406  12.535  68.131  1.00  0.00    -0.232 C  
HETATM    8  O   UNL     1     -10.241  13.691  68.974  1.00  0.00    -0.135 OA 
BRANCH   7   9
HETATM    9  N   UNL     1     -10.234  11.323  68.911  1.00  0.00    -0.199 NA 
HETATM   10  C   UNL     1      -9.202  10.425  68.757  1.00  0.00    -0.172 A  
HETATM   11  N   UNL     1      -9.311   9.393  69.574  1.00  0.00    -0.170 NA 
HETATM   12  C   UNL     1     -10.450   9.641  70.313  1.00  0.00    -0.283 A  
HETATM   13  C   UNL     1     -11.009  10.824  69.908  1.00  0.00    -0.239 A  
HETATM   14  N   UNL     1     -12.122  11.323  70.463  1.00  0.00    -0.366 NA 
HETATM   15  C   UNL     1     -12.672  10.578  71.478  1.00  0.00    -0.452 C  
HETATM   16  N   UNL     1     -12.239   9.443  71.939  1.00  0.00    -0.374 N  
HETATM   17  H   UNL     1     -12.736   8.975  72.696  1.00  0.00     0.000 HD 
HETATM   18  C   UNL     1     -11.085   8.866  71.388  1.00  0.00    -0.306 C  
HETATM   19  O   UNL     1     -10.644   7.789  71.770  1.00  0.00    -0.210 OA 
ENDBRANCH   7   9
ENDBRANCH   2   4
TORSDOF 2
ENDMDL
MODEL      101
REMARK 921   NORMALIZED FREE ENERGY PREDICTED BY IDOCK:   -4.49 KCAL/MOL
REMARK 922        TOTAL FREE ENERGY PREDICTED BY IDOCK:   -5.31 KCAL/MOL
REMARK 923 INTER-LIGAND FREE ENERGY PREDICTED BY IDOCK:   -4.87 KCAL/MOL
REMARK 924 INTRA-LIGAND FREE ENERGY PREDICTED BY IDOCK:   -0.44 KCAL/MOL
REMARK 927      BINDING AFFINITY PREDICTED BY RF-SCORE:    0.00 PKD
ROOT
HETATM    1  O   UNL     1     -13.190   9.769  70.628  1.00  0.00    -0.590 OA 
HETATM    2  C   UNL     1     -12.810   9.562  71.989  1.00  0.00    -0.414 C  
HETATM    3  H   UNL     1     -13.388  10.687  70.488  1.00  0.00     0.000 HD 
ENDROOT
BRANCH   2   4
HETATM    4  C   UNL     1     -12.490   8.078  72.218  1.00  0.00    -0.261 C  
HETATM    5  C   UNL     1     -11.123   7.853  72.838  1.00  0.00    -0.442 C  
HETATM    6  C   UNL     1     -10.222   7.643  71.645  1.00  0.00    -0.217 C  
HETATM    7  C   UNL     1     -11.140   6.986  70.626  1.00  0.00    -0.272 C  
HETATM    8  O   UNL     1     -12.485   7.378  70.958  1.00  0.00    -0.314 OA 
BRANCH   7   9
HETATM    9  N   UNL     1     -10.839   7.355  69.255  1.00  0.00    -0.183 NA 
HETATM   10  C   UNL     1     -10.811   6.481  68.191  1.00  0.00    -0.295 A  
HETATM   11  N   UNL     1     -10.475   7.078  67.062  1.00  0.00    -0.292 NA 
HETATM   12  C   UNL     1     -10.301   8.405  67.398  1.00  0.00    -0.285 A  
HETATM   13  C   UNL     1     -10.529   8.571  68.738  1.00  0.00    -0.184 A  
HETATM   14  N   UNL     1     -10.445   9.765  69.342  1.00  0.00    -0.210 NA 
HETATM   15  C   UNL     1     -10.122  10.826  68.531  1.00  0.00    -0.176 C  
HETATM   16  N   UNL     1      -9.876  10.789  67.256  1.00  0.00    -0.176 N  
HETATM   17  H   UNL     1      -9.639  11.645  66.755  1.00  0.00     0.000 HD 
HETATM   18  C   UNL     1      -9.937   9.565  66.573  1.00  0.00    -0.261 C  
HETATM   19  O   UNL     1      -9.695   9.469  65.375  1.00  0.00    -0.294 OA 
ENDBRANCH   7   9
ENDBRANCH   2   4
TORSDOF 2
ENDMDL
MODEL      102
REMARK 921   NORMALIZED FREE ENERGY PREDICTED BY IDOCK:   -4.48 KCAL/MOL
REMARK 922        TOTAL FREE ENERGY PREDICTED BY IDOCK:   -5.31 KCAL/MOL
REMARK 923 INTER-LIGAND FREE ENERGY PREDICTED BY IDOCK:   -5.20 KCAL/MOL
REMARK 924 INTRA-LIGAND FREE ENERGY PREDICTED BY IDOCK:   -0.11 KCAL/MOL
REMARK 927      BINDING AFFINITY PREDICTED BY RF-SCORE:    0.00 PKD
ROOT
HETATM    1  O   UNL     1      -9.565   7.894  65.784  1.00  0.00    -0.418 OA 
HETATM    2  C   UNL     1     -10.233   8.503  66.890  1.00  0.00    -0.305 C  
HETATM    3  H   UNL     1      -9.857   6.995  65.689  1.00  0.00     0.000 HD 
ENDROOT
BRANCH   2   4
HETATM    4  C   UNL     1      -9.760   9.956  67.044  1.00  0.00    -0.182 C  
HETATM    5  C   UNL     1      -8.517  10.088  67.906  1.00  0.00    -0.118 C  
HETATM    6  C   UNL     1      -9.069  10.346  69.287  1.00  0.00    -0.188 C  
HETATM    7  C   UNL     1     -10.357  11.105  69.012  1.00  0.00    -0.194 C  
HETATM    8  O   UNL     1     -10.784  10.740  67.685  1.00  0.00    -0.219 OA 
BRANCH   7   9
HETATM    9  N   UNL     1     -11.412  10.821  69.968  1.00  0.00    -0.306 NA 
HETATM   10  C   UNL     1     -12.254  11.762  70.517  1.00  0.00    -0.347 A  
HETATM   11  N   UNL     1     -13.097  11.233  71.384  1.00  0.00    -0.357 NA 
HETATM   12  C   UNL     1     -12.810   9.883  71.385  1.00  0.00    -0.405 A  
HETATM   13  C   UNL     1     -11.782   9.634  70.514  1.00  0.00    -0.242 A  
HETATM   14  N   UNL     1     -11.301   8.402  70.300  1.00  0.00    -0.190 NA 
HETATM   15  C   UNL     1     -11.907   7.390  71.003  1.00  0.00    -0.307 C  
HETATM   16  N   UNL     1     -12.879   7.505  71.859  1.00  0.00    -0.441 N  
HETATM   17  H   UNL     1     -13.248   6.679  72.328  1.00  0.00     0.000 HD 
HETATM   18  C   UNL     1     -13.415   8.772  72.133  1.00  0.00    -0.427 C  
HETATM   19  O   UNL     1     -14.318   8.941  72.944  1.00  0.00    -0.548 OA 
ENDBRANCH   7   9
ENDBRANCH   2   4
TORSDOF 2
ENDMDL
MODEL      103
REMARK 921   NORMALIZED FREE ENERGY PREDICTED BY IDOCK:   -4.45 KCAL/MOL
REMARK 922        TOTAL FREE ENERGY PREDICTED BY IDOCK:   -5.27 KCAL/MOL
REMARK 923 INTER-LIGAND FREE ENERGY PREDICTED BY IDOCK:   -4.98 KCAL/MOL
REMARK 924 INTRA-LIGAND FREE ENERGY PREDICTED BY IDOCK:   -0.30 KCAL/MOL
REMARK 927      BINDING AFFINITY PREDICTED BY RF-SCORE:    0.00 PKD
ROOT
HETATM    1  O   UNL     1     -11.270   4.088  73.288  1.00  0.00    -0.222 OA 
HETATM    2  C   UNL     1     -11.236   5.470  72.927  1.00  0.00    -0.305 C  
HETATM    3  H   UNL     1     -11.385   4.005  74.227  1.00  0.00     0.000 HD 
ENDROOT
BRANCH   2   4
HETATM    4  C   UNL     1     -11.048   5.604  71.409  1.00  0.00    -0.151 C  
HETATM    5  C   UNL     1      -9.661   6.082  71.021  1.00  0.00    -0.197 C  
HETATM    6  C   UNL     1      -9.817   7.579  70.919  1.00  0.00    -0.177 C  
HETATM    7  C   UNL     1     -11.256   7.750  70.460  1.00  0.00    -0.257 C  
HETATM    8  O   UNL     1     -11.974   6.575  70.885  1.00  0.00    -0.369 OA 
BRANCH   7   9
HETATM    9  N   UNL     1     -11.895   8.941  70.990  1.00  0.00    -0.285 NA 
HETATM   10  C   UNL     1     -12.770   8.960  72.054  1.00  0.00    -0.394 A  
HETATM   11  N   UNL     1     -13.228  10.173  72.302  1.00  0.00    -0.360 NA 
HETATM   12  C   UNL     1     -12.607  10.987  71.377  1.00  0.00    -0.393 A  
HETATM   13  C   UNL     1     -11.789  10.231  70.580  1.00  0.00    -0.347 A  
HETATM   14  N   UNL     1     -11.047  10.761  69.598  1.00  0.00    -0.262 NA 
HETATM   15  C   UNL     1     -11.146  12.122  69.440  1.00  0.00    -0.117 C  
HETATM   16  N   UNL     1     -11.891  12.937  70.126  1.00  0.00    -0.504 N  
HETATM   17  H   UNL     1     -11.888  13.935  69.914  1.00  0.00     0.000 HD 
HETATM   18  C   UNL     1     -12.698  12.437  71.158  1.00  0.00    -0.240 C  
HETATM   19  O   UNL     1     -13.434  13.156  71.823  1.00  0.00    -0.396 OA 
ENDBRANCH   7   9
ENDBRANCH   2   4
TORSDOF 2
ENDMDL
MODEL      104
REMARK 921   NORMALIZED FREE ENERGY PREDICTED BY IDOCK:   -4.45 KCAL/MOL
REMARK 922        TOTAL FREE ENERGY PREDICTED BY IDOCK:   -5.27 KCAL/MOL
REMARK 923 INTER-LIGAND FREE ENERGY PREDICTED BY IDOCK:   -4.90 KCAL/MOL
REMARK 924 INTRA-LIGAND FREE ENERGY PREDICTED BY IDOCK:   -0.37 KCAL/MOL
REMARK 927      BINDING AFFINITY PREDICTED BY RF-SCORE:    0.00 PKD
ROOT
HETATM    1  O   UNL     1     -11.808   9.796  69.572  1.00  0.00    -0.452 OA 
HETATM    2  C   UNL     1     -10.636   9.464  68.827  1.00  0.00    -0.208 C  
HETATM    3  H   UNL     1     -11.653   9.643  70.497  1.00  0.00     0.000 HD 
ENDROOT
BRANCH   2   4
HETATM    4  C   UNL     1     -10.886   9.712  67.332  1.00  0.00    -0.172 C  
HETATM    5  C   UNL     1      -9.606   9.787  66.519  1.00  0.00    -0.249 C  
HETATM    6  C   UNL     1      -9.290  11.263  66.491  1.00  0.00    -0.201 C  
HETATM    7  C   UNL     1     -10.664  11.914  66.528  1.00  0.00    -0.258 C  
HETATM    8  O   UNL     1     -11.558  10.972  67.149  1.00  0.00    -0.469 OA 
BRANCH   7   9
HETATM    9  N   UNL     1     -10.688  13.173  67.251  1.00  0.00    -0.253 NA 
HETATM   10  C   UNL     1     -10.820  13.295  68.617  1.00  0.00    -0.259 A  
HETATM   11  N   UNL     1     -10.846  14.557  69.005  1.00  0.00    -0.248 NA 
HETATM   12  C   UNL     1     -10.699  15.291  67.846  1.00  0.00    -0.275 A  
HETATM   13  C   UNL     1     -10.598  14.442  66.777  1.00  0.00    -0.282 A  
HETATM   14  N   UNL     1     -10.434  14.879  65.521  1.00  0.00    -0.332 NA 
HETATM   15  C   UNL     1     -10.362  16.242  65.364  1.00  0.00    -0.294 C  
HETATM   16  N   UNL     1     -10.455  17.142  66.297  1.00  0.00    -0.298 N  
HETATM   17  H   UNL     1     -10.393  18.132  66.061  1.00  0.00     0.000 HD 
HETATM   18  C   UNL     1     -10.639  16.744  67.629  1.00  0.00    -0.325 C  
HETATM   19  O   UNL     1     -10.752  17.549  68.546  1.00  0.00    -0.330 OA 
ENDBRANCH   7   9
ENDBRANCH   2   4
TORSDOF 2
ENDMDL
MODEL      105
REMARK 921   NORMALIZED FREE ENERGY PREDICTED BY IDOCK:   -4.43 KCAL/MOL
REMARK 922        TOTAL FREE ENERGY PREDICTED BY IDOCK:   -5.24 KCAL/MOL
REMARK 923 INTER-LIGAND FREE ENERGY PREDICTED BY IDOCK:   -5.36 KCAL/MOL
REMARK 924 INTRA-LIGAND FREE ENERGY PREDICTED BY IDOCK:    0.12 KCAL/MOL
REMARK 927      BINDING AFFINITY PREDICTED BY RF-SCORE:    0.00 PKD
ROOT
HETATM    1  O   UNL     1      -9.812   8.190  65.990  1.00  0.00    -0.456 OA 
HETATM    2  C   UNL     1     -10.722   7.811  67.024  1.00  0.00    -0.246 C  
HETATM    3  H   UNL     1     -10.274   8.681  65.322  1.00  0.00     0.000 HD 
ENDROOT
BRANCH   2   4
HETATM    4  C   UNL     1      -9.975   7.016  68.106  1.00  0.00    -0.151 C  
HETATM    5  C   UNL     1     -10.719   5.769  68.546  1.00  0.00    -0.288 C  
HETATM    6  C   UNL     1     -11.516   6.234  69.741  1.00  0.00    -0.449 C  
HETATM    7  C   UNL     1     -10.637   7.317  70.346  1.00  0.00    -0.226 C  
HETATM    8  O   UNL     1      -9.810   7.829  69.284  1.00  0.00    -0.168 OA 
BRANCH   7   9
HETATM    9  N   UNL     1     -11.390   8.399  70.954  1.00  0.00    -0.266 NA 
HETATM   10  C   UNL     1     -12.160   8.284  72.090  1.00  0.00    -0.367 A  
HETATM   11  N   UNL     1     -12.763   9.417  72.402  1.00  0.00    -0.324 NA 
HETATM   12  C   UNL     1     -12.350  10.318  71.443  1.00  0.00    -0.401 A  
HETATM   13  C   UNL     1     -11.506   9.694  70.562  1.00  0.00    -0.285 A  
HETATM   14  N   UNL     1     -10.939  10.333  69.530  1.00  0.00    -0.241 NA 
HETATM   15  C   UNL     1     -11.246  11.667  69.408  1.00  0.00    -0.246 C  
HETATM   16  N   UNL     1     -12.035  12.361  70.172  1.00  0.00    -0.443 N  
HETATM   17  H   UNL     1     -12.194  13.350  69.981  1.00  0.00     0.000 HD 
HETATM   18  C   UNL     1     -12.667  11.742  71.261  1.00  0.00    -0.316 C  
HETATM   19  O   UNL     1     -13.436  12.342  72.002  1.00  0.00    -0.489 OA 
ENDBRANCH   7   9
ENDBRANCH   2   4
TORSDOF 2
ENDMDL
MODEL      106
REMARK 921   NORMALIZED FREE ENERGY PREDICTED BY IDOCK:   -4.42 KCAL/MOL
REMARK 922        TOTAL FREE ENERGY PREDICTED BY IDOCK:   -5.24 KCAL/MOL
REMARK 923 INTER-LIGAND FREE ENERGY PREDICTED BY IDOCK:   -5.42 KCAL/MOL
REMARK 924 INTRA-LIGAND FREE ENERGY PREDICTED BY IDOCK:    0.18 KCAL/MOL
REMARK 927      BINDING AFFINITY PREDICTED BY RF-SCORE:    0.00 PKD
ROOT
HETATM    1  O   UNL     1      -8.775  18.789  66.118  1.00  0.00    -0.439 OA 
HETATM    2  C   UNL     1      -9.758  19.422  66.939  1.00  0.00    -0.343 C  
HETATM    3  H   UNL     1      -8.920  19.022  65.209  1.00  0.00     0.000 HD 
ENDROOT
BRANCH   2   4
HETATM    4  C   UNL     1      -9.524  19.045  68.410  1.00  0.00    -0.364 C  
HETATM    5  C   UNL     1      -8.055  19.005  68.786  1.00  0.00    -0.372 C  
HETATM    6  C   UNL     1      -7.675  17.559  68.579  1.00  0.00    -0.272 C  
HETATM    7  C   UNL     1      -8.959  16.812  68.898  1.00  0.00    -0.227 C  
HETATM    8  O   UNL     1     -10.046  17.728  68.668  1.00  0.00    -0.349 OA 
BRANCH   7   9
HETATM    9  N   UNL     1      -9.144  15.612  68.101  1.00  0.00    -0.180 NA 
HETATM   10  C   UNL     1      -8.695  14.357  68.448  1.00  0.00    -0.180 A  
HETATM   11  N   UNL     1      -8.969  13.456  67.523  1.00  0.00    -0.196 NA 
HETATM   12  C   UNL     1      -9.649  14.145  66.540  1.00  0.00    -0.296 A  
HETATM   13  C   UNL     1      -9.758  15.463  66.899  1.00  0.00    -0.231 A  
HETATM   14  N   UNL     1     -10.385  16.369  66.137  1.00  0.00    -0.335 NA 
HETATM   15  C   UNL     1     -10.927  15.896  64.966  1.00  0.00    -0.412 C  
HETATM   16  N   UNL     1     -10.879  14.677  64.519  1.00  0.00    -0.625 N  
HETATM   17  H   UNL     1     -11.315  14.440  63.627  1.00  0.00     0.000 HD 
HETATM   18  C   UNL     1     -10.225  13.688  65.268  1.00  0.00    -0.323 C  
HETATM   19  O   UNL     1     -10.132  12.527  64.886  1.00  0.00    -0.275 OA 
ENDBRANCH   7   9
ENDBRANCH   2   4
TORSDOF 2
ENDMDL
MODEL      107
REMARK 921   NORMALIZED FREE ENERGY PREDICTED BY IDOCK:   -4.39 KCAL/MOL
REMARK 922        TOTAL FREE ENERGY PREDICTED BY IDOCK:   -5.20 KCAL/MOL
REMARK 923 INTER-LIGAND FREE ENERGY PREDICTED BY IDOCK:   -5.29 KCAL/MOL
REMARK 924 INTRA-LIGAND FREE ENERGY PREDICTED BY IDOCK:    0.09 KCAL/MOL
REMARK 927      BINDING AFFINITY PREDICTED BY RF-SCORE:    0.00 PKD
ROOT
HETATM    1  O   UNL     1      -8.109  17.131  68.391  1.00  0.00    -0.235 OA 
HETATM    2  C   UNL     1      -7.568  15.866  68.009  1.00  0.00    -0.129 C  
HETATM    3  H   UNL     1      -7.859  17.791  67.755  1.00  0.00     0.000 HD 
ENDROOT
BRANCH   2   4
HETATM    4  C   UNL     1      -7.972  14.798  69.036  1.00  0.00    -0.152 C  
HETATM    5  C   UNL     1      -7.168  13.517  68.909  1.00  0.00    -0.070 C  
HETATM    6  C   UNL     1      -8.013  12.656  68.001  1.00  0.00    -0.155 C  
HETATM    7  C   UNL     1      -9.432  13.090  68.331  1.00  0.00    -0.165 C  
HETATM    8  O   UNL     1      -9.352  14.433  68.845  1.00  0.00    -0.183 OA 
BRANCH   7   9
HETATM    9  N   UNL     1     -10.329  13.048  67.191  1.00  0.00    -0.242 NA 
HETATM   10  C   UNL     1     -11.048  11.942  66.792  1.00  0.00    -0.308 A  
HETATM   11  N   UNL     1     -11.757  12.174  65.702  1.00  0.00    -0.406 NA 
HETATM   12  C   UNL     1     -11.511  13.495  65.389  1.00  0.00    -0.302 A  
HETATM   13  C   UNL     1     -10.642  14.027  66.304  1.00  0.00    -0.281 A  
HETATM   14  N   UNL     1     -10.235  15.303  66.255  1.00  0.00    -0.272 NA 
HETATM   15  C   UNL     1     -10.751  16.058  65.231  1.00  0.00    -0.399 C  
HETATM   16  N   UNL     1     -11.571  15.663  64.303  1.00  0.00    -0.760 N  
HETATM   17  H   UNL     1     -11.885  16.315  63.584  1.00  0.00     0.000 HD 
HETATM   18  C   UNL     1     -12.022  14.334  64.296  1.00  0.00    -0.425 C  
HETATM   19  O   UNL     1     -12.779  13.902  63.435  1.00  0.00    -0.806 OA 
ENDBRANCH   7   9
ENDBRANCH   2   4
TORSDOF 2
ENDMDL
MODEL      108
REMARK 921   NORMALIZED FREE ENERGY PREDICTED BY IDOCK:   -4.38 KCAL/MOL
REMARK 922        TOTAL FREE ENERGY PREDICTED BY IDOCK:   -5.19 KCAL/MOL
REMARK 923 INTER-LIGAND FREE ENERGY PREDICTED BY IDOCK:   -5.38 KCAL/MOL
REMARK 924 INTRA-LIGAND FREE ENERGY PREDICTED BY IDOCK:    0.20 KCAL/MOL
REMARK 927      BINDING AFFINITY PREDICTED BY RF-SCORE:    0.00 PKD
ROOT
HETATM    1  O   UNL     1     -11.735  10.698  68.256  1.00  0.00    -0.642 OA 
HETATM    2  C   UNL     1     -10.908  11.712  67.684  1.00  0.00    -0.225 C  
HETATM    3  H   UNL     1     -11.252  10.233  68.929  1.00  0.00     0.000 HD 
ENDROOT
BRANCH   2   4
HETATM    4  C   UNL     1     -11.689  12.462  66.595  1.00  0.00    -0.372 C  
HETATM    5  C   UNL     1     -10.915  12.600  65.296  1.00  0.00    -0.320 C  
HETATM    6  C   UNL     1     -10.233  13.940  65.431  1.00  0.00    -0.356 C  
HETATM    7  C   UNL     1     -11.209  14.746  66.273  1.00  0.00    -0.343 C  
HETATM    8  O   UNL     1     -11.983  13.801  67.037  1.00  0.00    -0.387 OA 
BRANCH   7   9
HETATM    9  N   UNL     1     -10.561  15.692  67.163  1.00  0.00    -0.305 NA 
HETATM   10  C   UNL     1     -11.086  16.141  68.355  1.00  0.00    -0.359 A  
HETATM   11  N   UNL     1     -10.301  17.024  68.945  1.00  0.00    -0.320 NA 
HETATM   12  C   UNL     1      -9.205  17.139  68.115  1.00  0.00    -0.261 A  
HETATM   13  C   UNL     1      -9.365  16.320  67.029  1.00  0.00    -0.221 A  
HETATM   14  N   UNL     1      -8.445  16.218  66.061  1.00  0.00    -0.332 NA 
HETATM   15  C   UNL     1      -7.315  16.982  66.224  1.00  0.00    -0.259 C  
HETATM   16  N   UNL     1      -7.057  17.798  67.201  1.00  0.00    -0.173 N  
HETATM   17  H   UNL     1      -6.181  18.321  67.214  1.00  0.00     0.000 HD 
HETATM   18  C   UNL     1      -7.989  17.955  68.238  1.00  0.00    -0.291 C  
HETATM   19  O   UNL     1      -7.806  18.725  69.173  1.00  0.00    -0.217 OA 
ENDBRANCH   7   9
ENDBRANCH   2   4
TORSDOF 2
ENDMDL
MODEL      109
REMARK 921   NORMALIZED FREE ENERGY PREDICTED BY IDOCK:   -4.36 KCAL/MOL
REMARK 922        TOTAL FREE ENERGY PREDICTED BY IDOCK:   -5.16 KCAL/MOL
REMARK 923 INTER-LIGAND FREE ENERGY PREDICTED BY IDOCK:   -4.82 KCAL/MOL
REMARK 924 INTRA-LIGAND FREE ENERGY PREDICTED BY IDOCK:   -0.35 KCAL/MOL
REMARK 927      BINDING AFFINITY PREDICTED BY RF-SCORE:    0.00 PKD
ROOT
HETATM    1  O   UNL     1      -6.038  17.028  68.028  1.00  0.00    -0.127 OA 
HETATM    2  C   UNL     1      -6.814  17.683  69.033  1.00  0.00    -0.240 C  
HETATM    3  H   UNL     1      -5.628  16.254  68.394  1.00  0.00     0.000 HD 
ENDROOT
BRANCH   2   4
HETATM    4  C   UNL     1      -7.477  18.935  68.441  1.00  0.00    -0.300 C  
HETATM    5  C   UNL     1      -8.725  19.359  69.192  1.00  0.00    -0.149 C  
HETATM    6  C   UNL     1      -9.841  18.674  68.441  1.00  0.00    -0.424 C  
HETATM    7  C   UNL     1      -9.324  18.632  67.011  1.00  0.00    -0.294 C  
HETATM    8  O   UNL     1      -7.886  18.678  67.084  1.00  0.00    -0.229 OA 
BRANCH   7   9
HETATM    9  N   UNL     1      -9.746  17.452  66.279  1.00  0.00    -0.380 NA 
HETATM   10  C   UNL     1     -10.637  17.452  65.228  1.00  0.00     0.072 A  
HETATM   11  N   UNL     1     -10.868  16.236  64.769  1.00  0.00    -0.699 NA 
HETATM   12  C   UNL     1     -10.075  15.407  65.536  1.00  0.00    -0.373 A  
HETATM   13  C   UNL     1      -9.387  16.154  66.454  1.00  0.00    -0.298 A  
HETATM   14  N   UNL     1      -8.527  15.612  67.327  1.00  0.00    -0.177 NA 
HETATM   15  C   UNL     1      -8.365  14.251  67.243  1.00  0.00    -0.204 C  
HETATM   16  N   UNL     1      -8.967  13.441  66.424  1.00  0.00    -0.460 N  
HETATM   17  H   UNL     1      -8.770  12.440  66.456  1.00  0.00     0.000 HD 
HETATM   18  C   UNL     1      -9.887  13.950  65.495  1.00  0.00    -0.185 C  
HETATM   19  O   UNL     1     -10.497  13.231  64.713  1.00  0.00    -0.348 OA 
ENDBRANCH   7   9
ENDBRANCH   2   4
TORSDOF 2
ENDMDL
MODEL      110
REMARK 921   NORMALIZED FREE ENERGY PREDICTED BY IDOCK:   -4.30 KCAL/MOL
REMARK 922        TOTAL FREE ENERGY PREDICTED BY IDOCK:   -5.10 KCAL/MOL
REMARK 923 INTER-LIGAND FREE ENERGY PREDICTED BY IDOCK:   -5.21 KCAL/MOL
REMARK 924 INTRA-LIGAND FREE ENERGY PREDICTED BY IDOCK:    0.10 KCAL/MOL
REMARK 927      BINDING AFFINITY PREDICTED BY RF-SCORE:    0.00 PKD
ROOT
HETATM    1  O   UNL     1     -12.470  16.319  73.317  1.00  0.00    -0.478 OA 
HETATM    2  C   UNL     1     -11.917  16.201  72.006  1.00  0.00    -0.526 C  
HETATM    3  H   UNL     1     -11.846  16.750  73.890  1.00  0.00     0.000 HD 
ENDROOT
BRANCH   2   4
HETATM    4  C   UNL     1     -12.926  15.505  71.080  1.00  0.00    -0.496 C  
HETATM    5  C   UNL     1     -13.207  14.068  71.481  1.00  0.00    -0.431 C  
HETATM    6  C   UNL     1     -12.225  13.271  70.657  1.00  0.00    -0.417 C  
HETATM    7  C   UNL     1     -12.080  14.099  69.390  1.00  0.00    -0.328 C  
HETATM    8  O   UNL     1     -12.407  15.458  69.737  1.00  0.00    -0.324 OA 
BRANCH   7   9
HETATM    9  N   UNL     1     -10.750  14.041  68.811  1.00  0.00    -0.256 NA 
HETATM   10  C   UNL     1     -10.153  12.901  68.320  1.00  0.00    -0.242 A  
HETATM   11  N   UNL     1      -8.927  13.128  67.884  1.00  0.00    -0.190 NA 
HETATM   12  C   UNL     1      -8.724  14.479  68.074  1.00  0.00    -0.167 A  
HETATM   13  C   UNL     1      -9.842  15.035  68.637  1.00  0.00    -0.222 A  
HETATM   14  N   UNL     1      -9.933  16.341  68.922  1.00  0.00    -0.236 NA 
HETATM   15  C   UNL     1      -8.834  17.102  68.608  1.00  0.00    -0.266 C  
HETATM   16  N   UNL     1      -7.720  16.687  68.083  1.00  0.00    -0.168 N  
HETATM   17  H   UNL     1      -6.964  17.347  67.897  1.00  0.00     0.000 HD 
HETATM   18  C   UNL     1      -7.562  15.328  67.774  1.00  0.00    -0.154 C  
HETATM   19  O   UNL     1      -6.527  14.879  67.297  1.00  0.00    -0.304 OA 
ENDBRANCH   7   9
ENDBRANCH   2   4
TORSDOF 2
ENDMDL
MODEL      111
REMARK 921   NORMALIZED FREE ENERGY PREDICTED BY IDOCK:   -4.29 KCAL/MOL
REMARK 922        TOTAL FREE ENERGY PREDICTED BY IDOCK:   -5.09 KCAL/MOL
REMARK 923 INTER-LIGAND FREE ENERGY PREDICTED BY IDOCK:   -4.79 KCAL/MOL
REMARK 924 INTRA-LIGAND FREE ENERGY PREDICTED BY IDOCK:   -0.30 KCAL/MOL
REMARK 927      BINDING AFFINITY PREDICTED BY RF-SCORE:    0.00 PKD
ROOT
HETATM    1  O   UNL     1      -6.726   4.838  71.613  1.00  0.00    -0.036 OA 
HETATM    2  C   UNL     1      -7.741   5.627  70.990  1.00  0.00    -0.104 C  
HETATM    3  H   UNL     1      -5.879   5.248  71.488  1.00  0.00     0.000 HD 
ENDROOT
BRANCH   2   4
HETATM    4  C   UNL     1      -9.111   4.962  71.192  1.00  0.00    -0.141 C  
HETATM    5  C   UNL     1      -9.684   4.381  69.913  1.00  0.00    -0.291 C  
HETATM    6  C   UNL     1     -10.545   5.497  69.371  1.00  0.00    -0.349 C  
HETATM    7  C   UNL     1     -11.031   6.204  70.626  1.00  0.00    -0.311 C  
HETATM    8  O   UNL     1     -10.063   5.936  71.660  1.00  0.00    -0.182 OA 
BRANCH   7   9
HETATM    9  N   UNL     1     -11.192   7.637  70.457  1.00  0.00    -0.267 NA 
HETATM   10  C   UNL     1     -10.487   8.410  69.562  1.00  0.00    -0.224 A  
HETATM   11  N   UNL     1     -10.809   9.688  69.643  1.00  0.00    -0.238 NA 
HETATM   12  C   UNL     1     -11.786   9.750  70.616  1.00  0.00    -0.300 A  
HETATM   13  C   UNL     1     -12.021   8.493  71.108  1.00  0.00    -0.272 A  
HETATM   14  N   UNL     1     -12.933   8.250  72.058  1.00  0.00    -0.334 NA 
HETATM   15  C   UNL     1     -13.634   9.341  72.511  1.00  0.00    -0.413 C  
HETATM   16  N   UNL     1     -13.493  10.575  72.128  1.00  0.00    -0.529 N  
HETATM   17  H   UNL     1     -14.069  11.308  72.541  1.00  0.00     0.000 HD 
HETATM   18  C   UNL     1     -12.544  10.892  71.145  1.00  0.00    -0.428 C  
HETATM   19  O   UNL     1     -12.355  12.040  70.761  1.00  0.00    -0.375 OA 
ENDBRANCH   7   9
ENDBRANCH   2   4
TORSDOF 2
ENDMDL
MODEL      112
REMARK 921   NORMALIZED FREE ENERGY PREDICTED BY IDOCK:   -4.29 KCAL/MOL
REMARK 922        TOTAL FREE ENERGY PREDICTED BY IDOCK:   -5.08 KCAL/MOL
REMARK 923 INTER-LIGAND FREE ENERGY PREDICTED BY IDOCK:   -4.94 KCAL/MOL
REMARK 924 INTRA-LIGAND FREE ENERGY PREDICTED BY IDOCK:   -0.14 KCAL/MOL
REMARK 927      BINDING AFFINITY PREDICTED BY RF-SCORE:    0.00 PKD
ROOT
HETATM    1  O   UNL     1     -12.891  15.521  70.414  1.00  0.00    -0.586 OA 
HETATM    2  C   UNL     1     -11.591  14.952  70.576  1.00  0.00    -0.286 C  
HETATM    3  H   UNL     1     -13.523  15.024  70.918  1.00  0.00     0.000 HD 
ENDROOT
BRANCH   2   4
HETATM    4  C   UNL     1     -10.568  15.757  69.761  1.00  0.00    -0.312 C  
HETATM    5  C   UNL     1     -11.183  16.466  68.569  1.00  0.00    -0.334 C  
HETATM    6  C   UNL     1     -10.993  15.486  67.437  1.00  0.00    -0.306 C  
HETATM    7  C   UNL     1      -9.701  14.774  67.804  1.00  0.00    -0.213 C  
HETATM    8  O   UNL     1      -9.559  14.875  69.234  1.00  0.00    -0.195 OA 
BRANCH   7   9
HETATM    9  N   UNL     1      -9.674  13.380  67.399  1.00  0.00    -0.217 NA 
HETATM   10  C   UNL     1      -9.369  12.324  68.228  1.00  0.00    -0.199 A  
HETATM   11  N   UNL     1      -9.385  11.168  67.591  1.00  0.00    -0.163 NA 
HETATM   12  C   UNL     1      -9.741  11.479  66.294  1.00  0.00    -0.215 A  
HETATM   13  C   UNL     1      -9.922  12.832  66.182  1.00  0.00    -0.266 A  
HETATM   14  N   UNL     1     -10.287  13.418  65.034  1.00  0.00    -0.346 NA 
HETATM   15  C   UNL     1     -10.480  12.577  63.966  1.00  0.00    -0.422 C  
HETATM   16  N   UNL     1     -10.331  11.286  63.949  1.00  0.00    -0.348 N  
HETATM   17  H   UNL     1     -10.498  10.761  63.091  1.00  0.00     0.000 HD 
HETATM   18  C   UNL     1      -9.939  10.618  65.119  1.00  0.00    -0.303 C  
HETATM   19  O   UNL     1      -9.764   9.406  65.156  1.00  0.00    -0.229 OA 
ENDBRANCH   7   9
ENDBRANCH   2   4
TORSDOF 2
ENDMDL
MODEL      113
REMARK 921   NORMALIZED FREE ENERGY PREDICTED BY IDOCK:   -4.28 KCAL/MOL
REMARK 922        TOTAL FREE ENERGY PREDICTED BY IDOCK:   -5.08 KCAL/MOL
REMARK 923 INTER-LIGAND FREE ENERGY PREDICTED BY IDOCK:   -4.91 KCAL/MOL
REMARK 924 INTRA-LIGAND FREE ENERGY PREDICTED BY IDOCK:   -0.16 KCAL/MOL
REMARK 927      BINDING AFFINITY PREDICTED BY RF-SCORE:    0.00 PKD
ROOT
HETATM    1  O   UNL     1      -7.631  10.374  70.429  1.00  0.00    -0.451 OA 
HETATM    2  C   UNL     1      -8.156  10.066  69.138  1.00  0.00    -0.126 C  
HETATM    3  H   UNL     1      -7.718  11.305  70.596  1.00  0.00     0.000 HD 
ENDROOT
BRANCH   2   4
HETATM    4  C   UNL     1      -8.014   8.560  68.867  1.00  0.00    -0.118 C  
HETATM    5  C   UNL     1      -8.670   8.125  67.569  1.00  0.00    -0.129 C  
HETATM    6  C   UNL     1     -10.054   7.701  67.996  1.00  0.00    -0.226 C  
HETATM    7  C   UNL     1      -9.838   7.170  69.404  1.00  0.00    -0.161 C  
HETATM    8  O   UNL     1      -8.656   7.812  69.917  1.00  0.00    -0.134 OA 
BRANCH   7   9
HETATM    9  N   UNL     1     -10.960   7.412  70.292  1.00  0.00    -0.253 NA 
HETATM   10  C   UNL     1     -11.689   6.433  70.929  1.00  0.00    -0.303 A  
HETATM   11  N   UNL     1     -12.676   6.932  71.649  1.00  0.00    -0.372 NA 
HETATM   12  C   UNL     1     -12.573   8.300  71.497  1.00  0.00    -0.309 A  
HETATM   13  C   UNL     1     -11.520   8.590  70.671  1.00  0.00    -0.228 A  
HETATM   14  N   UNL     1     -11.176   9.846  70.354  1.00  0.00    -0.289 NA 
HETATM   15  C   UNL     1     -11.940  10.838  70.919  1.00  0.00    -0.333 C  
HETATM   16  N   UNL     1     -12.962  10.685  71.706  1.00  0.00    -0.471 N  
HETATM   17  H   UNL     1     -13.461  11.500  72.063  1.00  0.00     0.000 HD 
HETATM   18  C   UNL     1     -13.377   9.393  72.062  1.00  0.00    -0.450 C  
HETATM   19  O   UNL     1     -14.346   9.190  72.784  1.00  0.00    -0.563 OA 
ENDBRANCH   7   9
ENDBRANCH   2   4
TORSDOF 2
ENDMDL
MODEL      114
REMARK 921   NORMALIZED FREE ENERGY PREDICTED BY IDOCK:   -4.27 KCAL/MOL
REMARK 922        TOTAL FREE ENERGY PREDICTED BY IDOCK:   -5.07 KCAL/MOL
REMARK 923 INTER-LIGAND FREE ENERGY PREDICTED BY IDOCK:   -5.27 KCAL/MOL
REMARK 924 INTRA-LIGAND FREE ENERGY PREDICTED BY IDOCK:    0.20 KCAL/MOL
REMARK 927      BINDING AFFINITY PREDICTED BY RF-SCORE:    0.00 PKD
ROOT
HETATM    1  O   UNL     1     -12.140  10.299  68.531  1.00  0.00    -0.678 OA 
HETATM    2  C   UNL     1     -12.638  11.085  69.615  1.00  0.00    -0.017 C  
HETATM    3  H   UNL     1     -12.705   9.548  68.394  1.00  0.00     0.000 HD 
ENDROOT
BRANCH   2   4
HETATM    4  C   UNL     1     -11.725  12.300  69.837  1.00  0.00    -0.273 C  
HETATM    5  C   UNL     1     -12.336  13.600  69.347  1.00  0.00    -0.199 C  
HETATM    6  C   UNL     1     -11.809  13.731  67.938  1.00  0.00    -0.413 C  
HETATM    7  C   UNL     1     -10.445  13.062  68.012  1.00  0.00    -0.228 C  
HETATM    8  O   UNL     1     -10.495  12.128  69.107  1.00  0.00    -0.098 OA 
BRANCH   7   9
HETATM    9  N   UNL     1     -10.072  12.375  66.789  1.00  0.00    -0.212 NA 
HETATM   10  C   UNL     1      -8.840  11.808  66.548  1.00  0.00    -0.183 A  
HETATM   11  N   UNL     1      -8.761  11.279  65.341  1.00  0.00    -0.063 NA 
HETATM   12  C   UNL     1     -10.004  11.486  64.777  1.00  0.00    -0.260 A  
HETATM   13  C   UNL     1     -10.803  12.152  65.668  1.00  0.00    -0.284 A  
HETATM   14  N   UNL     1     -12.074  12.477  65.393  1.00  0.00    -0.498 NA 
HETATM   15  C   UNL     1     -12.538  12.093  64.159  1.00  0.00    -0.365 C  
HETATM   16  N   UNL     1     -11.873  11.468  63.233  1.00  0.00    -0.877 N  
HETATM   17  H   UNL     1     -12.322  11.238  62.346  1.00  0.00     0.000 HD 
HETATM   18  C   UNL     1     -10.535  11.113  63.459  1.00  0.00    -0.358 C  
HETATM   19  O   UNL     1      -9.856  10.542  62.615  1.00  0.00    -0.260 OA 
ENDBRANCH   7   9
ENDBRANCH   2   4
TORSDOF 2
ENDMDL
MODEL      115
REMARK 921   NORMALIZED FREE ENERGY PREDICTED BY IDOCK:   -4.27 KCAL/MOL
REMARK 922        TOTAL FREE ENERGY PREDICTED BY IDOCK:   -5.07 KCAL/MOL
REMARK 923 INTER-LIGAND FREE ENERGY PREDICTED BY IDOCK:   -4.68 KCAL/MOL
REMARK 924 INTRA-LIGAND FREE ENERGY PREDICTED BY IDOCK:   -0.39 KCAL/MOL
REMARK 927      BINDING AFFINITY PREDICTED BY RF-SCORE:    0.00 PKD
ROOT
HETATM    1  O   UNL     1     -13.024  10.082  70.313  1.00  0.00    -0.578 OA 
HETATM    2  C   UNL     1     -11.970  10.087  71.276  1.00  0.00    -0.394 C  
HETATM    3  H   UNL     1     -13.606  10.815  70.471  1.00  0.00     0.000 HD 
ENDROOT
BRANCH   2   4
HETATM    4  C   UNL     1     -11.029   8.900  71.021  1.00  0.00    -0.276 C  
HETATM    5  C   UNL     1      -9.580   9.210  71.345  1.00  0.00    -0.316 C  
HETATM    6  C   UNL     1      -9.010   9.670  70.025  1.00  0.00    -0.266 C  
HETATM    7  C   UNL     1      -9.811   8.876  69.005  1.00  0.00    -0.180 C  
HETATM    8  O   UNL     1     -11.065   8.538  69.627  1.00  0.00    -0.154 OA 
BRANCH   7   9
HETATM    9  N   UNL     1     -10.049   9.598  67.768  1.00  0.00    -0.175 NA 
HETATM   10  C   UNL     1     -10.822  10.732  67.653  1.00  0.00    -0.279 A  
HETATM   11  N   UNL     1     -10.896  11.162  66.407  1.00  0.00    -0.256 NA 
HETATM   12  C   UNL     1     -10.118  10.285  65.679  1.00  0.00    -0.271 A  
HETATM   13  C   UNL     1      -9.598   9.334  66.515  1.00  0.00    -0.224 A  
HETATM   14  N   UNL     1      -8.789   8.356  66.082  1.00  0.00    -0.156 NA 
HETATM   15  C   UNL     1      -8.500   8.368  64.740  1.00  0.00    -0.101 C  
HETATM   16  N   UNL     1      -8.940   9.209  63.852  1.00  0.00    -0.426 N  
HETATM   17  H   UNL     1      -8.661   9.116  62.875  1.00  0.00     0.000 HD 
HETATM   18  C   UNL     1      -9.799  10.246  64.245  1.00  0.00    -0.288 C  
HETATM   19  O   UNL     1     -10.259  11.055  63.448  1.00  0.00    -0.339 OA 
ENDBRANCH   7   9
ENDBRANCH   2   4
TORSDOF 2
ENDMDL
MODEL      116
REMARK 921   NORMALIZED FREE ENERGY PREDICTED BY IDOCK:   -4.26 KCAL/MOL
REMARK 922        TOTAL FREE ENERGY PREDICTED BY IDOCK:   -5.05 KCAL/MOL
REMARK 923 INTER-LIGAND FREE ENERGY PREDICTED BY IDOCK:   -4.81 KCAL/MOL
REMARK 924 INTRA-LIGAND FREE ENERGY PREDICTED BY IDOCK:   -0.24 KCAL/MOL
REMARK 927      BINDING AFFINITY PREDICTED BY RF-SCORE:    0.00 PKD
ROOT
HETATM    1  O   UNL     1      -8.032   8.002  73.297  1.00  0.00    -0.149 OA 
HETATM    2  C   UNL     1      -8.807   8.802  72.403  1.00  0.00     0.021 C  
HETATM    3  H   UNL     1      -7.162   8.374  73.386  1.00  0.00     0.000 HD 
ENDROOT
BRANCH   2   4
HETATM    4  C   UNL     1     -10.213   8.202  72.258  1.00  0.00    -0.278 C  
HETATM    5  C   UNL     1     -10.375   7.363  71.004  1.00  0.00    -0.201 C  
HETATM    6  C   UNL     1     -10.921   8.340  69.991  1.00  0.00    -0.197 C  
HETATM    7  C   UNL     1     -11.739   9.301  70.840  1.00  0.00    -0.296 C  
HETATM    8  O   UNL     1     -11.190   9.257  72.170  1.00  0.00    -0.272 OA 
BRANCH   7   9
HETATM    9  N   UNL     1     -11.727  10.664  70.342  1.00  0.00    -0.327 NA 
HETATM   10  C   UNL     1     -11.055  11.088  69.217  1.00  0.00    -0.254 A  
HETATM   11  N   UNL     1     -11.186  12.386  69.016  1.00  0.00    -0.260 NA 
HETATM   12  C   UNL     1     -11.999  12.827  70.040  1.00  0.00    -0.301 A  
HETATM   13  C   UNL     1     -12.331  11.771  70.846  1.00  0.00    -0.320 A  
HETATM   14  N   UNL     1     -13.126  11.903  71.917  1.00  0.00    -0.437 NA 
HETATM   15  C   UNL     1     -13.601  13.168  72.159  1.00  0.00    -0.544 C  
HETATM   16  N   UNL     1     -13.349  14.243  71.474  1.00  0.00    -0.340 N  
HETATM   17  H   UNL     1     -13.756  15.136  71.752  1.00  0.00     0.000 HD 
HETATM   18  C   UNL     1     -12.514  14.168  70.349  1.00  0.00    -0.357 C  
HETATM   19  O   UNL     1     -12.226  15.152  69.678  1.00  0.00    -0.302 OA 
ENDBRANCH   7   9
ENDBRANCH   2   4
TORSDOF 2
ENDMDL
MODEL      117
REMARK 921   NORMALIZED FREE ENERGY PREDICTED BY IDOCK:   -4.22 KCAL/MOL
REMARK 922        TOTAL FREE ENERGY PREDICTED BY IDOCK:   -5.01 KCAL/MOL
REMARK 923 INTER-LIGAND FREE ENERGY PREDICTED BY IDOCK:   -5.28 KCAL/MOL
REMARK 924 INTRA-LIGAND FREE ENERGY PREDICTED BY IDOCK:    0.27 KCAL/MOL
REMARK 927      BINDING AFFINITY PREDICTED BY RF-SCORE:    0.00 PKD
ROOT
HETATM    1  O   UNL     1      -7.429  14.547  67.648  1.00  0.00    -0.146 OA 
HETATM    2  C   UNL     1      -7.849  15.631  68.478  1.00  0.00    -0.133 C  
HETATM    3  H   UNL     1      -6.763  14.040  68.097  1.00  0.00     0.000 HD 
ENDROOT
BRANCH   2   4
HETATM    4  C   UNL     1      -8.925  16.452  67.752  1.00  0.00    -0.198 C  
HETATM    5  C   UNL     1      -9.240  17.765  68.445  1.00  0.00    -0.285 C  
HETATM    6  C   UNL     1     -10.407  17.423  69.339  1.00  0.00    -0.120 C  
HETATM    7  C   UNL     1     -11.133  16.335  68.564  1.00  0.00    -0.368 C  
HETATM    8  O   UNL     1     -10.159  15.710  67.706  1.00  0.00    -0.223 OA 
BRANCH   7   9
HETATM    9  N   UNL     1     -11.757  15.338  69.415  1.00  0.00    -0.320 NA 
HETATM   10  C   UNL     1     -12.149  14.083  69.003  1.00  0.00    -0.323 A  
HETATM   11  N   UNL     1     -12.721  13.395  69.974  1.00  0.00    -0.005 NA 
HETATM   12  C   UNL     1     -12.678  14.226  71.075  1.00  0.00    -0.359 A  
HETATM   13  C   UNL     1     -12.084  15.411  70.731  1.00  0.00    -0.366 A  
HETATM   14  N   UNL     1     -11.895  16.405  71.609  1.00  0.00    -0.406 NA 
HETATM   15  C   UNL     1     -12.327  16.164  72.890  1.00  0.00    -0.511 C  
HETATM   16  N   UNL     1     -12.910  15.089  73.330  1.00  0.00    -0.498 N  
HETATM   17  H   UNL     1     -13.195  15.024  74.307  1.00  0.00     0.000 HD 
HETATM   18  C   UNL     1     -13.145  14.020  72.453  1.00  0.00    -0.443 C  
HETATM   19  O   UNL     1     -13.708  12.991  72.809  1.00  0.00    -0.575 OA 
ENDBRANCH   7   9
ENDBRANCH   2   4
TORSDOF 2
ENDMDL
MODEL      118
REMARK 921   NORMALIZED FREE ENERGY PREDICTED BY IDOCK:   -4.22 KCAL/MOL
REMARK 922        TOTAL FREE ENERGY PREDICTED BY IDOCK:   -5.01 KCAL/MOL
REMARK 923 INTER-LIGAND FREE ENERGY PREDICTED BY IDOCK:   -4.99 KCAL/MOL
REMARK 924 INTRA-LIGAND FREE ENERGY PREDICTED BY IDOCK:   -0.02 KCAL/MOL
REMARK 927      BINDING AFFINITY PREDICTED BY RF-SCORE:    0.00 PKD
ROOT
HETATM    1  O   UNL     1      -7.922  11.932  68.964  1.00  0.00    -0.336 OA 
HETATM    2  C   UNL     1      -7.573  10.566  69.192  1.00  0.00    -0.123 C  
HETATM    3  H   UNL     1      -7.146  12.476  69.026  1.00  0.00     0.000 HD 
ENDROOT
BRANCH   2   4
HETATM    4  C   UNL     1      -8.828   9.687  69.093  1.00  0.00    -0.157 C  
HETATM    5  C   UNL     1      -9.337   9.537  67.671  1.00  0.00    -0.141 C  
HETATM    6  C   UNL     1     -10.360  10.639  67.542  1.00  0.00    -0.254 C  
HETATM    7  C   UNL     1     -10.918  10.765  68.950  1.00  0.00    -0.241 C  
HETATM    8  O   UNL     1      -9.902  10.279  69.849  1.00  0.00    -0.211 OA 
BRANCH   7   9
HETATM    9  N   UNL     1     -11.288  12.123  69.307  1.00  0.00    -0.268 NA 
HETATM   10  C   UNL     1     -10.856  13.256  68.653  1.00  0.00    -0.259 A  
HETATM   11  N   UNL     1     -11.319  14.360  69.209  1.00  0.00    -0.270 NA 
HETATM   12  C   UNL     1     -12.107  13.930  70.257  1.00  0.00    -0.353 A  
HETATM   13  C   UNL     1     -12.090  12.562  70.310  1.00  0.00    -0.294 A  
HETATM   14  N   UNL     1     -12.781  11.867  71.224  1.00  0.00    -0.356 NA 
HETATM   15  C   UNL     1     -13.523  12.611  72.108  1.00  0.00    -0.460 C  
HETATM   16  N   UNL     1     -13.610  13.906  72.161  1.00  0.00    -0.458 N  
HETATM   17  H   UNL     1     -14.192  14.353  72.869  1.00  0.00     0.000 HD 
HETATM   18  C   UNL     1     -12.899  14.687  71.237  1.00  0.00    -0.335 C  
HETATM   19  O   UNL     1     -12.928  15.912  71.252  1.00  0.00    -0.471 OA 
ENDBRANCH   7   9
ENDBRANCH   2   4
TORSDOF 2
ENDMDL
MODEL      119
REMARK 921   NORMALIZED FREE ENERGY PREDICTED BY IDOCK:   -4.21 KCAL/MOL
REMARK 922        TOTAL FREE ENERGY PREDICTED BY IDOCK:   -5.00 KCAL/MOL
REMARK 923 INTER-LIGAND FREE ENERGY PREDICTED BY IDOCK:   -4.71 KCAL/MOL
REMARK 924 INTRA-LIGAND FREE ENERGY PREDICTED BY IDOCK:   -0.30 KCAL/MOL
REMARK 927      BINDING AFFINITY PREDICTED BY RF-SCORE:    0.00 PKD
ROOT
HETATM    1  O   UNL     1      -7.989   9.518  64.675  1.00  0.00    -0.116 OA 
HETATM    2  C   UNL     1      -8.971   9.539  65.712  1.00  0.00    -0.179 C  
HETATM    3  H   UNL     1      -8.200  10.173  64.021  1.00  0.00     0.000 HD 
ENDROOT
BRANCH   2   4
HETATM    4  C   UNL     1      -8.629   8.479  66.770  1.00  0.00    -0.114 C  
HETATM    5  C   UNL     1      -9.575   7.293  66.750  1.00  0.00    -0.240 C  
HETATM    6  C   UNL     1     -10.628   7.661  67.768  1.00  0.00    -0.265 C  
HETATM    7  C   UNL     1      -9.858   8.495  68.780  1.00  0.00    -0.173 C  
HETATM    8  O   UNL     1      -8.725   9.054  68.087  1.00  0.00    -0.129 OA 
BRANCH   7   9
HETATM    9  N   UNL     1     -10.649   9.556  69.375  1.00  0.00    -0.214 NA 
HETATM   10  C   UNL     1     -10.680  10.860  68.932  1.00  0.00    -0.215 A  
HETATM   11  N   UNL     1     -11.457  11.623  69.680  1.00  0.00    -0.290 NA 
HETATM   12  C   UNL     1     -11.976  10.776  70.637  1.00  0.00    -0.367 A  
HETATM   13  C   UNL     1     -11.483   9.512  70.445  1.00  0.00    -0.242 A  
HETATM   14  N   UNL     1     -11.828   8.477  71.224  1.00  0.00    -0.286 NA 
HETATM   15  C   UNL     1     -12.720   8.755  72.230  1.00  0.00    -0.402 C  
HETATM   16  N   UNL     1     -13.245   9.909  72.514  1.00  0.00    -0.533 N  
HETATM   17  H   UNL     1     -13.896   9.998  73.294  1.00  0.00     0.000 HD 
HETATM   18  C   UNL     1     -12.912  11.031  71.741  1.00  0.00    -0.438 C  
HETATM   19  O   UNL     1     -13.361  12.147  71.975  1.00  0.00    -0.503 OA 
ENDBRANCH   7   9
ENDBRANCH   2   4
TORSDOF 2
ENDMDL
MODEL      120
REMARK 921   NORMALIZED FREE ENERGY PREDICTED BY IDOCK:   -4.21 KCAL/MOL
REMARK 922        TOTAL FREE ENERGY PREDICTED BY IDOCK:   -5.00 KCAL/MOL
REMARK 923 INTER-LIGAND FREE ENERGY PREDICTED BY IDOCK:   -5.21 KCAL/MOL
REMARK 924 INTRA-LIGAND FREE ENERGY PREDICTED BY IDOCK:    0.21 KCAL/MOL
REMARK 927      BINDING AFFINITY PREDICTED BY RF-SCORE:    0.00 PKD
ROOT
HETATM    1  O   UNL     1     -12.252  12.007  67.272  1.00  0.00    -0.496 OA 
HETATM    2  C   UNL     1     -11.194  12.966  67.226  1.00  0.00    -0.288 C  
HETATM    3  H   UNL     1     -13.090  12.453  67.238  1.00  0.00     0.000 HD 
ENDROOT
BRANCH   2   4
HETATM    4  C   UNL     1      -9.839  12.245  67.280  1.00  0.00    -0.205 C  
HETATM    5  C   UNL     1      -9.723  11.121  66.267  1.00  0.00    -0.244 C  
HETATM    6  C   UNL     1     -10.162   9.901  67.040  1.00  0.00    -0.294 C  
HETATM    7  C   UNL     1      -9.721  10.211  68.462  1.00  0.00    -0.154 C  
HETATM    8  O   UNL     1      -9.655  11.645  68.577  1.00  0.00    -0.196 OA 
BRANCH   7   9
HETATM    9  N   UNL     1     -10.612   9.673  69.474  1.00  0.00    -0.218 NA 
HETATM   10  C   UNL     1     -10.694   8.344  69.828  1.00  0.00    -0.211 A  
HETATM   11  N   UNL     1     -11.613   8.129  70.750  1.00  0.00    -0.270 NA 
HETATM   12  C   UNL     1     -12.138   9.374  71.031  1.00  0.00    -0.298 A  
HETATM   13  C   UNL     1     -11.520  10.316  70.252  1.00  0.00    -0.317 A  
HETATM   14  N   UNL     1     -11.822  11.620  70.322  1.00  0.00    -0.345 NA 
HETATM   15  C   UNL     1     -12.788  11.964  71.235  1.00  0.00    -0.290 C  
HETATM   16  N   UNL     1     -13.447  11.162  72.017  1.00  0.00    -0.454 N  
HETATM   17  H   UNL     1     -14.151  11.532  72.655  1.00  0.00     0.000 HD 
HETATM   18  C   UNL     1     -13.182   9.784  71.979  1.00  0.00    -0.460 C  
HETATM   19  O   UNL     1     -13.786   8.981  72.680  1.00  0.00    -0.470 OA 
ENDBRANCH   7   9
ENDBRANCH   2   4
TORSDOF 2
ENDMDL
MODEL      121
REMARK 921   NORMALIZED FREE ENERGY PREDICTED BY IDOCK:   -4.20 KCAL/MOL
REMARK 922        TOTAL FREE ENERGY PREDICTED BY IDOCK:   -4.99 KCAL/MOL
REMARK 923 INTER-LIGAND FREE ENERGY PREDICTED BY IDOCK:   -4.74 KCAL/MOL
REMARK 924 INTRA-LIGAND FREE ENERGY PREDICTED BY IDOCK:   -0.25 KCAL/MOL
REMARK 927      BINDING AFFINITY PREDICTED BY RF-SCORE:    0.00 PKD
ROOT
HETATM    1  O   UNL     1     -10.622   5.010  69.683  1.00  0.00    -0.212 OA 
HETATM    2  C   UNL     1     -11.087   6.132  70.434  1.00  0.00    -0.352 C  
HETATM    3  H   UNL     1     -11.363   4.529  69.335  1.00  0.00     0.000 HD 
ENDROOT
BRANCH   2   4
HETATM    4  C   UNL     1      -9.888   6.910  70.997  1.00  0.00    -0.178 C  
HETATM    5  C   UNL     1     -10.165   7.526  72.357  1.00  0.00    -0.261 C  
HETATM    6  C   UNL     1     -10.640   8.920  72.025  1.00  0.00    -0.388 C  
HETATM    7  C   UNL     1      -9.882   9.253  70.750  1.00  0.00    -0.283 C  
HETATM    8  O   UNL     1      -9.555   8.001  70.117  1.00  0.00    -0.173 OA 
BRANCH   7   9
HETATM    9  N   UNL     1     -10.633  10.091  69.833  1.00  0.00    -0.263 NA 
HETATM   10  C   UNL     1     -11.910  10.557  70.055  1.00  0.00    -0.308 A  
HETATM   11  N   UNL     1     -12.366  11.268  69.041  1.00  0.00    -0.425 NA 
HETATM   12  C   UNL     1     -11.333  11.289  68.125  1.00  0.00    -0.303 A  
HETATM   13  C   UNL     1     -10.274  10.572  68.615  1.00  0.00    -0.183 A  
HETATM   14  N   UNL     1      -9.124  10.433  67.942  1.00  0.00    -0.131 NA 
HETATM   15  C   UNL     1      -9.062  11.064  66.723  1.00  0.00    -0.162 C  
HETATM   16  N   UNL     1     -10.001  11.760  66.154  1.00  0.00    -0.219 N  
HETATM   17  H   UNL     1      -9.843  12.181  65.238  1.00  0.00     0.000 HD 
HETATM   18  C   UNL     1     -11.231  11.930  66.807  1.00  0.00    -0.327 C  
HETATM   19  O   UNL     1     -12.157  12.559  66.309  1.00  0.00    -0.574 OA 
ENDBRANCH   7   9
ENDBRANCH   2   4
TORSDOF 2
ENDMDL
MODEL      122
REMARK 921   NORMALIZED FREE ENERGY PREDICTED BY IDOCK:   -4.18 KCAL/MOL
REMARK 922        TOTAL FREE ENERGY PREDICTED BY IDOCK:   -4.96 KCAL/MOL
REMARK 923 INTER-LIGAND FREE ENERGY PREDICTED BY IDOCK:   -5.27 KCAL/MOL
REMARK 924 INTRA-LIGAND FREE ENERGY PREDICTED BY IDOCK:    0.31 KCAL/MOL
REMARK 927      BINDING AFFINITY PREDICTED BY RF-SCORE:    0.00 PKD
ROOT
HETATM    1  O   UNL     1      -7.024  14.143  66.989  1.00  0.00    -0.377 OA 
HETATM    2  C   UNL     1      -8.210  14.656  67.598  1.00  0.00    -0.171 C  
HETATM    3  H   UNL     1      -6.319  14.130  67.625  1.00  0.00     0.000 HD 
ENDROOT
BRANCH   2   4
HETATM    4  C   UNL     1      -9.352  14.678  66.571  1.00  0.00    -0.288 C  
HETATM    5  C   UNL     1     -10.327  15.820  66.790  1.00  0.00    -0.293 C  
HETATM    6  C   UNL     1     -11.403  15.208  67.654  1.00  0.00    -0.327 C  
HETATM    7  C   UNL     1     -11.423  13.754  67.208  1.00  0.00    -0.341 C  
HETATM    8  O   UNL     1     -10.120  13.463  66.667  1.00  0.00    -0.263 OA 
BRANCH   7   9
HETATM    9  N   UNL     1     -11.734  12.825  68.279  1.00  0.00    -0.329 NA 
HETATM   10  C   UNL     1     -11.556  11.461  68.217  1.00  0.00    -0.306 A  
HETATM   11  N   UNL     1     -11.955  10.854  69.319  1.00  0.00    -0.327 NA 
HETATM   12  C   UNL     1     -12.389  11.868  70.149  1.00  0.00    -0.171 A  
HETATM   13  C   UNL     1     -12.249  13.071  69.511  1.00  0.00    -0.140 A  
HETATM   14  N   UNL     1     -12.581  14.235  70.086  1.00  0.00    -0.334 NA 
HETATM   15  C   UNL     1     -13.067  14.154  71.368  1.00  0.00    -0.358 C  
HETATM   16  N   UNL     1     -13.252  13.075  72.067  1.00  0.00    -0.449 N  
HETATM   17  H   UNL     1     -13.627  13.136  73.014  1.00  0.00     0.000 HD 
HETATM   18  C   UNL     1     -12.934  11.826  71.513  1.00  0.00    -0.341 C  
HETATM   19  O   UNL     1     -13.107  10.775  72.119  1.00  0.00    -0.460 OA 
ENDBRANCH   7   9
ENDBRANCH   2   4
TORSDOF 2
ENDMDL
MODEL      123
REMARK 921   NORMALIZED FREE ENERGY PREDICTED BY IDOCK:   -4.14 KCAL/MOL
REMARK 922        TOTAL FREE ENERGY PREDICTED BY IDOCK:   -4.92 KCAL/MOL
REMARK 923 INTER-LIGAND FREE ENERGY PREDICTED BY IDOCK:   -4.62 KCAL/MOL
REMARK 924 INTRA-LIGAND FREE ENERGY PREDICTED BY IDOCK:   -0.30 KCAL/MOL
REMARK 927      BINDING AFFINITY PREDICTED BY RF-SCORE:    0.00 PKD
ROOT
HETATM    1  O   UNL     1     -10.509   5.206  65.683  1.00  0.00    -0.443 OA 
HETATM    2  C   UNL     1      -9.844   5.538  66.903  1.00  0.00    -0.163 C  
HETATM    3  H   UNL     1     -10.857   4.324  65.738  1.00  0.00     0.000 HD 
ENDROOT
BRANCH   2   4
HETATM    4  C   UNL     1      -9.281   6.964  66.814  1.00  0.00    -0.152 C  
HETATM    5  C   UNL     1      -7.962   7.129  67.546  1.00  0.00    -0.113 C  
HETATM    6  C   UNL     1      -8.375   7.607  68.917  1.00  0.00    -0.129 C  
HETATM    7  C   UNL     1      -9.640   8.405  68.642  1.00  0.00    -0.149 C  
HETATM    8  O   UNL     1     -10.201   7.893  67.418  1.00  0.00    -0.203 OA 
BRANCH   7   9
HETATM    9  N   UNL     1     -10.619   8.323  69.710  1.00  0.00    -0.228 NA 
HETATM   10  C   UNL     1     -10.952   7.171  70.388  1.00  0.00    -0.265 A  
HETATM   11  N   UNL     1     -11.898   7.375  71.286  1.00  0.00    -0.290 NA 
HETATM   12  C   UNL     1     -12.177   8.724  71.211  1.00  0.00    -0.287 A  
HETATM   13  C   UNL     1     -11.390   9.301  70.250  1.00  0.00    -0.203 A  
HETATM   14  N   UNL     1     -11.438  10.610  69.968  1.00  0.00    -0.299 NA 
HETATM   15  C   UNL     1     -12.324  11.352  70.711  1.00  0.00    -0.386 C  
HETATM   16  N   UNL     1     -13.124  10.916  71.637  1.00  0.00    -0.443 N  
HETATM   17  H   UNL     1     -13.747  11.562  72.122  1.00  0.00     0.000 HD 
HETATM   18  C   UNL     1     -13.127   9.553  71.967  1.00  0.00    -0.438 C  
HETATM   19  O   UNL     1     -13.874   9.084  72.818  1.00  0.00    -0.430 OA 
ENDBRANCH   7   9
ENDBRANCH   2   4
TORSDOF 2
ENDMDL
MODEL      124
REMARK 921   NORMALIZED FREE ENERGY PREDICTED BY IDOCK:   -4.13 KCAL/MOL
REMARK 922        TOTAL FREE ENERGY PREDICTED BY IDOCK:   -4.91 KCAL/MOL
REMARK 923 INTER-LIGAND FREE ENERGY PREDICTED BY IDOCK:   -4.80 KCAL/MOL
REMARK 924 INTRA-LIGAND FREE ENERGY PREDICTED BY IDOCK:   -0.11 KCAL/MOL
REMARK 927      BINDING AFFINITY PREDICTED BY RF-SCORE:    0.00 PKD
ROOT
HETATM    1  O   UNL     1      -6.887   8.735  67.182  1.00  0.00    -0.065 OA 
HETATM    2  C   UNL     1      -6.043   9.802  66.748  1.00  0.00    -0.063 C  
HETATM    3  H   UNL     1      -6.693   7.951  66.682  1.00  0.00     0.000 HD 
ENDROOT
BRANCH   2   4
HETATM    4  C   UNL     1      -6.356  11.070  67.557  1.00  0.00    -0.062 C  
HETATM    5  C   UNL     1      -7.112  10.785  68.841  1.00  0.00    -0.082 C  
HETATM    6  C   UNL     1      -8.559  10.939  68.443  1.00  0.00    -0.146 C  
HETATM    7  C   UNL     1      -8.510  12.000  67.355  1.00  0.00    -0.170 C  
HETATM    8  O   UNL     1      -7.190  11.952  66.781  1.00  0.00    -0.108 OA 
BRANCH   7   9
HETATM    9  N   UNL     1      -9.509  11.811  66.318  1.00  0.00    -0.220 NA 
HETATM   10  C   UNL     1      -9.472  10.825  65.357  1.00  0.00    -0.214 A  
HETATM   11  N   UNL     1     -10.489  10.906  64.519  1.00  0.00    -0.349 NA 
HETATM   12  C   UNL     1     -11.236  11.976  64.965  1.00  0.00    -0.320 A  
HETATM   13  C   UNL     1     -10.637  12.524  66.068  1.00  0.00    -0.263 A  
HETATM   14  N   UNL     1     -11.152  13.574  66.723  1.00  0.00    -0.295 NA 
HETATM   15  C   UNL     1     -12.333  14.070  66.227  1.00  0.00    -0.448 C  
HETATM   16  N   UNL     1     -12.986  13.642  65.188  1.00  0.00    -0.753 N  
HETATM   17  H   UNL     1     -13.856  14.094  64.906  1.00  0.00     0.000 HD 
HETATM   18  C   UNL     1     -12.488  12.553  64.456  1.00  0.00    -0.459 C  
HETATM   19  O   UNL     1     -13.052  12.121  63.457  1.00  0.00    -0.785 OA 
ENDBRANCH   7   9
ENDBRANCH   2   4
TORSDOF 2
ENDMDL
MODEL      125
REMARK 921   NORMALIZED FREE ENERGY PREDICTED BY IDOCK:   -4.11 KCAL/MOL
REMARK 922        TOTAL FREE ENERGY PREDICTED BY IDOCK:   -4.89 KCAL/MOL
REMARK 923 INTER-LIGAND FREE ENERGY PREDICTED BY IDOCK:   -4.51 KCAL/MOL
REMARK 924 INTRA-LIGAND FREE ENERGY PREDICTED BY IDOCK:   -0.38 KCAL/MOL
REMARK 927      BINDING AFFINITY PREDICTED BY RF-SCORE:    0.00 PKD
ROOT
HETATM    1  O   UNL     1      -6.301  16.361  68.049  1.00  0.00    -0.115 OA 
HETATM    2  C   UNL     1      -7.314  17.240  68.539  1.00  0.00    -0.235 C  
HETATM    3  H   UNL     1      -5.750  16.076  68.769  1.00  0.00     0.000 HD 
ENDROOT
BRANCH   2   4
HETATM    4  C   UNL     1      -8.205  17.702  67.375  1.00  0.00    -0.212 C  
HETATM    5  C   UNL     1      -9.646  17.937  67.787  1.00  0.00    -0.277 C  
HETATM    6  C   UNL     1     -10.318  16.617  67.497  1.00  0.00    -0.294 C  
HETATM    7  C   UNL     1      -9.541  16.085  66.304  1.00  0.00    -0.307 C  
HETATM    8  O   UNL     1      -8.235  16.690  66.350  1.00  0.00    -0.264 OA 
BRANCH   7   9
HETATM    9  N   UNL     1      -9.418  14.639  66.293  1.00  0.00    -0.299 NA 
HETATM   10  C   UNL     1      -8.574  13.913  67.104  1.00  0.00    -0.203 A  
HETATM   11  N   UNL     1      -8.638  12.617  66.860  1.00  0.00    -0.184 NA 
HETATM   12  C   UNL     1      -9.584  12.487  65.863  1.00  0.00    -0.168 A  
HETATM   13  C   UNL     1     -10.061  13.725  65.522  1.00  0.00    -0.284 A  
HETATM   14  N   UNL     1     -11.004  13.902  64.586  1.00  0.00    -0.394 NA 
HETATM   15  C   UNL     1     -11.476  12.760  63.987  1.00  0.00    -0.417 C  
HETATM   16  N   UNL     1     -11.095  11.539  64.219  1.00  0.00    -0.337 N  
HETATM   17  H   UNL     1     -11.515  10.765  63.706  1.00  0.00     0.000 HD 
HETATM   18  C   UNL     1     -10.103  11.294  65.180  1.00  0.00    -0.275 C  
HETATM   19  O   UNL     1      -9.692  10.166  65.426  1.00  0.00    -0.247 OA 
ENDBRANCH   7   9
ENDBRANCH   2   4
TORSDOF 2
ENDMDL
MODEL      126
REMARK 921   NORMALIZED FREE ENERGY PREDICTED BY IDOCK:   -4.10 KCAL/MOL
REMARK 922        TOTAL FREE ENERGY PREDICTED BY IDOCK:   -4.88 KCAL/MOL
REMARK 923 INTER-LIGAND FREE ENERGY PREDICTED BY IDOCK:   -4.57 KCAL/MOL
REMARK 924 INTRA-LIGAND FREE ENERGY PREDICTED BY IDOCK:   -0.32 KCAL/MOL
REMARK 927      BINDING AFFINITY PREDICTED BY RF-SCORE:    0.00 PKD
ROOT
HETATM    1  O   UNL     1     -12.221  14.255  68.306  1.00  0.00    -0.562 OA 
HETATM    2  C   UNL     1     -11.397  13.414  69.114  1.00  0.00    -0.280 C  
HETATM    3  H   UNL     1     -11.805  15.102  68.198  1.00  0.00     0.000 HD 
ENDROOT
BRANCH   2   4
HETATM    4  C   UNL     1     -12.070  12.044  69.290  1.00  0.00    -0.190 C  
HETATM    5  C   UNL     1     -11.287  11.109  70.192  1.00  0.00    -0.295 C  
HETATM    6  C   UNL     1     -10.428  10.324  69.230  1.00  0.00    -0.250 C  
HETATM    7  C   UNL     1     -11.284  10.255  67.975  1.00  0.00    -0.235 C  
HETATM    8  O   UNL     1     -12.178  11.384  68.015  1.00  0.00    -0.607 OA 
BRANCH   7   9
HETATM    9  N   UNL     1     -10.512  10.276  66.747  1.00  0.00    -0.231 NA 
HETATM   10  C   UNL     1     -10.335  11.381  65.944  1.00  0.00    -0.250 A  
HETATM   11  N   UNL     1      -9.617  11.110  64.870  1.00  0.00    -0.231 NA 
HETATM   12  C   UNL     1      -9.288   9.775  64.988  1.00  0.00    -0.263 A  
HETATM   13  C   UNL     1      -9.832   9.270  66.139  1.00  0.00    -0.293 A  
HETATM   14  N   UNL     1      -9.664   7.995  66.518  1.00  0.00    -0.233 NA 
HETATM   15  C   UNL     1      -8.898   7.218  65.684  1.00  0.00    -0.014 C  
HETATM   16  N   UNL     1      -8.340   7.581  64.568  1.00  0.00    -0.356 N  
HETATM   17  H   UNL     1      -7.795   6.912  64.025  1.00  0.00     0.000 HD 
HETATM   18  C   UNL     1      -8.493   8.900  64.115  1.00  0.00    -0.142 C  
HETATM   19  O   UNL     1      -8.006   9.292  63.061  1.00  0.00    -0.132 OA 
ENDBRANCH   7   9
ENDBRANCH   2   4
TORSDOF 2
ENDMDL
MODEL      127
REMARK 921   NORMALIZED FREE ENERGY PREDICTED BY IDOCK:   -4.09 KCAL/MOL
REMARK 922        TOTAL FREE ENERGY PREDICTED BY IDOCK:   -4.86 KCAL/MOL
REMARK 923 INTER-LIGAND FREE ENERGY PREDICTED BY IDOCK:   -4.63 KCAL/MOL
REMARK 924 INTRA-LIGAND FREE ENERGY PREDICTED BY IDOCK:   -0.23 KCAL/MOL
REMARK 927      BINDING AFFINITY PREDICTED BY RF-SCORE:    0.00 PKD
ROOT
HETATM    1  O   UNL     1     -11.440   6.640  67.916  1.00  0.00    -0.614 OA 
HETATM    2  C   UNL     1     -10.608   7.047  66.828  1.00  0.00    -0.227 C  
HETATM    3  H   UNL     1     -11.531   5.695  67.913  1.00  0.00     0.000 HD 
ENDROOT
BRANCH   2   4
HETATM    4  C   UNL     1     -10.462   8.576  66.832  1.00  0.00    -0.275 C  
HETATM    5  C   UNL     1      -9.044   9.038  66.551  1.00  0.00    -0.202 C  
HETATM    6  C   UNL     1      -8.440   9.190  67.926  1.00  0.00    -0.117 C  
HETATM    7  C   UNL     1      -9.628   9.596  68.785  1.00  0.00    -0.152 C  
HETATM    8  O   UNL     1     -10.809   9.098  68.129  1.00  0.00    -0.172 OA 
BRANCH   7   9
HETATM    9  N   UNL     1      -9.561   9.086  70.142  1.00  0.00    -0.181 NA 
HETATM   10  C   UNL     1      -8.461   9.176  70.966  1.00  0.00    -0.165 A  
HETATM   11  N   UNL     1      -8.664   8.597  72.135  1.00  0.00    -0.345 NA 
HETATM   12  C   UNL     1      -9.961   8.130  72.084  1.00  0.00    -0.247 A  
HETATM   13  C   UNL     1     -10.508   8.435  70.866  1.00  0.00    -0.196 A  
HETATM   14  N   UNL     1     -11.767   8.113  70.539  1.00  0.00    -0.140 NA 
HETATM   15  C   UNL     1     -12.490   7.461  71.509  1.00  0.00    -0.361 C  
HETATM   16  N   UNL     1     -12.077   7.113  72.690  1.00  0.00    -0.507 N  
HETATM   17  H   UNL     1     -12.705   6.624  73.329  1.00  0.00     0.000 HD 
HETATM   18  C   UNL     1     -10.764   7.413  73.083  1.00  0.00    -0.387 C  
HETATM   19  O   UNL     1     -10.317   7.091  74.177  1.00  0.00    -0.346 OA 
ENDBRANCH   7   9
ENDBRANCH   2   4
TORSDOF 2
ENDMDL
MODEL      128
REMARK 921   NORMALIZED FREE ENERGY PREDICTED BY IDOCK:   -4.08 KCAL/MOL
REMARK 922        TOTAL FREE ENERGY PREDICTED BY IDOCK:   -4.86 KCAL/MOL
REMARK 923 INTER-LIGAND FREE ENERGY PREDICTED BY IDOCK:   -4.67 KCAL/MOL
REMARK 924 INTRA-LIGAND FREE ENERGY PREDICTED BY IDOCK:   -0.19 KCAL/MOL
REMARK 927      BINDING AFFINITY PREDICTED BY RF-SCORE:    0.00 PKD
ROOT
HETATM    1  O   UNL     1      -9.029  12.125  65.882  1.00  0.00    -0.416 OA 
HETATM    2  C   UNL     1      -9.415  11.566  67.138  1.00  0.00    -0.177 C  
HETATM    3  H   UNL     1      -8.100  11.987  65.742  1.00  0.00     0.000 HD 
ENDROOT
BRANCH   2   4
HETATM    4  C   UNL     1     -10.917  11.788  67.365  1.00  0.00    -0.262 C  
HETATM    5  C   UNL     1     -11.645  12.249  66.116  1.00  0.00    -0.450 C  
HETATM    6  C   UNL     1     -11.624  13.754  66.228  1.00  0.00    -0.369 C  
HETATM    7  C   UNL     1     -11.661  13.993  67.730  1.00  0.00    -0.368 C  
HETATM    8  O   UNL     1     -11.117  12.815  68.355  1.00  0.00    -0.234 OA 
BRANCH   7   9
HETATM    9  N   UNL     1     -10.916  15.166  68.148  1.00  0.00    -0.276 NA 
HETATM   10  C   UNL     1     -11.452  16.246  68.813  1.00  0.00    -0.289 A  
HETATM   11  N   UNL     1     -10.556  17.189  69.040  1.00  0.00    -0.315 NA 
HETATM   12  C   UNL     1      -9.377  16.693  68.523  1.00  0.00    -0.236 A  
HETATM   13  C   UNL     1      -9.599  15.454  67.983  1.00  0.00    -0.206 A  
HETATM   14  N   UNL     1      -8.625  14.728  67.419  1.00  0.00    -0.183 NA 
HETATM   15  C   UNL     1      -7.375  15.296  67.421  1.00  0.00    -0.210 C  
HETATM   16  N   UNL     1      -7.046  16.461  67.893  1.00  0.00    -0.130 N  
HETATM   17  H   UNL     1      -6.080  16.785  67.834  1.00  0.00     0.000 HD 
HETATM   18  C   UNL     1      -8.027  17.272  68.484  1.00  0.00    -0.261 C  
HETATM   19  O   UNL     1      -7.777  18.387  68.927  1.00  0.00    -0.284 OA 
ENDBRANCH   7   9
ENDBRANCH   2   4
TORSDOF 2
ENDMDL
MODEL      129
REMARK 921   NORMALIZED FREE ENERGY PREDICTED BY IDOCK:   -4.08 KCAL/MOL
REMARK 922        TOTAL FREE ENERGY PREDICTED BY IDOCK:   -4.85 KCAL/MOL
REMARK 923 INTER-LIGAND FREE ENERGY PREDICTED BY IDOCK:   -5.09 KCAL/MOL
REMARK 924 INTRA-LIGAND FREE ENERGY PREDICTED BY IDOCK:    0.24 KCAL/MOL
REMARK 927      BINDING AFFINITY PREDICTED BY RF-SCORE:    0.00 PKD
ROOT
HETATM    1  O   UNL     1      -9.472  14.842  69.751  1.00  0.00    -0.424 OA 
HETATM    2  C   UNL     1     -10.146  16.071  69.477  1.00  0.00    -0.266 C  
HETATM    3  H   UNL     1      -8.557  14.918  69.509  1.00  0.00     0.000 HD 
ENDROOT
BRANCH   2   4
HETATM    4  C   UNL     1     -11.626  15.949  69.869  1.00  0.00    -0.336 C  
HETATM    5  C   UNL     1     -11.844  15.941  71.371  1.00  0.00    -0.524 C  
HETATM    6  C   UNL     1     -11.851  14.473  71.722  1.00  0.00    -0.210 C  
HETATM    7  C   UNL     1     -12.431  13.820  70.477  1.00  0.00    -0.339 C  
HETATM    8  O   UNL     1     -12.163  14.707  69.374  1.00  0.00    -0.298 OA 
BRANCH   7   9
HETATM    9  N   UNL     1     -11.879  12.506  70.203  1.00  0.00    -0.303 NA 
HETATM   10  C   UNL     1     -10.802  12.259  69.380  1.00  0.00     0.047 A  
HETATM   11  N   UNL     1     -10.534  10.970  69.282  1.00  0.00    -0.208 NA 
HETATM   12  C   UNL     1     -11.459  10.349  70.096  1.00  0.00    -0.319 A  
HETATM   13  C   UNL     1     -12.276  11.292  70.660  1.00  0.00    -0.393 A  
HETATM   14  N   UNL     1     -13.264  10.975  71.510  1.00  0.00    -0.360 NA 
HETATM   15  C   UNL     1     -13.406   9.639  71.793  1.00  0.00    -0.419 C  
HETATM   16  N   UNL     1     -12.701   8.658  71.313  1.00  0.00    -0.457 N  
HETATM   17  H   UNL     1     -12.902   7.698  71.592  1.00  0.00     0.000 HD 
HETATM   18  C   UNL     1     -11.662   8.928  70.410  1.00  0.00    -0.035 C  
HETATM   19  O   UNL     1     -10.978   8.041  69.912  1.00  0.00    -0.242 OA 
ENDBRANCH   7   9
ENDBRANCH   2   4
TORSDOF 2
ENDMDL
MODEL      130
REMARK 921   NORMALIZED FREE ENERGY PREDICTED BY IDOCK:   -4.07 KCAL/MOL
REMARK 922        TOTAL FREE ENERGY PREDICTED BY IDOCK:   -4.85 KCAL/MOL
REMARK 923 INTER-LIGAND FREE ENERGY PREDICTED BY IDOCK:   -4.57 KCAL/MOL
REMARK 924 INTRA-LIGAND FREE ENERGY PREDICTED BY IDOCK:   -0.27 KCAL/MOL
REMARK 927      BINDING AFFINITY PREDICTED BY RF-SCORE:    0.00 PKD
ROOT
HETATM    1  O   UNL     1      -7.918  11.180  69.684  1.00  0.00    -0.363 OA 
HETATM    2  C   UNL     1      -8.223  10.019  68.911  1.00  0.00    -0.121 C  
HETATM    3  H   UNL     1      -6.987  11.361  69.635  1.00  0.00     0.000 HD 
ENDROOT
BRANCH   2   4
HETATM    4  C   UNL     1      -9.729   9.726  68.990  1.00  0.00    -0.177 C  
HETATM    5  C   UNL     1     -10.255   8.981  67.776  1.00  0.00    -0.284 C  
HETATM    6  C   UNL     1     -10.735  10.084  66.864  1.00  0.00    -0.211 C  
HETATM    7  C   UNL     1     -11.193  11.163  67.833  1.00  0.00    -0.302 C  
HETATM    8  O   UNL     1     -10.466  10.961  69.060  1.00  0.00    -0.201 OA 
BRANCH   7   9
HETATM    9  N   UNL     1     -10.973  12.512  67.342  1.00  0.00    -0.250 NA 
HETATM   10  C   UNL     1     -10.449  12.827  66.108  1.00  0.00    -0.267 A  
HETATM   11  N   UNL     1     -10.326  14.130  65.935  1.00  0.00    -0.304 NA 
HETATM   12  C   UNL     1     -10.813  14.693  67.097  1.00  0.00    -0.303 A  
HETATM   13  C   UNL     1     -11.212  13.700  67.952  1.00  0.00    -0.274 A  
HETATM   14  N   UNL     1     -11.741  13.956  69.157  1.00  0.00    -0.313 NA 
HETATM   15  C   UNL     1     -11.871  15.284  69.485  1.00  0.00    -0.345 C  
HETATM   16  N   UNL     1     -11.521  16.306  68.764  1.00  0.00    -0.337 N  
HETATM   17  H   UNL     1     -11.661  17.253  69.115  1.00  0.00     0.000 HD 
HETATM   18  C   UNL     1     -10.951  16.099  67.499  1.00  0.00    -0.238 C  
HETATM   19  O   UNL     1     -10.584  17.025  66.785  1.00  0.00    -0.284 OA 
ENDBRANCH   7   9
ENDBRANCH   2   4
TORSDOF 2
ENDMDL
MODEL      131
REMARK 921   NORMALIZED FREE ENERGY PREDICTED BY IDOCK:   -4.07 KCAL/MOL
REMARK 922        TOTAL FREE ENERGY PREDICTED BY IDOCK:   -4.84 KCAL/MOL
REMARK 923 INTER-LIGAND FREE ENERGY PREDICTED BY IDOCK:   -4.96 KCAL/MOL
REMARK 924 INTRA-LIGAND FREE ENERGY PREDICTED BY IDOCK:    0.12 KCAL/MOL
REMARK 927      BINDING AFFINITY PREDICTED BY RF-SCORE:    0.00 PKD
ROOT
HETATM    1  O   UNL     1     -10.499  16.189  65.740  1.00  0.00    -0.341 OA 
HETATM    2  C   UNL     1     -10.387  14.948  66.437  1.00  0.00    -0.286 C  
HETATM    3  H   UNL     1      -9.681  16.667  65.803  1.00  0.00     0.000 HD 
ENDROOT
BRANCH   2   4
HETATM    4  C   UNL     1     -11.711  14.175  66.335  1.00  0.00    -0.390 C  
HETATM    5  C   UNL     1     -11.923  13.206  67.483  1.00  0.00    -0.367 C  
HETATM    6  C   UNL     1     -11.370  11.904  66.955  1.00  0.00    -0.392 C  
HETATM    7  C   UNL     1     -11.644  11.989  65.462  1.00  0.00    -0.293 C  
HETATM    8  O   UNL     1     -11.726  13.388  65.129  1.00  0.00    -0.305 OA 
BRANCH   7   9
HETATM    9  N   UNL     1     -10.627  11.345  64.650  1.00  0.00    -0.305 NA 
HETATM   10  C   UNL     1     -10.227  11.770  63.403  1.00  0.00    -0.449 A  
HETATM   11  N   UNL     1      -9.312  10.979  62.875  1.00  0.00    -0.332 NA 
HETATM   12  C   UNL     1      -9.084  10.008  63.829  1.00  0.00    -0.267 A  
HETATM   13  C   UNL     1      -9.886  10.238  64.915  1.00  0.00    -0.336 A  
HETATM   14  N   UNL     1      -9.868   9.458  66.004  1.00  0.00    -0.288 NA 
HETATM   15  C   UNL     1      -8.983   8.408  65.975  1.00  0.00    -0.184 C  
HETATM   16  N   UNL     1      -8.182   8.087  65.003  1.00  0.00    -0.157 N  
HETATM   17  H   UNL     1      -7.569   7.276  65.090  1.00  0.00     0.000 HD 
HETATM   18  C   UNL     1      -8.167   8.860  63.833  1.00  0.00    -0.171 C  
HETATM   19  O   UNL     1      -7.447   8.592  62.878  1.00  0.00    -0.099 OA 
ENDBRANCH   7   9
ENDBRANCH   2   4
TORSDOF 2
ENDMDL
MODEL      132
REMARK 921   NORMALIZED FREE ENERGY PREDICTED BY IDOCK:   -4.06 KCAL/MOL
REMARK 922        TOTAL FREE ENERGY PREDICTED BY IDOCK:   -4.83 KCAL/MOL
REMARK 923 INTER-LIGAND FREE ENERGY PREDICTED BY IDOCK:   -4.72 KCAL/MOL
REMARK 924 INTRA-LIGAND FREE ENERGY PREDICTED BY IDOCK:   -0.11 KCAL/MOL
REMARK 927      BINDING AFFINITY PREDICTED BY RF-SCORE:    0.00 PKD
ROOT
HETATM    1  O   UNL     1     -13.693  15.761  70.644  1.00  0.00    -0.761 OA 
HETATM    2  C   UNL     1     -12.535  14.930  70.560  1.00  0.00    -0.363 C  
HETATM    3  H   UNL     1     -14.337  15.356  71.213  1.00  0.00     0.000 HD 
ENDROOT
BRANCH   2   4
HETATM    4  C   UNL     1     -11.493  15.584  69.640  1.00  0.00    -0.329 C  
HETATM    5  C   UNL     1     -11.996  15.788  68.223  1.00  0.00     0.032 C  
HETATM    6  C   UNL     1     -11.537  14.544  67.502  1.00  0.00    -0.403 C  
HETATM    7  C   UNL     1     -10.245  14.182  68.218  1.00  0.00    -0.243 C  
HETATM    8  O   UNL     1     -10.329  14.743  69.542  1.00  0.00    -0.196 OA 
BRANCH   7   9
HETATM    9  N   UNL     1     -10.010  12.752  68.298  1.00  0.00    -0.228 NA 
HETATM   10  C   UNL     1      -8.938  12.096  67.734  1.00  0.00    -0.179 A  
HETATM   11  N   UNL     1      -8.990  10.792  67.932  1.00  0.00    -0.137 NA 
HETATM   12  C   UNL     1     -10.132  10.588  68.679  1.00  0.00    -0.180 A  
HETATM   13  C   UNL     1     -10.750  11.790  68.905  1.00  0.00    -0.205 A  
HETATM   14  N   UNL     1     -11.880  11.897  69.617  1.00  0.00    -0.328 NA 
HETATM   15  C   UNL     1     -12.385  10.723  70.122  1.00  0.00    -0.325 C  
HETATM   16  N   UNL     1     -11.894   9.530  69.967  1.00  0.00    -0.457 N  
HETATM   17  H   UNL     1     -12.361   8.725  70.385  1.00  0.00     0.000 HD 
HETATM   18  C   UNL     1     -10.720   9.355  69.220  1.00  0.00    -0.211 C  
HETATM   19  O   UNL     1     -10.224   8.251  69.025  1.00  0.00    -0.208 OA 
ENDBRANCH   7   9
ENDBRANCH   2   4
TORSDOF 2
ENDMDL
MODEL      133
REMARK 921   NORMALIZED FREE ENERGY PREDICTED BY IDOCK:   -4.06 KCAL/MOL
REMARK 922        TOTAL FREE ENERGY PREDICTED BY IDOCK:   -4.83 KCAL/MOL
REMARK 923 INTER-LIGAND FREE ENERGY PREDICTED BY IDOCK:   -4.68 KCAL/MOL
REMARK 924 INTRA-LIGAND FREE ENERGY PREDICTED BY IDOCK:   -0.14 KCAL/MOL
REMARK 927      BINDING AFFINITY PREDICTED BY RF-SCORE:    0.00 PKD
ROOT
HETATM    1  O   UNL     1     -11.729  10.063  69.539  1.00  0.00    -0.446 OA 
HETATM    2  C   UNL     1     -10.475   9.649  68.994  1.00  0.00    -0.213 C  
HETATM    3  H   UNL     1     -11.626  10.263  70.462  1.00  0.00     0.000 HD 
ENDROOT
BRANCH   2   4
HETATM    4  C   UNL     1     -10.642   9.326  67.501  1.00  0.00    -0.262 C  
HETATM    5  C   UNL     1      -9.318   9.203  66.769  1.00  0.00    -0.213 C  
HETATM    6  C   UNL     1      -9.084  10.590  66.223  1.00  0.00    -0.184 C  
HETATM    7  C   UNL     1     -10.491  11.106  65.966  1.00  0.00    -0.256 C  
HETATM    8  O   UNL     1     -11.370  10.384  66.850  1.00  0.00    -0.163 OA 
BRANCH   7   9
HETATM    9  N   UNL     1     -10.631  12.535  66.185  1.00  0.00    -0.249 NA 
HETATM   10  C   UNL     1     -10.352  13.507  65.251  1.00  0.00    -0.331 A  
HETATM   11  N   UNL     1     -10.534  14.725  65.728  1.00  0.00    -0.314 NA 
HETATM   12  C   UNL     1     -10.977  14.540  67.022  1.00  0.00    -0.312 A  
HETATM   13  C   UNL     1     -11.039  13.200  67.296  1.00  0.00    -0.279 A  
HETATM   14  N   UNL     1     -11.450  12.724  68.480  1.00  0.00    -0.285 NA 
HETATM   15  C   UNL     1     -11.818  13.666  69.410  1.00  0.00    -0.339 C  
HETATM   16  N   UNL     1     -11.793  14.957  69.268  1.00  0.00    -0.333 N  
HETATM   17  H   UNL     1     -12.086  15.563  70.034  1.00  0.00     0.000 HD 
HETATM   18  C   UNL     1     -11.360  15.513  68.054  1.00  0.00    -0.330 C  
HETATM   19  O   UNL     1     -11.297  16.723  67.872  1.00  0.00    -0.177 OA 
ENDBRANCH   7   9
ENDBRANCH   2   4
TORSDOF 2
ENDMDL
MODEL      134
REMARK 921   NORMALIZED FREE ENERGY PREDICTED BY IDOCK:   -4.05 KCAL/MOL
REMARK 922        TOTAL FREE ENERGY PREDICTED BY IDOCK:   -4.82 KCAL/MOL
REMARK 923 INTER-LIGAND FREE ENERGY PREDICTED BY IDOCK:   -4.68 KCAL/MOL
REMARK 924 INTRA-LIGAND FREE ENERGY PREDICTED BY IDOCK:   -0.14 KCAL/MOL
REMARK 927      BINDING AFFINITY PREDICTED BY RF-SCORE:    0.00 PKD
ROOT
HETATM    1  O   UNL     1     -13.683   9.519  70.887  1.00  0.00    -0.570 OA 
HETATM    2  C   UNL     1     -12.942   9.219  72.070  1.00  0.00    -0.425 C  
HETATM    3  H   UNL     1     -14.226  10.284  71.035  1.00  0.00     0.000 HD 
ENDROOT
BRANCH   2   4
HETATM    4  C   UNL     1     -12.064   7.981  71.831  1.00  0.00    -0.317 C  
HETATM    5  C   UNL     1     -10.965   7.824  72.866  1.00  0.00    -0.467 C  
HETATM    6  C   UNL     1      -9.783   8.520  72.236  1.00  0.00    -0.380 C  
HETATM    7  C   UNL     1      -9.996   8.292  70.748  1.00  0.00    -0.190 C  
HETATM    8  O   UNL     1     -11.408   8.085  70.553  1.00  0.00    -0.269 OA 
BRANCH   7   9
HETATM    9  N   UNL     1      -9.538   9.394  69.922  1.00  0.00    -0.196 NA 
HETATM   10  C   UNL     1      -8.223   9.639  69.591  1.00  0.00    -0.144 A  
HETATM   11  N   UNL     1      -8.087  10.728  68.858  1.00  0.00    -0.138 NA 
HETATM   12  C   UNL     1      -9.371  11.203  68.680  1.00  0.00    -0.184 A  
HETATM   13  C   UNL     1     -10.255  10.382  69.328  1.00  0.00    -0.230 A  
HETATM   14  N   UNL     1     -11.578  10.594  69.315  1.00  0.00    -0.278 NA 
HETATM   15  C   UNL     1     -12.004  11.686  68.600  1.00  0.00    -0.248 C  
HETATM   16  N   UNL     1     -11.262  12.537  67.956  1.00  0.00    -0.251 N  
HETATM   17  H   UNL     1     -11.691  13.320  67.462  1.00  0.00     0.000 HD 
HETATM   18  C   UNL     1      -9.869  12.374  67.945  1.00  0.00    -0.202 C  
HETATM   19  O   UNL     1      -9.121  13.156  67.371  1.00  0.00    -0.190 OA 
ENDBRANCH   7   9
ENDBRANCH   2   4
TORSDOF 2
ENDMDL
MODEL      135
REMARK 921   NORMALIZED FREE ENERGY PREDICTED BY IDOCK:   -4.05 KCAL/MOL
REMARK 922        TOTAL FREE ENERGY PREDICTED BY IDOCK:   -4.82 KCAL/MOL
REMARK 923 INTER-LIGAND FREE ENERGY PREDICTED BY IDOCK:   -4.67 KCAL/MOL
REMARK 924 INTRA-LIGAND FREE ENERGY PREDICTED BY IDOCK:   -0.14 KCAL/MOL
REMARK 927      BINDING AFFINITY PREDICTED BY RF-SCORE:    0.00 PKD
ROOT
HETATM    1  O   UNL     1     -11.093  16.041  63.961  1.00  0.00    -1.031 OA 
HETATM    2  C   UNL     1     -11.710  15.537  65.147  1.00  0.00     0.040 C  
HETATM    3  H   UNL     1     -11.525  15.678  63.197  1.00  0.00     0.000 HD 
ENDROOT
BRANCH   2   4
HETATM    4  C   UNL     1     -11.011  16.123  66.383  1.00  0.00    -0.036 C  
HETATM    5  C   UNL     1      -9.564  16.500  66.125  1.00  0.00    -0.344 C  
HETATM    6  C   UNL     1      -8.797  15.268  66.541  1.00  0.00    -0.335 C  
HETATM    7  C   UNL     1      -9.648  14.690  67.661  1.00  0.00    -0.212 C  
HETATM    8  O   UNL     1     -10.995  15.150  67.445  1.00  0.00    -0.300 OA 
BRANCH   7   9
HETATM    9  N   UNL     1      -9.622  13.239  67.716  1.00  0.00    -0.207 NA 
HETATM   10  C   UNL     1      -8.694  12.442  67.082  1.00  0.00    -0.195 A  
HETATM   11  N   UNL     1      -8.927  11.156  67.273  1.00  0.00    -0.146 NA 
HETATM   12  C   UNL     1     -10.041  11.111  68.087  1.00  0.00    -0.179 A  
HETATM   13  C   UNL     1     -10.459  12.386  68.359  1.00  0.00    -0.235 A  
HETATM   14  N   UNL     1     -11.516  12.647  69.141  1.00  0.00    -0.288 NA 
HETATM   15  C   UNL     1     -12.158  11.552  69.667  1.00  0.00    -0.296 C  
HETATM   16  N   UNL     1     -11.860  10.303  69.473  1.00  0.00    -0.477 N  
HETATM   17  H   UNL     1     -12.414   9.569  69.913  1.00  0.00     0.000 HD 
HETATM   18  C   UNL     1     -10.771   9.969  68.654  1.00  0.00    -0.226 C  
HETATM   19  O   UNL     1     -10.456   8.808  68.420  1.00  0.00    -0.207 OA 
ENDBRANCH   7   9
ENDBRANCH   2   4
TORSDOF 2
ENDMDL
MODEL      136
REMARK 921   NORMALIZED FREE ENERGY PREDICTED BY IDOCK:   -4.03 KCAL/MOL
REMARK 922        TOTAL FREE ENERGY PREDICTED BY IDOCK:   -4.80 KCAL/MOL
REMARK 923 INTER-LIGAND FREE ENERGY PREDICTED BY IDOCK:   -4.52 KCAL/MOL
REMARK 924 INTRA-LIGAND FREE ENERGY PREDICTED BY IDOCK:   -0.28 KCAL/MOL
REMARK 927      BINDING AFFINITY PREDICTED BY RF-SCORE:    0.00 PKD
ROOT
HETATM    1  O   UNL     1     -11.439   4.740  65.518  1.00  0.00    -0.935 OA 
HETATM    2  C   UNL     1     -10.432   5.214  66.413  1.00  0.00    -0.303 C  
HETATM    3  H   UNL     1     -11.489   3.793  65.565  1.00  0.00     0.000 HD 
ENDROOT
BRANCH   2   4
HETATM    4  C   UNL     1     -10.352   6.746  66.337  1.00  0.00     0.084 C  
HETATM    5  C   UNL     1      -8.941   7.258  66.116  1.00  0.00    -0.179 C  
HETATM    6  C   UNL     1      -8.434   7.514  67.515  1.00  0.00    -0.119 C  
HETATM    7  C   UNL     1      -9.690   7.911  68.274  1.00  0.00    -0.160 C  
HETATM    8  O   UNL     1     -10.805   7.323  67.577  1.00  0.00    -0.249 OA 
BRANCH   7   9
HETATM    9  N   UNL     1      -9.688   7.481  69.660  1.00  0.00    -0.167 NA 
HETATM   10  C   UNL     1      -8.732   6.671  70.233  1.00  0.00    -0.147 A  
HETATM   11  N   UNL     1      -8.995   6.408  71.500  1.00  0.00    -0.144 NA 
HETATM   12  C   UNL     1     -10.159   7.097  71.775  1.00  0.00    -0.183 A  
HETATM   13  C   UNL     1     -10.577   7.755  70.649  1.00  0.00    -0.222 A  
HETATM   14  N   UNL     1     -11.678   8.518  70.626  1.00  0.00    -0.205 NA 
HETATM   15  C   UNL     1     -12.368   8.611  71.810  1.00  0.00    -0.346 C  
HETATM   16  N   UNL     1     -12.075   8.029  72.934  1.00  0.00    -0.601 N  
HETATM   17  H   UNL     1     -12.667   8.167  73.753  1.00  0.00     0.000 HD 
HETATM   18  C   UNL     1     -10.940   7.208  73.015  1.00  0.00    -0.317 C  
HETATM   19  O   UNL     1     -10.627   6.619  74.043  1.00  0.00    -0.323 OA 
ENDBRANCH   7   9
ENDBRANCH   2   4
TORSDOF 2
ENDMDL
MODEL      137
REMARK 921   NORMALIZED FREE ENERGY PREDICTED BY IDOCK:   -3.96 KCAL/MOL
REMARK 922        TOTAL FREE ENERGY PREDICTED BY IDOCK:   -4.72 KCAL/MOL
REMARK 923 INTER-LIGAND FREE ENERGY PREDICTED BY IDOCK:   -4.85 KCAL/MOL
REMARK 924 INTRA-LIGAND FREE ENERGY PREDICTED BY IDOCK:    0.13 KCAL/MOL
REMARK 927      BINDING AFFINITY PREDICTED BY RF-SCORE:    0.00 PKD
ROOT
HETATM    1  O   UNL     1     -10.712   5.476  70.290  1.00  0.00    -0.294 OA 
HETATM    2  C   UNL     1     -11.694   6.509  70.210  1.00  0.00    -0.366 C  
HETATM    3  H   UNL     1     -10.499   5.169  69.417  1.00  0.00     0.000 HD 
ENDROOT
BRANCH   2   4
HETATM    4  C   UNL     1     -12.038   7.006  71.622  1.00  0.00    -0.347 C  
HETATM    5  C   UNL     1     -13.530   7.169  71.848  1.00  0.00    -0.276 C  
HETATM    6  C   UNL     1     -13.785   8.617  71.508  1.00  0.00    -0.368 C  
HETATM    7  C   UNL     1     -12.486   9.302  71.903  1.00  0.00    -0.382 C  
HETATM    8  O   UNL     1     -11.450   8.303  71.842  1.00  0.00    -0.272 OA 
BRANCH   7   9
HETATM    9  N   UNL     1     -12.143  10.425  71.049  1.00  0.00    -0.357 NA 
HETATM   10  C   UNL     1     -12.709  11.678  71.128  1.00  0.00    -0.325 A  
HETATM   11  N   UNL     1     -12.236  12.499  70.209  1.00  0.00    -0.310 NA 
HETATM   12  C   UNL     1     -11.301  11.758  69.515  1.00  0.00    -0.248 A  
HETATM   13  C   UNL     1     -11.243  10.493  70.035  1.00  0.00    -0.315 A  
HETATM   14  N   UNL     1     -10.409   9.556  69.563  1.00  0.00    -0.205 NA 
HETATM   15  C   UNL     1      -9.598   9.943  68.524  1.00  0.00    -0.153 C  
HETATM   16  N   UNL     1      -9.570  11.107  67.945  1.00  0.00    -0.171 N  
HETATM   17  H   UNL     1      -8.927  11.280  67.173  1.00  0.00     0.000 HD 
HETATM   18  C   UNL     1     -10.430  12.123  68.388  1.00  0.00    -0.231 C  
HETATM   19  O   UNL     1     -10.460  13.231  67.867  1.00  0.00    -0.230 OA 
ENDBRANCH   7   9
ENDBRANCH   2   4
TORSDOF 2
ENDMDL
MODEL      138
REMARK 921   NORMALIZED FREE ENERGY PREDICTED BY IDOCK:   -3.96 KCAL/MOL
REMARK 922        TOTAL FREE ENERGY PREDICTED BY IDOCK:   -4.72 KCAL/MOL
REMARK 923 INTER-LIGAND FREE ENERGY PREDICTED BY IDOCK:   -4.52 KCAL/MOL
REMARK 924 INTRA-LIGAND FREE ENERGY PREDICTED BY IDOCK:   -0.20 KCAL/MOL
REMARK 927      BINDING AFFINITY PREDICTED BY RF-SCORE:    0.00 PKD
ROOT
HETATM    1  O   UNL     1     -12.675   9.702  70.217  1.00  0.00    -0.484 OA 
HETATM    2  C   UNL     1     -13.443  10.521  71.100  1.00  0.00    -0.006 C  
HETATM    3  H   UNL     1     -13.223   9.010  69.866  1.00  0.00     0.000 HD 
ENDROOT
BRANCH   2   4
HETATM    4  C   UNL     1     -12.558  11.641  71.668  1.00  0.00    -0.173 C  
HETATM    5  C   UNL     1     -13.337  12.894  72.020  1.00  0.00    -0.579 C  
HETATM    6  C   UNL     1     -13.233  13.738  70.773  1.00  0.00    -0.077 C  
HETATM    7  C   UNL     1     -11.876  13.355  70.205  1.00  0.00    -0.272 C  
HETATM    8  O   UNL     1     -11.576  12.033  70.690  1.00  0.00    -0.008 OA 
BRANCH   7   9
HETATM    9  N   UNL     1     -11.830  13.373  68.754  1.00  0.00    -0.338 NA 
HETATM   10  C   UNL     1     -12.157  14.456  67.967  1.00  0.00    -0.231 A  
HETATM   11  N   UNL     1     -12.060  14.185  66.679  1.00  0.00    -0.447 NA 
HETATM   12  C   UNL     1     -11.627  12.876  66.620  1.00  0.00    -0.372 A  
HETATM   13  C   UNL     1     -11.483  12.385  67.890  1.00  0.00    -0.328 A  
HETATM   14  N   UNL     1     -11.060  11.137  68.138  1.00  0.00    -0.241 NA 
HETATM   15  C   UNL     1     -10.767  10.373  67.035  1.00  0.00    -0.235 C  
HETATM   16  N   UNL     1     -10.874  10.725  65.789  1.00  0.00    -0.079 N  
HETATM   17  H   UNL     1     -10.632  10.067  65.048  1.00  0.00     0.000 HD 
HETATM   18  C   UNL     1     -11.323  12.015  65.468  1.00  0.00    -0.328 C  
HETATM   19  O   UNL     1     -11.460  12.394  64.311  1.00  0.00    -0.323 OA 
ENDBRANCH   7   9
ENDBRANCH   2   4
TORSDOF 2
ENDMDL
MODEL      139
REMARK 921   NORMALIZED FREE ENERGY PREDICTED BY IDOCK:   -3.95 KCAL/MOL
REMARK 922        TOTAL FREE ENERGY PREDICTED BY IDOCK:   -4.71 KCAL/MOL
REMARK 923 INTER-LIGAND FREE ENERGY PREDICTED BY IDOCK:   -4.64 KCAL/MOL
REMARK 924 INTRA-LIGAND FREE ENERGY PREDICTED BY IDOCK:   -0.08 KCAL/MOL
REMARK 927      BINDING AFFINITY PREDICTED BY RF-SCORE:    0.00 PKD
ROOT
HETATM    1  O   UNL     1     -10.451  13.111  64.209  1.00  0.00    -0.414 OA 
HETATM    2  C   UNL     1     -11.153  12.251  65.109  1.00  0.00    -0.317 C  
HETATM    3  H   UNL     1     -10.092  12.600  63.494  1.00  0.00     0.000 HD 
ENDROOT
BRANCH   2   4
HETATM    4  C   UNL     1     -11.733  13.077  66.267  1.00  0.00    -0.387 C  
HETATM    5  C   UNL     1     -10.694  13.937  66.963  1.00  0.00    -0.283 C  
HETATM    6  C   UNL     1     -10.221  13.067  68.103  1.00  0.00    -0.239 C  
HETATM    7  C   UNL     1     -11.455  12.252  68.455  1.00  0.00    -0.303 C  
HETATM    8  O   UNL     1     -12.274  12.199  67.272  1.00  0.00    -0.496 OA 
BRANCH   7   9
HETATM    9  N   UNL     1     -11.149  10.907  68.907  1.00  0.00    -0.230 NA 
HETATM   10  C   UNL     1     -11.355  10.438  70.186  1.00  0.00    -0.323 A  
HETATM   11  N   UNL     1     -10.955   9.188  70.331  1.00  0.00    -0.239 NA 
HETATM   12  C   UNL     1     -10.490   8.815  69.086  1.00  0.00    -0.217 A  
HETATM   13  C   UNL     1     -10.615   9.866  68.218  1.00  0.00    -0.229 A  
HETATM   14  N   UNL     1     -10.253   9.785  66.930  1.00  0.00    -0.236 NA 
HETATM   15  C   UNL     1      -9.753   8.572  66.523  1.00  0.00    -0.260 C  
HETATM   16  N   UNL     1      -9.580   7.512  67.254  1.00  0.00    -0.147 N  
HETATM   17  H   UNL     1      -9.193   6.663  66.842  1.00  0.00     0.000 HD 
HETATM   18  C   UNL     1      -9.930   7.542  68.612  1.00  0.00    -0.172 C  
HETATM   19  O   UNL     1      -9.770   6.578  69.352  1.00  0.00    -0.146 OA 
ENDBRANCH   7   9
ENDBRANCH   2   4
TORSDOF 2
ENDMDL
MODEL      140
REMARK 921   NORMALIZED FREE ENERGY PREDICTED BY IDOCK:   -3.94 KCAL/MOL
REMARK 922        TOTAL FREE ENERGY PREDICTED BY IDOCK:   -4.70 KCAL/MOL
REMARK 923 INTER-LIGAND FREE ENERGY PREDICTED BY IDOCK:   -4.34 KCAL/MOL
REMARK 924 INTRA-LIGAND FREE ENERGY PREDICTED BY IDOCK:   -0.37 KCAL/MOL
REMARK 927      BINDING AFFINITY PREDICTED BY RF-SCORE:    0.00 PKD
ROOT
HETATM    1  O   UNL     1     -12.286  14.203  70.829  1.00  0.00    -0.321 OA 
HETATM    2  C   UNL     1     -12.333  15.453  70.139  1.00  0.00    -0.361 C  
HETATM    3  H   UNL     1     -13.148  13.992  71.168  1.00  0.00     0.000 HD 
ENDROOT
BRANCH   2   4
HETATM    4  C   UNL     1     -10.940  15.795  69.591  1.00  0.00    -0.306 C  
HETATM    5  C   UNL     1     -10.987  16.556  68.279  1.00  0.00    -0.346 C  
HETATM    6  C   UNL     1     -10.896  15.470  67.235  1.00  0.00    -0.313 C  
HETATM    7  C   UNL     1     -10.046  14.406  67.911  1.00  0.00    -0.228 C  
HETATM    8  O   UNL     1     -10.204  14.583  69.332  1.00  0.00    -0.158 OA 
BRANCH   7   9
HETATM    9  N   UNL     1     -10.410  13.052  67.537  1.00  0.00    -0.223 NA 
HETATM   10  C   UNL     1     -11.603  12.688  66.952  1.00  0.00    -0.373 A  
HETATM   11  N   UNL     1     -11.683  11.386  66.750  1.00  0.00    -0.422 NA 
HETATM   12  C   UNL     1     -10.481  10.878  67.198  1.00  0.00    -0.237 A  
HETATM   13  C   UNL     1      -9.703  11.901  67.674  1.00  0.00    -0.185 A  
HETATM   14  N   UNL     1      -8.471  11.702  68.163  1.00  0.00    -0.150 NA 
HETATM   15  C   UNL     1      -8.023  10.404  68.152  1.00  0.00    -0.110 C  
HETATM   16  N   UNL     1      -8.671   9.357  67.737  1.00  0.00    -0.117 N  
HETATM   17  H   UNL     1      -8.237   8.434  67.783  1.00  0.00     0.000 HD 
HETATM   18  C   UNL     1      -9.969   9.501  67.226  1.00  0.00    -0.189 C  
HETATM   19  O   UNL     1     -10.632   8.547  66.839  1.00  0.00    -0.298 OA 
ENDBRANCH   7   9
ENDBRANCH   2   4
TORSDOF 2
ENDMDL
MODEL      141
REMARK 921   NORMALIZED FREE ENERGY PREDICTED BY IDOCK:   -3.93 KCAL/MOL
REMARK 922        TOTAL FREE ENERGY PREDICTED BY IDOCK:   -4.69 KCAL/MOL
REMARK 923 INTER-LIGAND FREE ENERGY PREDICTED BY IDOCK:   -4.29 KCAL/MOL
REMARK 924 INTRA-LIGAND FREE ENERGY PREDICTED BY IDOCK:   -0.40 KCAL/MOL
REMARK 927      BINDING AFFINITY PREDICTED BY RF-SCORE:    0.00 PKD
ROOT
HETATM    1  O   UNL     1      -7.184  16.424  69.514  1.00  0.00    -0.219 OA 
HETATM    2  C   UNL     1      -7.365  17.329  68.424  1.00  0.00    -0.224 C  
HETATM    3  H   UNL     1      -7.160  16.907  70.331  1.00  0.00     0.000 HD 
ENDROOT
BRANCH   2   4
HETATM    4  C   UNL     1      -7.403  16.547  67.103  1.00  0.00    -0.185 C  
HETATM    5  C   UNL     1      -8.209  17.244  66.022  1.00  0.00    -0.175 C  
HETATM    6  C   UNL     1      -9.588  16.647  66.167  1.00  0.00    -0.323 C  
HETATM    7  C   UNL     1      -9.307  15.234  66.654  1.00  0.00    -0.260 C  
HETATM    8  O   UNL     1      -8.024  15.264  67.310  1.00  0.00    -0.169 OA 
BRANCH   7   9
HETATM    9  N   UNL     1     -10.317  14.724  67.563  1.00  0.00    -0.238 NA 
HETATM   10  C   UNL     1     -11.006  13.543  67.395  1.00  0.00    -0.272 A  
HETATM   11  N   UNL     1     -11.891  13.341  68.354  1.00  0.00    -0.354 NA 
HETATM   12  C   UNL     1     -11.758  14.424  69.198  1.00  0.00    -0.317 A  
HETATM   13  C   UNL     1     -10.792  15.265  68.715  1.00  0.00    -0.254 A  
HETATM   14  N   UNL     1     -10.440  16.396  69.341  1.00  0.00    -0.292 NA 
HETATM   15  C   UNL     1     -11.103  16.663  70.514  1.00  0.00     0.049 C  
HETATM   16  N   UNL     1     -12.040  15.949  71.063  1.00  0.00    -0.458 N  
HETATM   17  H   UNL     1     -12.468  16.251  71.938  1.00  0.00     0.000 HD 
HETATM   18  C   UNL     1     -12.458  14.761  70.446  1.00  0.00    -0.349 C  
HETATM   19  O   UNL     1     -13.349  14.059  70.909  1.00  0.00    -0.252 OA 
ENDBRANCH   7   9
ENDBRANCH   2   4
TORSDOF 2
ENDMDL
MODEL      142
REMARK 921   NORMALIZED FREE ENERGY PREDICTED BY IDOCK:   -3.93 KCAL/MOL
REMARK 922        TOTAL FREE ENERGY PREDICTED BY IDOCK:   -4.69 KCAL/MOL
REMARK 923 INTER-LIGAND FREE ENERGY PREDICTED BY IDOCK:   -4.89 KCAL/MOL
REMARK 924 INTRA-LIGAND FREE ENERGY PREDICTED BY IDOCK:    0.20 KCAL/MOL
REMARK 927      BINDING AFFINITY PREDICTED BY RF-SCORE:    0.00 PKD
ROOT
HETATM    1  O   UNL     1     -12.242  10.870  68.520  1.00  0.00    -0.799 OA 
HETATM    2  C   UNL     1     -11.064  11.558  68.945  1.00  0.00    -0.232 C  
HETATM    3  H   UNL     1     -12.999  11.222  68.973  1.00  0.00     0.000 HD 
ENDROOT
BRANCH   2   4
HETATM    4  C   UNL     1      -9.840  10.988  68.213  1.00  0.00    -0.178 C  
HETATM    5  C   UNL     1     -10.175  10.417  66.848  1.00  0.00    -0.281 C  
HETATM    6  C   UNL     1     -10.423   8.954  67.126  1.00  0.00    -0.344 C  
HETATM    7  C   UNL     1      -9.495   8.659  68.294  1.00  0.00    -0.141 C  
HETATM    8  O   UNL     1      -9.272   9.907  68.978  1.00  0.00    -0.150 OA 
BRANCH   7   9
HETATM    9  N   UNL     1     -10.025   7.674  69.219  1.00  0.00    -0.176 NA 
HETATM   10  C   UNL     1      -9.892   6.310  69.081  1.00  0.00    -0.144 A  
HETATM   11  N   UNL     1     -10.501   5.649  70.048  1.00  0.00    -0.272 NA 
HETATM   12  C   UNL     1     -11.034   6.623  70.868  1.00  0.00    -0.268 A  
HETATM   13  C   UNL     1     -10.737   7.859  70.360  1.00  0.00    -0.233 A  
HETATM   14  N   UNL     1     -11.119   8.996  70.959  1.00  0.00    -0.266 NA 
HETATM   15  C   UNL     1     -11.824   8.850  72.129  1.00  0.00    -0.347 C  
HETATM   16  N   UNL     1     -12.172   7.735  72.699  1.00  0.00    -0.581 N  
HETATM   17  H   UNL     1     -12.704   7.748  73.569  1.00  0.00     0.000 HD 
HETATM   18  C   UNL     1     -11.811   6.513  72.111  1.00  0.00    -0.305 C  
HETATM   19  O   UNL     1     -12.128   5.433  72.594  1.00  0.00    -0.169 OA 
ENDBRANCH   7   9
ENDBRANCH   2   4
TORSDOF 2
ENDMDL
MODEL      143
REMARK 921   NORMALIZED FREE ENERGY PREDICTED BY IDOCK:   -3.92 KCAL/MOL
REMARK 922        TOTAL FREE ENERGY PREDICTED BY IDOCK:   -4.67 KCAL/MOL
REMARK 923 INTER-LIGAND FREE ENERGY PREDICTED BY IDOCK:   -4.37 KCAL/MOL
REMARK 924 INTRA-LIGAND FREE ENERGY PREDICTED BY IDOCK:   -0.30 KCAL/MOL
REMARK 927      BINDING AFFINITY PREDICTED BY RF-SCORE:    0.00 PKD
ROOT
HETATM    1  O   UNL     1     -14.199   7.131  72.043  1.00  0.00    -0.574 OA 
HETATM    2  C   UNL     1     -13.255   8.016  71.438  1.00  0.00    -0.227 C  
HETATM    3  H   UNL     1     -15.069   7.314  71.707  1.00  0.00     0.000 HD 
ENDROOT
BRANCH   2   4
HETATM    4  C   UNL     1     -11.849   7.721  71.981  1.00  0.00    -0.307 C  
HETATM    5  C   UNL     1     -10.908   8.907  71.869  1.00  0.00    -0.433 C  
HETATM    6  C   UNL     1     -10.212   8.684  70.547  1.00  0.00    -0.229 C  
HETATM    7  C   UNL     1     -10.164   7.169  70.429  1.00  0.00    -0.193 C  
HETATM    8  O   UNL     1     -11.247   6.652  71.226  1.00  0.00    -0.257 OA 
BRANCH   7   9
HETATM    9  N   UNL     1     -10.282   6.692  69.063  1.00  0.00    -0.168 NA 
HETATM   10  C   UNL     1     -10.736   7.443  68.001  1.00  0.00    -0.127 A  
HETATM   11  N   UNL     1     -10.773   6.749  66.879  1.00  0.00    -0.330 NA 
HETATM   12  C   UNL     1     -10.298   5.498  67.215  1.00  0.00    -0.236 A  
HETATM   13  C   UNL     1      -9.994   5.468  68.550  1.00  0.00    -0.157 A  
HETATM   14  N   UNL     1      -9.498   4.379  69.154  1.00  0.00    -0.156 NA 
HETATM   15  C   UNL     1      -9.301   3.285  68.348  1.00  0.00    -0.180 C  
HETATM   16  N   UNL     1      -9.559   3.192  67.078  1.00  0.00    -0.399 N  
HETATM   17  H   UNL     1      -9.375   2.320  66.580  1.00  0.00     0.000 HD 
HETATM   18  C   UNL     1     -10.091   4.296  66.395  1.00  0.00    -0.152 C  
HETATM   19  O   UNL     1     -10.371   4.258  65.203  1.00  0.00    -0.241 OA 
ENDBRANCH   7   9
ENDBRANCH   2   4
TORSDOF 2
ENDMDL
MODEL      144
REMARK 921   NORMALIZED FREE ENERGY PREDICTED BY IDOCK:   -3.91 KCAL/MOL
REMARK 922        TOTAL FREE ENERGY PREDICTED BY IDOCK:   -4.66 KCAL/MOL
REMARK 923 INTER-LIGAND FREE ENERGY PREDICTED BY IDOCK:   -4.26 KCAL/MOL
REMARK 924 INTRA-LIGAND FREE ENERGY PREDICTED BY IDOCK:   -0.40 KCAL/MOL
REMARK 927      BINDING AFFINITY PREDICTED BY RF-SCORE:    0.00 PKD
ROOT
HETATM    1  O   UNL     1     -13.199   9.758  70.499  1.00  0.00    -0.589 OA 
HETATM    2  C   UNL     1     -12.917   9.549  71.884  1.00  0.00    -0.425 C  
HETATM    3  H   UNL     1     -13.507  10.646  70.366  1.00  0.00     0.000 HD 
ENDROOT
BRANCH   2   4
HETATM    4  C   UNL     1     -12.420   8.112  72.100  1.00  0.00    -0.322 C  
HETATM    5  C   UNL     1     -11.236   8.029  73.046  1.00  0.00    -0.279 C  
HETATM    6  C   UNL     1     -10.041   8.076  72.125  1.00  0.00    -0.298 C  
HETATM    7  C   UNL     1     -10.547   7.398  70.862  1.00  0.00    -0.223 C  
HETATM    8  O   UNL     1     -11.979   7.553  70.848  1.00  0.00    -0.298 OA 
BRANCH   7   9
HETATM    9  N   UNL     1      -9.977   7.945  69.644  1.00  0.00    -0.187 NA 
HETATM   10  C   UNL     1      -9.437   9.206  69.523  1.00  0.00    -0.168 A  
HETATM   11  N   UNL     1      -9.022   9.456  68.295  1.00  0.00    -0.128 NA 
HETATM   12  C   UNL     1      -9.278   8.299  67.588  1.00  0.00    -0.137 A  
HETATM   13  C   UNL     1      -9.858   7.376  68.417  1.00  0.00    -0.158 A  
HETATM   14  N   UNL     1     -10.205   6.150  68.002  1.00  0.00    -0.157 NA 
HETATM   15  C   UNL     1      -9.935   5.864  66.686  1.00  0.00    -0.174 C  
HETATM   16  N   UNL     1      -9.401   6.657  65.806  1.00  0.00    -0.386 N  
HETATM   17  H   UNL     1      -9.253   6.337  64.850  1.00  0.00     0.000 HD 
HETATM   18  C   UNL     1      -9.029   7.957  66.181  1.00  0.00    -0.175 C  
HETATM   19  O   UNL     1      -8.539   8.754  65.389  1.00  0.00    -0.159 OA 
ENDBRANCH   7   9
ENDBRANCH   2   4
TORSDOF 2
ENDMDL
MODEL      145
REMARK 921   NORMALIZED FREE ENERGY PREDICTED BY IDOCK:   -3.90 KCAL/MOL
REMARK 922        TOTAL FREE ENERGY PREDICTED BY IDOCK:   -4.66 KCAL/MOL
REMARK 923 INTER-LIGAND FREE ENERGY PREDICTED BY IDOCK:   -4.41 KCAL/MOL
REMARK 924 INTRA-LIGAND FREE ENERGY PREDICTED BY IDOCK:   -0.25 KCAL/MOL
REMARK 927      BINDING AFFINITY PREDICTED BY RF-SCORE:    0.00 PKD
ROOT
HETATM    1  O   UNL     1     -12.079  15.867  63.661  1.00  0.00    -1.223 OA 
HETATM    2  C   UNL     1     -11.729  14.697  64.402  1.00  0.00    -0.346 C  
HETATM    3  H   UNL     1     -12.194  15.643  62.745  1.00  0.00     0.000 HD 
ENDROOT
BRANCH   2   4
HETATM    4  C   UNL     1     -11.543  15.058  65.883  1.00  0.00    -0.165 C  
HETATM    5  C   UNL     1     -10.203  15.710  66.172  1.00  0.00    -0.327 C  
HETATM    6  C   UNL     1      -9.321  14.550  66.565  1.00  0.00    -0.307 C  
HETATM    7  C   UNL     1     -10.291  13.583  67.226  1.00  0.00    -0.241 C  
HETATM    8  O   UNL     1     -11.597  13.865  66.689  1.00  0.00    -0.339 OA 
BRANCH   7   9
HETATM    9  N   UNL     1      -9.954  12.188  67.008  1.00  0.00    -0.201 NA 
HETATM   10  C   UNL     1     -10.710  11.300  66.275  1.00  0.00    -0.257 A  
HETATM   11  N   UNL     1     -10.189  10.087  66.269  1.00  0.00    -0.235 NA 
HETATM   12  C   UNL     1      -9.029  10.192  67.009  1.00  0.00    -0.135 A  
HETATM   13  C   UNL     1      -8.886  11.479  67.455  1.00  0.00    -0.155 A  
HETATM   14  N   UNL     1      -7.839  11.875  68.191  1.00  0.00    -0.125 NA 
HETATM   15  C   UNL     1      -6.901  10.911  68.469  1.00  0.00    -0.059 C  
HETATM   16  N   UNL     1      -6.933   9.663  68.110  1.00  0.00    -0.077 N  
HETATM   17  H   UNL     1      -6.178   9.032  68.381  1.00  0.00     0.000 HD 
HETATM   18  C   UNL     1      -8.011   9.187  67.348  1.00  0.00    -0.103 C  
HETATM   19  O   UNL     1      -8.102   8.016  66.999  1.00  0.00    -0.113 OA 
ENDBRANCH   7   9
ENDBRANCH   2   4
TORSDOF 2
ENDMDL
MODEL      146
REMARK 921   NORMALIZED FREE ENERGY PREDICTED BY IDOCK:   -3.88 KCAL/MOL
REMARK 922        TOTAL FREE ENERGY PREDICTED BY IDOCK:   -4.63 KCAL/MOL
REMARK 923 INTER-LIGAND FREE ENERGY PREDICTED BY IDOCK:   -4.51 KCAL/MOL
REMARK 924 INTRA-LIGAND FREE ENERGY PREDICTED BY IDOCK:   -0.13 KCAL/MOL
REMARK 927      BINDING AFFINITY PREDICTED BY RF-SCORE:    0.00 PKD
ROOT
HETATM    1  O   UNL     1      -9.120   5.931  72.261  1.00  0.00    -0.142 OA 
HETATM    2  C   UNL     1      -9.662   6.941  71.410  1.00  0.00    -0.174 C  
HETATM    3  H   UNL     1      -8.678   5.273  71.737  1.00  0.00     0.000 HD 
ENDROOT
BRANCH   2   4
HETATM    4  C   UNL     1     -10.376   8.004  72.258  1.00  0.00    -0.271 C  
HETATM    5  C   UNL     1     -11.876   7.790  72.340  1.00  0.00    -0.371 C  
HETATM    6  C   UNL     1     -12.418   8.634  71.212  1.00  0.00    -0.284 C  
HETATM    7  C   UNL     1     -11.428   9.786  71.132  1.00  0.00    -0.398 C  
HETATM    8  O   UNL     1     -10.183   9.307  71.675  1.00  0.00    -0.332 OA 
BRANCH   7   9
HETATM    9  N   UNL     1     -11.224  10.280  69.783  1.00  0.00    -0.265 NA 
HETATM   10  C   UNL     1     -11.422  11.583  69.381  1.00  0.00    -0.309 A  
HETATM   11  N   UNL     1     -11.195  11.748  68.091  1.00  0.00    -0.239 NA 
HETATM   12  C   UNL     1     -10.807  10.505  67.634  1.00  0.00    -0.300 A  
HETATM   13  C   UNL     1     -10.821   9.611  68.672  1.00  0.00    -0.167 A  
HETATM   14  N   UNL     1     -10.475   8.326  68.522  1.00  0.00    -0.193 NA 
HETATM   15  C   UNL     1     -10.092   7.951  67.257  1.00  0.00    -0.238 C  
HETATM   16  N   UNL     1     -10.048   8.703  66.198  1.00  0.00    -0.441 N  
HETATM   17  H   UNL     1      -9.752   8.312  65.304  1.00  0.00     0.000 HD 
HETATM   18  C   UNL     1     -10.411  10.055  66.292  1.00  0.00    -0.102 C  
HETATM   19  O   UNL     1     -10.407  10.805  65.323  1.00  0.00    -0.280 OA 
ENDBRANCH   7   9
ENDBRANCH   2   4
TORSDOF 2
ENDMDL
MODEL      147
REMARK 921   NORMALIZED FREE ENERGY PREDICTED BY IDOCK:   -3.87 KCAL/MOL
REMARK 922        TOTAL FREE ENERGY PREDICTED BY IDOCK:   -4.62 KCAL/MOL
REMARK 923 INTER-LIGAND FREE ENERGY PREDICTED BY IDOCK:   -4.75 KCAL/MOL
REMARK 924 INTRA-LIGAND FREE ENERGY PREDICTED BY IDOCK:    0.13 KCAL/MOL
REMARK 927      BINDING AFFINITY PREDICTED BY RF-SCORE:    0.00 PKD
ROOT
HETATM    1  O   UNL     1     -12.586  12.552  70.558  1.00  0.00    -0.214 OA 
HETATM    2  C   UNL     1     -12.578  13.960  70.316  1.00  0.00    -0.264 C  
HETATM    3  H   UNL     1     -13.405  12.180  70.252  1.00  0.00     0.000 HD 
ENDROOT
BRANCH   2   4
HETATM    4  C   UNL     1     -11.254  14.563  70.810  1.00  0.00     0.041 C  
HETATM    5  C   UNL     1     -11.425  15.929  71.448  1.00  0.00    -0.484 C  
HETATM    6  C   UNL     1     -11.187  16.886  70.305  1.00  0.00     0.375 C  
HETATM    7  C   UNL     1     -10.184  16.147  69.433  1.00  0.00    -0.266 C  
HETATM    8  O   UNL     1     -10.353  14.741  69.701  1.00  0.00    -0.172 OA 
BRANCH   7   9
HETATM    9  N   UNL     1     -10.350  16.405  68.015  1.00  0.00    -0.277 NA 
HETATM   10  C   UNL     1      -9.892  17.526  67.358  1.00  0.00    -0.297 A  
HETATM   11  N   UNL     1     -10.211  17.520  66.077  1.00  0.00    -0.512 NA 
HETATM   12  C   UNL     1     -10.885  16.332  65.881  1.00  0.00    -0.139 A  
HETATM   13  C   UNL     1     -10.964  15.651  67.067  1.00  0.00    -0.261 A  
HETATM   14  N   UNL     1     -11.556  14.454  67.173  1.00  0.00    -0.369 NA 
HETATM   15  C   UNL     1     -12.077  13.937  66.012  1.00  0.00    -0.437 C  
HETATM   16  N   UNL     1     -12.071  14.492  64.837  1.00  0.00    -0.417 N  
HETATM   17  H   UNL     1     -12.497  14.014  64.043  1.00  0.00     0.000 HD 
HETATM   18  C   UNL     1     -11.476  15.751  64.668  1.00  0.00    -0.282 C  
HETATM   19  O   UNL     1     -11.459  16.329  63.588  1.00  0.00    -0.773 OA 
ENDBRANCH   7   9
ENDBRANCH   2   4
TORSDOF 2
ENDMDL
MODEL      148
REMARK 921   NORMALIZED FREE ENERGY PREDICTED BY IDOCK:   -3.87 KCAL/MOL
REMARK 922        TOTAL FREE ENERGY PREDICTED BY IDOCK:   -4.62 KCAL/MOL
REMARK 923 INTER-LIGAND FREE ENERGY PREDICTED BY IDOCK:   -4.30 KCAL/MOL
REMARK 924 INTRA-LIGAND FREE ENERGY PREDICTED BY IDOCK:   -0.32 KCAL/MOL
REMARK 927      BINDING AFFINITY PREDICTED BY RF-SCORE:    0.00 PKD
ROOT
HETATM    1  O   UNL     1      -8.057   5.107  69.459  1.00  0.00    -0.081 OA 
HETATM    2  C   UNL     1      -7.448   5.530  70.679  1.00  0.00    -0.084 C  
HETATM    3  H   UNL     1      -8.309   4.194  69.527  1.00  0.00     0.000 HD 
ENDROOT
BRANCH   2   4
HETATM    4  C   UNL     1      -7.041   7.007  70.570  1.00  0.00    -0.064 C  
HETATM    5  C   UNL     1      -6.318   7.517  71.803  1.00  0.00    -0.039 C  
HETATM    6  C   UNL     1      -7.424   8.106  72.645  1.00  0.00    -0.156 C  
HETATM    7  C   UNL     1      -8.419   8.608  71.611  1.00  0.00    -0.167 C  
HETATM    8  O   UNL     1      -8.214   7.828  70.417  1.00  0.00    -0.116 OA 
BRANCH   7   9
HETATM    9  N   UNL     1      -9.802   8.503  72.040  1.00  0.00    -0.284 NA 
HETATM   10  C   UNL     1     -10.268   7.624  72.992  1.00  0.00    -0.320 A  
HETATM   11  N   UNL     1     -11.573   7.718  73.163  1.00  0.00    -0.217 NA 
HETATM   12  C   UNL     1     -11.976   8.720  72.304  1.00  0.00    -0.345 A  
HETATM   13  C   UNL     1     -10.889   9.201  71.623  1.00  0.00    -0.372 A  
HETATM   14  N   UNL     1     -10.981  10.193  70.727  1.00  0.00    -0.307 NA 
HETATM   15  C   UNL     1     -12.237  10.713  70.533  1.00  0.00    -0.358 C  
HETATM   16  N   UNL     1     -13.338  10.334  71.111  1.00  0.00    -0.327 N  
HETATM   17  H   UNL     1     -14.221  10.792  70.884  1.00  0.00     0.000 HD 
HETATM   18  C   UNL     1     -13.305   9.292  72.050  1.00  0.00    -0.450 C  
HETATM   19  O   UNL     1     -14.315   8.881  72.610  1.00  0.00    -0.613 OA 
ENDBRANCH   7   9
ENDBRANCH   2   4
TORSDOF 2
ENDMDL
MODEL      149
REMARK 921   NORMALIZED FREE ENERGY PREDICTED BY IDOCK:   -3.86 KCAL/MOL
REMARK 922        TOTAL FREE ENERGY PREDICTED BY IDOCK:   -4.61 KCAL/MOL
REMARK 923 INTER-LIGAND FREE ENERGY PREDICTED BY IDOCK:   -4.20 KCAL/MOL
REMARK 924 INTRA-LIGAND FREE ENERGY PREDICTED BY IDOCK:   -0.41 KCAL/MOL
REMARK 927      BINDING AFFINITY PREDICTED BY RF-SCORE:    0.00 PKD
ROOT
HETATM    1  O   UNL     1      -5.863  16.702  70.390  1.00  0.00    -0.172 OA 
HETATM    2  C   UNL     1      -5.519  15.662  69.473  1.00  0.00    -0.108 C  
HETATM    3  H   UNL     1      -5.171  17.352  70.411  1.00  0.00     0.000 HD 
ENDROOT
BRANCH   2   4
HETATM    4  C   UNL     1      -6.639  14.611  69.439  1.00  0.00    -0.138 C  
HETATM    5  C   UNL     1      -6.732  13.885  68.110  1.00  0.00    -0.125 C  
HETATM    6  C   UNL     1      -7.752  14.686  67.338  1.00  0.00    -0.226 C  
HETATM    7  C   UNL     1      -8.679  15.210  68.424  1.00  0.00    -0.169 C  
HETATM    8  O   UNL     1      -7.915  15.248  69.644  1.00  0.00    -0.224 OA 
BRANCH   7   9
HETATM    9  N   UNL     1      -9.221  16.525  68.136  1.00  0.00    -0.213 NA 
HETATM   10  C   UNL     1     -10.556  16.803  67.945  1.00  0.00    -0.350 A  
HETATM   11  N   UNL     1     -10.766  18.076  67.664  1.00  0.00    -0.398 NA 
HETATM   12  C   UNL     1      -9.517  18.661  67.698  1.00  0.00    -0.293 A  
HETATM   13  C   UNL     1      -8.576  17.711  67.992  1.00  0.00    -0.248 A  
HETATM   14  N   UNL     1      -7.271  17.997  68.103  1.00  0.00    -0.229 NA 
HETATM   15  C   UNL     1      -6.928  19.314  67.914  1.00  0.00    -0.237 C  
HETATM   16  N   UNL     1      -7.727  20.296  67.623  1.00  0.00    -0.302 N  
HETATM   17  H   UNL     1      -7.357  21.238  67.498  1.00  0.00     0.000 HD 
HETATM   18  C   UNL     1      -9.102  20.054  67.481  1.00  0.00    -0.356 C  
HETATM   19  O   UNL     1      -9.898  20.938  67.189  1.00  0.00    -0.416 OA 
ENDBRANCH   7   9
ENDBRANCH   2   4
TORSDOF 2
ENDMDL
MODEL      150
REMARK 921   NORMALIZED FREE ENERGY PREDICTED BY IDOCK:   -3.85 KCAL/MOL
REMARK 922        TOTAL FREE ENERGY PREDICTED BY IDOCK:   -4.60 KCAL/MOL
REMARK 923 INTER-LIGAND FREE ENERGY PREDICTED BY IDOCK:   -4.91 KCAL/MOL
REMARK 924 INTRA-LIGAND FREE ENERGY PREDICTED BY IDOCK:    0.32 KCAL/MOL
REMARK 927      BINDING AFFINITY PREDICTED BY RF-SCORE:    0.00 PKD
ROOT
HETATM    1  O   UNL     1     -13.559  16.171  73.659  1.00  0.00    -0.899 OA 
HETATM    2  C   UNL     1     -12.498  15.852  72.758  1.00  0.00    -0.466 C  
HETATM    3  H   UNL     1     -13.205  16.584  74.437  1.00  0.00     0.000 HD 
ENDROOT
BRANCH   2   4
HETATM    4  C   UNL     1     -13.070  15.183  71.500  1.00  0.00    -0.403 C  
HETATM    5  C   UNL     1     -12.491  13.803  71.244  1.00  0.00    -0.428 C  
HETATM    6  C   UNL     1     -11.333  14.071  70.315  1.00  0.00    -0.050 C  
HETATM    7  C   UNL     1     -11.795  15.284  69.522  1.00  0.00    -0.345 C  
HETATM    8  O   UNL     1     -12.759  15.976  70.339  1.00  0.00    -0.324 OA 
BRANCH   7   9
HETATM    9  N   UNL     1     -10.715  16.184  69.160  1.00  0.00    -0.269 NA 
HETATM   10  C   UNL     1     -10.882  17.463  68.677  1.00  0.00    -0.146 A  
HETATM   11  N   UNL     1      -9.731  18.045  68.396  1.00  0.00    -0.326 NA 
HETATM   12  C   UNL     1      -8.768  17.116  68.734  1.00  0.00    -0.235 A  
HETATM   13  C   UNL     1      -9.373  15.982  69.205  1.00  0.00    -0.244 A  
HETATM   14  N   UNL     1      -8.679  14.914  69.622  1.00  0.00     0.015 NA 
HETATM   15  C   UNL     1      -7.312  15.025  69.558  1.00  0.00    -0.202 C  
HETATM   16  N   UNL     1      -6.629  16.041  69.123  1.00  0.00    -0.152 N  
HETATM   17  H   UNL     1      -5.609  16.009  69.116  1.00  0.00     0.000 HD 
HETATM   18  C   UNL     1      -7.302  17.183  68.663  1.00  0.00    -0.238 C  
HETATM   19  O   UNL     1      -6.709  18.162  68.224  1.00  0.00    -0.201 OA 
ENDBRANCH   7   9
ENDBRANCH   2   4
TORSDOF 2
ENDMDL
MODEL      151
REMARK 921   NORMALIZED FREE ENERGY PREDICTED BY IDOCK:   -3.85 KCAL/MOL
REMARK 922        TOTAL FREE ENERGY PREDICTED BY IDOCK:   -4.60 KCAL/MOL
REMARK 923 INTER-LIGAND FREE ENERGY PREDICTED BY IDOCK:   -4.67 KCAL/MOL
REMARK 924 INTRA-LIGAND FREE ENERGY PREDICTED BY IDOCK:    0.07 KCAL/MOL
REMARK 927      BINDING AFFINITY PREDICTED BY RF-SCORE:    0.00 PKD
ROOT
HETATM    1  O   UNL     1     -10.969   6.320  66.323  1.00  0.00    -0.552 OA 
HETATM    2  C   UNL     1     -11.134   6.698  67.691  1.00  0.00    -0.271 C  
HETATM    3  H   UNL     1     -11.791   5.993  65.980  1.00  0.00     0.000 HD 
ENDROOT
BRANCH   2   4
HETATM    4  C   UNL     1      -9.803   7.228  68.246  1.00  0.00    -0.154 C  
HETATM    5  C   UNL     1      -9.894   7.657  69.699  1.00  0.00    -0.181 C  
HETATM    6  C   UNL     1     -10.200   9.133  69.614  1.00  0.00    -0.211 C  
HETATM    7  C   UNL     1      -9.499   9.562  68.335  1.00  0.00    -0.137 C  
HETATM    8  O   UNL     1      -9.391   8.391  67.503  1.00  0.00    -0.143 OA 
BRANCH   7   9
HETATM    9  N   UNL     1     -10.196  10.616  67.620  1.00  0.00    -0.186 NA 
HETATM   10  C   UNL     1     -10.273  10.722  66.249  1.00  0.00    -0.245 A  
HETATM   11  N   UNL     1     -10.938  11.796  65.867  1.00  0.00    -0.302 NA 
HETATM   12  C   UNL     1     -11.335  12.407  67.039  1.00  0.00    -0.327 A  
HETATM   13  C   UNL     1     -10.883  11.680  68.109  1.00  0.00    -0.217 A  
HETATM   14  N   UNL     1     -11.133  12.032  69.377  1.00  0.00    -0.180 NA 
HETATM   15  C   UNL     1     -11.883  13.170  69.548  1.00  0.00    -0.322 C  
HETATM   16  N   UNL     1     -12.355  13.942  68.616  1.00  0.00    -0.454 N  
HETATM   17  H   UNL     1     -12.898  14.770  68.862  1.00  0.00     0.000 HD 
HETATM   18  C   UNL     1     -12.116  13.630  67.269  1.00  0.00    -0.345 C  
HETATM   19  O   UNL     1     -12.520  14.333  66.351  1.00  0.00    -0.441 OA 
ENDBRANCH   7   9
ENDBRANCH   2   4
TORSDOF 2
ENDMDL
MODEL      152
REMARK 921   NORMALIZED FREE ENERGY PREDICTED BY IDOCK:   -3.83 KCAL/MOL
REMARK 922        TOTAL FREE ENERGY PREDICTED BY IDOCK:   -4.58 KCAL/MOL
REMARK 923 INTER-LIGAND FREE ENERGY PREDICTED BY IDOCK:   -4.80 KCAL/MOL
REMARK 924 INTRA-LIGAND FREE ENERGY PREDICTED BY IDOCK:    0.23 KCAL/MOL
REMARK 927      BINDING AFFINITY PREDICTED BY RF-SCORE:    0.00 PKD
ROOT
HETATM    1  O   UNL     1      -8.521  14.088  66.572  1.00  0.00    -0.422 OA 
HETATM    2  C   UNL     1      -8.898  13.472  67.804  1.00  0.00    -0.198 C  
HETATM    3  H   UNL     1      -7.635  13.833  66.344  1.00  0.00     0.000 HD 
ENDROOT
BRANCH   2   4
HETATM    4  C   UNL     1     -10.330  13.885  68.173  1.00  0.00    -0.247 C  
HETATM    5  C   UNL     1     -11.186  14.209  66.962  1.00  0.00    -0.328 C  
HETATM    6  C   UNL     1     -11.026  15.701  66.803  1.00  0.00    -0.230 C  
HETATM    7  C   UNL     1     -10.832  16.186  68.231  1.00  0.00    -0.326 C  
HETATM    8  O   UNL     1     -10.304  15.076  68.982  1.00  0.00    -0.228 OA 
BRANCH   7   9
HETATM    9  N   UNL     1      -9.942  17.327  68.339  1.00  0.00    -0.302 NA 
HETATM   10  C   UNL     1     -10.319  18.641  68.168  1.00  0.00    -0.359 A  
HETATM   11  N   UNL     1      -9.300  19.472  68.288  1.00  0.00    -0.339 NA 
HETATM   12  C   UNL     1      -8.215  18.670  68.575  1.00  0.00    -0.341 A  
HETATM   13  C   UNL     1      -8.612  17.360  68.610  1.00  0.00    -0.259 A  
HETATM   14  N   UNL     1      -7.766  16.357  68.881  1.00  0.00    -0.219 NA 
HETATM   15  C   UNL     1      -6.465  16.720  69.133  1.00  0.00    -0.208 C  
HETATM   16  N   UNL     1      -5.972  17.922  69.119  1.00  0.00    -0.214 N  
HETATM   17  H   UNL     1      -4.983  18.073  69.317  1.00  0.00     0.000 HD 
HETATM   18  C   UNL     1      -6.808  19.011  68.830  1.00  0.00    -0.300 C  
HETATM   19  O   UNL     1      -6.393  20.163  68.784  1.00  0.00    -0.285 OA 
ENDBRANCH   7   9
ENDBRANCH   2   4
TORSDOF 2
ENDMDL
MODEL      153
REMARK 921   NORMALIZED FREE ENERGY PREDICTED BY IDOCK:   -3.83 KCAL/MOL
REMARK 922        TOTAL FREE ENERGY PREDICTED BY IDOCK:   -4.58 KCAL/MOL
REMARK 923 INTER-LIGAND FREE ENERGY PREDICTED BY IDOCK:   -4.90 KCAL/MOL
REMARK 924 INTRA-LIGAND FREE ENERGY PREDICTED BY IDOCK:    0.32 KCAL/MOL
REMARK 927      BINDING AFFINITY PREDICTED BY RF-SCORE:    0.00 PKD
ROOT
HETATM    1  O   UNL     1     -12.604  15.426  72.399  1.00  0.00    -0.325 OA 
HETATM    2  C   UNL     1     -11.712  15.996  71.440  1.00  0.00    -0.473 C  
HETATM    3  H   UNL     1     -12.431  15.797  73.256  1.00  0.00     0.000 HD 
ENDROOT
BRANCH   2   4
HETATM    4  C   UNL     1     -11.991  15.397  70.053  1.00  0.00    -0.356 C  
HETATM    5  C   UNL     1     -10.954  14.373  69.629  1.00  0.00    -0.194 C  
HETATM    6  C   UNL     1      -9.955  15.186  68.840  1.00  0.00    -0.227 C  
HETATM    7  C   UNL     1     -10.809  16.278  68.216  1.00  0.00    -0.340 C  
HETATM    8  O   UNL     1     -11.968  16.437  69.057  1.00  0.00    -0.136 OA 
BRANCH   7   9
HETATM    9  N   UNL     1     -10.117  17.546  68.080  1.00  0.00    -0.313 NA 
HETATM   10  C   UNL     1     -10.720  18.745  67.769  1.00  0.00    -0.343 A  
HETATM   11  N   UNL     1      -9.849  19.733  67.674  1.00  0.00    -0.366 NA 
HETATM   12  C   UNL     1      -8.626  19.160  67.961  1.00  0.00    -0.310 A  
HETATM   13  C   UNL     1      -8.795  17.825  68.212  1.00  0.00    -0.277 A  
HETATM   14  N   UNL     1      -7.775  17.017  68.533  1.00  0.00    -0.227 NA 
HETATM   15  C   UNL     1      -6.539  17.611  68.605  1.00  0.00    -0.209 C  
HETATM   16  N   UNL     1      -6.256  18.859  68.379  1.00  0.00    -0.218 N  
HETATM   17  H   UNL     1      -5.294  19.189  68.457  1.00  0.00     0.000 HD 
HETATM   18  C   UNL     1      -7.282  19.749  68.028  1.00  0.00    -0.286 C  
HETATM   19  O   UNL     1      -7.070  20.932  67.785  1.00  0.00    -0.299 OA 
ENDBRANCH   7   9
ENDBRANCH   2   4
TORSDOF 2
ENDMDL
MODEL      154
REMARK 921   NORMALIZED FREE ENERGY PREDICTED BY IDOCK:   -3.82 KCAL/MOL
REMARK 922        TOTAL FREE ENERGY PREDICTED BY IDOCK:   -4.57 KCAL/MOL
REMARK 923 INTER-LIGAND FREE ENERGY PREDICTED BY IDOCK:   -4.73 KCAL/MOL
REMARK 924 INTRA-LIGAND FREE ENERGY PREDICTED BY IDOCK:    0.16 KCAL/MOL
REMARK 927      BINDING AFFINITY PREDICTED BY RF-SCORE:    0.00 PKD
ROOT
HETATM    1  O   UNL     1     -11.468   6.413  67.134  1.00  0.00    -0.720 OA 
HETATM    2  C   UNL     1     -10.436   7.143  67.798  1.00  0.00    -0.223 C  
HETATM    3  H   UNL     1     -12.234   6.360  67.693  1.00  0.00     0.000 HD 
ENDROOT
BRANCH   2   4
HETATM    4  C   UNL     1      -9.198   7.230  66.894  1.00  0.00    -0.152 C  
HETATM    5  C   UNL     1      -8.044   7.977  67.536  1.00  0.00    -0.123 C  
HETATM    6  C   UNL     1      -8.229   9.396  67.056  1.00  0.00    -0.116 C  
HETATM    7  C   UNL     1      -8.856   9.220  65.682  1.00  0.00    -0.180 C  
HETATM    8  O   UNL     1      -9.522   7.943  65.686  1.00  0.00     0.070 OA 
BRANCH   7   9
HETATM    9  N   UNL     1      -9.798  10.270  65.338  1.00  0.00    -0.276 NA 
HETATM   10  C   UNL     1     -10.183  10.596  64.057  1.00  0.00    -0.264 A  
HETATM   11  N   UNL     1     -11.024  11.614  64.031  1.00  0.00    -0.363 NA 
HETATM   12  C   UNL     1     -11.217  11.952  65.355  1.00  0.00    -0.295 A  
HETATM   13  C   UNL     1     -10.470  11.125  66.151  1.00  0.00    -0.253 A  
HETATM   14  N   UNL     1     -10.472  11.216  67.488  1.00  0.00    -0.195 NA 
HETATM   15  C   UNL     1     -11.282  12.188  68.022  1.00  0.00    -0.264 C  
HETATM   16  N   UNL     1     -12.024  13.032  67.371  1.00  0.00    -0.351 N  
HETATM   17  H   UNL     1     -12.584  13.720  67.876  1.00  0.00     0.000 HD 
HETATM   18  C   UNL     1     -12.053  12.993  65.968  1.00  0.00    -0.432 C  
HETATM   19  O   UNL     1     -12.719  13.777  65.303  1.00  0.00    -0.590 OA 
ENDBRANCH   7   9
ENDBRANCH   2   4
TORSDOF 2
ENDMDL
MODEL      155
REMARK 921   NORMALIZED FREE ENERGY PREDICTED BY IDOCK:   -3.79 KCAL/MOL
REMARK 922        TOTAL FREE ENERGY PREDICTED BY IDOCK:   -4.53 KCAL/MOL
REMARK 923 INTER-LIGAND FREE ENERGY PREDICTED BY IDOCK:   -4.23 KCAL/MOL
REMARK 924 INTRA-LIGAND FREE ENERGY PREDICTED BY IDOCK:   -0.30 KCAL/MOL
REMARK 927      BINDING AFFINITY PREDICTED BY RF-SCORE:    0.00 PKD
ROOT
HETATM    1  O   UNL     1      -9.191   3.771  70.979  1.00  0.00    -0.107 OA 
HETATM    2  C   UNL     1     -10.055   4.894  70.801  1.00  0.00    -0.233 C  
HETATM    3  H   UNL     1      -8.971   3.399  70.134  1.00  0.00     0.000 HD 
ENDROOT
BRANCH   2   4
HETATM    4  C   UNL     1     -10.411   5.496  72.169  1.00  0.00    -0.220 C  
HETATM    5  C   UNL     1     -11.894   5.423  72.481  1.00  0.00    -0.110 C  
HETATM    6  C   UNL     1     -12.424   6.751  71.999  1.00  0.00    -0.285 C  
HETATM    7  C   UNL     1     -11.252   7.695  72.219  1.00  0.00    -0.293 C  
HETATM    8  O   UNL     1     -10.057   6.891  72.197  1.00  0.00    -0.181 OA 
BRANCH   7   9
HETATM    9  N   UNL     1     -11.161   8.746  71.221  1.00  0.00    -0.264 NA 
HETATM   10  C   UNL     1     -10.412   8.676  70.068  1.00  0.00    -0.223 A  
HETATM   11  N   UNL     1     -10.484   9.787  69.358  1.00  0.00    -0.210 NA 
HETATM   12  C   UNL     1     -11.337  10.610  70.065  1.00  0.00    -0.324 A  
HETATM   13  C   UNL     1     -11.753   9.968  71.201  1.00  0.00    -0.387 A  
HETATM   14  N   UNL     1     -12.601  10.526  72.075  1.00  0.00    -0.243 NA 
HETATM   15  C   UNL     1     -13.043  11.788  71.760  1.00  0.00    -0.375 C  
HETATM   16  N   UNL     1     -12.712  12.496  70.722  1.00  0.00    -0.189 N  
HETATM   17  H   UNL     1     -13.101  13.430  70.594  1.00  0.00     0.000 HD 
HETATM   18  C   UNL     1     -11.818  11.968  69.779  1.00  0.00    -0.331 C  
HETATM   19  O   UNL     1     -11.457  12.599  68.792  1.00  0.00    -0.260 OA 
ENDBRANCH   7   9
ENDBRANCH   2   4
TORSDOF 2
ENDMDL
MODEL      156
REMARK 921   NORMALIZED FREE ENERGY PREDICTED BY IDOCK:   -3.77 KCAL/MOL
REMARK 922        TOTAL FREE ENERGY PREDICTED BY IDOCK:   -4.51 KCAL/MOL
REMARK 923 INTER-LIGAND FREE ENERGY PREDICTED BY IDOCK:   -4.39 KCAL/MOL
REMARK 924 INTRA-LIGAND FREE ENERGY PREDICTED BY IDOCK:   -0.12 KCAL/MOL
REMARK 927      BINDING AFFINITY PREDICTED BY RF-SCORE:    0.00 PKD
ROOT
HETATM    1  O   UNL     1     -12.193  14.237  68.391  1.00  0.00    -0.562 OA 
HETATM    2  C   UNL     1     -10.963  14.809  67.945  1.00  0.00    -0.278 C  
HETATM    3  H   UNL     1     -12.015  13.535  69.006  1.00  0.00     0.000 HD 
ENDROOT
BRANCH   2   4
HETATM    4  C   UNL     1     -11.250  15.944  66.950  1.00  0.00     0.007 C  
HETATM    5  C   UNL     1     -10.504  15.788  65.638  1.00  0.00    -0.402 C  
HETATM    6  C   UNL     1      -9.240  16.584  65.851  1.00  0.00    -0.209 C  
HETATM    7  C   UNL     1      -9.681  17.693  66.793  1.00  0.00    -0.300 C  
HETATM    8  O   UNL     1     -10.830  17.203  67.509  1.00  0.00    -0.309 OA 
BRANCH   7   9
HETATM    9  N   UNL     1      -8.649  18.101  67.729  1.00  0.00    -0.252 NA 
HETATM   10  C   UNL     1      -8.339  19.406  68.042  1.00  0.00    -0.319 A  
HETATM   11  N   UNL     1      -7.336  19.490  68.896  1.00  0.00    -0.360 NA 
HETATM   12  C   UNL     1      -6.991  18.183  69.173  1.00  0.00    -0.209 A  
HETATM   13  C   UNL     1      -7.799  17.337  68.461  1.00  0.00    -0.266 A  
HETATM   14  N   UNL     1      -7.698  16.003  68.544  1.00  0.00    -0.150 NA 
HETATM   15  C   UNL     1      -6.735  15.526  69.399  1.00  0.00    -0.169 C  
HETATM   16  N   UNL     1      -5.908  16.228  70.116  1.00  0.00    -0.185 N  
HETATM   17  H   UNL     1      -5.226  15.762  70.714  1.00  0.00     0.000 HD 
HETATM   18  C   UNL     1      -5.959  17.629  70.060  1.00  0.00    -0.184 C  
HETATM   19  O   UNL     1      -5.191  18.339  70.698  1.00  0.00    -0.240 OA 
ENDBRANCH   7   9
ENDBRANCH   2   4
TORSDOF 2
ENDMDL
MODEL      157
REMARK 921   NORMALIZED FREE ENERGY PREDICTED BY IDOCK:   -3.76 KCAL/MOL
REMARK 922        TOTAL FREE ENERGY PREDICTED BY IDOCK:   -4.49 KCAL/MOL
REMARK 923 INTER-LIGAND FREE ENERGY PREDICTED BY IDOCK:   -4.20 KCAL/MOL
REMARK 924 INTRA-LIGAND FREE ENERGY PREDICTED BY IDOCK:   -0.29 KCAL/MOL
REMARK 927      BINDING AFFINITY PREDICTED BY RF-SCORE:    0.00 PKD
ROOT
HETATM    1  O   UNL     1     -12.009  13.393  66.898  1.00  0.00    -0.382 OA 
HETATM    2  C   UNL     1     -11.338  12.719  67.964  1.00  0.00    -0.292 C  
HETATM    3  H   UNL     1     -12.769  13.851  67.237  1.00  0.00     0.000 HD 
ENDROOT
BRANCH   2   4
HETATM    4  C   UNL     1     -10.110  11.978  67.415  1.00  0.00    -0.194 C  
HETATM    5  C   UNL     1     -10.456  10.969  66.336  1.00  0.00    -0.312 C  
HETATM    6  C   UNL     1     -10.627   9.678  67.100  1.00  0.00    -0.298 C  
HETATM    7  C   UNL     1      -9.654   9.827  68.259  1.00  0.00    -0.143 C  
HETATM    8  O   UNL     1      -9.470  11.239  68.474  1.00  0.00    -0.182 OA 
BRANCH   7   9
HETATM    9  N   UNL     1     -10.111   9.194  69.483  1.00  0.00    -0.190 NA 
HETATM   10  C   UNL     1     -10.539   9.866  70.606  1.00  0.00    -0.271 A  
HETATM   11  N   UNL     1     -10.865   9.044  71.586  1.00  0.00    -0.344 NA 
HETATM   12  C   UNL     1     -10.666   7.778  71.073  1.00  0.00    -0.228 A  
HETATM   13  C   UNL     1     -10.210   7.874  69.785  1.00  0.00    -0.212 A  
HETATM   14  N   UNL     1      -9.943   6.798  69.033  1.00  0.00    -0.152 NA 
HETATM   15  C   UNL     1     -10.163   5.580  69.628  1.00  0.00    -0.266 C  
HETATM   16  N   UNL     1     -10.583   5.366  70.839  1.00  0.00    -0.237 N  
HETATM   17  H   UNL     1     -10.705   4.411  71.177  1.00  0.00     0.000 HD 
HETATM   18  C   UNL     1     -10.867   6.454  71.677  1.00  0.00    -0.247 C  
HETATM   19  O   UNL     1     -11.247   6.310  72.833  1.00  0.00    -0.251 OA 
ENDBRANCH   7   9
ENDBRANCH   2   4
TORSDOF 2
ENDMDL
MODEL      158
REMARK 921   NORMALIZED FREE ENERGY PREDICTED BY IDOCK:   -3.73 KCAL/MOL
REMARK 922        TOTAL FREE ENERGY PREDICTED BY IDOCK:   -4.47 KCAL/MOL
REMARK 923 INTER-LIGAND FREE ENERGY PREDICTED BY IDOCK:   -4.32 KCAL/MOL
REMARK 924 INTRA-LIGAND FREE ENERGY PREDICTED BY IDOCK:   -0.15 KCAL/MOL
REMARK 927      BINDING AFFINITY PREDICTED BY RF-SCORE:    0.00 PKD
ROOT
HETATM    1  O   UNL     1      -9.714   2.600  71.812  1.00  0.00    -0.137 OA 
HETATM    2  C   UNL     1      -9.878   3.928  71.314  1.00  0.00    -0.157 C  
HETATM    3  H   UNL     1      -9.643   1.992  71.085  1.00  0.00     0.000 HD 
ENDROOT
BRANCH   2   4
HETATM    4  C   UNL     1      -9.993   4.911  72.489  1.00  0.00    -0.173 C  
HETATM    5  C   UNL     1     -11.428   5.161  72.916  1.00  0.00    -0.329 C  
HETATM    6  C   UNL     1     -11.824   6.387  72.131  1.00  0.00    -0.361 C  
HETATM    7  C   UNL     1     -10.517   7.154  72.000  1.00  0.00    -0.207 C  
HETATM    8  O   UNL     1      -9.452   6.191  72.112  1.00  0.00    -0.152 OA 
BRANCH   7   9
HETATM    9  N   UNL     1     -10.398   7.884  70.751  1.00  0.00    -0.202 NA 
HETATM   10  C   UNL     1     -10.069   9.217  70.644  1.00  0.00    -0.276 A  
HETATM   11  N   UNL     1     -10.066   9.632  69.391  1.00  0.00    -0.190 NA 
HETATM   12  C   UNL     1     -10.381   8.516  68.643  1.00  0.00    -0.198 A  
HETATM   13  C   UNL     1     -10.579   7.448  69.478  1.00  0.00    -0.237 A  
HETATM   14  N   UNL     1     -10.887   6.226  69.024  1.00  0.00    -0.302 NA 
HETATM   15  C   UNL     1     -10.985   6.099  67.660  1.00  0.00    -0.302 C  
HETATM   16  N   UNL     1     -10.829   7.037  66.774  1.00  0.00    -0.530 N  
HETATM   17  H   UNL     1     -10.933   6.826  65.781  1.00  0.00     0.000 HD 
HETATM   18  C   UNL     1     -10.518   8.340  67.191  1.00  0.00    -0.316 C  
HETATM   19  O   UNL     1     -10.379   9.266  66.401  1.00  0.00    -0.251 OA 
ENDBRANCH   7   9
ENDBRANCH   2   4
TORSDOF 2
ENDMDL
MODEL      159
REMARK 921   NORMALIZED FREE ENERGY PREDICTED BY IDOCK:   -3.73 KCAL/MOL
REMARK 922        TOTAL FREE ENERGY PREDICTED BY IDOCK:   -4.47 KCAL/MOL
REMARK 923 INTER-LIGAND FREE ENERGY PREDICTED BY IDOCK:   -4.59 KCAL/MOL
REMARK 924 INTRA-LIGAND FREE ENERGY PREDICTED BY IDOCK:    0.12 KCAL/MOL
REMARK 927      BINDING AFFINITY PREDICTED BY RF-SCORE:    0.00 PKD
ROOT
HETATM    1  O   UNL     1     -11.867  16.662  72.850  1.00  0.00    -0.507 OA 
HETATM    2  C   UNL     1     -11.684  15.433  72.144  1.00  0.00    -0.462 C  
HETATM    3  H   UNL     1     -11.033  16.963  73.190  1.00  0.00     0.000 HD 
ENDROOT
BRANCH   2   4
HETATM    4  C   UNL     1     -13.033  14.947  71.595  1.00  0.00    -0.336 C  
HETATM    5  C   UNL     1     -13.721  13.947  72.506  1.00  0.00    -0.665 C  
HETATM    6  C   UNL     1     -13.264  12.610  71.974  1.00  0.00    -0.531 C  
HETATM    7  C   UNL     1     -13.085  12.869  70.486  1.00  0.00     0.396 C  
HETATM    8  O   UNL     1     -12.837  14.280  70.334  1.00  0.00    -0.336 OA 
BRANCH   7   9
HETATM    9  N   UNL     1     -12.002  12.107  69.893  1.00  0.00    -0.325 NA 
HETATM   10  C   UNL     1     -11.835  10.745  70.017  1.00  0.00    -0.344 A  
HETATM   11  N   UNL     1     -10.746  10.318  69.405  1.00  0.00    -0.225 NA 
HETATM   12  C   UNL     1     -10.190  11.445  68.834  1.00  0.00    -0.168 A  
HETATM   13  C   UNL     1     -10.963  12.536  69.131  1.00  0.00    -0.144 A  
HETATM   14  N   UNL     1     -10.670  13.768  68.694  1.00  0.00    -0.253 NA 
HETATM   15  C   UNL     1      -9.543  13.877  67.916  1.00  0.00    -0.227 C  
HETATM   16  N   UNL     1      -8.731  12.920  67.578  1.00  0.00    -0.179 N  
HETATM   17  H   UNL     1      -7.916  13.121  66.998  1.00  0.00     0.000 HD 
HETATM   18  C   UNL     1      -8.980  11.611  68.017  1.00  0.00    -0.176 C  
HETATM   19  O   UNL     1      -8.238  10.675  67.745  1.00  0.00    -0.110 OA 
ENDBRANCH   7   9
ENDBRANCH   2   4
TORSDOF 2
ENDMDL
MODEL      160
REMARK 921   NORMALIZED FREE ENERGY PREDICTED BY IDOCK:   -3.71 KCAL/MOL
REMARK 922        TOTAL FREE ENERGY PREDICTED BY IDOCK:   -4.45 KCAL/MOL
REMARK 923 INTER-LIGAND FREE ENERGY PREDICTED BY IDOCK:   -4.68 KCAL/MOL
REMARK 924 INTRA-LIGAND FREE ENERGY PREDICTED BY IDOCK:    0.23 KCAL/MOL
REMARK 927      BINDING AFFINITY PREDICTED BY RF-SCORE:    0.00 PKD
ROOT
HETATM    1  O   UNL     1     -12.045   5.982  72.661  1.00  0.00    -0.526 OA 
HETATM    2  C   UNL     1     -11.041   4.972  72.555  1.00  0.00    -0.150 C  
HETATM    3  H   UNL     1     -12.853   5.673  72.268  1.00  0.00     0.000 HD 
ENDROOT
BRANCH   2   4
HETATM    4  C   UNL     1      -9.735   5.471  73.191  1.00  0.00    -0.150 C  
HETATM    5  C   UNL     1      -9.962   6.285  74.452  1.00  0.00    -0.346 C  
HETATM    6  C   UNL     1     -10.011   7.708  73.951  1.00  0.00    -0.032 C  
HETATM    7  C   UNL     1      -9.076   7.689  72.753  1.00  0.00    -0.165 C  
HETATM    8  O   UNL     1      -9.040   6.333  72.270  1.00  0.00    -0.141 OA 
BRANCH   7   9
HETATM    9  N   UNL     1      -9.484   8.585  71.686  1.00  0.00    -0.220 NA 
HETATM   10  C   UNL     1      -8.656   9.058  70.693  1.00  0.00    -0.210 A  
HETATM   11  N   UNL     1      -9.280   9.884  69.873  1.00  0.00    -0.226 NA 
HETATM   12  C   UNL     1     -10.579   9.934  70.336  1.00  0.00    -0.302 A  
HETATM   13  C   UNL     1     -10.701   9.135  71.442  1.00  0.00    -0.343 A  
HETATM   14  N   UNL     1     -11.861   8.980  72.096  1.00  0.00    -0.346 NA 
HETATM   15  C   UNL     1     -12.934   9.668  71.584  1.00  0.00    -0.407 C  
HETATM   16  N   UNL     1     -12.938  10.459  70.553  1.00  0.00    -0.507 N  
HETATM   17  H   UNL     1     -13.799  10.924  70.267  1.00  0.00     0.000 HD 
HETATM   18  C   UNL     1     -11.750  10.669  69.837  1.00  0.00    -0.317 C  
HETATM   19  O   UNL     1     -11.691  11.418  68.869  1.00  0.00    -0.288 OA 
ENDBRANCH   7   9
ENDBRANCH   2   4
TORSDOF 2
ENDMDL
MODEL      161
REMARK 921   NORMALIZED FREE ENERGY PREDICTED BY IDOCK:   -3.70 KCAL/MOL
REMARK 922        TOTAL FREE ENERGY PREDICTED BY IDOCK:   -4.43 KCAL/MOL
REMARK 923 INTER-LIGAND FREE ENERGY PREDICTED BY IDOCK:   -4.51 KCAL/MOL
REMARK 924 INTRA-LIGAND FREE ENERGY PREDICTED BY IDOCK:    0.08 KCAL/MOL
REMARK 927      BINDING AFFINITY PREDICTED BY RF-SCORE:    0.00 PKD
ROOT
HETATM    1  O   UNL     1      -9.773  12.976  64.659  1.00  0.00    -0.559 OA 
HETATM    2  C   UNL     1      -9.960  13.520  65.966  1.00  0.00    -0.299 C  
HETATM    3  H   UNL     1      -8.958  12.489  64.629  1.00  0.00     0.000 HD 
ENDROOT
BRANCH   2   4
HETATM    4  C   UNL     1     -11.277  14.309  66.015  1.00  0.00    -0.324 C  
HETATM    5  C   UNL     1     -11.749  14.763  64.646  1.00  0.00    -0.426 C  
HETATM    6  C   UNL     1     -11.171  16.151  64.513  1.00  0.00    -0.275 C  
HETATM    7  C   UNL     1     -11.155  16.660  65.945  1.00  0.00     0.210 C  
HETATM    8  O   UNL     1     -11.104  15.503  66.802  1.00  0.00    -0.299 OA 
BRANCH   7   9
HETATM    9  N   UNL     1     -10.036  17.540  66.233  1.00  0.00    -0.362 NA 
HETATM   10  C   UNL     1     -10.073  18.915  66.152  1.00  0.00    -0.393 A  
HETATM   11  N   UNL     1      -8.905  19.463  66.434  1.00  0.00    -0.349 NA 
HETATM   12  C   UNL     1      -8.076  18.402  66.738  1.00  0.00    -0.251 A  
HETATM   13  C   UNL     1      -8.772  17.229  66.618  1.00  0.00    -0.257 A  
HETATM   14  N   UNL     1      -8.220  16.034  66.866  1.00  0.00    -0.216 NA 
HETATM   15  C   UNL     1      -6.904  16.051  67.260  1.00  0.00    -0.201 C  
HETATM   16  N   UNL     1      -6.143  17.095  67.399  1.00  0.00    -0.135 N  
HETATM   17  H   UNL     1      -5.172  16.986  67.693  1.00  0.00     0.000 HD 
HETATM   18  C   UNL     1      -6.663  18.372  67.141  1.00  0.00    -0.192 C  
HETATM   19  O   UNL     1      -5.986  19.389  67.237  1.00  0.00    -0.179 OA 
ENDBRANCH   7   9
ENDBRANCH   2   4
TORSDOF 2
ENDMDL
MODEL      162
REMARK 921   NORMALIZED FREE ENERGY PREDICTED BY IDOCK:   -3.69 KCAL/MOL
REMARK 922        TOTAL FREE ENERGY PREDICTED BY IDOCK:   -4.42 KCAL/MOL
REMARK 923 INTER-LIGAND FREE ENERGY PREDICTED BY IDOCK:   -4.32 KCAL/MOL
REMARK 924 INTRA-LIGAND FREE ENERGY PREDICTED BY IDOCK:   -0.10 KCAL/MOL
REMARK 927      BINDING AFFINITY PREDICTED BY RF-SCORE:    0.00 PKD
ROOT
HETATM    1  O   UNL     1     -12.156  11.534  67.581  1.00  0.00    -0.623 OA 
HETATM    2  C   UNL     1     -11.278  12.660  67.587  1.00  0.00    -0.283 C  
HETATM    3  H   UNL     1     -12.974  11.764  68.006  1.00  0.00     0.000 HD 
ENDROOT
BRANCH   2   4
HETATM    4  C   UNL     1      -9.955  12.288  66.900  1.00  0.00    -0.213 C  
HETATM    5  C   UNL     1     -10.074  11.072  66.000  1.00  0.00    -0.297 C  
HETATM    6  C   UNL     1      -9.681   9.925  66.900  1.00  0.00    -0.236 C  
HETATM    7  C   UNL     1      -8.673  10.554  67.848  1.00  0.00    -0.126 C  
HETATM    8  O   UNL     1      -8.962  11.965  67.892  1.00  0.00    -0.165 OA 
BRANCH   7   9
HETATM    9  N   UNL     1      -8.712   9.997  69.187  1.00  0.00    -0.155 NA 
HETATM   10  C   UNL     1      -7.610   9.777  69.983  1.00  0.00    -0.163 A  
HETATM   11  N   UNL     1      -7.931   9.228  71.140  1.00  0.00    -0.326 NA 
HETATM   12  C   UNL     1      -9.305   9.108  71.111  1.00  0.00    -0.243 A  
HETATM   13  C   UNL     1      -9.779   9.583  69.917  1.00  0.00    -0.224 A  
HETATM   14  N   UNL     1     -11.085   9.603  69.616  1.00  0.00    -0.223 NA 
HETATM   15  C   UNL     1     -11.931   9.123  70.586  1.00  0.00    -0.124 C  
HETATM   16  N   UNL     1     -11.599   8.640  71.746  1.00  0.00    -0.308 N  
HETATM   17  H   UNL     1     -12.318   8.305  72.387  1.00  0.00     0.000 HD 
HETATM   18  C   UNL     1     -10.245   8.583  72.111  1.00  0.00    -0.333 C  
HETATM   19  O   UNL     1      -9.873   8.121  73.183  1.00  0.00    -0.279 OA 
ENDBRANCH   7   9
ENDBRANCH   2   4
TORSDOF 2
ENDMDL
MODEL      163
REMARK 921   NORMALIZED FREE ENERGY PREDICTED BY IDOCK:   -3.69 KCAL/MOL
REMARK 922        TOTAL FREE ENERGY PREDICTED BY IDOCK:   -4.42 KCAL/MOL
REMARK 923 INTER-LIGAND FREE ENERGY PREDICTED BY IDOCK:   -4.67 KCAL/MOL
REMARK 924 INTRA-LIGAND FREE ENERGY PREDICTED BY IDOCK:    0.25 KCAL/MOL
REMARK 927      BINDING AFFINITY PREDICTED BY RF-SCORE:    0.00 PKD
ROOT
HETATM    1  O   UNL     1      -9.456  14.843  69.729  1.00  0.00    -0.439 OA 
HETATM    2  C   UNL     1     -10.149  16.053  69.419  1.00  0.00    -0.271 C  
HETATM    3  H   UNL     1      -8.522  15.009  69.761  1.00  0.00     0.000 HD 
ENDROOT
BRANCH   2   4
HETATM    4  C   UNL     1     -11.661  15.786  69.368  1.00  0.00    -0.365 C  
HETATM    5  C   UNL     1     -12.248  15.429  70.721  1.00  0.00    -0.430 C  
HETATM    6  C   UNL     1     -12.198  13.921  70.743  1.00  0.00    -0.441 C  
HETATM    7  C   UNL     1     -12.379  13.544  69.281  1.00  0.00    -0.081 C  
HETATM    8  O   UNL     1     -11.931  14.668  68.500  1.00  0.00    -0.315 OA 
BRANCH   7   9
HETATM    9  N   UNL     1     -11.648  12.350  68.897  1.00  0.00    -0.293 NA 
HETATM   10  C   UNL     1     -11.431  11.261  69.712  1.00  0.00    -0.310 A  
HETATM   11  N   UNL     1     -10.706  10.330  69.120  1.00  0.00    -0.214 NA 
HETATM   12  C   UNL     1     -10.461  10.819  67.853  1.00  0.00    -0.199 A  
HETATM   13  C   UNL     1     -11.042  12.052  67.719  1.00  0.00    -0.249 A  
HETATM   14  N   UNL     1     -10.977  12.761  66.584  1.00  0.00    -0.264 NA 
HETATM   15  C   UNL     1     -10.294  12.172  65.547  1.00  0.00    -0.263 C  
HETATM   16  N   UNL     1      -9.697  11.018  65.560  1.00  0.00    -0.216 N  
HETATM   17  H   UNL     1      -9.213  10.683  64.727  1.00  0.00     0.000 HD 
HETATM   18  C   UNL     1      -9.721  10.237  66.725  1.00  0.00    -0.185 C  
HETATM   19  O   UNL     1      -9.159   9.151  66.799  1.00  0.00    -0.137 OA 
ENDBRANCH   7   9
ENDBRANCH   2   4
TORSDOF 2
ENDMDL
MODEL      164
REMARK 921   NORMALIZED FREE ENERGY PREDICTED BY IDOCK:   -3.68 KCAL/MOL
REMARK 922        TOTAL FREE ENERGY PREDICTED BY IDOCK:   -4.41 KCAL/MOL
REMARK 923 INTER-LIGAND FREE ENERGY PREDICTED BY IDOCK:   -4.09 KCAL/MOL
REMARK 924 INTRA-LIGAND FREE ENERGY PREDICTED BY IDOCK:   -0.32 KCAL/MOL
REMARK 927      BINDING AFFINITY PREDICTED BY RF-SCORE:    0.00 PKD
ROOT
HETATM    1  O   UNL     1     -10.878   7.212  66.690  1.00  0.00    -0.516 OA 
HETATM    2  C   UNL     1     -10.100   8.408  66.624  1.00  0.00    -0.288 C  
HETATM    3  H   UNL     1     -11.217   7.003  65.828  1.00  0.00     0.000 HD 
ENDROOT
BRANCH   2   4
HETATM    4  C   UNL     1      -9.552   8.747  68.018  1.00  0.00    -0.142 C  
HETATM    5  C   UNL     1     -10.603   8.654  69.109  1.00  0.00    -0.193 C  
HETATM    6  C   UNL     1     -11.136  10.062  69.210  1.00  0.00    -0.248 C  
HETATM    7  C   UNL     1      -9.931  10.917  68.851  1.00  0.00    -0.196 C  
HETATM    8  O   UNL     1      -9.066  10.103  68.037  1.00  0.00    -0.130 OA 
BRANCH   7   9
HETATM    9  N   UNL     1     -10.277  12.136  68.142  1.00  0.00    -0.198 NA 
HETATM   10  C   UNL     1     -11.502  12.394  67.569  1.00  0.00    -0.346 A  
HETATM   11  N   UNL     1     -11.531  13.564  66.958  1.00  0.00    -0.324 NA 
HETATM   12  C   UNL     1     -10.279  14.106  67.163  1.00  0.00    -0.258 A  
HETATM   13  C   UNL     1      -9.516  13.232  67.891  1.00  0.00    -0.214 A  
HETATM   14  N   UNL     1      -8.254  13.503  68.252  1.00  0.00    -0.152 NA 
HETATM   15  C   UNL     1      -7.765  14.723  67.853  1.00  0.00    -0.137 C  
HETATM   16  N   UNL     1      -8.388  15.625  67.155  1.00  0.00    -0.189 N  
HETATM   17  H   UNL     1      -7.920  16.498  66.911  1.00  0.00     0.000 HD 
HETATM   18  C   UNL     1      -9.707  15.392  66.739  1.00  0.00    -0.240 C  
HETATM   19  O   UNL     1     -10.335  16.198  66.063  1.00  0.00    -0.324 OA 
ENDBRANCH   7   9
ENDBRANCH   2   4
TORSDOF 2
ENDMDL
MODEL      165
REMARK 921   NORMALIZED FREE ENERGY PREDICTED BY IDOCK:   -3.67 KCAL/MOL
REMARK 922        TOTAL FREE ENERGY PREDICTED BY IDOCK:   -4.40 KCAL/MOL
REMARK 923 INTER-LIGAND FREE ENERGY PREDICTED BY IDOCK:   -4.22 KCAL/MOL
REMARK 924 INTRA-LIGAND FREE ENERGY PREDICTED BY IDOCK:   -0.18 KCAL/MOL
REMARK 927      BINDING AFFINITY PREDICTED BY RF-SCORE:    0.00 PKD
ROOT
HETATM    1  O   UNL     1      -9.372  12.660  67.707  1.00  0.00    -0.184 OA 
HETATM    2  C   UNL     1      -8.913  11.396  67.225  1.00  0.00    -0.159 C  
HETATM    3  H   UNL     1     -10.156  12.916  67.235  1.00  0.00     0.000 HD 
ENDROOT
BRANCH   2   4
HETATM    4  C   UNL     1      -7.646  10.981  67.988  1.00  0.00    -0.092 C  
HETATM    5  C   UNL     1      -7.164   9.588  67.626  1.00  0.00    -0.082 C  
HETATM    6  C   UNL     1      -7.818   8.706  68.662  1.00  0.00    -0.107 C  
HETATM    7  C   UNL     1      -7.903   9.607  69.884  1.00  0.00    -0.152 C  
HETATM    8  O   UNL     1      -7.910  10.965  69.404  1.00  0.00    -0.126 OA 
BRANCH   7   9
HETATM    9  N   UNL     1      -9.079   9.364  70.701  1.00  0.00    -0.248 NA 
HETATM   10  C   UNL     1      -9.096   8.609  71.852  1.00  0.00    -0.256 A  
HETATM   11  N   UNL     1     -10.306   8.524  72.375  1.00  0.00    -0.324 NA 
HETATM   12  C   UNL     1     -11.109   9.278  71.544  1.00  0.00    -0.373 A  
HETATM   13  C   UNL     1     -10.354   9.794  70.524  1.00  0.00    -0.283 A  
HETATM   14  N   UNL     1     -10.872  10.580  69.570  1.00  0.00    -0.240 NA 
HETATM   15  C   UNL     1     -12.214  10.850  69.678  1.00  0.00    -0.283 C  
HETATM   16  N   UNL     1     -13.029  10.413  70.591  1.00  0.00    -0.479 N  
HETATM   17  H   UNL     1     -14.014  10.676  70.567  1.00  0.00     0.000 HD 
HETATM   18  C   UNL     1     -12.546   9.576  71.608  1.00  0.00    -0.388 C  
HETATM   19  O   UNL     1     -13.273   9.119  72.482  1.00  0.00    -0.444 OA 
ENDBRANCH   7   9
ENDBRANCH   2   4
TORSDOF 2
ENDMDL
MODEL      166
REMARK 921   NORMALIZED FREE ENERGY PREDICTED BY IDOCK:   -3.67 KCAL/MOL
REMARK 922        TOTAL FREE ENERGY PREDICTED BY IDOCK:   -4.40 KCAL/MOL
REMARK 923 INTER-LIGAND FREE ENERGY PREDICTED BY IDOCK:   -4.10 KCAL/MOL
REMARK 924 INTRA-LIGAND FREE ENERGY PREDICTED BY IDOCK:   -0.30 KCAL/MOL
REMARK 927      BINDING AFFINITY PREDICTED BY RF-SCORE:    0.00 PKD
ROOT
HETATM    1  O   UNL     1      -7.265   4.136  69.648  1.00  0.00    -0.048 OA 
HETATM    2  C   UNL     1      -7.863   5.421  69.479  1.00  0.00    -0.085 C  
HETATM    3  H   UNL     1      -6.692   3.950  68.914  1.00  0.00     0.000 HD 
ENDROOT
BRANCH   2   4
HETATM    4  C   UNL     1      -8.789   5.722  70.666  1.00  0.00    -0.140 C  
HETATM    5  C   UNL     1     -10.108   4.975  70.595  1.00  0.00    -0.313 C  
HETATM    6  C   UNL     1     -11.031   5.949  69.903  1.00  0.00    -0.444 C  
HETATM    7  C   UNL     1     -10.506   7.304  70.349  1.00  0.00    -0.220 C  
HETATM    8  O   UNL     1      -9.117   7.125  70.688  1.00  0.00    -0.156 OA 
BRANCH   7   9
HETATM    9  N   UNL     1     -10.640   8.337  69.339  1.00  0.00    -0.219 NA 
HETATM   10  C   UNL     1     -10.294   8.194  68.013  1.00  0.00    -0.211 A  
HETATM   11  N   UNL     1     -10.488   9.304  67.324  1.00  0.00    -0.266 NA 
HETATM   12  C   UNL     1     -11.007  10.204  68.232  1.00  0.00    -0.248 A  
HETATM   13  C   UNL     1     -11.103   9.608  69.462  1.00  0.00    -0.168 A  
HETATM   14  N   UNL     1     -11.588  10.245  70.536  1.00  0.00    -0.314 NA 
HETATM   15  C   UNL     1     -11.998  11.540  70.332  1.00  0.00    -0.368 C  
HETATM   16  N   UNL     1     -11.947  12.210  69.219  1.00  0.00    -0.289 N  
HETATM   17  H   UNL     1     -12.276  13.175  69.187  1.00  0.00     0.000 HD 
HETATM   18  C   UNL     1     -11.437  11.599  68.064  1.00  0.00    -0.315 C  
HETATM   19  O   UNL     1     -11.348  12.189  66.994  1.00  0.00    -0.295 OA 
ENDBRANCH   7   9
ENDBRANCH   2   4
TORSDOF 2
ENDMDL
MODEL      167
REMARK 921   NORMALIZED FREE ENERGY PREDICTED BY IDOCK:   -3.67 KCAL/MOL
REMARK 922        TOTAL FREE ENERGY PREDICTED BY IDOCK:   -4.40 KCAL/MOL
REMARK 923 INTER-LIGAND FREE ENERGY PREDICTED BY IDOCK:   -4.03 KCAL/MOL
REMARK 924 INTRA-LIGAND FREE ENERGY PREDICTED BY IDOCK:   -0.37 KCAL/MOL
REMARK 927      BINDING AFFINITY PREDICTED BY RF-SCORE:    0.00 PKD
ROOT
HETATM    1  O   UNL     1      -6.991  14.433  70.294  1.00  0.00    -0.396 OA 
HETATM    2  C   UNL     1      -6.150  15.573  70.117  1.00  0.00    -0.123 C  
HETATM    3  H   UNL     1      -6.881  14.087  71.172  1.00  0.00     0.000 HD 
ENDROOT
BRANCH   2   4
HETATM    4  C   UNL     1      -6.328  16.133  68.698  1.00  0.00    -0.118 C  
HETATM    5  C   UNL     1      -7.031  17.477  68.674  1.00  0.00    -0.232 C  
HETATM    6  C   UNL     1      -8.484  17.115  68.482  1.00  0.00    -0.262 C  
HETATM    7  C   UNL     1      -8.419  15.841  67.654  1.00  0.00    -0.160 C  
HETATM    8  O   UNL     1      -7.138  15.235  67.916  1.00  0.00    -0.114 OA 
BRANCH   7   9
HETATM    9  N   UNL     1      -9.483  14.901  67.956  1.00  0.00    -0.195 NA 
HETATM   10  C   UNL     1     -10.416  15.059  68.957  1.00  0.00    -0.245 A  
HETATM   11  N   UNL     1     -11.247  14.036  69.032  1.00  0.00    -0.265 NA 
HETATM   12  C   UNL     1     -10.857  13.183  68.020  1.00  0.00    -0.242 A  
HETATM   13  C   UNL     1      -9.781  13.717  67.362  1.00  0.00    -0.235 A  
HETATM   14  N   UNL     1      -9.198  13.108  66.320  1.00  0.00    -0.130 NA 
HETATM   15  C   UNL     1      -9.750  11.910  65.939  1.00  0.00    -0.238 C  
HETATM   16  N   UNL     1     -10.759  11.303  66.490  1.00  0.00    -0.267 N  
HETATM   17  H   UNL     1     -11.081  10.407  66.124  1.00  0.00     0.000 HD 
HETATM   18  C   UNL     1     -11.402  11.887  67.592  1.00  0.00    -0.304 C  
HETATM   19  O   UNL     1     -12.345  11.351  68.162  1.00  0.00    -0.502 OA 
ENDBRANCH   7   9
ENDBRANCH   2   4
TORSDOF 2
ENDMDL
MODEL      168
REMARK 921   NORMALIZED FREE ENERGY PREDICTED BY IDOCK:   -3.63 KCAL/MOL
REMARK 922        TOTAL FREE ENERGY PREDICTED BY IDOCK:   -4.35 KCAL/MOL
REMARK 923 INTER-LIGAND FREE ENERGY PREDICTED BY IDOCK:   -4.03 KCAL/MOL
REMARK 924 INTRA-LIGAND FREE ENERGY PREDICTED BY IDOCK:   -0.32 KCAL/MOL
REMARK 927      BINDING AFFINITY PREDICTED BY RF-SCORE:    0.00 PKD
ROOT
HETATM    1  O   UNL     1     -12.092  15.177  68.515  1.00  0.00    -0.551 OA 
HETATM    2  C   UNL     1     -11.244  14.061  68.793  1.00  0.00    -0.271 C  
HETATM    3  H   UNL     1     -12.845  15.158  69.092  1.00  0.00     0.000 HD 
ENDROOT
BRANCH   2   4
HETATM    4  C   UNL     1     -10.025  14.092  67.858  1.00  0.00    -0.237 C  
HETATM    5  C   UNL     1     -10.396  14.322  66.405  1.00  0.00    -0.287 C  
HETATM    6  C   UNL     1     -10.521  12.926  65.845  1.00  0.00    -0.294 C  
HETATM    7  C   UNL     1      -9.510  12.132  66.657  1.00  0.00    -0.223 C  
HETATM    8  O   UNL     1      -9.339  12.827  67.908  1.00  0.00    -0.193 OA 
BRANCH   7   9
HETATM    9  N   UNL     1      -9.914  10.760  66.903  1.00  0.00    -0.193 NA 
HETATM   10  C   UNL     1     -10.863  10.370  67.822  1.00  0.00    -0.297 A  
HETATM   11  N   UNL     1     -11.009   9.058  67.863  1.00  0.00    -0.043 NA 
HETATM   12  C   UNL     1     -10.136   8.571  66.912  1.00  0.00    -0.294 A  
HETATM   13  C   UNL     1      -9.472   9.614  66.324  1.00  0.00    -0.199 A  
HETATM   14  N   UNL     1      -8.568   9.438  65.351  1.00  0.00    -0.146 NA 
HETATM   15  C   UNL     1      -8.348   8.138  64.966  1.00  0.00    -0.136 C  
HETATM   16  N   UNL     1      -8.908   7.072  65.454  1.00  0.00    -0.367 N  
HETATM   17  H   UNL     1      -8.661   6.151  65.091  1.00  0.00     0.000 HD 
HETATM   18  C   UNL     1      -9.854   7.194  66.483  1.00  0.00    -0.120 C  
HETATM   19  O   UNL     1     -10.398   6.222  66.994  1.00  0.00    -0.183 OA 
ENDBRANCH   7   9
ENDBRANCH   2   4
TORSDOF 2
ENDMDL
MODEL      169
REMARK 921   NORMALIZED FREE ENERGY PREDICTED BY IDOCK:   -3.63 KCAL/MOL
REMARK 922        TOTAL FREE ENERGY PREDICTED BY IDOCK:   -4.35 KCAL/MOL
REMARK 923 INTER-LIGAND FREE ENERGY PREDICTED BY IDOCK:   -4.16 KCAL/MOL
REMARK 924 INTRA-LIGAND FREE ENERGY PREDICTED BY IDOCK:   -0.19 KCAL/MOL
REMARK 927      BINDING AFFINITY PREDICTED BY RF-SCORE:    0.00 PKD
ROOT
HETATM    1  O   UNL     1      -7.122   8.701  70.128  1.00  0.00    -0.041 OA 
HETATM    2  C   UNL     1      -7.290   8.958  68.733  1.00  0.00    -0.076 C  
HETATM    3  H   UNL     1      -6.358   9.165  70.449  1.00  0.00     0.000 HD 
ENDROOT
BRANCH   2   4
HETATM    4  C   UNL     1      -8.526   8.207  68.214  1.00  0.00    -0.130 C  
HETATM    5  C   UNL     1      -8.387   7.762  66.770  1.00  0.00    -0.125 C  
HETATM    6  C   UNL     1      -9.011   8.892  65.988  1.00  0.00    -0.235 C  
HETATM    7  C   UNL     1     -10.087   9.414  66.928  1.00  0.00    -0.248 C  
HETATM    8  O   UNL     1      -9.679   9.068  68.265  1.00  0.00    -0.147 OA 
BRANCH   7   9
HETATM    9  N   UNL     1     -10.296  10.847  66.828  1.00  0.00    -0.232 NA 
HETATM   10  C   UNL     1     -10.125  11.743  67.859  1.00  0.00    -0.186 A  
HETATM   11  N   UNL     1     -10.419  12.979  67.501  1.00  0.00    -0.226 NA 
HETATM   12  C   UNL     1     -10.773  12.892  66.170  1.00  0.00    -0.272 A  
HETATM   13  C   UNL     1     -10.692  11.587  65.761  1.00  0.00    -0.271 A  
HETATM   14  N   UNL     1     -10.968  11.206  64.506  1.00  0.00    -0.255 NA 
HETATM   15  C   UNL     1     -11.331  12.209  63.640  1.00  0.00    -0.464 C  
HETATM   16  N   UNL     1     -11.450  13.474  63.915  1.00  0.00    -0.604 N  
HETATM   17  H   UNL     1     -11.734  14.132  63.188  1.00  0.00     0.000 HD 
HETATM   18  C   UNL     1     -11.187  13.930  65.215  1.00  0.00    -0.313 C  
HETATM   19  O   UNL     1     -11.302  15.107  65.534  1.00  0.00    -0.338 OA 
ENDBRANCH   7   9
ENDBRANCH   2   4
TORSDOF 2
ENDMDL
MODEL      170
REMARK 921   NORMALIZED FREE ENERGY PREDICTED BY IDOCK:   -3.63 KCAL/MOL
REMARK 922        TOTAL FREE ENERGY PREDICTED BY IDOCK:   -4.35 KCAL/MOL
REMARK 923 INTER-LIGAND FREE ENERGY PREDICTED BY IDOCK:   -4.23 KCAL/MOL
REMARK 924 INTRA-LIGAND FREE ENERGY PREDICTED BY IDOCK:   -0.12 KCAL/MOL
REMARK 927      BINDING AFFINITY PREDICTED BY RF-SCORE:    0.00 PKD
ROOT
HETATM    1  O   UNL     1      -7.715  12.194  66.533  1.00  0.00    -0.383 OA 
HETATM    2  C   UNL     1      -7.651  10.786  66.761  1.00  0.00    -0.129 C  
HETATM    3  H   UNL     1      -7.102  12.436  65.849  1.00  0.00     0.000 HD 
ENDROOT
BRANCH   2   4
HETATM    4  C   UNL     1      -8.642  10.395  67.868  1.00  0.00    -0.118 C  
HETATM    5  C   UNL     1      -9.849   9.639  67.345  1.00  0.00    -0.218 C  
HETATM    6  C   UNL     1     -10.872  10.723  67.109  1.00  0.00    -0.335 C  
HETATM    7  C   UNL     1     -10.540  11.754  68.176  1.00  0.00    -0.203 C  
HETATM    8  O   UNL     1      -9.150  11.579  68.511  1.00  0.00    -0.175 OA 
BRANCH   7   9
HETATM    9  N   UNL     1     -10.780  13.122  67.753  1.00  0.00    -0.236 NA 
HETATM   10  C   UNL     1     -11.837  13.532  66.971  1.00  0.00    -0.402 A  
HETATM   11  N   UNL     1     -11.792  14.825  66.709  1.00  0.00    -0.314 NA 
HETATM   12  C   UNL     1     -10.672  15.286  67.370  1.00  0.00    -0.293 A  
HETATM   13  C   UNL     1     -10.059  14.243  68.011  1.00  0.00    -0.227 A  
HETATM   14  N   UNL     1      -8.950  14.400  68.747  1.00  0.00    -0.167 NA 
HETATM   15  C   UNL     1      -8.462  15.681  68.830  1.00  0.00    -0.213 C  
HETATM   16  N   UNL     1      -8.949  16.742  68.261  1.00  0.00    -0.221 N  
HETATM   17  H   UNL     1      -8.496  17.647  68.390  1.00  0.00     0.000 HD 
HETATM   18  C   UNL     1     -10.102  16.637  67.469  1.00  0.00    -0.273 C  
HETATM   19  O   UNL     1     -10.594  17.601  66.893  1.00  0.00    -0.317 OA 
ENDBRANCH   7   9
ENDBRANCH   2   4
TORSDOF 2
ENDMDL
MODEL      171
REMARK 921   NORMALIZED FREE ENERGY PREDICTED BY IDOCK:   -3.63 KCAL/MOL
REMARK 922        TOTAL FREE ENERGY PREDICTED BY IDOCK:   -4.35 KCAL/MOL
REMARK 923 INTER-LIGAND FREE ENERGY PREDICTED BY IDOCK:   -3.98 KCAL/MOL
REMARK 924 INTRA-LIGAND FREE ENERGY PREDICTED BY IDOCK:   -0.36 KCAL/MOL
REMARK 927      BINDING AFFINITY PREDICTED BY RF-SCORE:    0.00 PKD
ROOT
HETATM    1  O   UNL     1     -11.469   4.604  65.378  1.00  0.00    -1.018 OA 
HETATM    2  C   UNL     1     -10.396   3.858  64.801  1.00  0.00    -0.173 C  
HETATM    3  H   UNL     1     -12.277   4.111  65.303  1.00  0.00     0.000 HD 
ENDROOT
BRANCH   2   4
HETATM    4  C   UNL     1      -9.088   4.655  64.921  1.00  0.00    -0.154 C  
HETATM    5  C   UNL     1      -7.953   3.847  65.521  1.00  0.00    -0.093 C  
HETATM    6  C   UNL     1      -8.031   4.165  66.995  1.00  0.00    -0.097 C  
HETATM    7  C   UNL     1      -8.558   5.591  67.016  1.00  0.00    -0.109 C  
HETATM    8  O   UNL     1      -9.283   5.789  65.787  1.00  0.00    -0.148 OA 
BRANCH   7   9
HETATM    9  N   UNL     1      -9.418   5.872  68.151  1.00  0.00    -0.115 NA 
HETATM   10  C   UNL     1      -9.831   4.941  69.078  1.00  0.00    -0.180 A  
HETATM   11  N   UNL     1     -10.637   5.462  69.985  1.00  0.00    -0.309 NA 
HETATM   12  C   UNL     1     -10.735   6.798  69.651  1.00  0.00    -0.251 A  
HETATM   13  C   UNL     1      -9.985   7.046  68.533  1.00  0.00    -0.155 A  
HETATM   14  N   UNL     1      -9.884   8.266  67.988  1.00  0.00    -0.162 NA 
HETATM   15  C   UNL     1     -10.574   9.267  68.626  1.00  0.00    -0.187 C  
HETATM   16  N   UNL     1     -11.321   9.151  69.683  1.00  0.00    -0.437 N  
HETATM   17  H   UNL     1     -11.794   9.969  70.069  1.00  0.00     0.000 HD 
HETATM   18  C   UNL     1     -11.475   7.895  70.289  1.00  0.00    -0.088 C  
HETATM   19  O   UNL     1     -12.183   7.725  71.275  1.00  0.00    -0.307 OA 
ENDBRANCH   7   9
ENDBRANCH   2   4
TORSDOF 2
ENDMDL
MODEL      172
REMARK 921   NORMALIZED FREE ENERGY PREDICTED BY IDOCK:   -3.62 KCAL/MOL
REMARK 922        TOTAL FREE ENERGY PREDICTED BY IDOCK:   -4.34 KCAL/MOL
REMARK 923 INTER-LIGAND FREE ENERGY PREDICTED BY IDOCK:   -4.19 KCAL/MOL
REMARK 924 INTRA-LIGAND FREE ENERGY PREDICTED BY IDOCK:   -0.15 KCAL/MOL
REMARK 927      BINDING AFFINITY PREDICTED BY RF-SCORE:    0.00 PKD
ROOT
HETATM    1  O   UNL     1      -9.000  11.038  64.428  1.00  0.00    -0.312 OA 
HETATM    2  C   UNL     1     -10.112  10.836  65.301  1.00  0.00    -0.290 C  
HETATM    3  H   UNL     1      -8.742  10.209  64.042  1.00  0.00     0.000 HD 
ENDROOT
BRANCH   2   4
HETATM    4  C   UNL     1     -10.530  12.176  65.926  1.00  0.00    -0.254 C  
HETATM    5  C   UNL     1      -9.390  12.879  66.640  1.00  0.00    -0.240 C  
HETATM    6  C   UNL     1      -9.527  12.414  68.070  1.00  0.00    -0.208 C  
HETATM    7  C   UNL     1     -11.025  12.210  68.228  1.00  0.00    -0.234 C  
HETATM    8  O   UNL     1     -11.555  11.958  66.913  1.00  0.00    -0.465 OA 
BRANCH   7   9
HETATM    9  N   UNL     1     -11.368  11.116  69.120  1.00  0.00    -0.246 NA 
HETATM   10  C   UNL     1     -12.169  11.229  70.234  1.00  0.00    -0.345 A  
HETATM   11  N   UNL     1     -12.286  10.085  70.883  1.00  0.00    -0.325 NA 
HETATM   12  C   UNL     1     -11.551   9.179  70.146  1.00  0.00    -0.016 A  
HETATM   13  C   UNL     1     -10.995   9.812  69.066  1.00  0.00    -0.163 A  
HETATM   14  N   UNL     1     -10.237   9.171  68.166  1.00  0.00    -0.198 NA 
HETATM   15  C   UNL     1     -10.054   7.828  68.383  1.00  0.00    -0.192 C  
HETATM   16  N   UNL     1     -10.521   7.124  69.371  1.00  0.00    -0.216 N  
HETATM   17  H   UNL     1     -10.314   6.127  69.433  1.00  0.00     0.000 HD 
HETATM   18  C   UNL     1     -11.311   7.743  70.351  1.00  0.00    -0.207 C  
HETATM   19  O   UNL     1     -11.760   7.133  71.314  1.00  0.00    -0.276 OA 
ENDBRANCH   7   9
ENDBRANCH   2   4
TORSDOF 2
ENDMDL
MODEL      173
REMARK 921   NORMALIZED FREE ENERGY PREDICTED BY IDOCK:   -3.62 KCAL/MOL
REMARK 922        TOTAL FREE ENERGY PREDICTED BY IDOCK:   -4.34 KCAL/MOL
REMARK 923 INTER-LIGAND FREE ENERGY PREDICTED BY IDOCK:   -4.05 KCAL/MOL
REMARK 924 INTRA-LIGAND FREE ENERGY PREDICTED BY IDOCK:   -0.28 KCAL/MOL
REMARK 927      BINDING AFFINITY PREDICTED BY RF-SCORE:    0.00 PKD
ROOT
HETATM    1  O   UNL     1      -7.069  11.278  65.691  1.00  0.00    -0.361 OA 
HETATM    2  C   UNL     1      -8.078  10.322  65.363  1.00  0.00    -0.147 C  
HETATM    3  H   UNL     1      -6.217  10.860  65.681  1.00  0.00     0.000 HD 
ENDROOT
BRANCH   2   4
HETATM    4  C   UNL     1      -9.457  10.998  65.379  1.00  0.00    -0.222 C  
HETATM    5  C   UNL     1      -9.492  12.258  66.224  1.00  0.00    -0.234 C  
HETATM    6  C   UNL     1      -9.954  11.767  67.574  1.00  0.00    -0.204 C  
HETATM    7  C   UNL     1     -10.859  10.595  67.228  1.00  0.00    -0.287 C  
HETATM    8  O   UNL     1     -10.435  10.103  65.943  1.00  0.00    -0.183 OA 
BRANCH   7   9
HETATM    9  N   UNL     1     -10.818   9.525  68.208  1.00  0.00    -0.186 NA 
HETATM   10  C   UNL     1     -10.294   8.271  67.985  1.00  0.00    -0.213 A  
HETATM   11  N   UNL     1     -10.419   7.483  69.037  1.00  0.00    -0.212 NA 
HETATM   12  C   UNL     1     -11.028   8.263  69.998  1.00  0.00    -0.197 A  
HETATM   13  C   UNL     1     -11.266   9.512  69.489  1.00  0.00    -0.074 A  
HETATM   14  N   UNL     1     -11.840  10.486  70.209  1.00  0.00    -0.303 NA 
HETATM   15  C   UNL     1     -12.170  10.163  71.502  1.00  0.00    -0.380 C  
HETATM   16  N   UNL     1     -12.002   9.015  72.088  1.00  0.00    -0.350 N  
HETATM   17  H   UNL     1     -12.293   8.887  73.057  1.00  0.00     0.000 HD 
HETATM   18  C   UNL     1     -11.418   7.954  71.381  1.00  0.00    -0.260 C  
HETATM   19  O   UNL     1     -11.254   6.846  71.877  1.00  0.00    -0.239 OA 
ENDBRANCH   7   9
ENDBRANCH   2   4
TORSDOF 2
ENDMDL
MODEL      174
REMARK 921   NORMALIZED FREE ENERGY PREDICTED BY IDOCK:   -3.61 KCAL/MOL
REMARK 922        TOTAL FREE ENERGY PREDICTED BY IDOCK:   -4.33 KCAL/MOL
REMARK 923 INTER-LIGAND FREE ENERGY PREDICTED BY IDOCK:   -4.19 KCAL/MOL
REMARK 924 INTRA-LIGAND FREE ENERGY PREDICTED BY IDOCK:   -0.14 KCAL/MOL
REMARK 927      BINDING AFFINITY PREDICTED BY RF-SCORE:    0.00 PKD
ROOT
HETATM    1  O   UNL     1     -11.293   4.588  65.435  1.00  0.00    -0.937 OA 
HETATM    2  C   UNL     1     -10.379   5.056  66.428  1.00  0.00    -0.294 C  
HETATM    3  H   UNL     1     -11.100   3.682  65.223  1.00  0.00     0.000 HD 
ENDROOT
BRANCH   2   4
HETATM    4  C   UNL     1     -10.691   6.520  66.769  1.00  0.00    -0.273 C  
HETATM    5  C   UNL     1      -9.444   7.368  66.946  1.00  0.00    -0.208 C  
HETATM    6  C   UNL     1      -9.177   7.302  68.430  1.00  0.00    -0.137 C  
HETATM    7  C   UNL     1     -10.569   7.174  69.029  1.00  0.00    -0.210 C  
HETATM    8  O   UNL     1     -11.410   6.591  68.015  1.00  0.00    -0.234 OA 
BRANCH   7   9
HETATM    9  N   UNL     1     -10.607   6.363  70.233  1.00  0.00    -0.220 NA 
HETATM   10  C   UNL     1     -11.126   6.770  71.442  1.00  0.00    -0.254 A  
HETATM   11  N   UNL     1     -11.000   5.846  72.376  1.00  0.00    -0.249 NA 
HETATM   12  C   UNL     1     -10.396   4.778  71.744  1.00  0.00    -0.160 A  
HETATM   13  C   UNL     1     -10.162   5.096  70.433  1.00  0.00    -0.264 A  
HETATM   14  N   UNL     1      -9.595   4.239  69.573  1.00  0.00    -0.192 NA 
HETATM   15  C   UNL     1      -9.266   3.007  70.082  1.00  0.00    -0.144 C  
HETATM   16  N   UNL     1      -9.431   2.597  71.304  1.00  0.00    -0.138 N  
HETATM   17  H   UNL     1      -9.142   1.656  71.573  1.00  0.00     0.000 HD 
HETATM   18  C   UNL     1     -10.008   3.455  72.252  1.00  0.00    -0.163 C  
HETATM   19  O   UNL     1     -10.169   3.127  73.422  1.00  0.00    -0.114 OA 
ENDBRANCH   7   9
ENDBRANCH   2   4
TORSDOF 2
ENDMDL
MODEL      175
REMARK 921   NORMALIZED FREE ENERGY PREDICTED BY IDOCK:   -3.60 KCAL/MOL
REMARK 922        TOTAL FREE ENERGY PREDICTED BY IDOCK:   -4.32 KCAL/MOL
REMARK 923 INTER-LIGAND FREE ENERGY PREDICTED BY IDOCK:   -4.21 KCAL/MOL
REMARK 924 INTRA-LIGAND FREE ENERGY PREDICTED BY IDOCK:   -0.11 KCAL/MOL
REMARK 927      BINDING AFFINITY PREDICTED BY RF-SCORE:    0.00 PKD
ROOT
HETATM    1  O   UNL     1      -7.003   9.840  70.984  1.00  0.00    -0.310 OA 
HETATM    2  C   UNL     1      -7.735   9.496  69.807  1.00  0.00    -0.123 C  
HETATM    3  H   UNL     1      -6.491  10.624  70.824  1.00  0.00     0.000 HD 
ENDROOT
BRANCH   2   4
HETATM    4  C   UNL     1      -8.563   8.228  70.065  1.00  0.00    -0.128 C  
HETATM    5  C   UNL     1      -9.289   7.731  68.829  1.00  0.00    -0.146 C  
HETATM    6  C   UNL     1     -10.648   8.381  68.929  1.00  0.00    -0.162 C  
HETATM    7  C   UNL     1     -10.877   8.481  70.429  1.00  0.00    -0.234 C  
HETATM    8  O   UNL     1      -9.578   8.499  71.051  1.00  0.00    -0.168 OA 
BRANCH   7   9
HETATM    9  N   UNL     1     -11.631   9.657  70.821  1.00  0.00    -0.299 NA 
HETATM   10  C   UNL     1     -12.619   9.678  71.781  1.00  0.00    -0.409 A  
HETATM   11  N   UNL     1     -13.164  10.873  71.912  1.00  0.00    -0.460 NA 
HETATM   12  C   UNL     1     -12.486  11.675  71.017  1.00  0.00    -0.334 A  
HETATM   13  C   UNL     1     -11.547  10.930  70.355  1.00  0.00    -0.323 A  
HETATM   14  N   UNL     1     -10.730  11.454  69.432  1.00  0.00    -0.159 NA 
HETATM   15  C   UNL     1     -10.881  12.797  69.190  1.00  0.00    -0.075 C  
HETATM   16  N   UNL     1     -11.738  13.601  69.745  1.00  0.00    -0.347 N  
HETATM   17  H   UNL     1     -11.764  14.586  69.481  1.00  0.00     0.000 HD 
HETATM   18  C   UNL     1     -12.628  13.105  70.710  1.00  0.00    -0.260 C  
HETATM   19  O   UNL     1     -13.470  13.813  71.251  1.00  0.00    -0.272 OA 
ENDBRANCH   7   9
ENDBRANCH   2   4
TORSDOF 2
ENDMDL
MODEL      176
REMARK 921   NORMALIZED FREE ENERGY PREDICTED BY IDOCK:   -3.59 KCAL/MOL
REMARK 922        TOTAL FREE ENERGY PREDICTED BY IDOCK:   -4.31 KCAL/MOL
REMARK 923 INTER-LIGAND FREE ENERGY PREDICTED BY IDOCK:   -3.86 KCAL/MOL
REMARK 924 INTRA-LIGAND FREE ENERGY PREDICTED BY IDOCK:   -0.45 KCAL/MOL
REMARK 927      BINDING AFFINITY PREDICTED BY RF-SCORE:    0.00 PKD
ROOT
HETATM    1  O   UNL     1     -11.317   6.005  66.387  1.00  0.00    -0.732 OA 
HETATM    2  C   UNL     1     -10.311   5.001  66.244  1.00  0.00    -0.291 C  
HETATM    3  H   UNL     1     -12.127   5.606  66.683  1.00  0.00     0.000 HD 
ENDROOT
BRANCH   2   4
HETATM    4  C   UNL     1      -9.002   5.646  65.765  1.00  0.00    -0.147 C  
HETATM    5  C   UNL     1      -7.804   5.260  66.613  1.00  0.00    -0.100 C  
HETATM    6  C   UNL     1      -7.724   6.366  67.637  1.00  0.00    -0.102 C  
HETATM    7  C   UNL     1      -8.252   7.577  66.884  1.00  0.00    -0.124 C  
HETATM    8  O   UNL     1      -9.107   7.080  65.837  1.00  0.00    -0.119 OA 
BRANCH   7   9
HETATM    9  N   UNL     1      -8.985   8.506  67.725  1.00  0.00    -0.136 NA 
HETATM   10  C   UNL     1      -8.865   9.877  67.677  1.00  0.00    -0.125 A  
HETATM   11  N   UNL     1      -9.623  10.477  68.577  1.00  0.00    -0.156 NA 
HETATM   12  C   UNL     1     -10.287   9.455  69.224  1.00  0.00    -0.208 A  
HETATM   13  C   UNL     1      -9.898   8.252  68.697  1.00  0.00    -0.176 A  
HETATM   14  N   UNL     1     -10.393   7.083  69.126  1.00  0.00    -0.194 NA 
HETATM   15  C   UNL     1     -11.329   7.159  70.129  1.00  0.00    -0.241 C  
HETATM   16  N   UNL     1     -11.766   8.236  70.710  1.00  0.00    -0.410 N  
HETATM   17  H   UNL     1     -12.463   8.171  71.452  1.00  0.00     0.000 HD 
HETATM   18  C   UNL     1     -11.275   9.488  70.311  1.00  0.00    -0.261 C  
HETATM   19  O   UNL     1     -11.638  10.533  70.837  1.00  0.00    -0.338 OA 
ENDBRANCH   7   9
ENDBRANCH   2   4
TORSDOF 2
ENDMDL
MODEL      177
REMARK 921   NORMALIZED FREE ENERGY PREDICTED BY IDOCK:   -3.58 KCAL/MOL
REMARK 922        TOTAL FREE ENERGY PREDICTED BY IDOCK:   -4.30 KCAL/MOL
REMARK 923 INTER-LIGAND FREE ENERGY PREDICTED BY IDOCK:   -3.82 KCAL/MOL
REMARK 924 INTRA-LIGAND FREE ENERGY PREDICTED BY IDOCK:   -0.48 KCAL/MOL
REMARK 927      BINDING AFFINITY PREDICTED BY RF-SCORE:    0.00 PKD
ROOT
HETATM    1  O   UNL     1     -11.430   6.950  67.813  1.00  0.00    -0.548 OA 
HETATM    2  C   UNL     1     -10.341   7.794  67.433  1.00  0.00    -0.284 C  
HETATM    3  H   UNL     1     -11.400   6.145  67.310  1.00  0.00     0.000 HD 
ENDROOT
BRANCH   2   4
HETATM    4  C   UNL     1     -10.388   9.097  68.245  1.00  0.00    -0.214 C  
HETATM    5  C   UNL     1      -9.012   9.611  68.624  1.00  0.00    -0.129 C  
HETATM    6  C   UNL     1      -8.776   9.019  69.992  1.00  0.00    -0.164 C  
HETATM    7  C   UNL     1     -10.174   8.943  70.586  1.00  0.00    -0.217 C  
HETATM    8  O   UNL     1     -11.096   8.878  69.481  1.00  0.00    -0.146 OA 
BRANCH   7   9
HETATM    9  N   UNL     1     -10.369   7.803  71.462  1.00  0.00    -0.192 NA 
HETATM   10  C   UNL     1     -10.850   7.872  72.751  1.00  0.00    -0.386 A  
HETATM   11  N   UNL     1     -10.893   6.687  73.332  1.00  0.00    -0.270 NA 
HETATM   12  C   UNL     1     -10.446   5.802  72.374  1.00  0.00    -0.211 A  
HETATM   13  C   UNL     1     -10.131   6.487  71.230  1.00  0.00    -0.186 A  
HETATM   14  N   UNL     1      -9.681   5.878  70.125  1.00  0.00    -0.164 NA 
HETATM   15  C   UNL     1      -9.561   4.511  70.200  1.00  0.00    -0.194 C  
HETATM   16  N   UNL     1      -9.819   3.758  71.227  1.00  0.00    -0.174 N  
HETATM   17  H   UNL     1      -9.685   2.749  71.169  1.00  0.00     0.000 HD 
HETATM   18  C   UNL     1     -10.281   4.342  72.416  1.00  0.00    -0.190 C  
HETATM   19  O   UNL     1     -10.521   3.683  73.421  1.00  0.00    -0.152 OA 
ENDBRANCH   7   9
ENDBRANCH   2   4
TORSDOF 2
ENDMDL
MODEL      178
REMARK 921   NORMALIZED FREE ENERGY PREDICTED BY IDOCK:   -3.58 KCAL/MOL
REMARK 922        TOTAL FREE ENERGY PREDICTED BY IDOCK:   -4.29 KCAL/MOL
REMARK 923 INTER-LIGAND FREE ENERGY PREDICTED BY IDOCK:   -4.13 KCAL/MOL
REMARK 924 INTRA-LIGAND FREE ENERGY PREDICTED BY IDOCK:   -0.16 KCAL/MOL
REMARK 927      BINDING AFFINITY PREDICTED BY RF-SCORE:    0.00 PKD
ROOT
HETATM    1  O   UNL     1     -12.341  11.998  67.782  1.00  0.00    -0.340 OA 
HETATM    2  C   UNL     1     -12.159  12.973  66.754  1.00  0.00    -0.300 C  
HETATM    3  H   UNL     1     -13.263  11.928  67.997  1.00  0.00     0.000 HD 
ENDROOT
BRANCH   2   4
HETATM    4  C   UNL     1     -10.668  13.086  66.406  1.00  0.00    -0.282 C  
HETATM    5  C   UNL     1     -10.369  12.758  64.954  1.00  0.00    -0.330 C  
HETATM    6  C   UNL     1     -10.030  11.287  64.986  1.00  0.00    -0.323 C  
HETATM    7  C   UNL     1      -9.395  11.105  66.355  1.00  0.00    -0.188 C  
HETATM    8  O   UNL     1      -9.907  12.154  67.198  1.00  0.00    -0.195 OA 
BRANCH   7   9
HETATM    9  N   UNL     1      -9.670   9.810  66.952  1.00  0.00    -0.182 NA 
HETATM   10  C   UNL     1      -9.718   8.618  66.264  1.00  0.00    -0.251 A  
HETATM   11  N   UNL     1     -10.023   7.601  67.048  1.00  0.00    -0.215 NA 
HETATM   12  C   UNL     1     -10.155   8.147  68.308  1.00  0.00    -0.197 A  
HETATM   13  C   UNL     1      -9.933   9.497  68.246  1.00  0.00    -0.161 A  
HETATM   14  N   UNL     1      -9.983  10.286  69.328  1.00  0.00    -0.217 NA 
HETATM   15  C   UNL     1     -10.262   9.657  70.517  1.00  0.00    -0.287 C  
HETATM   16  N   UNL     1     -10.497   8.392  70.697  1.00  0.00    -0.197 N  
HETATM   17  H   UNL     1     -10.700   8.036  71.631  1.00  0.00     0.000 HD 
HETATM   18  C   UNL     1     -10.471   7.519  69.599  1.00  0.00    -0.234 C  
HETATM   19  O   UNL     1     -10.705   6.321  69.707  1.00  0.00    -0.235 OA 
ENDBRANCH   7   9
ENDBRANCH   2   4
TORSDOF 2
ENDMDL
MODEL      179
REMARK 921   NORMALIZED FREE ENERGY PREDICTED BY IDOCK:   -3.55 KCAL/MOL
REMARK 922        TOTAL FREE ENERGY PREDICTED BY IDOCK:   -4.26 KCAL/MOL
REMARK 923 INTER-LIGAND FREE ENERGY PREDICTED BY IDOCK:   -4.40 KCAL/MOL
REMARK 924 INTRA-LIGAND FREE ENERGY PREDICTED BY IDOCK:    0.13 KCAL/MOL
REMARK 927      BINDING AFFINITY PREDICTED BY RF-SCORE:    0.00 PKD
ROOT
HETATM    1  O   UNL     1     -10.394  16.475  67.158  1.00  0.00    -0.291 OA 
HETATM    2  C   UNL     1     -11.087  15.309  66.708  1.00  0.00    -0.278 C  
HETATM    3  H   UNL     1     -10.491  16.560  68.099  1.00  0.00     0.000 HD 
ENDROOT
BRANCH   2   4
HETATM    4  C   UNL     1     -10.931  15.170  65.186  1.00  0.00    -0.417 C  
HETATM    5  C   UNL     1     -12.230  14.818  64.485  1.00  0.00    -0.443 C  
HETATM    6  C   UNL     1     -12.195  13.311  64.411  1.00  0.00    -0.449 C  
HETATM    7  C   UNL     1     -10.711  13.001  64.296  1.00  0.00    -0.407 C  
HETATM    8  O   UNL     1     -10.004  14.110  64.884  1.00  0.00    -0.322 OA 
BRANCH   7   9
HETATM    9  N   UNL     1     -10.326  11.764  64.951  1.00  0.00    -0.276 NA 
HETATM   10  C   UNL     1     -10.407  10.512  64.383  1.00  0.00    -0.174 A  
HETATM   11  N   UNL     1     -10.025   9.560  65.214  1.00  0.00    -0.140 NA 
HETATM   12  C   UNL     1      -9.653  10.220  66.368  1.00  0.00    -0.185 A  
HETATM   13  C   UNL     1      -9.834  11.568  66.201  1.00  0.00    -0.221 A  
HETATM   14  N   UNL     1      -9.542  12.458  67.159  1.00  0.00    -0.202 NA 
HETATM   15  C   UNL     1      -9.036  11.940  68.326  1.00  0.00    -0.183 C  
HETATM   16  N   UNL     1      -8.830  10.687  68.601  1.00  0.00    -0.144 N  
HETATM   17  H   UNL     1      -8.454  10.417  69.510  1.00  0.00     0.000 HD 
HETATM   18  C   UNL     1      -9.129   9.708  67.642  1.00  0.00    -0.131 C  
HETATM   19  O   UNL     1      -8.974   8.512  67.854  1.00  0.00    -0.136 OA 
ENDBRANCH   7   9
ENDBRANCH   2   4
TORSDOF 2
ENDMDL
MODEL      180
REMARK 921   NORMALIZED FREE ENERGY PREDICTED BY IDOCK:   -3.55 KCAL/MOL
REMARK 922        TOTAL FREE ENERGY PREDICTED BY IDOCK:   -4.26 KCAL/MOL
REMARK 923 INTER-LIGAND FREE ENERGY PREDICTED BY IDOCK:   -4.05 KCAL/MOL
REMARK 924 INTRA-LIGAND FREE ENERGY PREDICTED BY IDOCK:   -0.21 KCAL/MOL
REMARK 927      BINDING AFFINITY PREDICTED BY RF-SCORE:    0.00 PKD
ROOT
HETATM    1  O   UNL     1      -7.356  15.987  69.223  1.00  0.00    -0.213 OA 
HETATM    2  C   UNL     1      -7.817  17.327  69.043  1.00  0.00    -0.144 C  
HETATM    3  H   UNL     1      -7.177  15.832  70.143  1.00  0.00     0.000 HD 
ENDROOT
BRANCH   2   4
HETATM    4  C   UNL     1      -8.106  17.579  67.555  1.00  0.00    -0.205 C  
HETATM    5  C   UNL     1      -9.314  18.469  67.328  1.00  0.00    -0.286 C  
HETATM    6  C   UNL     1     -10.451  17.490  67.163  1.00  0.00    -0.312 C  
HETATM    7  C   UNL     1      -9.782  16.282  66.526  1.00  0.00    -0.263 C  
HETATM    8  O   UNL     1      -8.390  16.331  66.893  1.00  0.00    -0.188 OA 
BRANCH   7   9
HETATM    9  N   UNL     1     -10.360  15.016  66.938  1.00  0.00    -0.262 NA 
HETATM   10  C   UNL     1     -11.699  14.701  66.871  1.00  0.00    -0.350 A  
HETATM   11  N   UNL     1     -11.953  13.495  67.345  1.00  0.00    -0.371 NA 
HETATM   12  C   UNL     1     -10.723  12.989  67.714  1.00  0.00    -0.229 A  
HETATM   13  C   UNL     1      -9.751  13.920  67.459  1.00  0.00    -0.232 A  
HETATM   14  N   UNL     1      -8.454  13.695  67.707  1.00  0.00    -0.169 NA 
HETATM   15  C   UNL     1      -8.148  12.461  68.228  1.00  0.00    -0.166 C  
HETATM   16  N   UNL     1      -8.980  11.507  68.519  1.00  0.00    -0.220 N  
HETATM   17  H   UNL     1      -8.638  10.629  68.910  1.00  0.00     0.000 HD 
HETATM   18  C   UNL     1     -10.352  11.690  68.292  1.00  0.00    -0.200 C  
HETATM   19  O   UNL     1     -11.183  10.832  68.565  1.00  0.00    -0.239 OA 
ENDBRANCH   7   9
ENDBRANCH   2   4
TORSDOF 2
ENDMDL
MODEL      181
REMARK 921   NORMALIZED FREE ENERGY PREDICTED BY IDOCK:   -3.50 KCAL/MOL
REMARK 922        TOTAL FREE ENERGY PREDICTED BY IDOCK:   -4.21 KCAL/MOL
REMARK 923 INTER-LIGAND FREE ENERGY PREDICTED BY IDOCK:   -4.07 KCAL/MOL
REMARK 924 INTRA-LIGAND FREE ENERGY PREDICTED BY IDOCK:   -0.13 KCAL/MOL
REMARK 927      BINDING AFFINITY PREDICTED BY RF-SCORE:    0.00 PKD
ROOT
HETATM    1  O   UNL     1      -5.778  10.898  71.450  1.00  0.00    -0.339 OA 
HETATM    2  C   UNL     1      -6.166   9.673  70.827  1.00  0.00    -0.092 C  
HETATM    3  H   UNL     1      -5.803  11.602  70.814  1.00  0.00     0.000 HD 
ENDROOT
BRANCH   2   4
HETATM    4  C   UNL     1      -6.125   8.533  71.856  1.00  0.00    -0.060 C  
HETATM    5  C   UNL     1      -6.180   7.156  71.221  1.00  0.00    -0.037 C  
HETATM    6  C   UNL     1      -7.652   6.821  71.226  1.00  0.00    -0.092 C  
HETATM    7  C   UNL     1      -8.167   7.530  72.469  1.00  0.00    -0.108 C  
HETATM    8  O   UNL     1      -7.265   8.623  72.732  1.00  0.00    -0.294 OA 
BRANCH   7   9
HETATM    9  N   UNL     1      -9.523   8.028  72.331  1.00  0.00    -0.191 NA 
HETATM   10  C   UNL     1     -10.581   7.669  73.136  1.00  0.00    -0.379 A  
HETATM   11  N   UNL     1     -11.710   8.246  72.765  1.00  0.00    -0.345 NA 
HETATM   12  C   UNL     1     -11.370   9.037  71.686  1.00  0.00    -0.360 A  
HETATM   13  C   UNL     1     -10.031   8.905  71.427  1.00  0.00    -0.308 A  
HETATM   14  N   UNL     1      -9.419   9.571  70.438  1.00  0.00    -0.258 NA 
HETATM   15  C   UNL     1     -10.215  10.409  69.697  1.00  0.00    -0.209 C  
HETATM   16  N   UNL     1     -11.491  10.608  69.842  1.00  0.00    -0.291 N  
HETATM   17  H   UNL     1     -11.983  11.254  69.225  1.00  0.00     0.000 HD 
HETATM   18  C   UNL     1     -12.188   9.929  70.853  1.00  0.00    -0.328 C  
HETATM   19  O   UNL     1     -13.394  10.063  71.023  1.00  0.00    -0.385 OA 
ENDBRANCH   7   9
ENDBRANCH   2   4
TORSDOF 2
ENDMDL
MODEL      182
REMARK 921   NORMALIZED FREE ENERGY PREDICTED BY IDOCK:   -3.49 KCAL/MOL
REMARK 922        TOTAL FREE ENERGY PREDICTED BY IDOCK:   -4.19 KCAL/MOL
REMARK 923 INTER-LIGAND FREE ENERGY PREDICTED BY IDOCK:   -3.82 KCAL/MOL
REMARK 924 INTRA-LIGAND FREE ENERGY PREDICTED BY IDOCK:   -0.38 KCAL/MOL
REMARK 927      BINDING AFFINITY PREDICTED BY RF-SCORE:    0.00 PKD
ROOT
HETATM    1  O   UNL     1     -11.831  13.729  70.934  1.00  0.00    -0.497 OA 
HETATM    2  C   UNL     1     -11.996  14.953  70.215  1.00  0.00    -0.312 C  
HETATM    3  H   UNL     1     -12.395  13.728  71.697  1.00  0.00     0.000 HD 
ENDROOT
BRANCH   2   4
HETATM    4  C   UNL     1     -11.082  14.955  68.981  1.00  0.00    -0.250 C  
HETATM    5  C   UNL     1     -11.840  14.759  67.680  1.00  0.00    -0.319 C  
HETATM    6  C   UNL     1     -11.781  13.268  67.456  1.00  0.00    -0.410 C  
HETATM    7  C   UNL     1     -10.449  12.875  68.076  1.00  0.00    -0.230 C  
HETATM    8  O   UNL     1     -10.138  13.872  69.068  1.00  0.00    -0.152 OA 
BRANCH   7   9
HETATM    9  N   UNL     1     -10.461  11.557  68.684  1.00  0.00    -0.197 NA 
HETATM   10  C   UNL     1     -11.595  10.867  69.052  1.00  0.00    -0.316 A  
HETATM   11  N   UNL     1     -11.314   9.706  69.614  1.00  0.00    -0.137 NA 
HETATM   12  C   UNL     1      -9.937   9.621  69.589  1.00  0.00    -0.221 A  
HETATM   13  C   UNL     1      -9.419  10.751  69.016  1.00  0.00    -0.166 A  
HETATM   14  N   UNL     1      -8.103  10.937  68.848  1.00  0.00    -0.144 NA 
HETATM   15  C   UNL     1      -7.293   9.915  69.279  1.00  0.00    -0.084 C  
HETATM   16  N   UNL     1      -7.667   8.806  69.843  1.00  0.00    -0.077 N  
HETATM   17  H   UNL     1      -6.971   8.117  70.130  1.00  0.00     0.000 HD 
HETATM   18  C   UNL     1      -9.032   8.562  70.056  1.00  0.00    -0.142 C  
HETATM   19  O   UNL     1      -9.439   7.542  70.601  1.00  0.00    -0.164 OA 
ENDBRANCH   7   9
ENDBRANCH   2   4
TORSDOF 2
ENDMDL
MODEL      183
REMARK 921   NORMALIZED FREE ENERGY PREDICTED BY IDOCK:   -3.45 KCAL/MOL
REMARK 922        TOTAL FREE ENERGY PREDICTED BY IDOCK:   -4.16 KCAL/MOL
REMARK 923 INTER-LIGAND FREE ENERGY PREDICTED BY IDOCK:   -3.99 KCAL/MOL
REMARK 924 INTRA-LIGAND FREE ENERGY PREDICTED BY IDOCK:   -0.16 KCAL/MOL
REMARK 927      BINDING AFFINITY PREDICTED BY RF-SCORE:    0.00 PKD
ROOT
HETATM    1  O   UNL     1     -11.783  16.650  64.301  1.00  0.00    -0.938 OA 
HETATM    2  C   UNL     1     -11.137  15.379  64.222  1.00  0.00     0.048 C  
HETATM    3  H   UNL     1     -11.137  17.343  64.233  1.00  0.00     0.000 HD 
ENDROOT
BRANCH   2   4
HETATM    4  C   UNL     1     -12.182  14.259  64.334  1.00  0.00    -0.447 C  
HETATM    5  C   UNL     1     -13.035  14.364  65.585  1.00  0.00    -0.105 C  
HETATM    6  C   UNL     1     -12.310  13.494  66.582  1.00  0.00    -0.351 C  
HETATM    7  C   UNL     1     -11.680  12.417  65.713  1.00  0.00    -0.414 C  
HETATM    8  O   UNL     1     -11.525  12.980  64.396  1.00  0.00    -0.332 OA 
BRANCH   7   9
HETATM    9  N   UNL     1     -10.397  11.952  66.208  1.00  0.00    -0.218 NA 
HETATM   10  C   UNL     1     -10.068  10.633  66.429  1.00  0.00    -0.225 A  
HETATM   11  N   UNL     1      -8.848  10.497  66.914  1.00  0.00    -0.136 NA 
HETATM   12  C   UNL     1      -8.347  11.780  66.989  1.00  0.00    -0.172 A  
HETATM   13  C   UNL     1      -9.295  12.666  66.551  1.00  0.00    -0.228 A  
HETATM   14  N   UNL     1      -9.079  13.988  66.501  1.00  0.00    -0.200 NA 
HETATM   15  C   UNL     1      -7.836  14.408  66.908  1.00  0.00     0.212 C  
HETATM   16  N   UNL     1      -6.865  13.666  67.349  1.00  0.00    -0.287 N  
HETATM   17  H   UNL     1      -5.981  14.091  67.630  1.00  0.00     0.000 HD 
HETATM   18  C   UNL     1      -7.038  12.276  67.435  1.00  0.00    -0.151 C  
HETATM   19  O   UNL     1      -6.164  11.531  67.862  1.00  0.00    -0.049 OA 
ENDBRANCH   7   9
ENDBRANCH   2   4
TORSDOF 2
ENDMDL
MODEL      184
REMARK 921   NORMALIZED FREE ENERGY PREDICTED BY IDOCK:   -3.43 KCAL/MOL
REMARK 922        TOTAL FREE ENERGY PREDICTED BY IDOCK:   -4.13 KCAL/MOL
REMARK 923 INTER-LIGAND FREE ENERGY PREDICTED BY IDOCK:   -3.82 KCAL/MOL
REMARK 924 INTRA-LIGAND FREE ENERGY PREDICTED BY IDOCK:   -0.31 KCAL/MOL
REMARK 927      BINDING AFFINITY PREDICTED BY RF-SCORE:    0.00 PKD
ROOT
HETATM    1  O   UNL     1      -6.616   7.447  65.442  1.00  0.00    -0.044 OA 
HETATM    2  C   UNL     1      -6.853   8.795  65.034  1.00  0.00    -0.072 C  
HETATM    3  H   UNL     1      -5.732   7.367  65.782  1.00  0.00     0.000 HD 
ENDROOT
BRANCH   2   4
HETATM    4  C   UNL     1      -8.282   8.926  64.485  1.00  0.00    -0.166 C  
HETATM    5  C   UNL     1      -8.710  10.367  64.278  1.00  0.00    -0.206 C  
HETATM    6  C   UNL     1      -9.404  10.720  65.571  1.00  0.00    -0.242 C  
HETATM    7  C   UNL     1     -10.010   9.397  66.014  1.00  0.00    -0.281 C  
HETATM    8  O   UNL     1      -9.219   8.352  65.416  1.00  0.00    -0.074 OA 
BRANCH   7   9
HETATM    9  N   UNL     1     -10.044   9.230  67.456  1.00  0.00    -0.203 NA 
HETATM   10  C   UNL     1      -9.283   8.326  68.164  1.00  0.00    -0.134 A  
HETATM   11  N   UNL     1      -9.539   8.363  69.458  1.00  0.00    -0.169 NA 
HETATM   12  C   UNL     1     -10.490   9.352  69.607  1.00  0.00    -0.223 A  
HETATM   13  C   UNL     1     -10.793   9.883  68.381  1.00  0.00    -0.221 A  
HETATM   14  N   UNL     1     -11.680  10.875  68.223  1.00  0.00    -0.520 NA 
HETATM   15  C   UNL     1     -12.269  11.342  69.373  1.00  0.00    -0.247 C  
HETATM   16  N   UNL     1     -12.070  10.913  70.584  1.00  0.00    -0.342 N  
HETATM   17  H   UNL     1     -12.571  11.334  71.366  1.00  0.00     0.000 HD 
HETATM   18  C   UNL     1     -11.161   9.867  70.808  1.00  0.00    -0.353 C  
HETATM   19  O   UNL     1     -10.949   9.411  71.925  1.00  0.00    -0.325 OA 
ENDBRANCH   7   9
ENDBRANCH   2   4
TORSDOF 2
ENDMDL
MODEL      185
REMARK 921   NORMALIZED FREE ENERGY PREDICTED BY IDOCK:   -3.43 KCAL/MOL
REMARK 922        TOTAL FREE ENERGY PREDICTED BY IDOCK:   -4.12 KCAL/MOL
REMARK 923 INTER-LIGAND FREE ENERGY PREDICTED BY IDOCK:   -3.74 KCAL/MOL
REMARK 924 INTRA-LIGAND FREE ENERGY PREDICTED BY IDOCK:   -0.38 KCAL/MOL
REMARK 927      BINDING AFFINITY PREDICTED BY RF-SCORE:    0.00 PKD
ROOT
HETATM    1  O   UNL     1     -13.434   9.754  70.624  1.00  0.00    -0.619 OA 
HETATM    2  C   UNL     1     -12.914   9.482  71.926  1.00  0.00    -0.425 C  
HETATM    3  H   UNL     1     -13.908  10.577  70.634  1.00  0.00     0.000 HD 
ENDROOT
BRANCH   2   4
HETATM    4  C   UNL     1     -12.148   8.151  71.910  1.00  0.00    -0.323 C  
HETATM    5  C   UNL     1     -11.009   8.108  72.912  1.00  0.00    -0.307 C  
HETATM    6  C   UNL     1      -9.813   8.560  72.110  1.00  0.00    -0.388 C  
HETATM    7  C   UNL     1     -10.124   8.061  70.708  1.00  0.00    -0.192 C  
HETATM    8  O   UNL     1     -11.557   7.942  70.613  1.00  0.00    -0.275 OA 
BRANCH   7   9
HETATM    9  N   UNL     1      -9.628   8.934  69.660  1.00  0.00    -0.166 NA 
HETATM   10  C   UNL     1     -10.305  10.020  69.151  1.00  0.00    -0.216 A  
HETATM   11  N   UNL     1      -9.637  10.616  68.181  1.00  0.00    -0.153 NA 
HETATM   12  C   UNL     1      -8.460   9.904  68.067  1.00  0.00    -0.117 A  
HETATM   13  C   UNL     1      -8.456   8.880  68.976  1.00  0.00    -0.133 A  
HETATM   14  N   UNL     1      -7.428   8.029  69.100  1.00  0.00    -0.093 NA 
HETATM   15  C   UNL     1      -6.362   8.250  68.262  1.00  0.00    -0.051 C  
HETATM   16  N   UNL     1      -6.257   9.178  67.359  1.00  0.00    -0.057 N  
HETATM   17  H   UNL     1      -5.415   9.243  66.787  1.00  0.00     0.000 HD 
HETATM   18  C   UNL     1      -7.307  10.090  67.175  1.00  0.00    -0.091 C  
HETATM   19  O   UNL     1      -7.269  10.972  66.326  1.00  0.00    -0.138 OA 
ENDBRANCH   7   9
ENDBRANCH   2   4
TORSDOF 2
ENDMDL
MODEL      186
REMARK 921   NORMALIZED FREE ENERGY PREDICTED BY IDOCK:   -3.40 KCAL/MOL
REMARK 922        TOTAL FREE ENERGY PREDICTED BY IDOCK:   -4.09 KCAL/MOL
REMARK 923 INTER-LIGAND FREE ENERGY PREDICTED BY IDOCK:   -3.93 KCAL/MOL
REMARK 924 INTRA-LIGAND FREE ENERGY PREDICTED BY IDOCK:   -0.17 KCAL/MOL
REMARK 927      BINDING AFFINITY PREDICTED BY RF-SCORE:    0.00 PKD
ROOT
HETATM    1  O   UNL     1     -12.320  10.013  71.416  1.00  0.00    -0.355 OA 
HETATM    2  C   UNL     1     -12.756  11.103  70.602  1.00  0.00    -0.263 C  
HETATM    3  H   UNL     1     -13.069   9.615  71.845  1.00  0.00     0.000 HD 
ENDROOT
BRANCH   2   4
HETATM    4  C   UNL     1     -11.546  11.747  69.909  1.00  0.00    -0.274 C  
HETATM    5  C   UNL     1     -11.866  12.274  68.522  1.00  0.00    -0.359 C  
HETATM    6  C   UNL     1     -11.504  11.124  67.614  1.00  0.00    -0.328 C  
HETATM    7  C   UNL     1     -10.354  10.450  68.345  1.00  0.00    -0.174 C  
HETATM    8  O   UNL     1     -10.500  10.771  69.742  1.00  0.00    -0.198 OA 
BRANCH   7   9
HETATM    9  N   UNL     1     -10.321   9.009  68.168  1.00  0.00    -0.208 NA 
HETATM   10  C   UNL     1     -10.513   8.357  66.970  1.00  0.00    -0.305 A  
HETATM   11  N   UNL     1     -10.465   7.045  67.102  1.00  0.00    -0.277 NA 
HETATM   12  C   UNL     1     -10.205   6.829  68.440  1.00  0.00    -0.178 A  
HETATM   13  C   UNL     1     -10.113   8.032  69.087  1.00  0.00    -0.201 A  
HETATM   14  N   UNL     1      -9.853   8.129  70.398  1.00  0.00    -0.186 NA 
HETATM   15  C   UNL     1      -9.673   6.940  71.063  1.00  0.00    -0.174 C  
HETATM   16  N   UNL     1      -9.745   5.744  70.560  1.00  0.00    -0.172 N  
HETATM   17  H   UNL     1      -9.597   4.928  71.154  1.00  0.00     0.000 HD 
HETATM   18  C   UNL     1     -10.027   5.581  69.195  1.00  0.00    -0.190 C  
HETATM   19  O   UNL     1     -10.126   4.477  68.673  1.00  0.00    -0.086 OA 
ENDBRANCH   7   9
ENDBRANCH   2   4
TORSDOF 2
ENDMDL
MODEL      187
REMARK 921   NORMALIZED FREE ENERGY PREDICTED BY IDOCK:   -3.39 KCAL/MOL
REMARK 922        TOTAL FREE ENERGY PREDICTED BY IDOCK:   -4.09 KCAL/MOL
REMARK 923 INTER-LIGAND FREE ENERGY PREDICTED BY IDOCK:   -3.87 KCAL/MOL
REMARK 924 INTRA-LIGAND FREE ENERGY PREDICTED BY IDOCK:   -0.22 KCAL/MOL
REMARK 927      BINDING AFFINITY PREDICTED BY RF-SCORE:    0.00 PKD
ROOT
HETATM    1  O   UNL     1     -10.119   6.886  66.203  1.00  0.00    -0.426 OA 
HETATM    2  C   UNL     1     -11.109   6.484  67.150  1.00  0.00    -0.360 C  
HETATM    3  H   UNL     1     -10.538   7.141  65.390  1.00  0.00     0.000 HD 
ENDROOT
BRANCH   2   4
HETATM    4  C   UNL     1     -10.431   6.072  68.465  1.00  0.00    -0.234 C  
HETATM    5  C   UNL     1     -11.314   6.281  69.681  1.00  0.00    -0.492 C  
HETATM    6  C   UNL     1     -10.931   7.659  70.165  1.00  0.00    -0.255 C  
HETATM    7  C   UNL     1      -9.463   7.766  69.784  1.00  0.00    -0.160 C  
HETATM    8  O   UNL     1      -9.250   6.868  68.678  1.00  0.00    -0.132 OA 
BRANCH   7   9
HETATM    9  N   UNL     1      -9.059   9.111  69.416  1.00  0.00    -0.144 NA 
HETATM   10  C   UNL     1      -7.896   9.726  69.825  1.00  0.00    -0.156 A  
HETATM   11  N   UNL     1      -7.797  10.961  69.371  1.00  0.00    -0.093 NA 
HETATM   12  C   UNL     1      -8.932  11.155  68.610  1.00  0.00    -0.162 A  
HETATM   13  C   UNL     1      -9.699  10.020  68.636  1.00  0.00    -0.159 A  
HETATM   14  N   UNL     1     -10.857   9.917  67.971  1.00  0.00    -0.254 NA 
HETATM   15  C   UNL     1     -11.233  11.022  67.246  1.00  0.00    -0.258 C  
HETATM   16  N   UNL     1     -10.597  12.151  67.154  1.00  0.00    -0.222 N  
HETATM   17  H   UNL     1     -10.977  12.909  66.587  1.00  0.00     0.000 HD 
HETATM   18  C   UNL     1      -9.384  12.321  67.838  1.00  0.00    -0.190 C  
HETATM   19  O   UNL     1      -8.752  13.370  67.803  1.00  0.00    -0.172 OA 
ENDBRANCH   7   9
ENDBRANCH   2   4
TORSDOF 2
ENDMDL
MODEL      188
REMARK 921   NORMALIZED FREE ENERGY PREDICTED BY IDOCK:   -3.39 KCAL/MOL
REMARK 922        TOTAL FREE ENERGY PREDICTED BY IDOCK:   -4.08 KCAL/MOL
REMARK 923 INTER-LIGAND FREE ENERGY PREDICTED BY IDOCK:   -4.08 KCAL/MOL
REMARK 924 INTRA-LIGAND FREE ENERGY PREDICTED BY IDOCK:    0.00 KCAL/MOL
REMARK 927      BINDING AFFINITY PREDICTED BY RF-SCORE:    0.00 PKD
ROOT
HETATM    1  O   UNL     1      -8.076   8.686  73.378  1.00  0.00    -0.411 OA 
HETATM    2  C   UNL     1      -7.540   7.467  73.897  1.00  0.00    -0.125 C  
HETATM    3  H   UNL     1      -7.640   9.425  73.785  1.00  0.00     0.000 HD 
ENDROOT
BRANCH   2   4
HETATM    4  C   UNL     1      -8.245   6.272  73.239  1.00  0.00    -0.115 C  
HETATM    5  C   UNL     1      -7.537   5.778  71.991  1.00  0.00    -0.101 C  
HETATM    6  C   UNL     1      -8.225   6.524  70.874  1.00  0.00    -0.125 C  
HETATM    7  C   UNL     1      -9.643   6.698  71.392  1.00  0.00    -0.168 C  
HETATM    8  O   UNL     1      -9.573   6.650  72.830  1.00  0.00    -0.148 OA 
BRANCH   7   9
HETATM    9  N   UNL     1     -10.266   7.938  70.967  1.00  0.00    -0.196 NA 
HETATM   10  C   UNL     1     -10.779   8.895  71.815  1.00  0.00    -0.362 A  
HETATM   11  N   UNL     1     -11.319   9.906  71.159  1.00  0.00    -0.376 NA 
HETATM   12  C   UNL     1     -11.128   9.610  69.825  1.00  0.00    -0.217 A  
HETATM   13  C   UNL     1     -10.480   8.409  69.711  1.00  0.00    -0.220 A  
HETATM   14  N   UNL     1     -10.150   7.876  68.527  1.00  0.00    -0.192 NA 
HETATM   15  C   UNL     1     -10.494   8.614  67.421  1.00  0.00    -0.281 C  
HETATM   16  N   UNL     1     -11.115   9.755  67.404  1.00  0.00    -0.357 N  
HETATM   17  H   UNL     1     -11.324  10.212  66.516  1.00  0.00     0.000 HD 
HETATM   18  C   UNL     1     -11.496  10.355  68.613  1.00  0.00    -0.172 C  
HETATM   19  O   UNL     1     -12.100  11.420  68.656  1.00  0.00    -0.518 OA 
ENDBRANCH   7   9
ENDBRANCH   2   4
TORSDOF 2
ENDMDL
MODEL      189
REMARK 921   NORMALIZED FREE ENERGY PREDICTED BY IDOCK:   -3.38 KCAL/MOL
REMARK 922        TOTAL FREE ENERGY PREDICTED BY IDOCK:   -4.07 KCAL/MOL
REMARK 923 INTER-LIGAND FREE ENERGY PREDICTED BY IDOCK:   -3.77 KCAL/MOL
REMARK 924 INTRA-LIGAND FREE ENERGY PREDICTED BY IDOCK:   -0.30 KCAL/MOL
REMARK 927      BINDING AFFINITY PREDICTED BY RF-SCORE:    0.00 PKD
ROOT
HETATM    1  O   UNL     1     -12.184  14.892  68.525  1.00  0.00    -0.576 OA 
HETATM    2  C   UNL     1     -11.249  14.036  67.867  1.00  0.00    -0.273 C  
HETATM    3  H   UNL     1     -11.791  15.745  68.667  1.00  0.00     0.000 HD 
ENDROOT
BRANCH   2   4
HETATM    4  C   UNL     1     -11.884  12.656  67.638  1.00  0.00    -0.329 C  
HETATM    5  C   UNL     1     -11.853  11.774  68.872  1.00  0.00    -0.381 C  
HETATM    6  C   UNL     1     -10.580  10.979  68.708  1.00  0.00    -0.232 C  
HETATM    7  C   UNL     1     -10.447  10.842  67.200  1.00  0.00    -0.237 C  
HETATM    8  O   UNL     1     -11.160  11.948  66.614  1.00  0.00    -0.280 OA 
BRANCH   7   9
HETATM    9  N   UNL     1      -9.070  10.839  66.739  1.00  0.00    -0.152 NA 
HETATM   10  C   UNL     1      -8.013  11.414  67.409  1.00  0.00    -0.139 A  
HETATM   11  N   UNL     1      -6.877  11.294  66.746  1.00  0.00    -0.135 NA 
HETATM   12  C   UNL     1      -7.201  10.588  65.605  1.00  0.00    -0.124 A  
HETATM   13  C   UNL     1      -8.542  10.308  65.607  1.00  0.00    -0.161 A  
HETATM   14  N   UNL     1      -9.136   9.618  64.623  1.00  0.00    -0.235 NA 
HETATM   15  C   UNL     1      -8.314   9.195  63.607  1.00  0.00    -0.187 C  
HETATM   16  N   UNL     1      -7.038   9.408  63.493  1.00  0.00    -0.095 N  
HETATM   17  H   UNL     1      -6.528   9.048  62.686  1.00  0.00     0.000 HD 
HETATM   18  C   UNL     1      -6.364  10.134  64.486  1.00  0.00    -0.129 C  
HETATM   19  O   UNL     1      -5.166  10.381  64.420  1.00  0.00    -0.109 OA 
ENDBRANCH   7   9
ENDBRANCH   2   4
TORSDOF 2
ENDMDL
MODEL      190
REMARK 921   NORMALIZED FREE ENERGY PREDICTED BY IDOCK:   -3.35 KCAL/MOL
REMARK 922        TOTAL FREE ENERGY PREDICTED BY IDOCK:   -4.04 KCAL/MOL
REMARK 923 INTER-LIGAND FREE ENERGY PREDICTED BY IDOCK:   -4.16 KCAL/MOL
REMARK 924 INTRA-LIGAND FREE ENERGY PREDICTED BY IDOCK:    0.12 KCAL/MOL
REMARK 927      BINDING AFFINITY PREDICTED BY RF-SCORE:    0.00 PKD
ROOT
HETATM    1  O   UNL     1      -8.942   8.716  64.864  1.00  0.00    -0.401 OA 
HETATM    2  C   UNL     1      -7.628   9.253  64.708  1.00  0.00    -0.109 C  
HETATM    3  H   UNL     1      -9.276   8.435  64.021  1.00  0.00     0.000 HD 
ENDROOT
BRANCH   2   4
HETATM    4  C   UNL     1      -7.089   9.708  66.072  1.00  0.00    -0.097 C  
HETATM    5  C   UNL     1      -7.476   8.775  67.205  1.00  0.00    -0.089 C  
HETATM    6  C   UNL     1      -8.748   9.382  67.746  1.00  0.00    -0.116 C  
HETATM    7  C   UNL     1      -8.555  10.870  67.503  1.00  0.00    -0.127 C  
HETATM    8  O   UNL     1      -7.630  11.000  66.407  1.00  0.00    -0.143 OA 
BRANCH   7   9
HETATM    9  N   UNL     1      -9.789  11.571  67.197  1.00  0.00    -0.190 NA 
HETATM   10  C   UNL     1     -11.051  11.031  67.308  1.00  0.00    -0.294 A  
HETATM   11  N   UNL     1     -11.991  11.877  66.931  1.00  0.00    -0.591 NA 
HETATM   12  C   UNL     1     -11.317  13.030  66.582  1.00  0.00    -0.325 A  
HETATM   13  C   UNL     1      -9.971  12.840  66.751  1.00  0.00    -0.237 A  
HETATM   14  N   UNL     1      -9.070  13.800  66.500  1.00  0.00    -0.185 NA 
HETATM   15  C   UNL     1      -9.578  15.001  66.069  1.00  0.00    -0.325 C  
HETATM   16  N   UNL     1     -10.827  15.294  65.865  1.00  0.00    -0.335 N  
HETATM   17  H   UNL     1     -11.089  16.224  65.536  1.00  0.00     0.000 HD 
HETATM   18  C   UNL     1     -11.814  14.325  66.098  1.00  0.00    -0.402 C  
HETATM   19  O   UNL     1     -13.005  14.540  65.904  1.00  0.00    -0.198 OA 
ENDBRANCH   7   9
ENDBRANCH   2   4
TORSDOF 2
ENDMDL
MODEL      191
REMARK 921   NORMALIZED FREE ENERGY PREDICTED BY IDOCK:   -3.33 KCAL/MOL
REMARK 922        TOTAL FREE ENERGY PREDICTED BY IDOCK:   -4.02 KCAL/MOL
REMARK 923 INTER-LIGAND FREE ENERGY PREDICTED BY IDOCK:   -4.07 KCAL/MOL
REMARK 924 INTRA-LIGAND FREE ENERGY PREDICTED BY IDOCK:    0.06 KCAL/MOL
REMARK 927      BINDING AFFINITY PREDICTED BY RF-SCORE:    0.00 PKD
ROOT
HETATM    1  O   UNL     1     -11.630  11.076  70.947  1.00  0.00    -0.356 OA 
HETATM    2  C   UNL     1     -11.700   9.795  70.318  1.00  0.00    -0.190 C  
HETATM    3  H   UNL     1     -11.463  11.745  70.294  1.00  0.00     0.000 HD 
ENDROOT
BRANCH   2   4
HETATM    4  C   UNL     1     -11.970   8.713  71.374  1.00  0.00    -0.304 C  
HETATM    5  C   UNL     1     -10.837   8.560  72.371  1.00  0.00    -0.378 C  
HETATM    6  C   UNL     1      -9.986   7.464  71.776  1.00  0.00    -0.192 C  
HETATM    7  C   UNL     1     -10.999   6.592  71.050  1.00  0.00    -0.259 C  
HETATM    8  O   UNL     1     -12.125   7.432  70.734  1.00  0.00    -0.280 OA 
BRANCH   7   9
HETATM    9  N   UNL     1     -10.476   5.986  69.838  1.00  0.00    -0.224 NA 
HETATM   10  C   UNL     1     -10.027   4.688  69.736  1.00  0.00    -0.225 A  
HETATM   11  N   UNL     1      -9.573   4.411  68.528  1.00  0.00    -0.154 NA 
HETATM   12  C   UNL     1      -9.757   5.569  67.801  1.00  0.00    -0.130 A  
HETATM   13  C   UNL     1     -10.314   6.529  68.604  1.00  0.00    -0.191 A  
HETATM   14  N   UNL     1     -10.617   7.756  68.159  1.00  0.00    -0.166 NA 
HETATM   15  C   UNL     1     -10.344   7.998  66.835  1.00  0.00    -0.338 C  
HETATM   16  N   UNL     1      -9.811   7.174  65.983  1.00  0.00    -0.392 N  
HETATM   17  H   UNL     1      -9.648   7.467  65.020  1.00  0.00     0.000 HD 
HETATM   18  C   UNL     1      -9.462   5.879  66.395  1.00  0.00    -0.155 C  
HETATM   19  O   UNL     1      -8.939   5.069  65.640  1.00  0.00    -0.140 OA 
ENDBRANCH   7   9
ENDBRANCH   2   4
TORSDOF 2
ENDMDL
MODEL      192
REMARK 921   NORMALIZED FREE ENERGY PREDICTED BY IDOCK:   -3.33 KCAL/MOL
REMARK 922        TOTAL FREE ENERGY PREDICTED BY IDOCK:   -4.01 KCAL/MOL
REMARK 923 INTER-LIGAND FREE ENERGY PREDICTED BY IDOCK:   -3.91 KCAL/MOL
REMARK 924 INTRA-LIGAND FREE ENERGY PREDICTED BY IDOCK:   -0.10 KCAL/MOL
REMARK 927      BINDING AFFINITY PREDICTED BY RF-SCORE:    0.00 PKD
ROOT
HETATM    1  O   UNL     1     -12.505  15.509  68.841  1.00  0.00    -0.590 OA 
HETATM    2  C   UNL     1     -11.641  14.398  68.596  1.00  0.00    -0.314 C  
HETATM    3  H   UNL     1     -12.778  15.507  69.750  1.00  0.00     0.000 HD 
ENDROOT
BRANCH   2   4
HETATM    4  C   UNL     1     -11.198  14.401  67.125  1.00  0.00    -0.328 C  
HETATM    5  C   UNL     1     -12.288  13.937  66.176  1.00  0.00    -0.504 C  
HETATM    6  C   UNL     1     -12.026  12.458  66.029  1.00  0.00    -0.419 C  
HETATM    7  C   UNL     1     -10.516  12.355  66.178  1.00  0.00    -0.248 C  
HETATM    8  O   UNL     1     -10.091  13.498  66.945  1.00  0.00    -0.247 OA 
BRANCH   7   9
HETATM    9  N   UNL     1     -10.081  11.132  66.826  1.00  0.00    -0.211 NA 
HETATM   10  C   UNL     1     -10.856  10.005  66.986  1.00  0.00    -0.126 A  
HETATM   11  N   UNL     1     -10.221   9.051  67.642  1.00  0.00    -0.226 NA 
HETATM   12  C   UNL     1      -8.968   9.567  67.901  1.00  0.00    -0.123 A  
HETATM   13  C   UNL     1      -8.884  10.837  67.396  1.00  0.00    -0.129 A  
HETATM   14  N   UNL     1      -7.772  11.579  67.491  1.00  0.00    -0.125 NA 
HETATM   15  C   UNL     1      -6.706  10.984  68.120  1.00  0.00    -0.062 C  
HETATM   16  N   UNL     1      -6.670   9.796  68.644  1.00  0.00    -0.051 N  
HETATM   17  H   UNL     1      -5.819   9.459  69.095  1.00  0.00     0.000 HD 
HETATM   18  C   UNL     1      -7.809   8.978  68.586  1.00  0.00    -0.101 C  
HETATM   19  O   UNL     1      -7.838   7.857  69.080  1.00  0.00    -0.105 OA 
ENDBRANCH   7   9
ENDBRANCH   2   4
TORSDOF 2
ENDMDL
MODEL      193
REMARK 921   NORMALIZED FREE ENERGY PREDICTED BY IDOCK:   -3.31 KCAL/MOL
REMARK 922        TOTAL FREE ENERGY PREDICTED BY IDOCK:   -4.00 KCAL/MOL
REMARK 923 INTER-LIGAND FREE ENERGY PREDICTED BY IDOCK:   -3.67 KCAL/MOL
REMARK 924 INTRA-LIGAND FREE ENERGY PREDICTED BY IDOCK:   -0.33 KCAL/MOL
REMARK 927      BINDING AFFINITY PREDICTED BY RF-SCORE:    0.00 PKD
ROOT
HETATM    1  O   UNL     1      -9.704   6.176  73.050  1.00  0.00    -0.157 OA 
HETATM    2  C   UNL     1     -10.793   6.854  72.423  1.00  0.00    -0.235 C  
HETATM    3  H   UNL     1      -9.504   6.591  73.881  1.00  0.00     0.000 HD 
ENDROOT
BRANCH   2   4
HETATM    4  C   UNL     1     -11.116   6.183  71.079  1.00  0.00    -0.297 C  
HETATM    5  C   UNL     1      -9.906   5.533  70.434  1.00  0.00    -0.259 C  
HETATM    6  C   UNL     1      -9.368   6.609  69.523  1.00  0.00    -0.145 C  
HETATM    7  C   UNL     1     -10.616   7.371  69.108  1.00  0.00    -0.204 C  
HETATM    8  O   UNL     1     -11.596   7.167  70.143  1.00  0.00    -0.249 OA 
BRANCH   7   9
HETATM    9  N   UNL     1     -10.389   8.791  68.913  1.00  0.00    -0.211 NA 
HETATM   10  C   UNL     1     -10.269   9.717  69.925  1.00  0.00    -0.254 A  
HETATM   11  N   UNL     1     -10.101  10.943  69.463  1.00  0.00    -0.098 NA 
HETATM   12  C   UNL     1     -10.085  10.809  68.090  1.00  0.00    -0.164 A  
HETATM   13  C   UNL     1     -10.256   9.492  67.757  1.00  0.00    -0.216 A  
HETATM   14  N   UNL     1     -10.269   9.064  66.487  1.00  0.00    -0.273 NA 
HETATM   15  C   UNL     1     -10.090  10.030  65.527  1.00  0.00    -0.255 C  
HETATM   16  N   UNL     1      -9.928  11.305  65.721  1.00  0.00    -0.227 N  
HETATM   17  H   UNL     1      -9.809  11.933  64.926  1.00  0.00     0.000 HD 
HETATM   18  C   UNL     1      -9.919  11.812  67.029  1.00  0.00    -0.204 C  
HETATM   19  O   UNL     1      -9.790  13.007  67.269  1.00  0.00    -0.219 OA 
ENDBRANCH   7   9
ENDBRANCH   2   4
TORSDOF 2
ENDMDL
MODEL      194
REMARK 921   NORMALIZED FREE ENERGY PREDICTED BY IDOCK:   -3.30 KCAL/MOL
REMARK 922        TOTAL FREE ENERGY PREDICTED BY IDOCK:   -3.98 KCAL/MOL
REMARK 923 INTER-LIGAND FREE ENERGY PREDICTED BY IDOCK:   -3.94 KCAL/MOL
REMARK 924 INTRA-LIGAND FREE ENERGY PREDICTED BY IDOCK:   -0.04 KCAL/MOL
REMARK 927      BINDING AFFINITY PREDICTED BY RF-SCORE:    0.00 PKD
ROOT
HETATM    1  O   UNL     1      -6.483  13.766  67.778  1.00  0.00    -0.150 OA 
HETATM    2  C   UNL     1      -7.759  14.297  68.140  1.00  0.00    -0.141 C  
HETATM    3  H   UNL     1      -5.857  13.939  68.471  1.00  0.00     0.000 HD 
ENDROOT
BRANCH   2   4
HETATM    4  C   UNL     1      -8.772  14.018  67.020  1.00  0.00    -0.203 C  
HETATM    5  C   UNL     1      -9.907  15.025  66.980  1.00  0.00    -0.241 C  
HETATM    6  C   UNL     1     -10.982  14.382  67.822  1.00  0.00    -0.283 C  
HETATM    7  C   UNL     1     -10.762  12.895  67.592  1.00  0.00    -0.223 C  
HETATM    8  O   UNL     1      -9.381  12.728  67.221  1.00  0.00    -0.187 OA 
BRANCH   7   9
HETATM    9  N   UNL     1     -11.066  12.080  68.754  1.00  0.00    -0.234 NA 
HETATM   10  C   UNL     1     -11.907  12.451  69.780  1.00  0.00    -0.317 A  
HETATM   11  N   UNL     1     -11.975  11.532  70.727  1.00  0.00    -0.302 NA 
HETATM   12  C   UNL     1     -11.164  10.506  70.288  1.00  0.00    -0.313 A  
HETATM   13  C   UNL     1     -10.614  10.842  69.080  1.00  0.00    -0.222 A  
HETATM   14  N   UNL     1      -9.791  10.024  68.409  1.00  0.00    -0.151 NA 
HETATM   15  C   UNL     1      -9.535   8.812  69.003  1.00  0.00    -0.160 C  
HETATM   16  N   UNL     1      -9.989   8.389  70.145  1.00  0.00    -0.185 N  
HETATM   17  H   UNL     1      -9.724   7.467  70.492  1.00  0.00     0.000 HD 
HETATM   18  C   UNL     1     -10.844   9.207  70.897  1.00  0.00    -0.278 C  
HETATM   19  O   UNL     1     -11.286   8.867  71.988  1.00  0.00    -0.353 OA 
ENDBRANCH   7   9
ENDBRANCH   2   4
TORSDOF 2
ENDMDL
MODEL      195
REMARK 921   NORMALIZED FREE ENERGY PREDICTED BY IDOCK:   -3.30 KCAL/MOL
REMARK 922        TOTAL FREE ENERGY PREDICTED BY IDOCK:   -3.98 KCAL/MOL
REMARK 923 INTER-LIGAND FREE ENERGY PREDICTED BY IDOCK:   -3.67 KCAL/MOL
REMARK 924 INTRA-LIGAND FREE ENERGY PREDICTED BY IDOCK:   -0.31 KCAL/MOL
REMARK 927      BINDING AFFINITY PREDICTED BY RF-SCORE:    0.00 PKD
ROOT
HETATM    1  O   UNL     1      -6.553   7.533  70.212  1.00  0.00    -0.038 OA 
HETATM    2  C   UNL     1      -7.333   8.728  70.135  1.00  0.00    -0.055 C  
HETATM    3  H   UNL     1      -5.665   7.712  69.928  1.00  0.00     0.000 HD 
ENDROOT
BRANCH   2   4
HETATM    4  C   UNL     1      -8.770   8.439  70.593  1.00  0.00    -0.146 C  
HETATM    5  C   UNL     1      -9.481   7.426  69.716  1.00  0.00    -0.159 C  
HETATM    6  C   UNL     1     -10.204   8.279  68.703  1.00  0.00    -0.223 C  
HETATM    7  C   UNL     1     -10.524   9.547  69.479  1.00  0.00    -0.220 C  
HETATM    8  O   UNL     1      -9.553   9.646  70.538  1.00  0.00    -0.258 OA 
BRANCH   7   9
HETATM    9  N   UNL     1     -10.494  10.748  68.664  1.00  0.00    -0.181 NA 
HETATM   10  C   UNL     1      -9.754  10.901  67.513  1.00  0.00    -0.167 A  
HETATM   11  N   UNL     1      -9.885  12.107  66.991  1.00  0.00    -0.201 NA 
HETATM   12  C   UNL     1     -10.769  12.762  67.823  1.00  0.00    -0.220 A  
HETATM   13  C   UNL     1     -11.143  11.927  68.842  1.00  0.00    -0.247 A  
HETATM   14  N   UNL     1     -12.008  12.295  69.796  1.00  0.00    -0.313 NA 
HETATM   15  C   UNL     1     -12.513  13.568  69.690  1.00  0.00    -0.054 C  
HETATM   16  N   UNL     1     -12.227  14.449  68.779  1.00  0.00    -0.567 N  
HETATM   17  H   UNL     1     -12.661  15.372  68.803  1.00  0.00     0.000 HD 
HETATM   18  C   UNL     1     -11.318  14.124  67.761  1.00  0.00    -0.306 C  
HETATM   19  O   UNL     1     -10.997  14.922  66.888  1.00  0.00    -0.313 OA 
ENDBRANCH   7   9
ENDBRANCH   2   4
TORSDOF 2
ENDMDL
MODEL      196
REMARK 921   NORMALIZED FREE ENERGY PREDICTED BY IDOCK:   -3.29 KCAL/MOL
REMARK 922        TOTAL FREE ENERGY PREDICTED BY IDOCK:   -3.97 KCAL/MOL
REMARK 923 INTER-LIGAND FREE ENERGY PREDICTED BY IDOCK:   -3.67 KCAL/MOL
REMARK 924 INTRA-LIGAND FREE ENERGY PREDICTED BY IDOCK:   -0.30 KCAL/MOL
REMARK 927      BINDING AFFINITY PREDICTED BY RF-SCORE:    0.00 PKD
ROOT
HETATM    1  O   UNL     1     -10.766   5.304  69.936  1.00  0.00    -0.291 OA 
HETATM    2  C   UNL     1     -10.679   6.729  69.912  1.00  0.00    -0.250 C  
HETATM    3  H   UNL     1     -11.670   5.037  69.816  1.00  0.00     0.000 HD 
ENDROOT
BRANCH   2   4
HETATM    4  C   UNL     1      -9.218   7.162  70.106  1.00  0.00    -0.155 C  
HETATM    5  C   UNL     1      -9.024   8.084  71.296  1.00  0.00    -0.166 C  
HETATM    6  C   UNL     1      -9.129   9.465  70.696  1.00  0.00    -0.292 C  
HETATM    7  C   UNL     1      -8.579   9.277  69.291  1.00  0.00    -0.139 C  
HETATM    8  O   UNL     1      -8.765   7.890  68.949  1.00  0.00    -0.134 OA 
BRANCH   7   9
HETATM    9  N   UNL     1      -9.221  10.123  68.301  1.00  0.00    -0.128 NA 
HETATM   10  C   UNL     1     -10.348   9.784  67.585  1.00  0.00    -0.230 A  
HETATM   11  N   UNL     1     -10.696  10.725  66.728  1.00  0.00    -0.251 NA 
HETATM   12  C   UNL     1      -9.773  11.734  66.908  1.00  0.00    -0.198 A  
HETATM   13  C   UNL     1      -8.875  11.364  67.874  1.00  0.00    -0.149 A  
HETATM   14  N   UNL     1      -7.870  12.158  68.266  1.00  0.00    -0.145 NA 
HETATM   15  C   UNL     1      -7.794  13.382  67.646  1.00  0.00    -0.173 C  
HETATM   16  N   UNL     1      -8.578  13.836  66.715  1.00  0.00    -0.436 N  
HETATM   17  H   UNL     1      -8.422  14.764  66.321  1.00  0.00     0.000 HD 
HETATM   18  C   UNL     1      -9.641  13.043  66.255  1.00  0.00    -0.238 C  
HETATM   19  O   UNL     1     -10.399  13.413  65.366  1.00  0.00    -0.296 OA 
ENDBRANCH   7   9
ENDBRANCH   2   4
TORSDOF 2
ENDMDL
MODEL      197
REMARK 921   NORMALIZED FREE ENERGY PREDICTED BY IDOCK:   -3.28 KCAL/MOL
REMARK 922        TOTAL FREE ENERGY PREDICTED BY IDOCK:   -3.96 KCAL/MOL
REMARK 923 INTER-LIGAND FREE ENERGY PREDICTED BY IDOCK:   -4.01 KCAL/MOL
REMARK 924 INTRA-LIGAND FREE ENERGY PREDICTED BY IDOCK:    0.04 KCAL/MOL
REMARK 927      BINDING AFFINITY PREDICTED BY RF-SCORE:    0.00 PKD
ROOT
HETATM    1  O   UNL     1     -11.940  10.346  67.992  1.00  0.00    -0.706 OA 
HETATM    2  C   UNL     1     -12.156  11.526  68.768  1.00  0.00    -0.170 C  
HETATM    3  H   UNL     1     -12.469   9.636  68.336  1.00  0.00     0.000 HD 
ENDROOT
BRANCH   2   4
HETATM    4  C   UNL     1     -11.302  12.674  68.213  1.00  0.00    -0.295 C  
HETATM    5  C   UNL     1     -11.936  13.363  67.018  1.00  0.00    -0.429 C  
HETATM    6  C   UNL     1     -11.345  12.636  65.834  1.00  0.00    -0.373 C  
HETATM    7  C   UNL     1      -9.962  12.237  66.325  1.00  0.00    -0.232 C  
HETATM    8  O   UNL     1     -10.031  12.167  67.762  1.00  0.00    -0.190 OA 
BRANCH   7   9
HETATM    9  N   UNL     1      -9.502  10.969  65.788  1.00  0.00    -0.202 NA 
HETATM   10  C   UNL     1      -9.425  10.662  64.448  1.00  0.00    -0.269 A  
HETATM   11  N   UNL     1      -9.006   9.427  64.242  1.00  0.00    -0.200 NA 
HETATM   12  C   UNL     1      -8.774   8.913  65.501  1.00  0.00    -0.183 A  
HETATM   13  C   UNL     1      -9.074   9.860  66.443  1.00  0.00    -0.150 A  
HETATM   14  N   UNL     1      -8.931   9.641  67.758  1.00  0.00    -0.119 NA 
HETATM   15  C   UNL     1      -8.452   8.403  68.111  1.00  0.00    -0.132 C  
HETATM   16  N   UNL     1      -8.144   7.426  67.311  1.00  0.00    -0.111 N  
HETATM   17  H   UNL     1      -7.802   6.543  67.689  1.00  0.00     0.000 HD 
HETATM   18  C   UNL     1      -8.286   7.593  65.925  1.00  0.00    -0.133 C  
HETATM   19  O   UNL     1      -8.029   6.700  65.127  1.00  0.00    -0.112 OA 
ENDBRANCH   7   9
ENDBRANCH   2   4
TORSDOF 2
ENDMDL
MODEL      198
REMARK 921   NORMALIZED FREE ENERGY PREDICTED BY IDOCK:   -3.28 KCAL/MOL
REMARK 922        TOTAL FREE ENERGY PREDICTED BY IDOCK:   -3.96 KCAL/MOL
REMARK 923 INTER-LIGAND FREE ENERGY PREDICTED BY IDOCK:   -3.56 KCAL/MOL
REMARK 924 INTRA-LIGAND FREE ENERGY PREDICTED BY IDOCK:   -0.40 KCAL/MOL
REMARK 927      BINDING AFFINITY PREDICTED BY RF-SCORE:    0.00 PKD
ROOT
HETATM    1  O   UNL     1     -11.573   6.390  67.132  1.00  0.00    -0.708 OA 
HETATM    2  C   UNL     1     -10.538   7.320  66.810  1.00  0.00    -0.217 C  
HETATM    3  H   UNL     1     -11.741   5.827  66.386  1.00  0.00     0.000 HD 
ENDROOT
BRANCH   2   4
HETATM    4  C   UNL     1     -10.267   8.231  68.017  1.00  0.00    -0.214 C  
HETATM    5  C   UNL     1      -8.800   8.587  68.175  1.00  0.00    -0.142 C  
HETATM    6  C   UNL     1      -8.279   7.535  69.123  1.00  0.00    -0.131 C  
HETATM    7  C   UNL     1      -9.483   7.227  69.999  1.00  0.00    -0.161 C  
HETATM    8  O   UNL     1     -10.656   7.562  69.232  1.00  0.00    -0.223 OA 
BRANCH   7   9
HETATM    9  N   UNL     1      -9.548   5.841  70.425  1.00  0.00    -0.165 NA 
HETATM   10  C   UNL     1      -9.234   4.757  69.636  1.00  0.00    -0.122 A  
HETATM   11  N   UNL     1      -9.416   3.611  70.266  1.00  0.00    -0.176 NA 
HETATM   12  C   UNL     1      -9.843   3.961  71.530  1.00  0.00    -0.177 A  
HETATM   13  C   UNL     1      -9.919   5.325  71.625  1.00  0.00    -0.180 A  
HETATM   14  N   UNL     1     -10.295   5.950  72.749  1.00  0.00    -0.188 NA 
HETATM   15  C   UNL     1     -10.595   5.138  73.815  1.00  0.00    -0.283 C  
HETATM   16  N   UNL     1     -10.570   3.839  73.841  1.00  0.00    -0.195 N  
HETATM   17  H   UNL     1     -10.820   3.337  74.693  1.00  0.00     0.000 HD 
HETATM   18  C   UNL     1     -10.195   3.130  72.690  1.00  0.00    -0.154 C  
HETATM   19  O   UNL     1     -10.172   1.905  72.651  1.00  0.00    -0.122 OA 
ENDBRANCH   7   9
ENDBRANCH   2   4
TORSDOF 2
ENDMDL
MODEL      199
REMARK 921   NORMALIZED FREE ENERGY PREDICTED BY IDOCK:   -3.27 KCAL/MOL
REMARK 922        TOTAL FREE ENERGY PREDICTED BY IDOCK:   -3.95 KCAL/MOL
REMARK 923 INTER-LIGAND FREE ENERGY PREDICTED BY IDOCK:   -3.65 KCAL/MOL
REMARK 924 INTRA-LIGAND FREE ENERGY PREDICTED BY IDOCK:   -0.30 KCAL/MOL
REMARK 927      BINDING AFFINITY PREDICTED BY RF-SCORE:    0.00 PKD
ROOT
HETATM    1  O   UNL     1      -8.294   9.795  64.887  1.00  0.00    -0.131 OA 
HETATM    2  C   UNL     1      -8.862   9.350  66.119  1.00  0.00    -0.151 C  
HETATM    3  H   UNL     1      -8.987  10.034  64.283  1.00  0.00     0.000 HD 
ENDROOT
BRANCH   2   4
HETATM    4  C   UNL     1      -7.742   8.963  67.096  1.00  0.00    -0.095 C  
HETATM    5  C   UNL     1      -7.108   7.623  66.774  1.00  0.00    -0.083 C  
HETATM    6  C   UNL     1      -7.891   6.648  67.620  1.00  0.00    -0.111 C  
HETATM    7  C   UNL     1      -8.269   7.471  68.841  1.00  0.00    -0.128 C  
HETATM    8  O   UNL     1      -8.273   8.852  68.431  1.00  0.00    -0.114 OA 
BRANCH   7   9
HETATM    9  N   UNL     1      -9.561   7.117  69.400  1.00  0.00    -0.153 NA 
HETATM   10  C   UNL     1     -10.555   6.443  68.724  1.00  0.00    -0.251 A  
HETATM   11  N   UNL     1     -11.639   6.283  69.460  1.00  0.00    -0.346 NA 
HETATM   12  C   UNL     1     -11.333   6.855  70.678  1.00  0.00    -0.320 A  
HETATM   13  C   UNL     1     -10.060   7.359  70.639  1.00  0.00    -0.190 A  
HETATM   14  N   UNL     1      -9.490   7.961  71.692  1.00  0.00    -0.147 NA 
HETATM   15  C   UNL     1     -10.258   8.038  72.828  1.00  0.00    -0.319 C  
HETATM   16  N   UNL     1     -11.474   7.607  72.980  1.00  0.00    -0.609 N  
HETATM   17  H   UNL     1     -11.952   7.724  73.874  1.00  0.00     0.000 HD 
HETATM   18  C   UNL     1     -12.127   6.978  71.909  1.00  0.00    -0.323 C  
HETATM   19  O   UNL     1     -13.279   6.570  71.990  1.00  0.00    -0.179 OA 
ENDBRANCH   7   9
ENDBRANCH   2   4
TORSDOF 2
ENDMDL
MODEL      200
REMARK 921   NORMALIZED FREE ENERGY PREDICTED BY IDOCK:   -3.26 KCAL/MOL
REMARK 922        TOTAL FREE ENERGY PREDICTED BY IDOCK:   -3.93 KCAL/MOL
REMARK 923 INTER-LIGAND FREE ENERGY PREDICTED BY IDOCK:   -3.64 KCAL/MOL
REMARK 924 INTRA-LIGAND FREE ENERGY PREDICTED BY IDOCK:   -0.30 KCAL/MOL
REMARK 927      BINDING AFFINITY PREDICTED BY RF-SCORE:    0.00 PKD
ROOT
HETATM    1  O   UNL     1      -5.685  11.412  71.285  1.00  0.00    -0.370 OA 
HETATM    2  C   UNL     1      -6.118  10.635  70.168  1.00  0.00    -0.110 C  
HETATM    3  H   UNL     1      -5.766  12.336  71.082  1.00  0.00     0.000 HD 
ENDROOT
BRANCH   2   4
HETATM    4  C   UNL     1      -5.988   9.140  70.495  1.00  0.00    -0.040 C  
HETATM    5  C   UNL     1      -5.941   8.263  69.257  1.00  0.00    -0.038 C  
HETATM    6  C   UNL     1      -7.383   7.871  69.045  1.00  0.00    -0.088 C  
HETATM    7  C   UNL     1      -7.945   7.831  70.457  1.00  0.00    -0.098 C  
HETATM    8  O   UNL     1      -7.128   8.705  71.259  1.00  0.00    -0.070 OA 
BRANCH   7   9
HETATM    9  N   UNL     1      -9.336   8.238  70.538  1.00  0.00    -0.157 NA 
HETATM   10  C   UNL     1      -9.852   9.395  69.997  1.00  0.00    -0.221 A  
HETATM   11  N   UNL     1     -11.140   9.534  70.250  1.00  0.00    -0.257 NA 
HETATM   12  C   UNL     1     -11.488   8.407  70.966  1.00  0.00    -0.268 A  
HETATM   13  C   UNL     1     -10.383   7.615  71.136  1.00  0.00    -0.200 A  
HETATM   14  N   UNL     1     -10.428   6.444  71.787  1.00  0.00    -0.211 NA 
HETATM   15  C   UNL     1     -11.659   6.073  72.270  1.00  0.00    -0.307 C  
HETATM   16  N   UNL     1     -12.770   6.742  72.179  1.00  0.00    -0.555 N  
HETATM   17  H   UNL     1     -13.628   6.369  72.584  1.00  0.00     0.000 HD 
HETATM   18  C   UNL     1     -12.781   7.981  71.519  1.00  0.00    -0.307 C  
HETATM   19  O   UNL     1     -13.794   8.662  71.420  1.00  0.00    -0.340 OA 
ENDBRANCH   7   9
ENDBRANCH   2   4
TORSDOF 2
ENDMDL
MODEL      201
REMARK 921   NORMALIZED FREE ENERGY PREDICTED BY IDOCK:   -3.25 KCAL/MOL
REMARK 922        TOTAL FREE ENERGY PREDICTED BY IDOCK:   -3.93 KCAL/MOL
REMARK 923 INTER-LIGAND FREE ENERGY PREDICTED BY IDOCK:   -3.64 KCAL/MOL
REMARK 924 INTRA-LIGAND FREE ENERGY PREDICTED BY IDOCK:   -0.30 KCAL/MOL
REMARK 927      BINDING AFFINITY PREDICTED BY RF-SCORE:    0.00 PKD
ROOT
HETATM    1  O   UNL     1      -9.308   8.545  65.257  1.00  0.00    -0.429 OA 
HETATM    2  C   UNL     1      -9.570   8.370  66.650  1.00  0.00    -0.229 C  
HETATM    3  H   UNL     1      -9.335   9.469  65.040  1.00  0.00     0.000 HD 
ENDROOT
BRANCH   2   4
HETATM    4  C   UNL     1      -9.526   6.875  67.001  1.00  0.00    -0.151 C  
HETATM    5  C   UNL     1     -10.902   6.276  67.222  1.00  0.00    -0.457 C  
HETATM    6  C   UNL     1     -11.109   6.401  68.712  1.00  0.00    -0.404 C  
HETATM    7  C   UNL     1      -9.701   6.272  69.271  1.00  0.00    -0.136 C  
HETATM    8  O   UNL     1      -8.796   6.682  68.228  1.00  0.00    -0.125 OA 
BRANCH   7   9
HETATM    9  N   UNL     1      -9.478   7.071  70.463  1.00  0.00    -0.166 NA 
HETATM   10  C   UNL     1     -10.212   8.180  70.819  1.00  0.00    -0.194 A  
HETATM   11  N   UNL     1      -9.772   8.735  71.933  1.00  0.00    -0.309 NA 
HETATM   12  C   UNL     1      -8.719   7.939  72.337  1.00  0.00    -0.152 A  
HETATM   13  C   UNL     1      -8.546   6.920  71.438  1.00  0.00    -0.119 A  
HETATM   14  N   UNL     1      -7.600   5.983  71.585  1.00  0.00    -0.098 NA 
HETATM   15  C   UNL     1      -6.811   6.096  72.704  1.00  0.00    -0.074 C  
HETATM   16  N   UNL     1      -6.875   7.019  73.616  1.00  0.00    -0.070 N  
HETATM   17  H   UNL     1      -6.229   7.006  74.405  1.00  0.00     0.000 HD 
HETATM   18  C   UNL     1      -7.837   8.034  73.509  1.00  0.00    -0.180 C  
HETATM   19  O   UNL     1      -7.930   8.940  74.328  1.00  0.00    -0.342 OA 
ENDBRANCH   7   9
ENDBRANCH   2   4
TORSDOF 2
ENDMDL
MODEL      202
REMARK 921   NORMALIZED FREE ENERGY PREDICTED BY IDOCK:   -3.24 KCAL/MOL
REMARK 922        TOTAL FREE ENERGY PREDICTED BY IDOCK:   -3.91 KCAL/MOL
REMARK 923 INTER-LIGAND FREE ENERGY PREDICTED BY IDOCK:   -3.58 KCAL/MOL
REMARK 924 INTRA-LIGAND FREE ENERGY PREDICTED BY IDOCK:   -0.34 KCAL/MOL
REMARK 927      BINDING AFFINITY PREDICTED BY RF-SCORE:    0.00 PKD
ROOT
HETATM    1  O   UNL     1      -5.411  16.099  70.594  1.00  0.00    -0.172 OA 
HETATM    2  C   UNL     1      -5.134  14.886  69.893  1.00  0.00    -0.094 C  
HETATM    3  H   UNL     1      -4.625  16.630  70.639  1.00  0.00     0.000 HD 
ENDROOT
BRANCH   2   4
HETATM    4  C   UNL     1      -6.405  14.028  69.820  1.00  0.00    -0.134 C  
HETATM    5  C   UNL     1      -6.524  13.250  68.522  1.00  0.00    -0.085 C  
HETATM    6  C   UNL     1      -7.345  14.159  67.639  1.00  0.00    -0.191 C  
HETATM    7  C   UNL     1      -8.245  14.885  68.625  1.00  0.00    -0.157 C  
HETATM    8  O   UNL     1      -7.571  14.871  69.898  1.00  0.00    -0.130 OA 
BRANCH   7   9
HETATM    9  N   UNL     1      -8.544  16.251  68.237  1.00  0.00    -0.190 NA 
HETATM   10  C   UNL     1      -8.061  17.375  68.870  1.00  0.00    -0.183 A  
HETATM   11  N   UNL     1      -8.520  18.489  68.331  1.00  0.00    -0.321 NA 
HETATM   12  C   UNL     1      -9.319  18.077  67.284  1.00  0.00    -0.256 A  
HETATM   13  C   UNL     1      -9.328  16.708  67.227  1.00  0.00    -0.230 A  
HETATM   14  N   UNL     1     -10.013  16.029  66.297  1.00  0.00    -0.288 NA 
HETATM   15  C   UNL     1     -10.706  16.790  65.388  1.00  0.00    -0.189 C  
HETATM   16  N   UNL     1     -10.780  18.087  65.347  1.00  0.00    -0.095 N  
HETATM   17  H   UNL     1     -11.334  18.547  64.625  1.00  0.00     0.000 HD 
HETATM   18  C   UNL     1     -10.094  18.850  66.303  1.00  0.00    -0.414 C  
HETATM   19  O   UNL     1     -10.144  20.074  66.325  1.00  0.00    -0.449 OA 
ENDBRANCH   7   9
ENDBRANCH   2   4
TORSDOF 2
ENDMDL
MODEL      203
REMARK 921   NORMALIZED FREE ENERGY PREDICTED BY IDOCK:   -3.23 KCAL/MOL
REMARK 922        TOTAL FREE ENERGY PREDICTED BY IDOCK:   -3.91 KCAL/MOL
REMARK 923 INTER-LIGAND FREE ENERGY PREDICTED BY IDOCK:   -3.59 KCAL/MOL
REMARK 924 INTRA-LIGAND FREE ENERGY PREDICTED BY IDOCK:   -0.32 KCAL/MOL
REMARK 927      BINDING AFFINITY PREDICTED BY RF-SCORE:    0.00 PKD
ROOT
HETATM    1  O   UNL     1     -10.658   4.799  72.395  1.00  0.00    -0.206 OA 
HETATM    2  C   UNL     1     -11.657   5.768  72.713  1.00  0.00    -0.214 C  
HETATM    3  H   UNL     1     -11.049   3.934  72.368  1.00  0.00     0.000 HD 
ENDROOT
BRANCH   2   4
HETATM    4  C   UNL     1     -11.026   7.168  72.757  1.00  0.00    -0.307 C  
HETATM    5  C   UNL     1     -11.953   8.255  72.245  1.00  0.00    -0.448 C  
HETATM    6  C   UNL     1     -11.591   8.371  70.784  1.00  0.00    -0.252 C  
HETATM    7  C   UNL     1     -10.111   8.025  70.763  1.00  0.00    -0.192 C  
HETATM    8  O   UNL     1      -9.856   7.203  71.918  1.00  0.00    -0.161 OA 
BRANCH   7   9
HETATM    9  N   UNL     1      -9.697   7.329  69.558  1.00  0.00    -0.158 NA 
HETATM   10  C   UNL     1      -9.248   6.028  69.513  1.00  0.00    -0.136 A  
HETATM   11  N   UNL     1      -8.905   5.660  68.292  1.00  0.00    -0.109 NA 
HETATM   12  C   UNL     1      -9.165   6.759  67.500  1.00  0.00    -0.122 A  
HETATM   13  C   UNL     1      -9.654   7.776  68.276  1.00  0.00    -0.155 A  
HETATM   14  N   UNL     1     -10.007   8.965  67.769  1.00  0.00    -0.181 NA 
HETATM   15  C   UNL     1      -9.859   9.106  66.411  1.00  0.00    -0.280 C  
HETATM   16  N   UNL     1      -9.400   8.221  65.578  1.00  0.00    -0.420 N  
HETATM   17  H   UNL     1      -9.328   8.440  64.585  1.00  0.00     0.000 HD 
HETATM   18  C   UNL     1      -9.003   6.962  66.054  1.00  0.00    -0.105 C  
HETATM   19  O   UNL     1      -8.545   6.097  65.317  1.00  0.00    -0.143 OA 
ENDBRANCH   7   9
ENDBRANCH   2   4
TORSDOF 2
ENDMDL
MODEL      204
REMARK 921   NORMALIZED FREE ENERGY PREDICTED BY IDOCK:   -3.19 KCAL/MOL
REMARK 922        TOTAL FREE ENERGY PREDICTED BY IDOCK:   -3.86 KCAL/MOL
REMARK 923 INTER-LIGAND FREE ENERGY PREDICTED BY IDOCK:   -3.56 KCAL/MOL
REMARK 924 INTRA-LIGAND FREE ENERGY PREDICTED BY IDOCK:   -0.31 KCAL/MOL
REMARK 927      BINDING AFFINITY PREDICTED BY RF-SCORE:    0.00 PKD
ROOT
HETATM    1  O   UNL     1     -12.102  11.769  67.549  1.00  0.00    -0.599 OA 
HETATM    2  C   UNL     1     -11.804  11.002  68.717  1.00  0.00    -0.282 C  
HETATM    3  H   UNL     1     -13.038  11.760  67.391  1.00  0.00     0.000 HD 
ENDROOT
BRANCH   2   4
HETATM    4  C   UNL     1     -10.289  11.016  68.973  1.00  0.00    -0.209 C  
HETATM    5  C   UNL     1      -9.493  10.349  67.867  1.00  0.00    -0.150 C  
HETATM    6  C   UNL     1      -9.345   8.925  68.345  1.00  0.00    -0.140 C  
HETATM    7  C   UNL     1      -9.305   9.068  69.858  1.00  0.00    -0.173 C  
HETATM    8  O   UNL     1      -9.990  10.293  70.182  1.00  0.00    -0.185 OA 
BRANCH   7   9
HETATM    9  N   UNL     1      -9.918   7.955  70.560  1.00  0.00    -0.190 NA 
HETATM   10  C   UNL     1     -11.272   7.709  70.618  1.00  0.00    -0.266 A  
HETATM   11  N   UNL     1     -11.556   6.650  71.354  1.00  0.00    -0.298 NA 
HETATM   12  C   UNL     1     -10.334   6.168  71.774  1.00  0.00    -0.210 A  
HETATM   13  C   UNL     1      -9.334   6.965  71.283  1.00  0.00    -0.164 A  
HETATM   14  N   UNL     1      -8.038   6.727  71.522  1.00  0.00    -0.109 NA 
HETATM   15  C   UNL     1      -7.762   5.620  72.287  1.00  0.00    -0.102 C  
HETATM   16  N   UNL     1      -8.621   4.799  72.812  1.00  0.00    -0.114 N  
HETATM   17  H   UNL     1      -8.300   4.009  73.371  1.00  0.00     0.000 HD 
HETATM   18  C   UNL     1      -9.994   5.006  72.607  1.00  0.00    -0.166 C  
HETATM   19  O   UNL     1     -10.848   4.275  73.094  1.00  0.00    -0.200 OA 
ENDBRANCH   7   9
ENDBRANCH   2   4
TORSDOF 2
ENDMDL
MODEL      205
REMARK 921   NORMALIZED FREE ENERGY PREDICTED BY IDOCK:   -3.19 KCAL/MOL
REMARK 922        TOTAL FREE ENERGY PREDICTED BY IDOCK:   -3.86 KCAL/MOL
REMARK 923 INTER-LIGAND FREE ENERGY PREDICTED BY IDOCK:   -3.57 KCAL/MOL
REMARK 924 INTRA-LIGAND FREE ENERGY PREDICTED BY IDOCK:   -0.29 KCAL/MOL
REMARK 927      BINDING AFFINITY PREDICTED BY RF-SCORE:    0.00 PKD
ROOT
HETATM    1  O   UNL     1     -11.382   6.370  66.579  1.00  0.00    -0.702 OA 
HETATM    2  C   UNL     1     -10.223   5.613  66.930  1.00  0.00    -0.227 C  
HETATM    3  H   UNL     1     -12.147   5.997  67.000  1.00  0.00     0.000 HD 
ENDROOT
BRANCH   2   4
HETATM    4  C   UNL     1      -8.985   6.216  66.250  1.00  0.00    -0.154 C  
HETATM    5  C   UNL     1      -7.775   6.276  67.164  1.00  0.00    -0.097 C  
HETATM    6  C   UNL     1      -7.852   7.658  67.766  1.00  0.00    -0.120 C  
HETATM    7  C   UNL     1      -8.497   8.483  66.663  1.00  0.00    -0.113 C  
HETATM    8  O   UNL     1      -9.258   7.572  65.848  1.00  0.00    -0.104 OA 
BRANCH   7   9
HETATM    9  N   UNL     1      -9.357   9.542  67.160  1.00  0.00    -0.140 NA 
HETATM   10  C   UNL     1     -10.727   9.459  67.269  1.00  0.00    -0.188 A  
HETATM   11  N   UNL     1     -11.261  10.580  67.718  1.00  0.00    -0.343 NA 
HETATM   12  C   UNL     1     -10.192  11.424  67.937  1.00  0.00    -0.182 A  
HETATM   13  C   UNL     1      -9.029  10.784  67.599  1.00  0.00    -0.140 A  
HETATM   14  N   UNL     1      -7.826  11.361  67.721  1.00  0.00    -0.112 NA 
HETATM   15  C   UNL     1      -7.823  12.642  68.219  1.00  0.00    -0.144 C  
HETATM   16  N   UNL     1      -8.857  13.350  68.563  1.00  0.00    -0.333 N  
HETATM   17  H   UNL     1      -8.733  14.298  68.917  1.00  0.00     0.000 HD 
HETATM   18  C   UNL     1     -10.143  12.802  68.445  1.00  0.00    -0.226 C  
HETATM   19  O   UNL     1     -11.153  13.430  68.736  1.00  0.00    -0.243 OA 
ENDBRANCH   7   9
ENDBRANCH   2   4
TORSDOF 2
ENDMDL
MODEL      206
REMARK 921   NORMALIZED FREE ENERGY PREDICTED BY IDOCK:   -3.16 KCAL/MOL
REMARK 922        TOTAL FREE ENERGY PREDICTED BY IDOCK:   -3.83 KCAL/MOL
REMARK 923 INTER-LIGAND FREE ENERGY PREDICTED BY IDOCK:   -3.55 KCAL/MOL
REMARK 924 INTRA-LIGAND FREE ENERGY PREDICTED BY IDOCK:   -0.28 KCAL/MOL
REMARK 927      BINDING AFFINITY PREDICTED BY RF-SCORE:    0.00 PKD
ROOT
HETATM    1  O   UNL     1     -11.067   6.332  67.064  1.00  0.00    -0.509 OA 
HETATM    2  C   UNL     1      -9.838   6.862  66.565  1.00  0.00    -0.103 C  
HETATM    3  H   UNL     1     -11.223   5.476  66.685  1.00  0.00     0.000 HD 
ENDROOT
BRANCH   2   4
HETATM    4  C   UNL     1      -9.585   8.248  67.177  1.00  0.00    -0.180 C  
HETATM    5  C   UNL     1      -8.148   8.448  67.621  1.00  0.00    -0.118 C  
HETATM    6  C   UNL     1      -8.166   8.045  69.075  1.00  0.00    -0.128 C  
HETATM    7  C   UNL     1      -9.567   8.426  69.526  1.00  0.00    -0.170 C  
HETATM    8  O   UNL     1     -10.401   8.421  68.352  1.00  0.00    -0.206 OA 
BRANCH   7   9
HETATM    9  N   UNL     1     -10.115   7.532  70.529  1.00  0.00    -0.188 NA 
HETATM   10  C   UNL     1     -11.163   6.661  70.322  1.00  0.00    -0.353 A  
HETATM   11  N   UNL     1     -11.479   5.992  71.415  1.00  0.00    -0.248 NA 
HETATM   12  C   UNL     1     -10.584   6.424  72.371  1.00  0.00    -0.213 A  
HETATM   13  C   UNL     1      -9.748   7.362  71.825  1.00  0.00    -0.153 A  
HETATM   14  N   UNL     1      -8.766   7.948  72.523  1.00  0.00    -0.138 NA 
HETATM   15  C   UNL     1      -8.636   7.544  73.830  1.00  0.00    -0.208 C  
HETATM   16  N   UNL     1      -9.371   6.675  74.457  1.00  0.00    -0.218 N  
HETATM   17  H   UNL     1      -9.185   6.457  75.436  1.00  0.00     0.000 HD 
HETATM   18  C   UNL     1     -10.422   6.038  73.780  1.00  0.00    -0.275 C  
HETATM   19  O   UNL     1     -11.158   5.226  74.327  1.00  0.00    -0.143 OA 
ENDBRANCH   7   9
ENDBRANCH   2   4
TORSDOF 2
ENDMDL
MODEL      207
REMARK 921   NORMALIZED FREE ENERGY PREDICTED BY IDOCK:   -3.16 KCAL/MOL
REMARK 922        TOTAL FREE ENERGY PREDICTED BY IDOCK:   -3.83 KCAL/MOL
REMARK 923 INTER-LIGAND FREE ENERGY PREDICTED BY IDOCK:   -3.86 KCAL/MOL
REMARK 924 INTRA-LIGAND FREE ENERGY PREDICTED BY IDOCK:    0.03 KCAL/MOL
REMARK 927      BINDING AFFINITY PREDICTED BY RF-SCORE:    0.00 PKD
ROOT
HETATM    1  O   UNL     1     -10.434  16.204  65.686  1.00  0.00    -0.356 OA 
HETATM    2  C   UNL     1     -10.195  14.894  66.205  1.00  0.00    -0.300 C  
HETATM    3  H   UNL     1      -9.640  16.721  65.746  1.00  0.00     0.000 HD 
ENDROOT
BRANCH   2   4
HETATM    4  C   UNL     1     -11.480  14.058  66.109  1.00  0.00    -0.346 C  
HETATM    5  C   UNL     1     -12.247  13.995  67.417  1.00  0.00    -0.289 C  
HETATM    6  C   UNL     1     -11.731  12.737  68.072  1.00  0.00    -0.405 C  
HETATM    7  C   UNL     1     -11.407  11.837  66.891  1.00  0.00    -0.320 C  
HETATM    8  O   UNL     1     -11.154  12.698  65.764  1.00  0.00    -0.282 OA 
BRANCH   7   9
HETATM    9  N   UNL     1     -10.265  10.971  67.120  1.00  0.00    -0.199 NA 
HETATM   10  C   UNL     1      -9.285  10.694  66.192  1.00  0.00    -0.172 A  
HETATM   11  N   UNL     1      -8.383   9.848  66.655  1.00  0.00    -0.124 NA 
HETATM   12  C   UNL     1      -8.775   9.580  67.951  1.00  0.00    -0.119 A  
HETATM   13  C   UNL     1      -9.923  10.272  68.233  1.00  0.00    -0.147 A  
HETATM   14  N   UNL     1     -10.526  10.212  69.428  1.00  0.00    -0.217 NA 
HETATM   15  C   UNL     1      -9.917   9.417  70.368  1.00  0.00    -0.252 C  
HETATM   16  N   UNL     1      -8.837   8.710  70.214  1.00  0.00    -0.144 N  
HETATM   17  H   UNL     1      -8.478   8.149  70.986  1.00  0.00     0.000 HD 
HETATM   18  C   UNL     1      -8.170   8.724  68.980  1.00  0.00    -0.117 C  
HETATM   19  O   UNL     1      -7.160   8.062  68.773  1.00  0.00    -0.068 OA 
ENDBRANCH   7   9
ENDBRANCH   2   4
TORSDOF 2
ENDMDL
MODEL      208
REMARK 921   NORMALIZED FREE ENERGY PREDICTED BY IDOCK:   -3.14 KCAL/MOL
REMARK 922        TOTAL FREE ENERGY PREDICTED BY IDOCK:   -3.81 KCAL/MOL
REMARK 923 INTER-LIGAND FREE ENERGY PREDICTED BY IDOCK:   -3.98 KCAL/MOL
REMARK 924 INTRA-LIGAND FREE ENERGY PREDICTED BY IDOCK:    0.17 KCAL/MOL
REMARK 927      BINDING AFFINITY PREDICTED BY RF-SCORE:    0.00 PKD
ROOT
HETATM    1  O   UNL     1      -8.996  18.440  65.843  1.00  0.00    -0.484 OA 
HETATM    2  C   UNL     1      -9.868  19.128  66.741  1.00  0.00    -0.342 C  
HETATM    3  H   UNL     1      -9.482  18.164  65.075  1.00  0.00     0.000 HD 
ENDROOT
BRANCH   2   4
HETATM    4  C   UNL     1      -9.083  19.575  67.983  1.00  0.00    -0.326 C  
HETATM    5  C   UNL     1      -7.677  20.046  67.660  1.00  0.00    -0.329 C  
HETATM    6  C   UNL     1      -6.837  18.804  67.840  1.00  0.00    -0.226 C  
HETATM    7  C   UNL     1      -7.567  18.045  68.936  1.00  0.00    -0.218 C  
HETATM    8  O   UNL     1      -8.942  18.471  68.897  1.00  0.00    -0.273 OA 
BRANCH   7   9
HETATM    9  N   UNL     1      -7.489  16.603  68.791  1.00  0.00    -0.212 NA 
HETATM   10  C   UNL     1      -6.482  15.811  69.298  1.00  0.00    -0.154 A  
HETATM   11  N   UNL     1      -6.643  14.538  68.988  1.00  0.00    -0.094 NA 
HETATM   12  C   UNL     1      -7.820  14.491  68.268  1.00  0.00    -0.131 A  
HETATM   13  C   UNL     1      -8.336  15.754  68.154  1.00  0.00    -0.160 A  
HETATM   14  N   UNL     1      -9.486  16.008  67.514  1.00  0.00    -0.222 NA 
HETATM   15  C   UNL     1     -10.129  14.918  66.980  1.00  0.00    -0.244 C  
HETATM   16  N   UNL     1      -9.733  13.681  67.017  1.00  0.00    -0.244 N  
HETATM   17  H   UNL     1     -10.294  12.951  66.578  1.00  0.00     0.000 HD 
HETATM   18  C   UNL     1      -8.531  13.357  67.663  1.00  0.00    -0.187 C  
HETATM   19  O   UNL     1      -8.100  12.211  67.711  1.00  0.00    -0.132 OA 
ENDBRANCH   7   9
ENDBRANCH   2   4
TORSDOF 2
ENDMDL
MODEL      209
REMARK 921   NORMALIZED FREE ENERGY PREDICTED BY IDOCK:   -3.13 KCAL/MOL
REMARK 922        TOTAL FREE ENERGY PREDICTED BY IDOCK:   -3.79 KCAL/MOL
REMARK 923 INTER-LIGAND FREE ENERGY PREDICTED BY IDOCK:   -3.95 KCAL/MOL
REMARK 924 INTRA-LIGAND FREE ENERGY PREDICTED BY IDOCK:    0.15 KCAL/MOL
REMARK 927      BINDING AFFINITY PREDICTED BY RF-SCORE:    0.00 PKD
ROOT
HETATM    1  O   UNL     1      -6.499   7.947  69.642  1.00  0.00    -0.033 OA 
HETATM    2  C   UNL     1      -7.447   9.015  69.630  1.00  0.00    -0.076 C  
HETATM    3  H   UNL     1      -5.685   8.238  69.249  1.00  0.00     0.000 HD 
ENDROOT
BRANCH   2   4
HETATM    4  C   UNL     1      -8.765   8.545  70.263  1.00  0.00    -0.142 C  
HETATM    5  C   UNL     1      -9.390   7.371  69.533  1.00  0.00    -0.156 C  
HETATM    6  C   UNL     1     -10.340   8.024  68.559  1.00  0.00    -0.229 C  
HETATM    7  C   UNL     1     -10.779   9.283  69.291  1.00  0.00    -0.196 C  
HETATM    8  O   UNL     1      -9.734   9.610  70.226  1.00  0.00    -0.240 OA 
BRANCH   7   9
HETATM    9  N   UNL     1     -11.025  10.409  68.408  1.00  0.00    -0.247 NA 
HETATM   10  C   UNL     1     -11.807  11.499  68.719  1.00  0.00    -0.330 A  
HETATM   11  N   UNL     1     -11.887  12.358  67.719  1.00  0.00    -0.436 NA 
HETATM   12  C   UNL     1     -11.103  11.818  66.719  1.00  0.00    -0.306 A  
HETATM   13  C   UNL     1     -10.574  10.629  67.146  1.00  0.00    -0.260 A  
HETATM   14  N   UNL     1      -9.759   9.887  66.384  1.00  0.00    -0.198 NA 
HETATM   15  C   UNL     1      -9.473  10.396  65.140  1.00  0.00    -0.249 C  
HETATM   16  N   UNL     1      -9.920  11.502  64.626  1.00  0.00    -0.251 N  
HETATM   17  H   UNL     1      -9.643  11.778  63.684  1.00  0.00     0.000 HD 
HETATM   18  C   UNL     1     -10.787  12.313  65.373  1.00  0.00    -0.286 C  
HETATM   19  O   UNL     1     -11.255  13.356  64.930  1.00  0.00    -0.311 OA 
ENDBRANCH   7   9
ENDBRANCH   2   4
TORSDOF 2
ENDMDL
MODEL      210
REMARK 921   NORMALIZED FREE ENERGY PREDICTED BY IDOCK:   -3.12 KCAL/MOL
REMARK 922        TOTAL FREE ENERGY PREDICTED BY IDOCK:   -3.79 KCAL/MOL
REMARK 923 INTER-LIGAND FREE ENERGY PREDICTED BY IDOCK:   -3.66 KCAL/MOL
REMARK 924 INTRA-LIGAND FREE ENERGY PREDICTED BY IDOCK:   -0.12 KCAL/MOL
REMARK 927      BINDING AFFINITY PREDICTED BY RF-SCORE:    0.00 PKD
ROOT
HETATM    1  O   UNL     1     -10.376  10.115  63.816  1.00  0.00    -0.426 OA 
HETATM    2  C   UNL     1     -10.385  11.513  63.521  1.00  0.00    -0.433 C  
HETATM    3  H   UNL     1      -9.752   9.674  63.253  1.00  0.00     0.000 HD 
ENDROOT
BRANCH   2   4
HETATM    4  C   UNL     1     -11.396  12.227  64.432  1.00  0.00    -0.336 C  
HETATM    5  C   UNL     1     -11.252  13.738  64.409  1.00  0.00    -0.364 C  
HETATM    6  C   UNL     1     -10.329  14.024  65.568  1.00  0.00    -0.354 C  
HETATM    7  C   UNL     1     -10.662  12.920  66.560  1.00  0.00    -0.269 C  
HETATM    8  O   UNL     1     -11.196  11.820  65.799  1.00  0.00    -0.322 OA 
BRANCH   7   9
HETATM    9  N   UNL     1      -9.518  12.477  67.336  1.00  0.00    -0.180 NA 
HETATM   10  C   UNL     1      -8.751  13.288  68.144  1.00  0.00    -0.179 A  
HETATM   11  N   UNL     1      -7.753  12.632  68.706  1.00  0.00    -0.050 NA 
HETATM   12  C   UNL     1      -7.888  11.330  68.268  1.00  0.00    -0.130 A  
HETATM   13  C   UNL     1      -8.971  11.239  67.435  1.00  0.00    -0.144 A  
HETATM   14  N   UNL     1      -9.350  10.085  66.869  1.00  0.00    -0.156 NA 
HETATM   15  C   UNL     1      -8.590   8.985  67.181  1.00  0.00    -0.116 C  
HETATM   16  N   UNL     1      -7.541   8.951  67.948  1.00  0.00    -0.093 N  
HETATM   17  H   UNL     1      -7.049   8.071  68.104  1.00  0.00     0.000 HD 
HETATM   18  C   UNL     1      -7.089  10.131  68.557  1.00  0.00    -0.074 C  
HETATM   19  O   UNL     1      -6.095  10.161  69.273  1.00  0.00    -0.037 OA 
ENDBRANCH   7   9
ENDBRANCH   2   4
TORSDOF 2
ENDMDL
MODEL      211
REMARK 921   NORMALIZED FREE ENERGY PREDICTED BY IDOCK:   -3.12 KCAL/MOL
REMARK 922        TOTAL FREE ENERGY PREDICTED BY IDOCK:   -3.78 KCAL/MOL
REMARK 923 INTER-LIGAND FREE ENERGY PREDICTED BY IDOCK:   -3.48 KCAL/MOL
REMARK 924 INTRA-LIGAND FREE ENERGY PREDICTED BY IDOCK:   -0.30 KCAL/MOL
REMARK 927      BINDING AFFINITY PREDICTED BY RF-SCORE:    0.00 PKD
ROOT
HETATM    1  O   UNL     1      -8.028  14.351  67.706  1.00  0.00    -0.131 OA 
HETATM    2  C   UNL     1      -9.354  13.892  67.971  1.00  0.00    -0.204 C  
HETATM    3  H   UNL     1      -7.679  14.784  68.476  1.00  0.00     0.000 HD 
ENDROOT
BRANCH   2   4
HETATM    4  C   UNL     1      -9.918  13.193  66.726  1.00  0.00    -0.250 C  
HETATM    5  C   UNL     1     -11.428  13.045  66.760  1.00  0.00    -0.392 C  
HETATM    6  C   UNL     1     -11.638  11.676  67.360  1.00  0.00    -0.330 C  
HETATM    7  C   UNL     1     -10.421  10.897  66.885  1.00  0.00    -0.249 C  
HETATM    8  O   UNL     1      -9.382  11.860  66.626  1.00  0.00    -0.194 OA 
BRANCH   7   9
HETATM    9  N   UNL     1      -9.957   9.910  67.843  1.00  0.00    -0.154 NA 
HETATM   10  C   UNL     1      -9.417  10.200  69.076  1.00  0.00    -0.190 A  
HETATM   11  N   UNL     1      -9.046   9.113  69.727  1.00  0.00    -0.156 NA 
HETATM   12  C   UNL     1      -9.381   8.065  68.895  1.00  0.00    -0.150 A  
HETATM   13  C   UNL     1      -9.942   8.556  67.746  1.00  0.00    -0.190 A  
HETATM   14  N   UNL     1     -10.377   7.761  66.758  1.00  0.00    -0.304 NA 
HETATM   15  C   UNL     1     -10.236   6.411  66.969  1.00  0.00    -0.205 C  
HETATM   16  N   UNL     1      -9.714   5.832  68.009  1.00  0.00    -0.119 N  
HETATM   17  H   UNL     1      -9.656   4.814  68.053  1.00  0.00     0.000 HD 
HETATM   18  C   UNL     1      -9.230   6.614  69.068  1.00  0.00    -0.131 C  
HETATM   19  O   UNL     1      -8.711   6.122  70.063  1.00  0.00    -0.133 OA 
ENDBRANCH   7   9
ENDBRANCH   2   4
TORSDOF 2
ENDMDL
MODEL      212
REMARK 921   NORMALIZED FREE ENERGY PREDICTED BY IDOCK:   -3.12 KCAL/MOL
REMARK 922        TOTAL FREE ENERGY PREDICTED BY IDOCK:   -3.78 KCAL/MOL
REMARK 923 INTER-LIGAND FREE ENERGY PREDICTED BY IDOCK:   -3.43 KCAL/MOL
REMARK 924 INTRA-LIGAND FREE ENERGY PREDICTED BY IDOCK:   -0.35 KCAL/MOL
REMARK 927      BINDING AFFINITY PREDICTED BY RF-SCORE:    0.00 PKD
ROOT
HETATM    1  O   UNL     1      -8.537   6.318  70.379  1.00  0.00    -0.138 OA 
HETATM    2  C   UNL     1      -7.307   6.744  69.790  1.00  0.00    -0.089 C  
HETATM    3  H   UNL     1      -8.541   6.533  71.304  1.00  0.00     0.000 HD 
ENDROOT
BRANCH   2   4
HETATM    4  C   UNL     1      -7.302   6.397  68.294  1.00  0.00    -0.086 C  
HETATM    5  C   UNL     1      -6.175   7.070  67.532  1.00  0.00    -0.041 C  
HETATM    6  C   UNL     1      -6.805   8.341  67.016  1.00  0.00    -0.070 C  
HETATM    7  C   UNL     1      -8.257   7.947  66.801  1.00  0.00    -0.116 C  
HETATM    8  O   UNL     1      -8.528   6.842  67.683  1.00  0.00    -0.121 OA 
BRANCH   7   9
HETATM    9  N   UNL     1      -9.193   9.028  67.058  1.00  0.00    -0.132 NA 
HETATM   10  C   UNL     1      -9.688   9.365  68.298  1.00  0.00    -0.145 A  
HETATM   11  N   UNL     1     -10.548  10.365  68.238  1.00  0.00    -0.197 NA 
HETATM   12  C   UNL     1     -10.599  10.713  66.904  1.00  0.00    -0.254 A  
HETATM   13  C   UNL     1      -9.765   9.897  66.186  1.00  0.00    -0.236 A  
HETATM   14  N   UNL     1      -9.603  10.017  64.861  1.00  0.00    -0.294 NA 
HETATM   15  C   UNL     1     -10.320  11.020  64.257  1.00  0.00    -0.364 C  
HETATM   16  N   UNL     1     -11.145  11.846  64.830  1.00  0.00    -0.310 N  
HETATM   17  H   UNL     1     -11.630  12.553  64.276  1.00  0.00     0.000 HD 
HETATM   18  C   UNL     1     -11.363  11.761  66.213  1.00  0.00    -0.287 C  
HETATM   19  O   UNL     1     -12.144  12.500  66.801  1.00  0.00    -0.546 OA 
ENDBRANCH   7   9
ENDBRANCH   2   4
TORSDOF 2
ENDMDL
MODEL      213
REMARK 921   NORMALIZED FREE ENERGY PREDICTED BY IDOCK:   -3.09 KCAL/MOL
REMARK 922        TOTAL FREE ENERGY PREDICTED BY IDOCK:   -3.75 KCAL/MOL
REMARK 923 INTER-LIGAND FREE ENERGY PREDICTED BY IDOCK:   -3.55 KCAL/MOL
REMARK 924 INTRA-LIGAND FREE ENERGY PREDICTED BY IDOCK:   -0.20 KCAL/MOL
REMARK 927      BINDING AFFINITY PREDICTED BY RF-SCORE:    0.00 PKD
ROOT
HETATM    1  O   UNL     1      -9.233   5.914  73.682  1.00  0.00    -0.131 OA 
HETATM    2  C   UNL     1     -10.618   6.249  73.575  1.00  0.00    -0.269 C  
HETATM    3  H   UNL     1      -9.139   5.086  74.137  1.00  0.00     0.000 HD 
ENDROOT
BRANCH   2   4
HETATM    4  C   UNL     1     -10.771   7.588  72.840  1.00  0.00    -0.358 C  
HETATM    5  C   UNL     1     -12.213   7.917  72.499  1.00  0.00    -0.245 C  
HETATM    6  C   UNL     1     -12.380   7.375  71.100  1.00  0.00    -0.349 C  
HETATM    7  C   UNL     1     -10.994   7.537  70.496  1.00  0.00    -0.252 C  
HETATM    8  O   UNL     1     -10.057   7.545  71.590  1.00  0.00    -0.180 OA 
BRANCH   7   9
HETATM    9  N   UNL     1     -10.648   6.489  69.553  1.00  0.00    -0.223 NA 
HETATM   10  C   UNL     1     -10.746   6.595  68.184  1.00  0.00    -0.258 A  
HETATM   11  N   UNL     1     -10.398   5.479  67.570  1.00  0.00    -0.211 NA 
HETATM   12  C   UNL     1     -10.033   4.613  68.581  1.00  0.00    -0.070 A  
HETATM   13  C   UNL     1     -10.182   5.236  69.791  1.00  0.00    -0.294 A  
HETATM   14  N   UNL     1      -9.887   4.636  70.952  1.00  0.00    -0.190 NA 
HETATM   15  C   UNL     1      -9.413   3.350  70.860  1.00  0.00    -0.164 C  
HETATM   16  N   UNL     1      -9.239   2.657  69.774  1.00  0.00    -0.123 N  
HETATM   17  H   UNL     1      -8.885   1.702  69.827  1.00  0.00     0.000 HD 
HETATM   18  C   UNL     1      -9.543   3.229  68.530  1.00  0.00    -0.055 C  
HETATM   19  O   UNL     1      -9.417   2.615  67.477  1.00  0.00    -0.181 OA 
ENDBRANCH   7   9
ENDBRANCH   2   4
TORSDOF 2
ENDMDL
MODEL      214
REMARK 921   NORMALIZED FREE ENERGY PREDICTED BY IDOCK:   -3.08 KCAL/MOL
REMARK 922        TOTAL FREE ENERGY PREDICTED BY IDOCK:   -3.74 KCAL/MOL
REMARK 923 INTER-LIGAND FREE ENERGY PREDICTED BY IDOCK:   -3.99 KCAL/MOL
REMARK 924 INTRA-LIGAND FREE ENERGY PREDICTED BY IDOCK:    0.25 KCAL/MOL
REMARK 927      BINDING AFFINITY PREDICTED BY RF-SCORE:    0.00 PKD
ROOT
HETATM    1  O   UNL     1      -8.036   6.917  73.524  1.00  0.00    -0.097 OA 
HETATM    2  C   UNL     1      -8.921   8.025  73.693  1.00  0.00    -0.247 C  
HETATM    3  H   UNL     1      -7.143   7.231  73.446  1.00  0.00     0.000 HD 
ENDROOT
BRANCH   2   4
HETATM    4  C   UNL     1     -10.366   7.518  73.819  1.00  0.00    -0.148 C  
HETATM    5  C   UNL     1     -10.466   6.004  73.826  1.00  0.00    -0.288 C  
HETATM    6  C   UNL     1     -10.697   5.657  72.375  1.00  0.00    -0.286 C  
HETATM    7  C   UNL     1     -11.474   6.854  71.850  1.00  0.00    -0.272 C  
HETATM    8  O   UNL     1     -11.144   7.972  72.695  1.00  0.00    -0.344 OA 
BRANCH   7   9
HETATM    9  N   UNL     1     -11.177   7.173  70.465  1.00  0.00    -0.280 NA 
HETATM   10  C   UNL     1     -11.215   6.274  69.422  1.00  0.00    -0.420 A  
HETATM   11  N   UNL     1     -10.866   6.825  68.274  1.00  0.00    -0.236 NA 
HETATM   12  C   UNL     1     -10.613   8.148  68.575  1.00  0.00    -0.100 A  
HETATM   13  C   UNL     1     -10.810   8.358  69.914  1.00  0.00    -0.207 A  
HETATM   14  N   UNL     1     -10.649   9.559  70.487  1.00  0.00    -0.273 NA 
HETATM   15  C   UNL     1     -10.282  10.581  69.646  1.00  0.00    -0.168 C  
HETATM   16  N   UNL     1     -10.060  10.501  68.368  1.00  0.00    -0.158 N  
HETATM   17  H   UNL     1      -9.785  11.331  67.843  1.00  0.00     0.000 HD 
HETATM   18  C   UNL     1     -10.200   9.267  67.716  1.00  0.00    -0.218 C  
HETATM   19  O   UNL     1      -9.984   9.129  66.517  1.00  0.00    -0.248 OA 
ENDBRANCH   7   9
ENDBRANCH   2   4
TORSDOF 2
ENDMDL
MODEL      215
REMARK 921   NORMALIZED FREE ENERGY PREDICTED BY IDOCK:   -3.08 KCAL/MOL
REMARK 922        TOTAL FREE ENERGY PREDICTED BY IDOCK:   -3.74 KCAL/MOL
REMARK 923 INTER-LIGAND FREE ENERGY PREDICTED BY IDOCK:   -3.34 KCAL/MOL
REMARK 924 INTRA-LIGAND FREE ENERGY PREDICTED BY IDOCK:   -0.40 KCAL/MOL
REMARK 927      BINDING AFFINITY PREDICTED BY RF-SCORE:    0.00 PKD
ROOT
HETATM    1  O   UNL     1      -9.614   9.672  64.655  1.00  0.00    -0.419 OA 
HETATM    2  C   UNL     1      -9.392  10.994  65.149  1.00  0.00    -0.220 C  
HETATM    3  H   UNL     1      -9.035   9.503  63.921  1.00  0.00     0.000 HD 
ENDROOT
BRANCH   2   4
HETATM    4  C   UNL     1     -10.328  11.267  66.336  1.00  0.00    -0.245 C  
HETATM    5  C   UNL     1      -9.681  12.108  67.421  1.00  0.00    -0.180 C  
HETATM    6  C   UNL     1      -9.119  11.083  68.376  1.00  0.00    -0.161 C  
HETATM    7  C   UNL     1     -10.092   9.922  68.255  1.00  0.00    -0.161 C  
HETATM    8  O   UNL     1     -10.707  10.024  66.956  1.00  0.00    -0.234 OA 
BRANCH   7   9
HETATM    9  N   UNL     1      -9.463   8.622  68.406  1.00  0.00    -0.137 NA 
HETATM   10  C   UNL     1      -8.245   8.268  67.869  1.00  0.00    -0.128 A  
HETATM   11  N   UNL     1      -7.929   7.014  68.132  1.00  0.00    -0.117 NA 
HETATM   12  C   UNL     1      -8.974   6.534  68.895  1.00  0.00    -0.128 A  
HETATM   13  C   UNL     1      -9.907   7.521  69.065  1.00  0.00    -0.170 A  
HETATM   14  N   UNL     1     -11.027   7.341  69.778  1.00  0.00    -0.241 NA 
HETATM   15  C   UNL     1     -11.184   6.099  70.344  1.00  0.00    -0.353 C  
HETATM   16  N   UNL     1     -10.376   5.087  70.246  1.00  0.00    -0.258 N  
HETATM   17  H   UNL     1     -10.600   4.205  70.708  1.00  0.00     0.000 HD 
HETATM   18  C   UNL     1      -9.193   5.213  69.501  1.00  0.00    -0.119 C  
HETATM   19  O   UNL     1      -8.405   4.286  69.359  1.00  0.00    -0.065 OA 
ENDBRANCH   7   9
ENDBRANCH   2   4
TORSDOF 2
ENDMDL
MODEL      216
REMARK 921   NORMALIZED FREE ENERGY PREDICTED BY IDOCK:   -3.08 KCAL/MOL
REMARK 922        TOTAL FREE ENERGY PREDICTED BY IDOCK:   -3.74 KCAL/MOL
REMARK 923 INTER-LIGAND FREE ENERGY PREDICTED BY IDOCK:   -3.81 KCAL/MOL
REMARK 924 INTRA-LIGAND FREE ENERGY PREDICTED BY IDOCK:    0.07 KCAL/MOL
REMARK 927      BINDING AFFINITY PREDICTED BY RF-SCORE:    0.00 PKD
ROOT
HETATM    1  O   UNL     1     -10.509   7.584  67.146  1.00  0.00    -0.278 OA 
HETATM    2  C   UNL     1      -9.915   8.842  66.824  1.00  0.00    -0.268 C  
HETATM    3  H   UNL     1     -11.355   7.511  66.720  1.00  0.00     0.000 HD 
ENDROOT
BRANCH   2   4
HETATM    4  C   UNL     1      -8.547   8.959  67.514  1.00  0.00    -0.120 C  
HETATM    5  C   UNL     1      -8.637   8.895  69.027  1.00  0.00    -0.138 C  
HETATM    6  C   UNL     1      -8.730  10.344  69.439  1.00  0.00    -0.138 C  
HETATM    7  C   UNL     1      -7.923  11.063  68.370  1.00  0.00    -0.131 C  
HETATM    8  O   UNL     1      -7.946  10.229  67.196  1.00  0.00    -0.112 OA 
BRANCH   7   9
HETATM    9  N   UNL     1      -8.435  12.384  68.050  1.00  0.00    -0.167 NA 
HETATM   10  C   UNL     1      -7.677  13.428  67.568  1.00  0.00    -0.176 A  
HETATM   11  N   UNL     1      -8.391  14.526  67.398  1.00  0.00    -0.188 NA 
HETATM   12  C   UNL     1      -9.676  14.177  67.759  1.00  0.00    -0.223 A  
HETATM   13  C   UNL     1      -9.700  12.866  68.153  1.00  0.00    -0.227 A  
HETATM   14  N   UNL     1     -10.824  12.251  68.547  1.00  0.00    -0.228 NA 
HETATM   15  C   UNL     1     -11.965  13.015  68.525  1.00  0.00    -0.261 C  
HETATM   16  N   UNL     1     -12.063  14.265  68.182  1.00  0.00    -0.551 N  
HETATM   17  H   UNL     1     -12.968  14.735  68.210  1.00  0.00     0.000 HD 
HETATM   18  C   UNL     1     -10.917  14.964  67.772  1.00  0.00    -0.293 C  
HETATM   19  O   UNL     1     -10.948  16.147  67.456  1.00  0.00    -0.313 OA 
ENDBRANCH   7   9
ENDBRANCH   2   4
TORSDOF 2
ENDMDL
MODEL      217
REMARK 921   NORMALIZED FREE ENERGY PREDICTED BY IDOCK:   -3.07 KCAL/MOL
REMARK 922        TOTAL FREE ENERGY PREDICTED BY IDOCK:   -3.73 KCAL/MOL
REMARK 923 INTER-LIGAND FREE ENERGY PREDICTED BY IDOCK:   -3.59 KCAL/MOL
REMARK 924 INTRA-LIGAND FREE ENERGY PREDICTED BY IDOCK:   -0.14 KCAL/MOL
REMARK 927      BINDING AFFINITY PREDICTED BY RF-SCORE:    0.00 PKD
ROOT
HETATM    1  O   UNL     1      -9.890   6.432  73.055  1.00  0.00    -0.161 OA 
HETATM    2  C   UNL     1     -10.469   7.727  73.220  1.00  0.00    -0.294 C  
HETATM    3  H   UNL     1      -9.145   6.339  73.636  1.00  0.00     0.000 HD 
ENDROOT
BRANCH   2   4
HETATM    4  C   UNL     1     -11.674   7.879  72.280  1.00  0.00    -0.355 C  
HETATM    5  C   UNL     1     -12.128   6.562  71.678  1.00  0.00    -0.381 C  
HETATM    6  C   UNL     1     -11.385   6.497  70.366  1.00  0.00    -0.443 C  
HETATM    7  C   UNL     1     -11.260   7.957  69.963  1.00  0.00    -0.100 C  
HETATM    8  O   UNL     1     -11.328   8.734  71.174  1.00  0.00    -0.258 OA 
BRANCH   7   9
HETATM    9  N   UNL     1     -10.031   8.257  69.250  1.00  0.00    -0.187 NA 
HETATM   10  C   UNL     1      -8.794   7.735  69.556  1.00  0.00    -0.139 A  
HETATM   11  N   UNL     1      -7.845   8.205  68.768  1.00  0.00    -0.111 NA 
HETATM   12  C   UNL     1      -8.493   9.051  67.891  1.00  0.00    -0.121 A  
HETATM   13  C   UNL     1      -9.830   9.076  68.186  1.00  0.00    -0.166 A  
HETATM   14  N   UNL     1     -10.710   9.806  67.487  1.00  0.00    -0.277 NA 
HETATM   15  C   UNL     1     -10.191  10.529  66.440  1.00  0.00    -0.237 C  
HETATM   16  N   UNL     1      -8.946  10.590  66.072  1.00  0.00    -0.161 N  
HETATM   17  H   UNL     1      -8.674  11.168  65.277  1.00  0.00     0.000 HD 
HETATM   18  C   UNL     1      -7.979   9.856  66.775  1.00  0.00    -0.116 C  
HETATM   19  O   UNL     1      -6.789   9.892  66.485  1.00  0.00    -0.081 OA 
ENDBRANCH   7   9
ENDBRANCH   2   4
TORSDOF 2
ENDMDL
MODEL      218
REMARK 921   NORMALIZED FREE ENERGY PREDICTED BY IDOCK:   -3.07 KCAL/MOL
REMARK 922        TOTAL FREE ENERGY PREDICTED BY IDOCK:   -3.72 KCAL/MOL
REMARK 923 INTER-LIGAND FREE ENERGY PREDICTED BY IDOCK:   -4.06 KCAL/MOL
REMARK 924 INTRA-LIGAND FREE ENERGY PREDICTED BY IDOCK:    0.34 KCAL/MOL
REMARK 927      BINDING AFFINITY PREDICTED BY RF-SCORE:    0.00 PKD
ROOT
HETATM    1  O   UNL     1      -6.807  12.713  70.237  1.00  0.00    -0.235 OA 
HETATM    2  C   UNL     1      -6.667  12.467  68.837  1.00  0.00    -0.098 C  
HETATM    3  H   UNL     1      -6.656  13.633  70.417  1.00  0.00     0.000 HD 
ENDROOT
BRANCH   2   4
HETATM    4  C   UNL     1      -6.913  10.979  68.546  1.00  0.00    -0.070 C  
HETATM    5  C   UNL     1      -6.539  10.581  67.130  1.00  0.00    -0.074 C  
HETATM    6  C   UNL     1      -7.834  10.724  66.368  1.00  0.00    -0.148 C  
HETATM    7  C   UNL     1      -8.890  10.391  67.410  1.00  0.00    -0.132 C  
HETATM    8  O   UNL     1      -8.312  10.674  68.698  1.00  0.00    -0.121 OA 
BRANCH   7   9
HETATM    9  N   UNL     1     -10.123  11.141  67.244  1.00  0.00    -0.184 NA 
HETATM   10  C   UNL     1     -11.213  11.063  68.082  1.00  0.00    -0.302 A  
HETATM   11  N   UNL     1     -12.211  11.826  67.676  1.00  0.00    -0.369 NA 
HETATM   12  C   UNL     1     -11.744  12.450  66.537  1.00  0.00    -0.379 A  
HETATM   13  C   UNL     1     -10.465  12.032  66.279  1.00  0.00    -0.238 A  
HETATM   14  N   UNL     1      -9.755  12.486  65.237  1.00  0.00    -0.128 NA 
HETATM   15  C   UNL     1     -10.384  13.410  64.438  1.00  0.00    -0.325 C  
HETATM   16  N   UNL     1     -11.590  13.872  64.578  1.00  0.00    -0.382 N  
HETATM   17  H   UNL     1     -11.957  14.556  63.916  1.00  0.00     0.000 HD 
HETATM   18  C   UNL     1     -12.385  13.424  65.643  1.00  0.00    -0.470 C  
HETATM   19  O   UNL     1     -13.536  13.811  65.811  1.00  0.00    -0.400 OA 
ENDBRANCH   7   9
ENDBRANCH   2   4
TORSDOF 2
ENDMDL
MODEL      219
REMARK 921   NORMALIZED FREE ENERGY PREDICTED BY IDOCK:   -3.04 KCAL/MOL
REMARK 922        TOTAL FREE ENERGY PREDICTED BY IDOCK:   -3.70 KCAL/MOL
REMARK 923 INTER-LIGAND FREE ENERGY PREDICTED BY IDOCK:   -3.47 KCAL/MOL
REMARK 924 INTRA-LIGAND FREE ENERGY PREDICTED BY IDOCK:   -0.22 KCAL/MOL
REMARK 927      BINDING AFFINITY PREDICTED BY RF-SCORE:    0.00 PKD
ROOT
HETATM    1  O   UNL     1      -8.794   8.220  64.697  1.00  0.00    -0.406 OA 
HETATM    2  C   UNL     1      -8.539   8.038  66.091  1.00  0.00    -0.148 C  
HETATM    3  H   UNL     1      -9.018   9.127  64.528  1.00  0.00     0.000 HD 
ENDROOT
BRANCH   2   4
HETATM    4  C   UNL     1      -8.177   6.571  66.364  1.00  0.00    -0.116 C  
HETATM    5  C   UNL     1      -9.158   5.591  65.747  1.00  0.00    -0.152 C  
HETATM    6  C   UNL     1     -10.146   5.331  66.858  1.00  0.00    -0.250 C  
HETATM    7  C   UNL     1      -9.301   5.467  68.115  1.00  0.00    -0.111 C  
HETATM    8  O   UNL     1      -8.188   6.319  67.782  1.00  0.00    -0.116 OA 
BRANCH   7   9
HETATM    9  N   UNL     1     -10.029   6.019  69.243  1.00  0.00    -0.154 NA 
HETATM   10  C   UNL     1     -11.378   6.296  69.254  1.00  0.00    -0.341 A  
HETATM   11  N   UNL     1     -11.771   6.824  70.398  1.00  0.00    -0.372 NA 
HETATM   12  C   UNL     1     -10.634   6.872  71.179  1.00  0.00    -0.222 A  
HETATM   13  C   UNL     1      -9.572   6.375  70.472  1.00  0.00    -0.165 A  
HETATM   14  N   UNL     1      -8.339   6.287  70.988  1.00  0.00    -0.123 NA 
HETATM   15  C   UNL     1      -8.199   6.720  72.284  1.00  0.00    -0.106 C  
HETATM   16  N   UNL     1      -9.126   7.217  73.047  1.00  0.00    -0.134 N  
HETATM   17  H   UNL     1      -8.904   7.513  73.998  1.00  0.00     0.000 HD 
HETATM   18  C   UNL     1     -10.434   7.344  72.556  1.00  0.00    -0.236 C  
HETATM   19  O   UNL     1     -11.343   7.824  73.224  1.00  0.00    -0.321 OA 
ENDBRANCH   7   9
ENDBRANCH   2   4
TORSDOF 2
ENDMDL
MODEL      220
REMARK 921   NORMALIZED FREE ENERGY PREDICTED BY IDOCK:   -3.04 KCAL/MOL
REMARK 922        TOTAL FREE ENERGY PREDICTED BY IDOCK:   -3.69 KCAL/MOL
REMARK 923 INTER-LIGAND FREE ENERGY PREDICTED BY IDOCK:   -3.70 KCAL/MOL
REMARK 924 INTRA-LIGAND FREE ENERGY PREDICTED BY IDOCK:    0.00 KCAL/MOL
REMARK 927      BINDING AFFINITY PREDICTED BY RF-SCORE:    0.00 PKD
ROOT
HETATM    1  O   UNL     1      -7.659  10.752  64.459  1.00  0.00    -0.352 OA 
HETATM    2  C   UNL     1      -8.624  10.559  65.494  1.00  0.00    -0.180 C  
HETATM    3  H   UNL     1      -7.792  10.108  63.774  1.00  0.00     0.000 HD 
ENDROOT
BRANCH   2   4
HETATM    4  C   UNL     1      -8.409  11.600  66.603  1.00  0.00    -0.154 C  
HETATM    5  C   UNL     1      -7.051  11.484  67.271  1.00  0.00    -0.128 C  
HETATM    6  C   UNL     1      -7.315  10.589  68.458  1.00  0.00    -0.088 C  
HETATM    7  C   UNL     1      -8.751  10.919  68.832  1.00  0.00    -0.140 C  
HETATM    8  O   UNL     1      -9.390  11.419  67.642  1.00  0.00    -0.155 OA 
BRANCH   7   9
HETATM    9  N   UNL     1      -9.489   9.783  69.352  1.00  0.00    -0.188 NA 
HETATM   10  C   UNL     1      -9.808   9.589  70.678  1.00  0.00    -0.262 A  
HETATM   11  N   UNL     1     -10.453   8.454  70.876  1.00  0.00    -0.192 NA 
HETATM   12  C   UNL     1     -10.584   7.893  69.622  1.00  0.00    -0.234 A  
HETATM   13  C   UNL     1      -9.997   8.711  68.693  1.00  0.00    -0.183 A  
HETATM   14  N   UNL     1      -9.985   8.422  67.384  1.00  0.00    -0.193 NA 
HETATM   15  C   UNL     1     -10.607   7.253  67.022  1.00  0.00    -0.344 C  
HETATM   16  N   UNL     1     -11.186   6.398  67.810  1.00  0.00    -0.601 N  
HETATM   17  H   UNL     1     -11.613   5.554  67.427  1.00  0.00     0.000 HD 
HETATM   18  C   UNL     1     -11.220   6.641  69.192  1.00  0.00    -0.242 C  
HETATM   19  O   UNL     1     -11.734   5.860  69.983  1.00  0.00    -0.062 OA 
ENDBRANCH   7   9
ENDBRANCH   2   4
TORSDOF 2
ENDMDL
MODEL      221
REMARK 921   NORMALIZED FREE ENERGY PREDICTED BY IDOCK:   -3.02 KCAL/MOL
REMARK 922        TOTAL FREE ENERGY PREDICTED BY IDOCK:   -3.67 KCAL/MOL
REMARK 923 INTER-LIGAND FREE ENERGY PREDICTED BY IDOCK:   -3.19 KCAL/MOL
REMARK 924 INTRA-LIGAND FREE ENERGY PREDICTED BY IDOCK:   -0.49 KCAL/MOL
REMARK 927      BINDING AFFINITY PREDICTED BY RF-SCORE:    0.00 PKD
ROOT
HETATM    1  O   UNL     1     -10.551   5.296  69.848  1.00  0.00    -0.306 OA 
HETATM    2  C   UNL     1     -11.289   6.482  70.148  1.00  0.00    -0.402 C  
HETATM    3  H   UNL     1     -11.149   4.565  69.744  1.00  0.00     0.000 HD 
ENDROOT
BRANCH   2   4
HETATM    4  C   UNL     1     -10.323   7.664  70.317  1.00  0.00    -0.214 C  
HETATM    5  C   UNL     1     -10.842   8.949  69.698  1.00  0.00    -0.186 C  
HETATM    6  C   UNL     1     -10.248   8.938  68.310  1.00  0.00    -0.239 C  
HETATM    7  C   UNL     1      -8.926   8.212  68.502  1.00  0.00    -0.137 C  
HETATM    8  O   UNL     1      -9.073   7.373  69.663  1.00  0.00    -0.141 OA 
BRANCH   7   9
HETATM    9  N   UNL     1      -8.536   7.410  67.357  1.00  0.00    -0.119 NA 
HETATM   10  C   UNL     1      -7.324   7.497  66.709  1.00  0.00    -0.092 A  
HETATM   11  N   UNL     1      -7.248   6.676  65.678  1.00  0.00    -0.068 NA 
HETATM   12  C   UNL     1      -8.454   6.004  65.665  1.00  0.00    -0.151 A  
HETATM   13  C   UNL     1      -9.236   6.452  66.696  1.00  0.00    -0.151 A  
HETATM   14  N   UNL     1     -10.462   5.966  66.936  1.00  0.00    -0.254 NA 
HETATM   15  C   UNL     1     -10.890   4.975  66.087  1.00  0.00    -0.095 C  
HETATM   16  N   UNL     1     -10.244   4.478  65.075  1.00  0.00    -0.406 N  
HETATM   17  H   UNL     1     -10.667   3.744  64.507  1.00  0.00     0.000 HD 
HETATM   18  C   UNL     1      -8.962   4.958  64.768  1.00  0.00    -0.125 C  
HETATM   19  O   UNL     1      -8.316   4.540  63.814  1.00  0.00    -0.100 OA 
ENDBRANCH   7   9
ENDBRANCH   2   4
TORSDOF 2
ENDMDL
MODEL      222
REMARK 921   NORMALIZED FREE ENERGY PREDICTED BY IDOCK:   -2.99 KCAL/MOL
REMARK 922        TOTAL FREE ENERGY PREDICTED BY IDOCK:   -3.63 KCAL/MOL
REMARK 923 INTER-LIGAND FREE ENERGY PREDICTED BY IDOCK:   -3.25 KCAL/MOL
REMARK 924 INTRA-LIGAND FREE ENERGY PREDICTED BY IDOCK:   -0.39 KCAL/MOL
REMARK 927      BINDING AFFINITY PREDICTED BY RF-SCORE:    0.00 PKD
ROOT
HETATM    1  O   UNL     1     -11.887  10.387  68.003  1.00  0.00    -0.746 OA 
HETATM    2  C   UNL     1     -11.781  11.808  68.099  1.00  0.00    -0.307 C  
HETATM    3  H   UNL     1     -12.787  10.145  67.817  1.00  0.00     0.000 HD 
ENDROOT
BRANCH   2   4
HETATM    4  C   UNL     1     -10.326  12.199  68.400  1.00  0.00    -0.229 C  
HETATM    5  C   UNL     1      -9.637  12.872  67.227  1.00  0.00    -0.220 C  
HETATM    6  C   UNL     1      -8.957  11.729  66.512  1.00  0.00    -0.196 C  
HETATM    7  C   UNL     1      -8.621  10.764  67.637  1.00  0.00    -0.123 C  
HETATM    8  O   UNL     1      -9.555  11.021  68.703  1.00  0.00    -0.183 OA 
BRANCH   7   9
HETATM    9  N   UNL     1      -8.690   9.369  67.243  1.00  0.00    -0.128 NA 
HETATM   10  C   UNL     1      -9.180   8.913  66.039  1.00  0.00    -0.228 A  
HETATM   11  N   UNL     1      -9.157   7.595  65.957  1.00  0.00    -0.144 NA 
HETATM   12  C   UNL     1      -8.605   7.172  67.149  1.00  0.00    -0.121 A  
HETATM   13  C   UNL     1      -8.316   8.260  67.930  1.00  0.00    -0.128 A  
HETATM   14  N   UNL     1      -7.756   8.149  69.142  1.00  0.00    -0.097 NA 
HETATM   15  C   UNL     1      -7.476   6.870  69.559  1.00  0.00    -0.096 C  
HETATM   16  N   UNL     1      -7.712   5.767  68.913  1.00  0.00    -0.089 N  
HETATM   17  H   UNL     1      -7.465   4.868  69.327  1.00  0.00     0.000 HD 
HETATM   18  C   UNL     1      -8.308   5.821  67.645  1.00  0.00    -0.104 C  
HETATM   19  O   UNL     1      -8.571   4.813  67.000  1.00  0.00    -0.106 OA 
ENDBRANCH   7   9
ENDBRANCH   2   4
TORSDOF 2
ENDMDL
MODEL      223
REMARK 921   NORMALIZED FREE ENERGY PREDICTED BY IDOCK:   -2.98 KCAL/MOL
REMARK 922        TOTAL FREE ENERGY PREDICTED BY IDOCK:   -3.62 KCAL/MOL
REMARK 923 INTER-LIGAND FREE ENERGY PREDICTED BY IDOCK:   -3.63 KCAL/MOL
REMARK 924 INTRA-LIGAND FREE ENERGY PREDICTED BY IDOCK:    0.01 KCAL/MOL
REMARK 927      BINDING AFFINITY PREDICTED BY RF-SCORE:    0.00 PKD
ROOT
HETATM    1  O   UNL     1     -12.074   5.964  72.663  1.00  0.00    -0.528 OA 
HETATM    2  C   UNL     1     -11.040   4.998  72.473  1.00  0.00    -0.150 C  
HETATM    3  H   UNL     1     -12.912   5.588  72.420  1.00  0.00     0.000 HD 
ENDROOT
BRANCH   2   4
HETATM    4  C   UNL     1      -9.685   5.606  72.865  1.00  0.00    -0.155 C  
HETATM    5  C   UNL     1      -9.765   6.492  74.095  1.00  0.00    -0.291 C  
HETATM    6  C   UNL     1      -9.978   7.873  73.524  1.00  0.00    -0.170 C  
HETATM    7  C   UNL     1      -9.237   7.820  72.197  1.00  0.00    -0.149 C  
HETATM    8  O   UNL     1      -9.193   6.437  71.796  1.00  0.00    -0.144 OA 
BRANCH   7   9
HETATM    9  N   UNL     1      -9.859   8.618  71.156  1.00  0.00    -0.202 NA 
HETATM   10  C   UNL     1     -11.059   9.283  71.281  1.00  0.00    -0.357 A  
HETATM   11  N   UNL     1     -11.405   9.903  70.168  1.00  0.00    -0.266 NA 
HETATM   12  C   UNL     1     -10.375   9.654  69.284  1.00  0.00    -0.209 A  
HETATM   13  C   UNL     1      -9.429   8.872  69.893  1.00  0.00    -0.170 A  
HETATM   14  N   UNL     1      -8.306   8.484  69.273  1.00  0.00    -0.118 NA 
HETATM   15  C   UNL     1      -8.150   8.925  67.982  1.00  0.00    -0.106 C  
HETATM   16  N   UNL     1      -8.979   9.659  67.300  1.00  0.00    -0.134 N  
HETATM   17  H   UNL     1      -8.759   9.922  66.340  1.00  0.00     0.000 HD 
HETATM   18  C   UNL     1     -10.177  10.085  67.893  1.00  0.00    -0.188 C  
HETATM   19  O   UNL     1     -11.003  10.761  67.292  1.00  0.00    -0.290 OA 
ENDBRANCH   7   9
ENDBRANCH   2   4
TORSDOF 2
ENDMDL
MODEL      224
REMARK 921   NORMALIZED FREE ENERGY PREDICTED BY IDOCK:   -2.97 KCAL/MOL
REMARK 922        TOTAL FREE ENERGY PREDICTED BY IDOCK:   -3.62 KCAL/MOL
REMARK 923 INTER-LIGAND FREE ENERGY PREDICTED BY IDOCK:   -3.52 KCAL/MOL
REMARK 924 INTRA-LIGAND FREE ENERGY PREDICTED BY IDOCK:   -0.10 KCAL/MOL
REMARK 927      BINDING AFFINITY PREDICTED BY RF-SCORE:    0.00 PKD
ROOT
HETATM    1  O   UNL     1     -11.634  19.887  66.755  1.00  0.00     0.381 OA 
HETATM    2  C   UNL     1     -10.427  20.020  67.507  1.00  0.00    -0.347 C  
HETATM    3  H   UNL     1     -12.297  20.469  67.108  1.00  0.00     0.000 HD 
ENDROOT
BRANCH   2   4
HETATM    4  C   UNL     1      -9.356  19.079  66.936  1.00  0.00    -0.313 C  
HETATM    5  C   UNL     1      -9.806  18.360  65.678  1.00  0.00     0.388 C  
HETATM    6  C   UNL     1     -10.368  17.058  66.195  1.00  0.00    -0.326 C  
HETATM    7  C   UNL     1      -9.529  16.783  67.433  1.00  0.00    -0.236 C  
HETATM    8  O   UNL     1      -9.040  18.055  67.899  1.00  0.00    -0.259 OA 
BRANCH   7   9
HETATM    9  N   UNL     1     -10.264  16.116  68.492  1.00  0.00    -0.233 NA 
HETATM   10  C   UNL     1     -10.512  16.650  69.738  1.00  0.00    -0.182 A  
HETATM   11  N   UNL     1     -11.172  15.814  70.517  1.00  0.00    -0.345 NA 
HETATM   12  C   UNL     1     -11.388  14.695  69.740  1.00  0.00    -0.275 A  
HETATM   13  C   UNL     1     -10.836  14.885  68.501  1.00  0.00    -0.247 A  
HETATM   14  N   UNL     1     -10.905  13.963  67.531  1.00  0.00    -0.264 NA 
HETATM   15  C   UNL     1     -11.577  12.808  67.848  1.00  0.00    -0.351 C  
HETATM   16  N   UNL     1     -12.130  12.512  68.986  1.00  0.00    -0.213 N  
HETATM   17  H   UNL     1     -12.600  11.615  69.110  1.00  0.00     0.000 HD 
HETATM   18  C   UNL     1     -12.079  13.433  70.043  1.00  0.00    -0.334 C  
HETATM   19  O   UNL     1     -12.567  13.199  71.142  1.00  0.00    -0.370 OA 
ENDBRANCH   7   9
ENDBRANCH   2   4
TORSDOF 2
ENDMDL
MODEL      225
REMARK 921   NORMALIZED FREE ENERGY PREDICTED BY IDOCK:   -2.97 KCAL/MOL
REMARK 922        TOTAL FREE ENERGY PREDICTED BY IDOCK:   -3.62 KCAL/MOL
REMARK 923 INTER-LIGAND FREE ENERGY PREDICTED BY IDOCK:   -3.53 KCAL/MOL
REMARK 924 INTRA-LIGAND FREE ENERGY PREDICTED BY IDOCK:   -0.09 KCAL/MOL
REMARK 927      BINDING AFFINITY PREDICTED BY RF-SCORE:    0.00 PKD
ROOT
HETATM    1  O   UNL     1      -8.836   5.908  72.559  1.00  0.00    -0.133 OA 
HETATM    2  C   UNL     1      -9.075   6.682  71.382  1.00  0.00    -0.143 C  
HETATM    3  H   UNL     1      -9.245   6.328  73.306  1.00  0.00     0.000 HD 
ENDROOT
BRANCH   2   4
HETATM    4  C   UNL     1      -8.414   6.003  70.173  1.00  0.00    -0.127 C  
HETATM    5  C   UNL     1      -7.009   6.510  69.902  1.00  0.00    -0.066 C  
HETATM    6  C   UNL     1      -7.218   7.616  68.896  1.00  0.00    -0.081 C  
HETATM    7  C   UNL     1      -8.439   7.152  68.117  1.00  0.00    -0.123 C  
HETATM    8  O   UNL     1      -9.179   6.271  68.982  1.00  0.00    -0.128 OA 
BRANCH   7   9
HETATM    9  N   UNL     1      -9.289   8.242  67.673  1.00  0.00    -0.136 NA 
HETATM   10  C   UNL     1      -9.541   8.560  66.357  1.00  0.00    -0.245 A  
HETATM   11  N   UNL     1     -10.321   9.619  66.239  1.00  0.00    -0.208 NA 
HETATM   12  C   UNL     1     -10.613   9.994  67.535  1.00  0.00    -0.280 A  
HETATM   13  C   UNL     1      -9.984   9.147  68.408  1.00  0.00    -0.181 A  
HETATM   14  N   UNL     1     -10.101   9.265  69.738  1.00  0.00    -0.193 NA 
HETATM   15  C   UNL     1     -10.902  10.289  70.181  1.00  0.00    -0.302 C  
HETATM   16  N   UNL     1     -11.538  11.156  69.452  1.00  0.00    -0.287 N  
HETATM   17  H   UNL     1     -12.103  11.882  69.894  1.00  0.00     0.000 HD 
HETATM   18  C   UNL     1     -11.444  11.089  68.054  1.00  0.00    -0.290 C  
HETATM   19  O   UNL     1     -12.006  11.892  67.319  1.00  0.00    -0.605 OA 
ENDBRANCH   7   9
ENDBRANCH   2   4
TORSDOF 2
ENDMDL
MODEL      226
REMARK 921   NORMALIZED FREE ENERGY PREDICTED BY IDOCK:   -2.96 KCAL/MOL
REMARK 922        TOTAL FREE ENERGY PREDICTED BY IDOCK:   -3.61 KCAL/MOL
REMARK 923 INTER-LIGAND FREE ENERGY PREDICTED BY IDOCK:   -3.46 KCAL/MOL
REMARK 924 INTRA-LIGAND FREE ENERGY PREDICTED BY IDOCK:   -0.15 KCAL/MOL
REMARK 927      BINDING AFFINITY PREDICTED BY RF-SCORE:    0.00 PKD
ROOT
HETATM    1  O   UNL     1      -9.179   8.329  65.183  1.00  0.00    -0.397 OA 
HETATM    2  C   UNL     1      -9.016   9.516  65.961  1.00  0.00    -0.163 C  
HETATM    3  H   UNL     1      -8.328   7.969  64.966  1.00  0.00     0.000 HD 
ENDROOT
BRANCH   2   4
HETATM    4  C   UNL     1     -10.393  10.100  66.310  1.00  0.00    -0.175 C  
HETATM    5  C   UNL     1     -10.351  11.589  66.600  1.00  0.00    -0.262 C  
HETATM    6  C   UNL     1     -10.181  11.654  68.098  1.00  0.00    -0.206 C  
HETATM    7  C   UNL     1     -10.910  10.412  68.587  1.00  0.00    -0.232 C  
HETATM    8  O   UNL     1     -10.905   9.468  67.499  1.00  0.00    -0.280 OA 
BRANCH   7   9
HETATM    9  N   UNL     1     -10.309   9.815  69.765  1.00  0.00    -0.227 NA 
HETATM   10  C   UNL     1     -10.991   9.472  70.912  1.00  0.00    -0.337 A  
HETATM   11  N   UNL     1     -10.192   8.979  71.840  1.00  0.00    -0.335 NA 
HETATM   12  C   UNL     1      -8.937   8.975  71.267  1.00  0.00    -0.211 A  
HETATM   13  C   UNL     1      -9.013   9.482  69.997  1.00  0.00    -0.223 A  
HETATM   14  N   UNL     1      -7.943   9.586  69.197  1.00  0.00    -0.089 NA 
HETATM   15  C   UNL     1      -6.755   9.142  69.723  1.00  0.00    -0.050 C  
HETATM   16  N   UNL     1      -6.559   8.653  70.911  1.00  0.00    -0.044 N  
HETATM   17  H   UNL     1      -5.626   8.359  71.197  1.00  0.00     0.000 HD 
HETATM   18  C   UNL     1      -7.640   8.532  71.797  1.00  0.00    -0.114 C  
HETATM   19  O   UNL     1      -7.510   8.097  72.935  1.00  0.00    -0.115 OA 
ENDBRANCH   7   9
ENDBRANCH   2   4
TORSDOF 2
ENDMDL
MODEL      227
REMARK 921   NORMALIZED FREE ENERGY PREDICTED BY IDOCK:   -2.96 KCAL/MOL
REMARK 922        TOTAL FREE ENERGY PREDICTED BY IDOCK:   -3.60 KCAL/MOL
REMARK 923 INTER-LIGAND FREE ENERGY PREDICTED BY IDOCK:   -3.39 KCAL/MOL
REMARK 924 INTRA-LIGAND FREE ENERGY PREDICTED BY IDOCK:   -0.21 KCAL/MOL
REMARK 927      BINDING AFFINITY PREDICTED BY RF-SCORE:    0.00 PKD
ROOT
HETATM    1  O   UNL     1     -11.910   6.596  69.294  1.00  0.00    -0.629 OA 
HETATM    2  C   UNL     1     -11.002   5.995  68.370  1.00  0.00    -0.251 C  
HETATM    3  H   UNL     1     -12.191   5.950  69.932  1.00  0.00     0.000 HD 
ENDROOT
BRANCH   2   4
HETATM    4  C   UNL     1     -10.548   7.038  67.338  1.00  0.00    -0.302 C  
HETATM    5  C   UNL     1      -9.323   6.605  66.553  1.00  0.00    -0.191 C  
HETATM    6  C   UNL     1      -8.174   7.192  67.336  1.00  0.00    -0.116 C  
HETATM    7  C   UNL     1      -8.765   8.463  67.924  1.00  0.00    -0.138 C  
HETATM    8  O   UNL     1     -10.189   8.264  68.006  1.00  0.00    -0.197 OA 
BRANCH   7   9
HETATM    9  N   UNL     1      -8.235   8.794  69.234  1.00  0.00    -0.107 NA 
HETATM   10  C   UNL     1      -7.693  10.012  69.581  1.00  0.00    -0.156 A  
HETATM   11  N   UNL     1      -7.256  10.028  70.827  1.00  0.00    -0.314 NA 
HETATM   12  C   UNL     1      -7.547   8.774  71.324  1.00  0.00    -0.110 A  
HETATM   13  C   UNL     1      -8.150   8.024  70.350  1.00  0.00    -0.112 A  
HETATM   14  N   UNL     1      -8.556   6.764  70.556  1.00  0.00    -0.141 NA 
HETATM   15  C   UNL     1      -8.340   6.264  71.817  1.00  0.00    -0.121 C  
HETATM   16  N   UNL     1      -7.773   6.874  72.814  1.00  0.00    -0.093 N  
HETATM   17  H   UNL     1      -7.660   6.397  73.709  1.00  0.00     0.000 HD 
HETATM   18  C   UNL     1      -7.316   8.190  72.653  1.00  0.00    -0.111 C  
HETATM   19  O   UNL     1      -6.757   8.806  73.553  1.00  0.00    -0.302 OA 
ENDBRANCH   7   9
ENDBRANCH   2   4
TORSDOF 2
ENDMDL
MODEL      228
REMARK 921   NORMALIZED FREE ENERGY PREDICTED BY IDOCK:   -2.96 KCAL/MOL
REMARK 922        TOTAL FREE ENERGY PREDICTED BY IDOCK:   -3.60 KCAL/MOL
REMARK 923 INTER-LIGAND FREE ENERGY PREDICTED BY IDOCK:   -3.24 KCAL/MOL
REMARK 924 INTRA-LIGAND FREE ENERGY PREDICTED BY IDOCK:   -0.37 KCAL/MOL
REMARK 927      BINDING AFFINITY PREDICTED BY RF-SCORE:    0.00 PKD
ROOT
HETATM    1  O   UNL     1      -6.823  10.914  70.236  1.00  0.00    -0.387 OA 
HETATM    2  C   UNL     1      -6.427   9.633  69.743  1.00  0.00    -0.049 C  
HETATM    3  H   UNL     1      -6.081  11.342  70.646  1.00  0.00     0.000 HD 
ENDROOT
BRANCH   2   4
HETATM    4  C   UNL     1      -7.627   8.941  69.079  1.00  0.00    -0.085 C  
HETATM    5  C   UNL     1      -7.391   8.615  67.616  1.00  0.00    -0.089 C  
HETATM    6  C   UNL     1      -7.953   9.813  66.890  1.00  0.00    -0.105 C  
HETATM    7  C   UNL     1      -9.089  10.266  67.793  1.00  0.00    -0.134 C  
HETATM    8  O   UNL     1      -8.778   9.807  69.122  1.00  0.00    -0.136 OA 
BRANCH   7   9
HETATM    9  N   UNL     1      -9.284  11.705  67.798  1.00  0.00    -0.173 NA 
HETATM   10  C   UNL     1      -8.452  12.616  67.188  1.00  0.00    -0.186 A  
HETATM   11  N   UNL     1      -8.847  13.861  67.380  1.00  0.00    -0.196 NA 
HETATM   12  C   UNL     1     -10.003  13.758  68.127  1.00  0.00    -0.242 A  
HETATM   13  C   UNL     1     -10.270  12.438  68.376  1.00  0.00    -0.225 A  
HETATM   14  N   UNL     1     -11.343  12.038  69.072  1.00  0.00    -0.255 NA 
HETATM   15  C   UNL     1     -12.175  13.036  69.518  1.00  0.00    -0.140 C  
HETATM   16  N   UNL     1     -12.021  14.316  69.352  1.00  0.00    -0.323 N  
HETATM   17  H   UNL     1     -12.704  14.968  69.735  1.00  0.00     0.000 HD 
HETATM   18  C   UNL     1     -10.909  14.794  68.642  1.00  0.00    -0.253 C  
HETATM   19  O   UNL     1     -10.704  15.990  68.472  1.00  0.00    -0.258 OA 
ENDBRANCH   7   9
ENDBRANCH   2   4
TORSDOF 2
ENDMDL
MODEL      229
REMARK 921   NORMALIZED FREE ENERGY PREDICTED BY IDOCK:   -2.93 KCAL/MOL
REMARK 922        TOTAL FREE ENERGY PREDICTED BY IDOCK:   -3.57 KCAL/MOL
REMARK 923 INTER-LIGAND FREE ENERGY PREDICTED BY IDOCK:   -3.33 KCAL/MOL
REMARK 924 INTRA-LIGAND FREE ENERGY PREDICTED BY IDOCK:   -0.23 KCAL/MOL
REMARK 927      BINDING AFFINITY PREDICTED BY RF-SCORE:    0.00 PKD
ROOT
HETATM    1  O   UNL     1     -10.119   5.877  73.024  1.00  0.00    -0.172 OA 
HETATM    2  C   UNL     1     -10.168   7.273  73.318  1.00  0.00    -0.319 C  
HETATM    3  H   UNL     1      -9.349   5.492  73.424  1.00  0.00     0.000 HD 
ENDROOT
BRANCH   2   4
HETATM    4  C   UNL     1     -11.415   7.896  72.671  1.00  0.00    -0.395 C  
HETATM    5  C   UNL     1     -12.349   6.863  72.067  1.00  0.00    -0.305 C  
HETATM    6  C   UNL     1     -11.904   6.782  70.626  1.00  0.00    -0.442 C  
HETATM    7  C   UNL     1     -11.410   8.190  70.334  1.00  0.00    -0.181 C  
HETATM    8  O   UNL     1     -11.023   8.769  71.595  1.00  0.00    -0.271 OA 
BRANCH   7   9
HETATM    9  N   UNL     1     -10.294   8.231  69.406  1.00  0.00    -0.219 NA 
HETATM   10  C   UNL     1     -10.235   9.017  68.277  1.00  0.00    -0.204 A  
HETATM   11  N   UNL     1      -9.119   8.830  67.596  1.00  0.00    -0.134 NA 
HETATM   12  C   UNL     1      -8.407   7.900  68.325  1.00  0.00    -0.124 A  
HETATM   13  C   UNL     1      -9.126   7.539  69.433  1.00  0.00    -0.142 A  
HETATM   14  N   UNL     1      -8.670   6.657  70.333  1.00  0.00    -0.149 NA 
HETATM   15  C   UNL     1      -7.424   6.135  70.084  1.00  0.00    -0.094 C  
HETATM   16  N   UNL     1      -6.657   6.393  69.068  1.00  0.00    -0.046 N  
HETATM   17  H   UNL     1      -5.748   5.938  68.984  1.00  0.00     0.000 HD 
HETATM   18  C   UNL     1      -7.087   7.299  68.087  1.00  0.00    -0.081 C  
HETATM   19  O   UNL     1      -6.413   7.565  67.098  1.00  0.00    -0.056 OA 
ENDBRANCH   7   9
ENDBRANCH   2   4
TORSDOF 2
ENDMDL
MODEL      230
REMARK 921   NORMALIZED FREE ENERGY PREDICTED BY IDOCK:   -2.93 KCAL/MOL
REMARK 922        TOTAL FREE ENERGY PREDICTED BY IDOCK:   -3.57 KCAL/MOL
REMARK 923 INTER-LIGAND FREE ENERGY PREDICTED BY IDOCK:   -3.66 KCAL/MOL
REMARK 924 INTRA-LIGAND FREE ENERGY PREDICTED BY IDOCK:    0.10 KCAL/MOL
REMARK 927      BINDING AFFINITY PREDICTED BY RF-SCORE:    0.00 PKD
ROOT
HETATM    1  O   UNL     1      -7.741   7.559  65.210  1.00  0.00    -0.097 OA 
HETATM    2  C   UNL     1      -7.723   8.885  65.741  1.00  0.00    -0.094 C  
HETATM    3  H   UNL     1      -6.919   7.125  65.405  1.00  0.00     0.000 HD 
ENDROOT
BRANCH   2   4
HETATM    4  C   UNL     1      -9.052   9.587  65.426  1.00  0.00    -0.221 C  
HETATM    5  C   UNL     1      -9.029  11.072  65.742  1.00  0.00    -0.208 C  
HETATM    6  C   UNL     1      -9.572  11.143  67.149  1.00  0.00    -0.192 C  
HETATM    7  C   UNL     1     -10.542   9.974  67.208  1.00  0.00    -0.257 C  
HETATM    8  O   UNL     1     -10.108   9.018  66.222  1.00  0.00    -0.295 OA 
BRANCH   7   9
HETATM    9  N   UNL     1     -10.610   9.344  68.514  1.00  0.00    -0.213 NA 
HETATM   10  C   UNL     1     -10.699  10.018  69.712  1.00  0.00    -0.271 A  
HETATM   11  N   UNL     1     -10.710   9.198  70.747  1.00  0.00    -0.241 NA 
HETATM   12  C   UNL     1     -10.652   7.932  70.202  1.00  0.00    -0.237 A  
HETATM   13  C   UNL     1     -10.596   8.025  68.836  1.00  0.00    -0.140 A  
HETATM   14  N   UNL     1     -10.546   6.947  68.041  1.00  0.00    -0.209 NA 
HETATM   15  C   UNL     1     -10.563   5.731  68.679  1.00  0.00    -0.235 C  
HETATM   16  N   UNL     1     -10.605   5.519  69.960  1.00  0.00    -0.316 N  
HETATM   17  H   UNL     1     -10.607   4.566  70.323  1.00  0.00     0.000 HD 
HETATM   18  C   UNL     1     -10.646   6.610  70.842  1.00  0.00    -0.224 C  
HETATM   19  O   UNL     1     -10.667   6.469  72.059  1.00  0.00    -0.214 OA 
ENDBRANCH   7   9
ENDBRANCH   2   4
TORSDOF 2
ENDMDL
MODEL      231
REMARK 921   NORMALIZED FREE ENERGY PREDICTED BY IDOCK:   -2.88 KCAL/MOL
REMARK 922        TOTAL FREE ENERGY PREDICTED BY IDOCK:   -3.51 KCAL/MOL
REMARK 923 INTER-LIGAND FREE ENERGY PREDICTED BY IDOCK:   -3.37 KCAL/MOL
REMARK 924 INTRA-LIGAND FREE ENERGY PREDICTED BY IDOCK:   -0.14 KCAL/MOL
REMARK 927      BINDING AFFINITY PREDICTED BY RF-SCORE:    0.00 PKD
ROOT
HETATM    1  O   UNL     1      -8.902   7.878  64.537  1.00  0.00    -0.362 OA 
HETATM    2  C   UNL     1      -8.535   8.756  65.602  1.00  0.00    -0.160 C  
HETATM    3  H   UNL     1      -8.121   7.572  64.091  1.00  0.00     0.000 HD 
ENDROOT
BRANCH   2   4
HETATM    4  C   UNL     1      -9.798   9.252  66.323  1.00  0.00    -0.291 C  
HETATM    5  C   UNL     1      -9.493  10.022  67.594  1.00  0.00    -0.163 C  
HETATM    6  C   UNL     1      -9.552   8.966  68.671  1.00  0.00    -0.158 C  
HETATM    7  C   UNL     1     -10.591   7.989  68.146  1.00  0.00    -0.116 C  
HETATM    8  O   UNL     1     -10.612   8.129  66.712  1.00  0.00    -0.313 OA 
BRANCH   7   9
HETATM    9  N   UNL     1     -10.322   6.609  68.505  1.00  0.00    -0.178 NA 
HETATM   10  C   UNL     1     -10.320   6.114  69.791  1.00  0.00    -0.211 A  
HETATM   11  N   UNL     1     -10.009   4.832  69.832  1.00  0.00    -0.225 NA 
HETATM   12  C   UNL     1      -9.825   4.465  68.515  1.00  0.00    -0.069 A  
HETATM   13  C   UNL     1     -10.022   5.553  67.706  1.00  0.00    -0.155 A  
HETATM   14  N   UNL     1      -9.921   5.487  66.372  1.00  0.00    -0.171 NA 
HETATM   15  C   UNL     1      -9.615   4.253  65.853  1.00  0.00    -0.191 C  
HETATM   16  N   UNL     1      -9.398   3.157  66.517  1.00  0.00    -0.314 N  
HETATM   17  H   UNL     1      -9.171   2.294  66.023  1.00  0.00     0.000 HD 
HETATM   18  C   UNL     1      -9.477   3.168  67.918  1.00  0.00    -0.160 C  
HETATM   19  O   UNL     1      -9.264   2.170  68.596  1.00  0.00    -0.135 OA 
ENDBRANCH   7   9
ENDBRANCH   2   4
TORSDOF 2
ENDMDL
MODEL      232
REMARK 921   NORMALIZED FREE ENERGY PREDICTED BY IDOCK:   -2.87 KCAL/MOL
REMARK 922        TOTAL FREE ENERGY PREDICTED BY IDOCK:   -3.50 KCAL/MOL
REMARK 923 INTER-LIGAND FREE ENERGY PREDICTED BY IDOCK:   -3.15 KCAL/MOL
REMARK 924 INTRA-LIGAND FREE ENERGY PREDICTED BY IDOCK:   -0.35 KCAL/MOL
REMARK 927      BINDING AFFINITY PREDICTED BY RF-SCORE:    0.00 PKD
ROOT
HETATM    1  O   UNL     1      -9.404   8.246  71.554  1.00  0.00    -0.152 OA 
HETATM    2  C   UNL     1     -10.289   9.248  71.051  1.00  0.00    -0.318 C  
HETATM    3  H   UNL     1      -9.832   7.761  72.250  1.00  0.00     0.000 HD 
ENDROOT
BRANCH   2   4
HETATM    4  C   UNL     1      -9.598  10.032  69.926  1.00  0.00    -0.192 C  
HETATM    5  C   UNL     1     -10.570  10.823  69.069  1.00  0.00    -0.250 C  
HETATM    6  C   UNL     1     -10.884   9.883  67.930  1.00  0.00    -0.312 C  
HETATM    7  C   UNL     1      -9.598   9.089  67.767  1.00  0.00    -0.150 C  
HETATM    8  O   UNL     1      -8.921   9.122  69.039  1.00  0.00    -0.139 OA 
BRANCH   7   9
HETATM    9  N   UNL     1      -9.815   7.714  67.356  1.00  0.00    -0.159 NA 
HETATM   10  C   UNL     1     -10.701   6.843  67.949  1.00  0.00    -0.232 A  
HETATM   11  N   UNL     1     -10.670   5.645  67.396  1.00  0.00    -0.238 NA 
HETATM   12  C   UNL     1      -9.742   5.743  66.380  1.00  0.00    -0.147 A  
HETATM   13  C   UNL     1      -9.225   7.011  66.355  1.00  0.00    -0.149 A  
HETATM   14  N   UNL     1      -8.307   7.399  65.459  1.00  0.00    -0.138 NA 
HETATM   15  C   UNL     1      -7.916   6.446  64.550  1.00  0.00    -0.117 C  
HETATM   16  N   UNL     1      -8.328   5.215  64.482  1.00  0.00    -0.133 N  
HETATM   17  H   UNL     1      -7.961   4.591  63.763  1.00  0.00     0.000 HD 
HETATM   18  C   UNL     1      -9.279   4.749  65.402  1.00  0.00    -0.155 C  
HETATM   19  O   UNL     1      -9.687   3.594  65.396  1.00  0.00    -0.172 OA 
ENDBRANCH   7   9
ENDBRANCH   2   4
TORSDOF 2
ENDMDL
MODEL      233
REMARK 921   NORMALIZED FREE ENERGY PREDICTED BY IDOCK:   -2.86 KCAL/MOL
REMARK 922        TOTAL FREE ENERGY PREDICTED BY IDOCK:   -3.50 KCAL/MOL
REMARK 923 INTER-LIGAND FREE ENERGY PREDICTED BY IDOCK:   -3.38 KCAL/MOL
REMARK 924 INTRA-LIGAND FREE ENERGY PREDICTED BY IDOCK:   -0.12 KCAL/MOL
REMARK 927      BINDING AFFINITY PREDICTED BY RF-SCORE:    0.00 PKD
ROOT
HETATM    1  O   UNL     1     -11.890   7.193  70.534  1.00  0.00    -0.435 OA 
HETATM    2  C   UNL     1     -12.696   8.148  71.225  1.00  0.00    -0.206 C  
HETATM    3  H   UNL     1     -12.379   6.389  70.413  1.00  0.00     0.000 HD 
ENDROOT
BRANCH   2   4
HETATM    4  C   UNL     1     -11.904   9.449  71.422  1.00  0.00    -0.374 C  
HETATM    5  C   UNL     1     -12.285  10.532  70.429  1.00  0.00    -0.415 C  
HETATM    6  C   UNL     1     -11.293  10.350  69.306  1.00  0.00    -0.296 C  
HETATM    7  C   UNL     1     -10.053   9.833  70.017  1.00  0.00    -0.257 C  
HETATM    8  O   UNL     1     -10.498   9.201  71.232  1.00  0.00    -0.274 OA 
BRANCH   7   9
HETATM    9  N   UNL     1      -9.280   8.895  69.224  1.00  0.00    -0.144 NA 
HETATM   10  C   UNL     1      -8.980   9.050  67.889  1.00  0.00    -0.132 A  
HETATM   11  N   UNL     1      -8.294   8.030  67.409  1.00  0.00    -0.122 NA 
HETATM   12  C   UNL     1      -8.115   7.182  68.483  1.00  0.00    -0.125 A  
HETATM   13  C   UNL     1      -8.715   7.716  69.592  1.00  0.00    -0.136 A  
HETATM   14  N   UNL     1      -8.689   7.113  70.788  1.00  0.00    -0.146 NA 
HETATM   15  C   UNL     1      -8.012   5.919  70.842  1.00  0.00    -0.111 C  
HETATM   16  N   UNL     1      -7.415   5.312  69.860  1.00  0.00    -0.063 N  
HETATM   17  H   UNL     1      -6.946   4.420  70.018  1.00  0.00     0.000 HD 
HETATM   18  C   UNL     1      -7.419   5.891  68.582  1.00  0.00    -0.086 C  
HETATM   19  O   UNL     1      -6.890   5.354  67.617  1.00  0.00    -0.057 OA 
ENDBRANCH   7   9
ENDBRANCH   2   4
TORSDOF 2
ENDMDL
MODEL      234
REMARK 921   NORMALIZED FREE ENERGY PREDICTED BY IDOCK:   -2.83 KCAL/MOL
REMARK 922        TOTAL FREE ENERGY PREDICTED BY IDOCK:   -3.46 KCAL/MOL
REMARK 923 INTER-LIGAND FREE ENERGY PREDICTED BY IDOCK:   -3.40 KCAL/MOL
REMARK 924 INTRA-LIGAND FREE ENERGY PREDICTED BY IDOCK:   -0.06 KCAL/MOL
REMARK 927      BINDING AFFINITY PREDICTED BY RF-SCORE:    0.00 PKD
ROOT
HETATM    1  O   UNL     1     -11.186   6.732  67.551  1.00  0.00    -0.558 OA 
HETATM    2  C   UNL     1     -10.394   7.858  67.170  1.00  0.00    -0.328 C  
HETATM    3  H   UNL     1     -10.892   5.961  67.082  1.00  0.00     0.000 HD 
ENDROOT
BRANCH   2   4
HETATM    4  C   UNL     1     -10.870   9.106  67.929  1.00  0.00    -0.083 C  
HETATM    5  C   UNL     1      -9.851  10.231  67.921  1.00  0.00    -0.181 C  
HETATM    6  C   UNL     1      -9.074  10.014  69.197  1.00  0.00    -0.188 C  
HETATM    7  C   UNL     1     -10.106   9.410  70.136  1.00  0.00    -0.233 C  
HETATM    8  O   UNL     1     -11.104   8.779  69.312  1.00  0.00    -0.062 OA 
BRANCH   7   9
HETATM    9  N   UNL     1      -9.548   8.445  71.065  1.00  0.00    -0.160 NA 
HETATM   10  C   UNL     1      -8.232   8.412  71.473  1.00  0.00    -0.144 A  
HETATM   11  N   UNL     1      -7.990   7.408  72.296  1.00  0.00    -0.098 NA 
HETATM   12  C   UNL     1      -9.204   6.772  72.453  1.00  0.00    -0.134 A  
HETATM   13  C   UNL     1     -10.155   7.412  71.703  1.00  0.00    -0.183 A  
HETATM   14  N   UNL     1     -11.435   7.018  71.673  1.00  0.00    -0.255 NA 
HETATM   15  C   UNL     1     -11.747   5.930  72.453  1.00  0.00    -0.253 C  
HETATM   16  N   UNL     1     -10.933   5.241  73.194  1.00  0.00    -0.282 N  
HETATM   17  H   UNL     1     -11.277   4.443  73.729  1.00  0.00     0.000 HD 
HETATM   18  C   UNL     1      -9.577   5.599  73.255  1.00  0.00    -0.146 C  
HETATM   19  O   UNL     1      -8.762   4.973  73.922  1.00  0.00    -0.112 OA 
ENDBRANCH   7   9
ENDBRANCH   2   4
TORSDOF 2
ENDMDL
MODEL      235
REMARK 921   NORMALIZED FREE ENERGY PREDICTED BY IDOCK:   -2.82 KCAL/MOL
REMARK 922        TOTAL FREE ENERGY PREDICTED BY IDOCK:   -3.45 KCAL/MOL
REMARK 923 INTER-LIGAND FREE ENERGY PREDICTED BY IDOCK:   -3.13 KCAL/MOL
REMARK 924 INTRA-LIGAND FREE ENERGY PREDICTED BY IDOCK:   -0.32 KCAL/MOL
REMARK 927      BINDING AFFINITY PREDICTED BY RF-SCORE:    0.00 PKD
ROOT
HETATM    1  O   UNL     1     -11.022  11.460  69.961  1.00  0.00    -0.474 OA 
HETATM    2  C   UNL     1     -11.036  10.181  69.326  1.00  0.00    -0.225 C  
HETATM    3  H   UNL     1     -10.965  12.143  69.304  1.00  0.00     0.000 HD 
ENDROOT
BRANCH   2   4
HETATM    4  C   UNL     1     -11.129   9.076  70.389  1.00  0.00    -0.244 C  
HETATM    5  C   UNL     1     -10.049   9.179  71.450  1.00  0.00    -0.392 C  
HETATM    6  C   UNL     1      -8.950   8.287  70.926  1.00  0.00    -0.174 C  
HETATM    7  C   UNL     1      -9.708   7.211  70.164  1.00  0.00    -0.171 C  
HETATM    8  O   UNL     1     -10.968   7.785  69.769  1.00  0.00    -0.237 OA 
BRANCH   7   9
HETATM    9  N   UNL     1      -8.999   6.720  68.996  1.00  0.00    -0.132 NA 
HETATM   10  C   UNL     1      -8.165   7.478  68.204  1.00  0.00    -0.125 A  
HETATM   11  N   UNL     1      -7.679   6.789  67.188  1.00  0.00    -0.102 NA 
HETATM   12  C   UNL     1      -8.196   5.518  67.337  1.00  0.00    -0.101 A  
HETATM   13  C   UNL     1      -8.998   5.479  68.447  1.00  0.00    -0.110 A  
HETATM   14  N   UNL     1      -9.626   4.364  68.844  1.00  0.00    -0.165 NA 
HETATM   15  C   UNL     1      -9.409   3.247  68.075  1.00  0.00    -0.191 C  
HETATM   16  N   UNL     1      -8.681   3.165  67.002  1.00  0.00    -0.115 N  
HETATM   17  H   UNL     1      -8.597   2.279  66.505  1.00  0.00     0.000 HD 
HETATM   18  C   UNL     1      -8.010   4.304  66.531  1.00  0.00    -0.098 C  
HETATM   19  O   UNL     1      -7.326   4.290  65.514  1.00  0.00    -0.074 OA 
ENDBRANCH   7   9
ENDBRANCH   2   4
TORSDOF 2
ENDMDL
MODEL      236
REMARK 921   NORMALIZED FREE ENERGY PREDICTED BY IDOCK:   -2.81 KCAL/MOL
REMARK 922        TOTAL FREE ENERGY PREDICTED BY IDOCK:   -3.43 KCAL/MOL
REMARK 923 INTER-LIGAND FREE ENERGY PREDICTED BY IDOCK:   -3.29 KCAL/MOL
REMARK 924 INTRA-LIGAND FREE ENERGY PREDICTED BY IDOCK:   -0.14 KCAL/MOL
REMARK 927      BINDING AFFINITY PREDICTED BY RF-SCORE:    0.00 PKD
ROOT
HETATM    1  O   UNL     1      -8.487  10.029  70.078  1.00  0.00    -0.278 OA 
HETATM    2  C   UNL     1      -9.304  10.900  69.295  1.00  0.00    -0.006 C  
HETATM    3  H   UNL     1      -7.712  10.494  70.371  1.00  0.00     0.000 HD 
ENDROOT
BRANCH   2   4
HETATM    4  C   UNL     1     -10.557  10.148  68.822  1.00  0.00    -0.213 C  
HETATM    5  C   UNL     1     -11.843  10.718  69.393  1.00  0.00    -0.370 C  
HETATM    6  C   UNL     1     -12.077   9.892  70.634  1.00  0.00    -0.343 C  
HETATM    7  C   UNL     1     -11.487   8.539  70.269  1.00  0.00    -0.060 C  
HETATM    8  O   UNL     1     -10.495   8.775  69.251  1.00  0.00    -0.219 OA 
BRANCH   7   9
HETATM    9  N   UNL     1     -10.886   7.847  71.396  1.00  0.00    -0.224 NA 
HETATM   10  C   UNL     1     -11.464   7.716  72.639  1.00  0.00    -0.349 A  
HETATM   11  N   UNL     1     -10.683   7.070  73.486  1.00  0.00    -0.360 NA 
HETATM   12  C   UNL     1      -9.558   6.743  72.758  1.00  0.00    -0.145 A  
HETATM   13  C   UNL     1      -9.688   7.215  71.479  1.00  0.00    -0.164 A  
HETATM   14  N   UNL     1      -8.747   7.031  70.543  1.00  0.00    -0.152 NA 
HETATM   15  C   UNL     1      -7.637   6.325  70.939  1.00  0.00    -0.096 C  
HETATM   16  N   UNL     1      -7.400   5.839  72.120  1.00  0.00    -0.092 N  
HETATM   17  H   UNL     1      -6.532   5.334  72.302  1.00  0.00     0.000 HD 
HETATM   18  C   UNL     1      -8.343   6.012  73.144  1.00  0.00    -0.116 C  
HETATM   19  O   UNL     1      -8.163   5.591  74.281  1.00  0.00    -0.105 OA 
ENDBRANCH   7   9
ENDBRANCH   2   4
TORSDOF 2
ENDMDL
MODEL      237
REMARK 921   NORMALIZED FREE ENERGY PREDICTED BY IDOCK:   -2.80 KCAL/MOL
REMARK 922        TOTAL FREE ENERGY PREDICTED BY IDOCK:   -3.43 KCAL/MOL
REMARK 923 INTER-LIGAND FREE ENERGY PREDICTED BY IDOCK:   -3.52 KCAL/MOL
REMARK 924 INTRA-LIGAND FREE ENERGY PREDICTED BY IDOCK:    0.09 KCAL/MOL
REMARK 927      BINDING AFFINITY PREDICTED BY RF-SCORE:    0.00 PKD
ROOT
HETATM    1  O   UNL     1     -12.669  14.162  66.365  1.00  0.00    -0.529 OA 
HETATM    2  C   UNL     1     -12.021  13.647  67.529  1.00  0.00    -0.358 C  
HETATM    3  H   UNL     1     -13.110  13.457  65.906  1.00  0.00     0.000 HD 
ENDROOT
BRANCH   2   4
HETATM    4  C   UNL     1     -11.308  14.786  68.272  1.00  0.00    -0.301 C  
HETATM    5  C   UNL     1     -10.857  15.905  67.352  1.00  0.00    -0.291 C  
HETATM    6  C   UNL     1      -9.437  15.530  67.006  1.00  0.00    -0.238 C  
HETATM    7  C   UNL     1      -8.953  14.808  68.254  1.00  0.00    -0.181 C  
HETATM    8  O   UNL     1     -10.121  14.284  68.915  1.00  0.00    -0.226 OA 
BRANCH   7   9
HETATM    9  N   UNL     1      -8.018  13.734  67.975  1.00  0.00    -0.141 NA 
HETATM   10  C   UNL     1      -6.699  13.909  67.616  1.00  0.00    -0.175 A  
HETATM   11  N   UNL     1      -6.087  12.762  67.387  1.00  0.00    -0.238 NA 
HETATM   12  C   UNL     1      -7.039  11.793  67.632  1.00  0.00    -0.107 A  
HETATM   13  C   UNL     1      -8.216  12.391  67.995  1.00  0.00    -0.168 A  
HETATM   14  N   UNL     1      -9.316  11.690  68.306  1.00  0.00    -0.187 NA 
HETATM   15  C   UNL     1      -9.192  10.323  68.247  1.00  0.00    -0.139 C  
HETATM   16  N   UNL     1      -8.135   9.647  67.909  1.00  0.00    -0.105 N  
HETATM   17  H   UNL     1      -8.162   8.628  67.895  1.00  0.00     0.000 HD 
HETATM   18  C   UNL     1      -6.959  10.328  67.561  1.00  0.00    -0.085 C  
HETATM   19  O   UNL     1      -5.940   9.742  67.216  1.00  0.00    -0.051 OA 
ENDBRANCH   7   9
ENDBRANCH   2   4
TORSDOF 2
ENDMDL
MODEL      238
REMARK 921   NORMALIZED FREE ENERGY PREDICTED BY IDOCK:   -2.80 KCAL/MOL
REMARK 922        TOTAL FREE ENERGY PREDICTED BY IDOCK:   -3.42 KCAL/MOL
REMARK 923 INTER-LIGAND FREE ENERGY PREDICTED BY IDOCK:   -3.09 KCAL/MOL
REMARK 924 INTRA-LIGAND FREE ENERGY PREDICTED BY IDOCK:   -0.33 KCAL/MOL
REMARK 927      BINDING AFFINITY PREDICTED BY RF-SCORE:    0.00 PKD
ROOT
HETATM    1  O   UNL     1      -9.423   7.875  73.544  1.00  0.00    -0.281 OA 
HETATM    2  C   UNL     1     -10.569   7.181  73.051  1.00  0.00    -0.308 C  
HETATM    3  H   UNL     1      -9.538   8.810  73.423  1.00  0.00     0.000 HD 
ENDROOT
BRANCH   2   4
HETATM    4  C   UNL     1     -10.383   5.669  73.247  1.00  0.00    -0.211 C  
HETATM    5  C   UNL     1      -8.926   5.254  73.322  1.00  0.00    -0.120 C  
HETATM    6  C   UNL     1      -8.585   4.894  71.896  1.00  0.00    -0.132 C  
HETATM    7  C   UNL     1      -9.900   4.364  71.347  1.00  0.00    -0.192 C  
HETATM    8  O   UNL     1     -10.952   4.957  72.132  1.00  0.00    -0.128 OA 
BRANCH   7   9
HETATM    9  N   UNL     1     -10.101   4.662  69.941  1.00  0.00    -0.235 NA 
HETATM   10  C   UNL     1     -10.840   5.718  69.456  1.00  0.00    -0.340 A  
HETATM   11  N   UNL     1     -10.886   5.733  68.137  1.00  0.00    -0.217 NA 
HETATM   12  C   UNL     1     -10.123   4.654  67.740  1.00  0.00    -0.035 A  
HETATM   13  C   UNL     1      -9.640   4.005  68.846  1.00  0.00    -0.143 A  
HETATM   14  N   UNL     1      -8.853   2.923  68.761  1.00  0.00    -0.098 NA 
HETATM   15  C   UNL     1      -8.546   2.503  67.490  1.00  0.00    -0.103 C  
HETATM   16  N   UNL     1      -8.950   3.030  66.373  1.00  0.00    -0.146 N  
HETATM   17  H   UNL     1      -8.660   2.626  65.482  1.00  0.00     0.000 HD 
HETATM   18  C   UNL     1      -9.786   4.156  66.399  1.00  0.00    -0.208 C  
HETATM   19  O   UNL     1     -10.212   4.681  65.378  1.00  0.00    -0.197 OA 
ENDBRANCH   7   9
ENDBRANCH   2   4
TORSDOF 2
ENDMDL
MODEL      239
REMARK 921   NORMALIZED FREE ENERGY PREDICTED BY IDOCK:   -2.78 KCAL/MOL
REMARK 922        TOTAL FREE ENERGY PREDICTED BY IDOCK:   -3.40 KCAL/MOL
REMARK 923 INTER-LIGAND FREE ENERGY PREDICTED BY IDOCK:   -3.02 KCAL/MOL
REMARK 924 INTRA-LIGAND FREE ENERGY PREDICTED BY IDOCK:   -0.38 KCAL/MOL
REMARK 927      BINDING AFFINITY PREDICTED BY RF-SCORE:    0.00 PKD
ROOT
HETATM    1  O   UNL     1      -8.202   5.272  69.711  1.00  0.00    -0.095 OA 
HETATM    2  C   UNL     1      -6.956   5.773  69.226  1.00  0.00    -0.064 C  
HETATM    3  H   UNL     1      -8.112   5.017  70.622  1.00  0.00     0.000 HD 
ENDROOT
BRANCH   2   4
HETATM    4  C   UNL     1      -7.101   6.185  67.753  1.00  0.00    -0.081 C  
HETATM    5  C   UNL     1      -6.176   7.322  67.360  1.00  0.00    -0.050 C  
HETATM    6  C   UNL     1      -7.022   8.555  67.565  1.00  0.00    -0.079 C  
HETATM    7  C   UNL     1      -8.430   8.066  67.262  1.00  0.00    -0.125 C  
HETATM    8  O   UNL     1      -8.443   6.647  67.504  1.00  0.00    -0.120 OA 
BRANCH   7   9
HETATM    9  N   UNL     1      -9.452   8.715  68.064  1.00  0.00    -0.139 NA 
HETATM   10  C   UNL     1     -10.434   9.544  67.569  1.00  0.00    -0.275 A  
HETATM   11  N   UNL     1     -11.209  10.025  68.524  1.00  0.00    -0.175 NA 
HETATM   12  C   UNL     1     -10.729   9.467  69.691  1.00  0.00    -0.235 A  
HETATM   13  C   UNL     1      -9.658   8.662  69.405  1.00  0.00    -0.166 A  
HETATM   14  N   UNL     1      -8.997   7.978  70.349  1.00  0.00    -0.145 NA 
HETATM   15  C   UNL     1      -9.465   8.122  71.632  1.00  0.00    -0.177 C  
HETATM   16  N   UNL     1     -10.461   8.860  72.024  1.00  0.00    -0.340 N  
HETATM   17  H   UNL     1     -10.716   8.894  73.011  1.00  0.00     0.000 HD 
HETATM   18  C   UNL     1     -11.182   9.608  71.081  1.00  0.00    -0.384 C  
HETATM   19  O   UNL     1     -12.117  10.335  71.397  1.00  0.00    -0.372 OA 
ENDBRANCH   7   9
ENDBRANCH   2   4
TORSDOF 2
ENDMDL
MODEL      240
REMARK 921   NORMALIZED FREE ENERGY PREDICTED BY IDOCK:   -2.78 KCAL/MOL
REMARK 922        TOTAL FREE ENERGY PREDICTED BY IDOCK:   -3.40 KCAL/MOL
REMARK 923 INTER-LIGAND FREE ENERGY PREDICTED BY IDOCK:   -3.27 KCAL/MOL
REMARK 924 INTRA-LIGAND FREE ENERGY PREDICTED BY IDOCK:   -0.14 KCAL/MOL
REMARK 927      BINDING AFFINITY PREDICTED BY RF-SCORE:    0.00 PKD
ROOT
HETATM    1  O   UNL     1      -7.942   7.219  68.697  1.00  0.00    -0.119 OA 
HETATM    2  C   UNL     1      -8.312   8.576  68.448  1.00  0.00    -0.124 C  
HETATM    3  H   UNL     1      -7.018   7.173  68.910  1.00  0.00     0.000 HD 
ENDROOT
BRANCH   2   4
HETATM    4  C   UNL     1      -9.807   8.651  68.103  1.00  0.00    -0.165 C  
HETATM    5  C   UNL     1     -10.078   8.552  66.613  1.00  0.00    -0.364 C  
HETATM    6  C   UNL     1     -10.122   9.993  66.164  1.00  0.00    -0.317 C  
HETATM    7  C   UNL     1     -10.668  10.721  67.382  1.00  0.00    -0.268 C  
HETATM    8  O   UNL     1     -10.346   9.915  68.532  1.00  0.00    -0.180 OA 
BRANCH   7   9
HETATM    9  N   UNL     1     -10.127  12.058  67.546  1.00  0.00    -0.194 NA 
HETATM   10  C   UNL     1     -10.881  13.206  67.657  1.00  0.00    -0.254 A  
HETATM   11  N   UNL     1     -10.131  14.288  67.762  1.00  0.00    -0.229 NA 
HETATM   12  C   UNL     1      -8.831  13.826  67.744  1.00  0.00    -0.188 A  
HETATM   13  C   UNL     1      -8.833  12.462  67.617  1.00  0.00    -0.177 A  
HETATM   14  N   UNL     1      -7.705  11.739  67.586  1.00  0.00    -0.128 NA 
HETATM   15  C   UNL     1      -6.534  12.448  67.698  1.00  0.00    -0.130 C  
HETATM   16  N   UNL     1      -6.408  13.737  67.813  1.00  0.00    -0.163 N  
HETATM   17  H   UNL     1      -5.481  14.157  67.884  1.00  0.00     0.000 HD 
HETATM   18  C   UNL     1      -7.554  14.546  67.839  1.00  0.00    -0.145 C  
HETATM   19  O   UNL     1      -7.493  15.767  67.927  1.00  0.00    -0.122 OA 
ENDBRANCH   7   9
ENDBRANCH   2   4
TORSDOF 2
ENDMDL
MODEL      241
REMARK 921   NORMALIZED FREE ENERGY PREDICTED BY IDOCK:   -2.78 KCAL/MOL
REMARK 922        TOTAL FREE ENERGY PREDICTED BY IDOCK:   -3.40 KCAL/MOL
REMARK 923 INTER-LIGAND FREE ENERGY PREDICTED BY IDOCK:   -3.30 KCAL/MOL
REMARK 924 INTRA-LIGAND FREE ENERGY PREDICTED BY IDOCK:   -0.10 KCAL/MOL
REMARK 927      BINDING AFFINITY PREDICTED BY RF-SCORE:    0.00 PKD
ROOT
HETATM    1  O   UNL     1     -10.254   4.874  69.701  1.00  0.00    -0.243 OA 
HETATM    2  C   UNL     1     -10.006   6.162  70.267  1.00  0.00    -0.183 C  
HETATM    3  H   UNL     1     -11.145   4.608  69.890  1.00  0.00     0.000 HD 
ENDROOT
BRANCH   2   4
HETATM    4  C   UNL     1      -8.563   6.592  69.963  1.00  0.00    -0.140 C  
HETATM    5  C   UNL     1      -7.804   7.042  71.198  1.00  0.00    -0.099 C  
HETATM    6  C   UNL     1      -8.018   8.536  71.222  1.00  0.00    -0.158 C  
HETATM    7  C   UNL     1      -8.125   8.897  69.749  1.00  0.00    -0.109 C  
HETATM    8  O   UNL     1      -8.567   7.713  69.058  1.00  0.00    -0.134 OA 
BRANCH   7   9
HETATM    9  N   UNL     1      -9.038   9.994  69.487  1.00  0.00    -0.213 NA 
HETATM   10  C   UNL     1      -8.805  11.019  68.597  1.00  0.00    -0.164 A  
HETATM   11  N   UNL     1      -9.787  11.902  68.583  1.00  0.00    -0.172 NA 
HETATM   12  C   UNL     1     -10.713  11.421  69.485  1.00  0.00    -0.045 A  
HETATM   13  C   UNL     1     -10.254  10.252  70.032  1.00  0.00    -0.162 A  
HETATM   14  N   UNL     1     -10.957   9.552  70.934  1.00  0.00    -0.308 NA 
HETATM   15  C   UNL     1     -12.181  10.074  71.276  1.00  0.00    -0.402 C  
HETATM   16  N   UNL     1     -12.714  11.172  70.833  1.00  0.00    -0.357 N  
HETATM   17  H   UNL     1     -13.633  11.466  71.165  1.00  0.00     0.000 HD 
HETATM   18  C   UNL     1     -12.020  11.953  69.897  1.00  0.00    -0.325 C  
HETATM   19  O   UNL     1     -12.466  13.007  69.460  1.00  0.00    -0.082 OA 
ENDBRANCH   7   9
ENDBRANCH   2   4
TORSDOF 2
ENDMDL
MODEL      242
REMARK 921   NORMALIZED FREE ENERGY PREDICTED BY IDOCK:   -2.74 KCAL/MOL
REMARK 922        TOTAL FREE ENERGY PREDICTED BY IDOCK:   -3.36 KCAL/MOL
REMARK 923 INTER-LIGAND FREE ENERGY PREDICTED BY IDOCK:   -3.13 KCAL/MOL
REMARK 924 INTRA-LIGAND FREE ENERGY PREDICTED BY IDOCK:   -0.23 KCAL/MOL
REMARK 927      BINDING AFFINITY PREDICTED BY RF-SCORE:    0.00 PKD
ROOT
HETATM    1  O   UNL     1     -11.641   6.900  69.526  1.00  0.00    -0.563 OA 
HETATM    2  C   UNL     1     -10.842   6.181  68.586  1.00  0.00    -0.332 C  
HETATM    3  H   UNL     1     -11.549   6.512  70.388  1.00  0.00     0.000 HD 
ENDROOT
BRANCH   2   4
HETATM    4  C   UNL     1     -10.992   6.809  67.192  1.00  0.00    -0.388 C  
HETATM    5  C   UNL     1     -10.021   6.237  66.175  1.00  0.00     0.061 C  
HETATM    6  C   UNL     1      -8.845   7.181  66.239  1.00  0.00    -0.166 C  
HETATM    7  C   UNL     1      -9.486   8.515  66.585  1.00  0.00    -0.207 C  
HETATM    8  O   UNL     1     -10.725   8.222  67.260  1.00  0.00    -0.289 OA 
BRANCH   7   9
HETATM    9  N   UNL     1      -8.652   9.358  67.424  1.00  0.00    -0.125 NA 
HETATM   10  C   UNL     1      -8.080  10.546  67.027  1.00  0.00    -0.118 A  
HETATM   11  N   UNL     1      -7.342  11.087  67.978  1.00  0.00    -0.086 NA 
HETATM   12  C   UNL     1      -7.457  10.229  69.052  1.00  0.00    -0.097 A  
HETATM   13  C   UNL     1      -8.263   9.176  68.711  1.00  0.00    -0.109 A  
HETATM   14  N   UNL     1      -8.562   8.190  69.568  1.00  0.00    -0.133 NA 
HETATM   15  C   UNL     1      -8.018   8.300  70.824  1.00  0.00    -0.100 C  
HETATM   16  N   UNL     1      -7.237   9.244  71.258  1.00  0.00    -0.038 N  
HETATM   17  H   UNL     1      -6.886   9.219  72.215  1.00  0.00     0.000 HD 
HETATM   18  C   UNL     1      -6.879  10.296  70.402  1.00  0.00    -0.102 C  
HETATM   19  O   UNL     1      -6.130  11.200  70.751  1.00  0.00    -0.336 OA 
ENDBRANCH   7   9
ENDBRANCH   2   4
TORSDOF 2
ENDMDL
MODEL      243
REMARK 921   NORMALIZED FREE ENERGY PREDICTED BY IDOCK:   -2.71 KCAL/MOL
REMARK 922        TOTAL FREE ENERGY PREDICTED BY IDOCK:   -3.32 KCAL/MOL
REMARK 923 INTER-LIGAND FREE ENERGY PREDICTED BY IDOCK:   -3.43 KCAL/MOL
REMARK 924 INTRA-LIGAND FREE ENERGY PREDICTED BY IDOCK:    0.11 KCAL/MOL
REMARK 927      BINDING AFFINITY PREDICTED BY RF-SCORE:    0.00 PKD
ROOT
HETATM    1  O   UNL     1     -11.487  11.614  70.434  1.00  0.00    -0.501 OA 
HETATM    2  C   UNL     1     -11.373  10.451  69.613  1.00  0.00    -0.272 C  
HETATM    3  H   UNL     1     -11.466  12.393  69.890  1.00  0.00     0.000 HD 
ENDROOT
BRANCH   2   4
HETATM    4  C   UNL     1     -11.406   9.192  70.492  1.00  0.00    -0.257 C  
HETATM    5  C   UNL     1     -10.466   9.272  71.680  1.00  0.00    -0.328 C  
HETATM    6  C   UNL     1      -9.199   8.625  71.175  1.00  0.00    -0.269 C  
HETATM    7  C   UNL     1      -9.708   7.590  70.184  1.00  0.00    -0.172 C  
HETATM    8  O   UNL     1     -10.993   8.046  69.723  1.00  0.00    -0.227 OA 
BRANCH   7   9
HETATM    9  N   UNL     1      -8.819   7.385  69.055  1.00  0.00    -0.133 NA 
HETATM   10  C   UNL     1      -7.656   6.649  69.089  1.00  0.00    -0.100 A  
HETATM   11  N   UNL     1      -7.024   6.657  67.930  1.00  0.00    -0.080 NA 
HETATM   12  C   UNL     1      -7.823   7.410  67.093  1.00  0.00    -0.117 A  
HETATM   13  C   UNL     1      -8.921   7.849  67.783  1.00  0.00    -0.128 A  
HETATM   14  N   UNL     1      -9.879   8.595  67.215  1.00  0.00    -0.180 NA 
HETATM   15  C   UNL     1      -9.700   8.890  65.886  1.00  0.00    -0.189 C  
HETATM   16  N   UNL     1      -8.700   8.540  65.134  1.00  0.00    -0.332 N  
HETATM   17  H   UNL     1      -8.670   8.823  64.155  1.00  0.00     0.000 HD 
HETATM   18  C   UNL     1      -7.661   7.768  65.677  1.00  0.00    -0.101 C  
HETATM   19  O   UNL     1      -6.686   7.426  65.020  1.00  0.00    -0.043 OA 
ENDBRANCH   7   9
ENDBRANCH   2   4
TORSDOF 2
ENDMDL
MODEL      244
REMARK 921   NORMALIZED FREE ENERGY PREDICTED BY IDOCK:   -2.67 KCAL/MOL
REMARK 922        TOTAL FREE ENERGY PREDICTED BY IDOCK:   -3.28 KCAL/MOL
REMARK 923 INTER-LIGAND FREE ENERGY PREDICTED BY IDOCK:   -2.95 KCAL/MOL
REMARK 924 INTRA-LIGAND FREE ENERGY PREDICTED BY IDOCK:   -0.34 KCAL/MOL
REMARK 927      BINDING AFFINITY PREDICTED BY RF-SCORE:    0.00 PKD
ROOT
HETATM    1  O   UNL     1      -8.967  12.365  67.057  1.00  0.00    -0.196 OA 
HETATM    2  C   UNL     1      -8.743  11.052  66.542  1.00  0.00    -0.168 C  
HETATM    3  H   UNL     1      -9.679  12.777  66.583  1.00  0.00     0.000 HD 
ENDROOT
BRANCH   2   4
HETATM    4  C   UNL     1      -7.590  10.385  67.307  1.00  0.00    -0.095 C  
HETATM    5  C   UNL     1      -7.399   8.925  66.940  1.00  0.00    -0.083 C  
HETATM    6  C   UNL     1      -8.223   8.189  67.968  1.00  0.00    -0.129 C  
HETATM    7  C   UNL     1      -8.131   9.083  69.194  1.00  0.00    -0.109 C  
HETATM    8  O   UNL     1      -7.859  10.416  68.722  1.00  0.00    -0.093 OA 
BRANCH   7   9
HETATM    9  N   UNL     1      -9.335   9.079  70.005  1.00  0.00    -0.172 NA 
HETATM   10  C   UNL     1     -10.475   9.800  69.727  1.00  0.00    -0.250 A  
HETATM   11  N   UNL     1     -11.406   9.638  70.649  1.00  0.00    -0.288 NA 
HETATM   12  C   UNL     1     -10.861   8.753  71.557  1.00  0.00    -0.304 A  
HETATM   13  C   UNL     1      -9.597   8.409  71.156  1.00  0.00    -0.177 A  
HETATM   14  N   UNL     1      -8.831   7.550  71.843  1.00  0.00    -0.114 NA 
HETATM   15  C   UNL     1      -9.394   7.019  72.978  1.00  0.00    -0.147 C  
HETATM   16  N   UNL     1     -10.574   7.275  73.459  1.00  0.00    -0.390 N  
HETATM   17  H   UNL     1     -10.886   6.823  74.318  1.00  0.00     0.000 HD 
HETATM   18  C   UNL     1     -11.415   8.177  72.789  1.00  0.00    -0.329 C  
HETATM   19  O   UNL     1     -12.529   8.470  73.208  1.00  0.00     0.096 OA 
ENDBRANCH   7   9
ENDBRANCH   2   4
TORSDOF 2
ENDMDL
MODEL      245
REMARK 921   NORMALIZED FREE ENERGY PREDICTED BY IDOCK:   -2.67 KCAL/MOL
REMARK 922        TOTAL FREE ENERGY PREDICTED BY IDOCK:   -3.28 KCAL/MOL
REMARK 923 INTER-LIGAND FREE ENERGY PREDICTED BY IDOCK:   -3.20 KCAL/MOL
REMARK 924 INTRA-LIGAND FREE ENERGY PREDICTED BY IDOCK:   -0.08 KCAL/MOL
REMARK 927      BINDING AFFINITY PREDICTED BY RF-SCORE:    0.00 PKD
ROOT
HETATM    1  O   UNL     1     -11.702   6.585  69.442  1.00  0.00    -0.649 OA 
HETATM    2  C   UNL     1     -11.118   7.525  70.345  1.00  0.00    -0.261 C  
HETATM    3  H   UNL     1     -12.391   6.103  69.883  1.00  0.00     0.000 HD 
ENDROOT
BRANCH   2   4
HETATM    4  C   UNL     1     -10.003   8.303  69.631  1.00  0.00    -0.193 C  
HETATM    5  C   UNL     1     -10.530   9.309  68.625  1.00  0.00    -0.236 C  
HETATM    6  C   UNL     1     -10.533   8.543  67.325  1.00  0.00    -0.366 C  
HETATM    7  C   UNL     1      -9.361   7.586  67.481  1.00  0.00    -0.138 C  
HETATM    8  O   UNL     1      -9.163   7.393  68.895  1.00  0.00    -0.143 OA 
BRANCH   7   9
HETATM    9  N   UNL     1      -9.569   6.306  66.830  1.00  0.00    -0.142 NA 
HETATM   10  C   UNL     1     -10.776   5.854  66.344  1.00  0.00    -0.088 A  
HETATM   11  N   UNL     1     -10.687   4.641  65.832  1.00  0.00    -0.257 NA 
HETATM   12  C   UNL     1      -9.358   4.293  65.966  1.00  0.00    -0.163 A  
HETATM   13  C   UNL     1      -8.677   5.315  66.572  1.00  0.00    -0.115 A  
HETATM   14  N   UNL     1      -7.361   5.259  66.819  1.00  0.00    -0.085 NA 
HETATM   15  C   UNL     1      -6.724   4.110  66.418  1.00  0.00    -0.050 C  
HETATM   16  N   UNL     1      -7.263   3.076  65.845  1.00  0.00    -0.069 N  
HETATM   17  H   UNL     1      -6.689   2.271  65.596  1.00  0.00     0.000 HD 
HETATM   18  C   UNL     1      -8.640   3.073  65.573  1.00  0.00    -0.114 C  
HETATM   19  O   UNL     1      -9.204   2.118  65.053  1.00  0.00    -0.136 OA 
ENDBRANCH   7   9
ENDBRANCH   2   4
TORSDOF 2
ENDMDL
MODEL      246
REMARK 921   NORMALIZED FREE ENERGY PREDICTED BY IDOCK:   -2.67 KCAL/MOL
REMARK 922        TOTAL FREE ENERGY PREDICTED BY IDOCK:   -3.28 KCAL/MOL
REMARK 923 INTER-LIGAND FREE ENERGY PREDICTED BY IDOCK:   -2.98 KCAL/MOL
REMARK 924 INTRA-LIGAND FREE ENERGY PREDICTED BY IDOCK:   -0.30 KCAL/MOL
REMARK 927      BINDING AFFINITY PREDICTED BY RF-SCORE:    0.00 PKD
ROOT
HETATM    1  O   UNL     1     -11.124  11.228  70.180  1.00  0.00    -0.475 OA 
HETATM    2  C   UNL     1     -11.348  11.173  68.770  1.00  0.00    -0.277 C  
HETATM    3  H   UNL     1     -11.951  11.134  70.639  1.00  0.00     0.000 HD 
ENDROOT
BRANCH   2   4
HETATM    4  C   UNL     1     -10.011  11.326  68.028  1.00  0.00    -0.179 C  
HETATM    5  C   UNL     1     -10.176  11.426  66.523  1.00  0.00    -0.259 C  
HETATM    6  C   UNL     1     -10.027   9.999  66.054  1.00  0.00    -0.334 C  
HETATM    7  C   UNL     1      -9.062   9.399  67.063  1.00  0.00    -0.134 C  
HETATM    8  O   UNL     1      -9.182  10.174  68.271  1.00  0.00    -0.127 OA 
BRANCH   7   9
HETATM    9  N   UNL     1      -9.317   7.998  67.345  1.00  0.00    -0.142 NA 
HETATM   10  C   UNL     1     -10.421   7.516  68.013  1.00  0.00    -0.197 A  
HETATM   11  N   UNL     1     -10.381   6.205  68.161  1.00  0.00    -0.175 NA 
HETATM   12  C   UNL     1      -9.214   5.809  67.542  1.00  0.00    -0.108 A  
HETATM   13  C   UNL     1      -8.568   6.907  67.040  1.00  0.00    -0.121 A  
HETATM   14  N   UNL     1      -7.409   6.821  66.372  1.00  0.00    -0.072 NA 
HETATM   15  C   UNL     1      -6.904   5.554  66.210  1.00  0.00    -0.059 C  
HETATM   16  N   UNL     1      -7.419   4.444  66.647  1.00  0.00    -0.081 N  
HETATM   17  H   UNL     1      -6.949   3.556  66.471  1.00  0.00     0.000 HD 
HETATM   18  C   UNL     1      -8.625   4.474  67.363  1.00  0.00    -0.104 C  
HETATM   19  O   UNL     1      -9.146   3.461  67.815  1.00  0.00    -0.132 OA 
ENDBRANCH   7   9
ENDBRANCH   2   4
TORSDOF 2
ENDMDL
MODEL      247
REMARK 921   NORMALIZED FREE ENERGY PREDICTED BY IDOCK:   -2.66 KCAL/MOL
REMARK 922        TOTAL FREE ENERGY PREDICTED BY IDOCK:   -3.27 KCAL/MOL
REMARK 923 INTER-LIGAND FREE ENERGY PREDICTED BY IDOCK:   -3.18 KCAL/MOL
REMARK 924 INTRA-LIGAND FREE ENERGY PREDICTED BY IDOCK:   -0.09 KCAL/MOL
REMARK 927      BINDING AFFINITY PREDICTED BY RF-SCORE:    0.00 PKD
ROOT
HETATM    1  O   UNL     1     -10.297   6.239  70.020  1.00  0.00    -0.179 OA 
HETATM    2  C   UNL     1     -11.527   6.959  69.931  1.00  0.00    -0.242 C  
HETATM    3  H   UNL     1      -9.860   6.245  69.176  1.00  0.00     0.000 HD 
ENDROOT
BRANCH   2   4
HETATM    4  C   UNL     1     -12.233   6.949  71.295  1.00  0.00    -0.380 C  
HETATM    5  C   UNL     1     -12.001   8.218  72.094  1.00  0.00    -0.429 C  
HETATM    6  C   UNL     1     -10.804   7.884  72.951  1.00  0.00    -0.451 C  
HETATM    7  C   UNL     1     -10.953   6.391  73.192  1.00  0.00    -0.220 C  
HETATM    8  O   UNL     1     -11.729   5.865  72.099  1.00  0.00    -0.294 OA 
BRANCH   7   9
HETATM    9  N   UNL     1      -9.685   5.690  73.282  1.00  0.00    -0.150 NA 
HETATM   10  C   UNL     1      -8.585   6.136  73.980  1.00  0.00    -0.119 A  
HETATM   11  N   UNL     1      -7.554   5.319  73.864  1.00  0.00    -0.093 NA 
HETATM   12  C   UNL     1      -8.008   4.280  73.078  1.00  0.00    -0.090 A  
HETATM   13  C   UNL     1      -9.312   4.508  72.728  1.00  0.00    -0.128 A  
HETATM   14  N   UNL     1     -10.017   3.653  71.973  1.00  0.00    -0.172 NA 
HETATM   15  C   UNL     1      -9.353   2.519  71.574  1.00  0.00    -0.124 C  
HETATM   16  N   UNL     1      -8.121   2.201  71.834  1.00  0.00    -0.048 N  
HETATM   17  H   UNL     1      -7.730   1.329  71.477  1.00  0.00     0.000 HD 
HETATM   18  C   UNL     1      -7.331   3.063  72.609  1.00  0.00    -0.048 C  
HETATM   19  O   UNL     1      -6.158   2.823  72.869  1.00  0.00    -0.008 OA 
ENDBRANCH   7   9
ENDBRANCH   2   4
TORSDOF 2
ENDMDL
MODEL      248
REMARK 921   NORMALIZED FREE ENERGY PREDICTED BY IDOCK:   -2.64 KCAL/MOL
REMARK 922        TOTAL FREE ENERGY PREDICTED BY IDOCK:   -3.25 KCAL/MOL
REMARK 923 INTER-LIGAND FREE ENERGY PREDICTED BY IDOCK:   -2.98 KCAL/MOL
REMARK 924 INTRA-LIGAND FREE ENERGY PREDICTED BY IDOCK:   -0.27 KCAL/MOL
REMARK 927      BINDING AFFINITY PREDICTED BY RF-SCORE:    0.00 PKD
ROOT
HETATM    1  O   UNL     1     -10.309  18.175  65.069  1.00  0.00     0.060 OA 
HETATM    2  C   UNL     1      -9.478  17.451  65.977  1.00  0.00    -0.095 C  
HETATM    3  H   UNL     1      -9.785  18.508  64.351  1.00  0.00     0.000 HD 
ENDROOT
BRANCH   2   4
HETATM    4  C   UNL     1     -10.326  16.913  67.138  1.00  0.00    -0.304 C  
HETATM    5  C   UNL     1      -9.798  17.323  68.500  1.00  0.00    -0.307 C  
HETATM    6  C   UNL     1      -8.908  16.170  68.898  1.00  0.00    -0.248 C  
HETATM    7  C   UNL     1      -9.576  14.972  68.242  1.00  0.00    -0.210 C  
HETATM    8  O   UNL     1     -10.326  15.472  67.119  1.00  0.00    -0.261 OA 
BRANCH   7   9
HETATM    9  N   UNL     1      -8.637  13.957  67.800  1.00  0.00    -0.169 NA 
HETATM   10  C   UNL     1      -7.266  14.072  67.858  1.00  0.00    -0.159 A  
HETATM   11  N   UNL     1      -6.654  13.015  67.356  1.00  0.00    -0.167 NA 
HETATM   12  C   UNL     1      -7.669  12.161  66.975  1.00  0.00    -0.112 A  
HETATM   13  C   UNL     1      -8.880  12.738  67.253  1.00  0.00    -0.198 A  
HETATM   14  N   UNL     1     -10.045  12.127  67.000  1.00  0.00    -0.203 NA 
HETATM   15  C   UNL     1      -9.957  10.872  66.449  1.00  0.00    -0.221 C  
HETATM   16  N   UNL     1      -8.872  10.230  66.136  1.00  0.00    -0.148 N  
HETATM   17  H   UNL     1      -8.929   9.298  65.724  1.00  0.00     0.000 HD 
HETATM   18  C   UNL     1      -7.623  10.825  66.366  1.00  0.00    -0.141 C  
HETATM   19  O   UNL     1      -6.569  10.273  66.072  1.00  0.00    -0.093 OA 
ENDBRANCH   7   9
ENDBRANCH   2   4
TORSDOF 2
ENDMDL
MODEL      249
REMARK 921   NORMALIZED FREE ENERGY PREDICTED BY IDOCK:   -2.63 KCAL/MOL
REMARK 922        TOTAL FREE ENERGY PREDICTED BY IDOCK:   -3.24 KCAL/MOL
REMARK 923 INTER-LIGAND FREE ENERGY PREDICTED BY IDOCK:   -3.30 KCAL/MOL
REMARK 924 INTRA-LIGAND FREE ENERGY PREDICTED BY IDOCK:    0.06 KCAL/MOL
REMARK 927      BINDING AFFINITY PREDICTED BY RF-SCORE:    0.00 PKD
ROOT
HETATM    1  O   UNL     1     -10.755  12.525  69.136  1.00  0.00    -0.408 OA 
HETATM    2  C   UNL     1     -11.680  12.049  68.157  1.00  0.00    -0.333 C  
HETATM    3  H   UNL     1     -11.227  12.820  69.905  1.00  0.00     0.000 HD 
ENDROOT
BRANCH   2   4
HETATM    4  C   UNL     1     -10.917  11.571  66.913  1.00  0.00    -0.296 C  
HETATM    5  C   UNL     1     -10.370  10.163  67.056  1.00  0.00    -0.303 C  
HETATM    6  C   UNL     1      -8.968  10.376  67.571  1.00  0.00    -0.138 C  
HETATM    7  C   UNL     1      -8.565  11.703  66.946  1.00  0.00    -0.174 C  
HETATM    8  O   UNL     1      -9.781  12.426  66.677  1.00  0.00    -0.214 OA 
BRANCH   7   9
HETATM    9  N   UNL     1      -7.692  12.498  67.791  1.00  0.00    -0.129 NA 
HETATM   10  C   UNL     1      -6.554  12.032  68.410  1.00  0.00    -0.058 A  
HETATM   11  N   UNL     1      -5.970  12.959  69.147  1.00  0.00    -0.080 NA 
HETATM   12  C   UNL     1      -6.746  14.088  68.982  1.00  0.00    -0.109 A  
HETATM   13  C   UNL     1      -7.795  13.804  68.148  1.00  0.00    -0.149 A  
HETATM   14  N   UNL     1      -8.707  14.721  67.799  1.00  0.00    -0.166 NA 
HETATM   15  C   UNL     1      -8.525  15.978  68.321  1.00  0.00    -0.177 C  
HETATM   16  N   UNL     1      -7.579  16.362  69.125  1.00  0.00    -0.235 N  
HETATM   17  H   UNL     1      -7.546  17.326  69.455  1.00  0.00     0.000 HD 
HETATM   18  C   UNL     1      -6.602  15.442  69.535  1.00  0.00    -0.166 C  
HETATM   19  O   UNL     1      -5.699  15.744  70.306  1.00  0.00    -0.161 OA 
ENDBRANCH   7   9
ENDBRANCH   2   4
TORSDOF 2
ENDMDL
MODEL      250
REMARK 921   NORMALIZED FREE ENERGY PREDICTED BY IDOCK:   -2.63 KCAL/MOL
REMARK 922        TOTAL FREE ENERGY PREDICTED BY IDOCK:   -3.23 KCAL/MOL
REMARK 923 INTER-LIGAND FREE ENERGY PREDICTED BY IDOCK:   -3.02 KCAL/MOL
REMARK 924 INTRA-LIGAND FREE ENERGY PREDICTED BY IDOCK:   -0.22 KCAL/MOL
REMARK 927      BINDING AFFINITY PREDICTED BY RF-SCORE:    0.00 PKD
ROOT
HETATM    1  O   UNL     1     -11.072   8.048  70.341  1.00  0.00    -0.250 OA 
HETATM    2  C   UNL     1     -11.702   6.770  70.248  1.00  0.00    -0.341 C  
HETATM    3  H   UNL     1     -11.639   8.712  69.967  1.00  0.00     0.000 HD 
ENDROOT
BRANCH   2   4
HETATM    4  C   UNL     1     -10.786   5.696  70.853  1.00  0.00    -0.243 C  
HETATM    5  C   UNL     1      -9.632   6.278  71.648  1.00  0.00    -0.167 C  
HETATM    6  C   UNL     1      -8.512   6.360  70.639  1.00  0.00    -0.135 C  
HETATM    7  C   UNL     1      -8.788   5.185  69.716  1.00  0.00    -0.106 C  
HETATM    8  O   UNL     1     -10.198   4.905  69.803  1.00  0.00    -0.252 OA 
BRANCH   7   9
HETATM    9  N   UNL     1      -8.417   5.435  68.335  1.00  0.00    -0.097 NA 
HETATM   10  C   UNL     1      -7.572   4.643  67.589  1.00  0.00    -0.078 A  
HETATM   11  N   UNL     1      -7.380   5.123  66.374  1.00  0.00    -0.084 NA 
HETATM   12  C   UNL     1      -8.153   6.265  66.314  1.00  0.00    -0.114 A  
HETATM   13  C   UNL     1      -8.789   6.450  67.513  1.00  0.00    -0.111 A  
HETATM   14  N   UNL     1      -9.619   7.477  67.738  1.00  0.00    -0.140 NA 
HETATM   15  C   UNL     1      -9.807   8.339  66.685  1.00  0.00    -0.267 C  
HETATM   16  N   UNL     1      -9.254   8.271  65.511  1.00  0.00    -0.411 N  
HETATM   17  H   UNL     1      -9.465   8.976  64.804  1.00  0.00     0.000 HD 
HETATM   18  C   UNL     1      -8.366   7.225  65.222  1.00  0.00    -0.104 C  
HETATM   19  O   UNL     1      -7.802   7.123  64.139  1.00  0.00    -0.119 OA 
ENDBRANCH   7   9
ENDBRANCH   2   4
TORSDOF 2
ENDMDL
MODEL      251
REMARK 921   NORMALIZED FREE ENERGY PREDICTED BY IDOCK:   -2.61 KCAL/MOL
REMARK 922        TOTAL FREE ENERGY PREDICTED BY IDOCK:   -3.22 KCAL/MOL
REMARK 923 INTER-LIGAND FREE ENERGY PREDICTED BY IDOCK:   -3.49 KCAL/MOL
REMARK 924 INTRA-LIGAND FREE ENERGY PREDICTED BY IDOCK:    0.27 KCAL/MOL
REMARK 927      BINDING AFFINITY PREDICTED BY RF-SCORE:    0.00 PKD
ROOT
HETATM    1  O   UNL     1      -7.135   5.228  70.635  1.00  0.00    -0.056 OA 
HETATM    2  C   UNL     1      -6.798   5.233  69.247  1.00  0.00    -0.054 C  
HETATM    3  H   UNL     1      -6.444   5.647  71.134  1.00  0.00     0.000 HD 
ENDROOT
BRANCH   2   4
HETATM    4  C   UNL     1      -7.916   4.556  68.441  1.00  0.00    -0.079 C  
HETATM    5  C   UNL     1      -8.170   5.223  67.101  1.00  0.00    -0.108 C  
HETATM    6  C   UNL     1      -9.274   6.208  67.399  1.00  0.00    -0.112 C  
HETATM    7  C   UNL     1     -10.062   5.526  68.506  1.00  0.00    -0.180 C  
HETATM    8  O   UNL     1      -9.156   4.624  69.170  1.00  0.00    -0.103 OA 
BRANCH   7   9
HETATM    9  N   UNL     1     -10.632   6.454  69.466  1.00  0.00    -0.227 NA 
HETATM   10  C   UNL     1     -11.403   6.094  70.549  1.00  0.00    -0.310 A  
HETATM   11  N   UNL     1     -11.819   7.141  71.236  1.00  0.00    -0.301 NA 
HETATM   12  C   UNL     1     -11.276   8.232  70.589  1.00  0.00    -0.256 A  
HETATM   13  C   UNL     1     -10.547   7.808  69.511  1.00  0.00    -0.221 A  
HETATM   14  N   UNL     1      -9.893   8.654  68.704  1.00  0.00    -0.165 NA 
HETATM   15  C   UNL     1      -9.988   9.986  69.027  1.00  0.00    -0.196 C  
HETATM   16  N   UNL     1     -10.654  10.505  70.015  1.00  0.00    -0.439 N  
HETATM   17  H   UNL     1     -10.657  11.516  70.156  1.00  0.00     0.000 HD 
HETATM   18  C   UNL     1     -11.368   9.669  70.886  1.00  0.00    -0.360 C  
HETATM   19  O   UNL     1     -12.028  10.105  71.821  1.00  0.00    -0.319 OA 
ENDBRANCH   7   9
ENDBRANCH   2   4
TORSDOF 2
ENDMDL
MODEL      252
REMARK 921   NORMALIZED FREE ENERGY PREDICTED BY IDOCK:   -2.61 KCAL/MOL
REMARK 922        TOTAL FREE ENERGY PREDICTED BY IDOCK:   -3.22 KCAL/MOL
REMARK 923 INTER-LIGAND FREE ENERGY PREDICTED BY IDOCK:   -3.30 KCAL/MOL
REMARK 924 INTRA-LIGAND FREE ENERGY PREDICTED BY IDOCK:    0.09 KCAL/MOL
REMARK 927      BINDING AFFINITY PREDICTED BY RF-SCORE:    0.00 PKD
ROOT
HETATM    1  O   UNL     1     -12.159  11.725  67.326  1.00  0.00    -0.595 OA 
HETATM    2  C   UNL     1     -11.183  11.707  68.369  1.00  0.00    -0.249 C  
HETATM    3  H   UNL     1     -13.017  11.536  67.688  1.00  0.00     0.000 HD 
ENDROOT
BRANCH   2   4
HETATM    4  C   UNL     1      -9.796  12.013  67.784  1.00  0.00    -0.190 C  
HETATM    5  C   UNL     1      -9.681  11.662  66.312  1.00  0.00    -0.241 C  
HETATM    6  C   UNL     1      -9.130  10.257  66.324  1.00  0.00    -0.178 C  
HETATM    7  C   UNL     1      -8.272  10.229  67.578  1.00  0.00    -0.114 C  
HETATM    8  O   UNL     1      -8.795  11.234  68.467  1.00  0.00    -0.154 OA 
BRANCH   7   9
HETATM    9  N   UNL     1      -8.259   8.938  68.242  1.00  0.00    -0.120 NA 
HETATM   10  C   UNL     1      -7.778   7.771  67.689  1.00  0.00    -0.121 A  
HETATM   11  N   UNL     1      -7.922   6.739  68.499  1.00  0.00    -0.117 NA 
HETATM   12  C   UNL     1      -8.497   7.257  69.641  1.00  0.00    -0.133 A  
HETATM   13  C   UNL     1      -8.698   8.602  69.482  1.00  0.00    -0.139 A  
HETATM   14  N   UNL     1      -9.233   9.371  70.441  1.00  0.00    -0.242 NA 
HETATM   15  C   UNL     1      -9.564   8.729  71.609  1.00  0.00    -0.293 C  
HETATM   16  N   UNL     1      -9.430   7.463  71.871  1.00  0.00    -0.144 N  
HETATM   17  H   UNL     1      -9.718   7.094  72.777  1.00  0.00     0.000 HD 
HETATM   18  C   UNL     1      -8.887   6.607  70.901  1.00  0.00    -0.146 C  
HETATM   19  O   UNL     1      -8.756   5.403  71.086  1.00  0.00    -0.126 OA 
ENDBRANCH   7   9
ENDBRANCH   2   4
TORSDOF 2
ENDMDL
MODEL      253
REMARK 921   NORMALIZED FREE ENERGY PREDICTED BY IDOCK:   -2.60 KCAL/MOL
REMARK 922        TOTAL FREE ENERGY PREDICTED BY IDOCK:   -3.20 KCAL/MOL
REMARK 923 INTER-LIGAND FREE ENERGY PREDICTED BY IDOCK:   -3.04 KCAL/MOL
REMARK 924 INTRA-LIGAND FREE ENERGY PREDICTED BY IDOCK:   -0.17 KCAL/MOL
REMARK 927      BINDING AFFINITY PREDICTED BY RF-SCORE:    0.00 PKD
ROOT
HETATM    1  O   UNL     1      -6.703   5.068  71.261  1.00  0.00    -0.037 OA 
HETATM    2  C   UNL     1      -7.047   4.212  72.352  1.00  0.00    -0.056 C  
HETATM    3  H   UNL     1      -5.985   4.687  70.769  1.00  0.00     0.000 HD 
ENDROOT
BRANCH   2   4
HETATM    4  C   UNL     1      -8.208   4.828  73.147  1.00  0.00    -0.101 C  
HETATM    5  C   UNL     1      -9.265   3.812  73.538  1.00  0.00    -0.105 C  
HETATM    6  C   UNL     1     -10.271   3.896  72.416  1.00  0.00    -0.227 C  
HETATM    7  C   UNL     1     -10.186   5.350  71.980  1.00  0.00    -0.203 C  
HETATM    8  O   UNL     1      -8.876   5.822  72.347  1.00  0.00    -0.131 OA 
BRANCH   7   9
HETATM    9  N   UNL     1     -10.401   5.540  70.557  1.00  0.00    -0.253 NA 
HETATM   10  C   UNL     1     -11.044   6.620  69.993  1.00  0.00    -0.339 A  
HETATM   11  N   UNL     1     -11.131   6.520  68.679  1.00  0.00    -0.291 NA 
HETATM   12  C   UNL     1     -10.494   5.336  68.368  1.00  0.00    -0.073 A  
HETATM   13  C   UNL     1     -10.045   4.742  69.517  1.00  0.00    -0.190 A  
HETATM   14  N   UNL     1      -9.376   3.581  69.516  1.00  0.00    -0.162 NA 
HETATM   15  C   UNL     1      -9.154   3.018  68.283  1.00  0.00    -0.164 C  
HETATM   16  N   UNL     1      -9.538   3.482  67.131  1.00  0.00    -0.325 N  
HETATM   17  H   UNL     1      -9.320   2.971  66.275  1.00  0.00     0.000 HD 
HETATM   18  C   UNL     1     -10.253   4.687  67.071  1.00  0.00    -0.126 C  
HETATM   19  O   UNL     1     -10.656   5.160  66.015  1.00  0.00    -0.252 OA 
ENDBRANCH   7   9
ENDBRANCH   2   4
TORSDOF 2
ENDMDL
MODEL      254
REMARK 921   NORMALIZED FREE ENERGY PREDICTED BY IDOCK:   -2.59 KCAL/MOL
REMARK 922        TOTAL FREE ENERGY PREDICTED BY IDOCK:   -3.19 KCAL/MOL
REMARK 923 INTER-LIGAND FREE ENERGY PREDICTED BY IDOCK:   -3.14 KCAL/MOL
REMARK 924 INTRA-LIGAND FREE ENERGY PREDICTED BY IDOCK:   -0.05 KCAL/MOL
REMARK 927      BINDING AFFINITY PREDICTED BY RF-SCORE:    0.00 PKD
ROOT
HETATM    1  O   UNL     1     -10.065   8.665  72.618  1.00  0.00    -0.251 OA 
HETATM    2  C   UNL     1     -10.427   9.251  71.367  1.00  0.00    -0.338 C  
HETATM    3  H   UNL     1      -9.337   9.143  72.996  1.00  0.00     0.000 HD 
ENDROOT
BRANCH   2   4
HETATM    4  C   UNL     1     -11.605   8.478  70.754  1.00  0.00    -0.231 C  
HETATM    5  C   UNL     1     -12.302   7.570  71.750  1.00  0.00    -0.357 C  
HETATM    6  C   UNL     1     -11.611   6.241  71.563  1.00  0.00    -0.345 C  
HETATM    7  C   UNL     1     -11.232   6.249  70.090  1.00  0.00    -0.403 C  
HETATM    8  O   UNL     1     -11.133   7.629  69.690  1.00  0.00    -0.186 OA 
BRANCH   7   9
HETATM    9  N   UNL     1      -9.985   5.561  69.810  1.00  0.00    -0.192 NA 
HETATM   10  C   UNL     1      -9.188   4.956  70.756  1.00  0.00    -0.145 A  
HETATM   11  N   UNL     1      -8.095   4.435  70.230  1.00  0.00    -0.062 NA 
HETATM   12  C   UNL     1      -8.194   4.688  68.877  1.00  0.00    -0.081 A  
HETATM   13  C   UNL     1      -9.353   5.372  68.624  1.00  0.00    -0.118 A  
HETATM   14  N   UNL     1      -9.718   5.742  67.388  1.00  0.00    -0.118 NA 
HETATM   15  C   UNL     1      -8.859   5.384  66.377  1.00  0.00    -0.123 C  
HETATM   16  N   UNL     1      -7.733   4.746  66.496  1.00  0.00    -0.091 N  
HETATM   17  H   UNL     1      -7.172   4.539  65.670  1.00  0.00     0.000 HD 
HETATM   18  C   UNL     1      -7.294   4.345  67.767  1.00  0.00    -0.069 C  
HETATM   19  O   UNL     1      -6.232   3.759  67.939  1.00  0.00    -0.031 OA 
ENDBRANCH   7   9
ENDBRANCH   2   4
TORSDOF 2
ENDMDL
MODEL      255
REMARK 921   NORMALIZED FREE ENERGY PREDICTED BY IDOCK:   -2.59 KCAL/MOL
REMARK 922        TOTAL FREE ENERGY PREDICTED BY IDOCK:   -3.19 KCAL/MOL
REMARK 923 INTER-LIGAND FREE ENERGY PREDICTED BY IDOCK:   -2.95 KCAL/MOL
REMARK 924 INTRA-LIGAND FREE ENERGY PREDICTED BY IDOCK:   -0.24 KCAL/MOL
REMARK 927      BINDING AFFINITY PREDICTED BY RF-SCORE:    0.00 PKD
ROOT
HETATM    1  O   UNL     1     -10.514  17.321  69.301  1.00  0.00    -0.338 OA 
HETATM    2  C   UNL     1     -11.289  16.146  69.059  1.00  0.00    -0.340 C  
HETATM    3  H   UNL     1     -10.575  17.561  70.218  1.00  0.00     0.000 HD 
ENDROOT
BRANCH   2   4
HETATM    4  C   UNL     1     -11.191  15.757  67.577  1.00  0.00    -0.218 C  
HETATM    5  C   UNL     1     -10.341  14.522  67.341  1.00  0.00    -0.252 C  
HETATM    6  C   UNL     1      -8.968  15.084  67.064  1.00  0.00    -0.255 C  
HETATM    7  C   UNL     1      -9.264  16.415  66.392  1.00  0.00    -0.302 C  
HETATM    8  O   UNL     1     -10.574  16.824  66.830  1.00  0.00    -0.298 OA 
BRANCH   7   9
HETATM    9  N   UNL     1      -8.292  17.448  66.702  1.00  0.00    -0.246 NA 
HETATM   10  C   UNL     1      -7.853  18.408  65.817  1.00  0.00     0.093 A  
HETATM   11  N   UNL     1      -6.942  19.200  66.352  1.00  0.00    -0.209 NA 
HETATM   12  C   UNL     1      -6.797  18.755  67.650  1.00  0.00    -0.205 A  
HETATM   13  C   UNL     1      -7.628  17.687  67.862  1.00  0.00    -0.210 A  
HETATM   14  N   UNL     1      -7.708  17.057  69.042  1.00  0.00    -0.220 NA 
HETATM   15  C   UNL     1      -6.909  17.554  70.042  1.00  0.00     0.640 C  
HETATM   16  N   UNL     1      -6.078  18.550  69.958  1.00  0.00    -0.186 N  
HETATM   17  H   UNL     1      -5.528  18.829  70.770  1.00  0.00     0.000 HD 
HETATM   18  C   UNL     1      -5.943  19.239  68.743  1.00  0.00    -0.218 C  
HETATM   19  O   UNL     1      -5.162  20.172  68.601  1.00  0.00    -0.189 OA 
ENDBRANCH   7   9
ENDBRANCH   2   4
TORSDOF 2
ENDMDL
MODEL      256
REMARK 921   NORMALIZED FREE ENERGY PREDICTED BY IDOCK:   -2.58 KCAL/MOL
REMARK 922        TOTAL FREE ENERGY PREDICTED BY IDOCK:   -3.18 KCAL/MOL
REMARK 923 INTER-LIGAND FREE ENERGY PREDICTED BY IDOCK:   -3.03 KCAL/MOL
REMARK 924 INTRA-LIGAND FREE ENERGY PREDICTED BY IDOCK:   -0.15 KCAL/MOL
REMARK 927      BINDING AFFINITY PREDICTED BY RF-SCORE:    0.00 PKD
ROOT
HETATM    1  O   UNL     1     -10.707   8.697  72.258  1.00  0.00    -0.344 OA 
HETATM    2  C   UNL     1      -9.381   8.287  72.593  1.00  0.00    -0.280 C  
HETATM    3  H   UNL     1     -11.306   8.439  72.949  1.00  0.00     0.000 HD 
ENDROOT
BRANCH   2   4
HETATM    4  C   UNL     1      -8.412   8.703  71.476  1.00  0.00    -0.181 C  
HETATM    5  C   UNL     1      -9.116   9.299  70.270  1.00  0.00    -0.271 C  
HETATM    6  C   UNL     1      -9.321   8.114  69.358  1.00  0.00    -0.155 C  
HETATM    7  C   UNL     1      -8.124   7.228  69.663  1.00  0.00    -0.129 C  
HETATM    8  O   UNL     1      -7.692   7.552  70.998  1.00  0.00    -0.087 OA 
BRANCH   7   9
HETATM    9  N   UNL     1      -8.415   5.809  69.566  1.00  0.00    -0.111 NA 
HETATM   10  C   UNL     1      -8.305   4.908  70.602  1.00  0.00    -0.100 A  
HETATM   11  N   UNL     1      -8.598   3.677  70.228  1.00  0.00    -0.059 NA 
HETATM   12  C   UNL     1      -8.941   3.780  68.895  1.00  0.00    -0.123 A  
HETATM   13  C   UNL     1      -8.832   5.086  68.496  1.00  0.00    -0.101 A  
HETATM   14  N   UNL     1      -9.117   5.485  67.248  1.00  0.00    -0.111 NA 
HETATM   15  C   UNL     1      -9.537   4.502  66.385  1.00  0.00    -0.189 C  
HETATM   16  N   UNL     1      -9.668   3.236  66.646  1.00  0.00    -0.413 N  
HETATM   17  H   UNL     1      -9.984   2.593  65.920  1.00  0.00     0.000 HD 
HETATM   18  C   UNL     1      -9.373   2.758  67.932  1.00  0.00    -0.200 C  
HETATM   19  O   UNL     1      -9.461   1.573  68.228  1.00  0.00    -0.173 OA 
ENDBRANCH   7   9
ENDBRANCH   2   4
TORSDOF 2
ENDMDL
MODEL      257
REMARK 921   NORMALIZED FREE ENERGY PREDICTED BY IDOCK:   -2.56 KCAL/MOL
REMARK 922        TOTAL FREE ENERGY PREDICTED BY IDOCK:   -3.15 KCAL/MOL
REMARK 923 INTER-LIGAND FREE ENERGY PREDICTED BY IDOCK:   -2.88 KCAL/MOL
REMARK 924 INTRA-LIGAND FREE ENERGY PREDICTED BY IDOCK:   -0.28 KCAL/MOL
REMARK 927      BINDING AFFINITY PREDICTED BY RF-SCORE:    0.00 PKD
ROOT
HETATM    1  O   UNL     1      -7.778   5.723  71.774  1.00  0.00    -0.098 OA 
HETATM    2  C   UNL     1      -7.815   6.530  70.596  1.00  0.00    -0.106 C  
HETATM    3  H   UNL     1      -7.895   4.810  71.540  1.00  0.00     0.000 HD 
ENDROOT
BRANCH   2   4
HETATM    4  C   UNL     1      -7.626   8.007  70.974  1.00  0.00    -0.083 C  
HETATM    5  C   UNL     1      -8.841   8.606  71.658  1.00  0.00    -0.292 C  
HETATM    6  C   UNL     1      -9.622   9.219  70.521  1.00  0.00    -0.317 C  
HETATM    7  C   UNL     1      -8.539   9.636  69.539  1.00  0.00    -0.172 C  
HETATM    8  O   UNL     1      -7.400   8.791  69.787  1.00  0.00    -0.050 OA 
BRANCH   7   9
HETATM    9  N   UNL     1      -8.945   9.526  68.150  1.00  0.00    -0.124 NA 
HETATM   10  C   UNL     1     -10.130   8.974  67.715  1.00  0.00    -0.208 A  
HETATM   11  N   UNL     1     -10.226   8.971  66.398  1.00  0.00    -0.271 NA 
HETATM   12  C   UNL     1      -9.066   9.570  65.953  1.00  0.00    -0.184 A  
HETATM   13  C   UNL     1      -8.288   9.913  67.027  1.00  0.00    -0.121 A  
HETATM   14  N   UNL     1      -7.104  10.526  66.893  1.00  0.00    -0.096 NA 
HETATM   15  C   UNL     1      -6.714  10.803  65.605  1.00  0.00    -0.019 C  
HETATM   16  N   UNL     1      -7.360  10.519  64.514  1.00  0.00    -0.346 N  
HETATM   17  H   UNL     1      -6.968  10.769  63.606  1.00  0.00     0.000 HD 
HETATM   18  C   UNL     1      -8.599   9.867  64.592  1.00  0.00    -0.182 C  
HETATM   19  O   UNL     1      -9.242   9.558  63.595  1.00  0.00    -0.206 OA 
ENDBRANCH   7   9
ENDBRANCH   2   4
TORSDOF 2
ENDMDL
MODEL      258
REMARK 921   NORMALIZED FREE ENERGY PREDICTED BY IDOCK:   -2.56 KCAL/MOL
REMARK 922        TOTAL FREE ENERGY PREDICTED BY IDOCK:   -3.15 KCAL/MOL
REMARK 923 INTER-LIGAND FREE ENERGY PREDICTED BY IDOCK:   -2.85 KCAL/MOL
REMARK 924 INTRA-LIGAND FREE ENERGY PREDICTED BY IDOCK:   -0.31 KCAL/MOL
REMARK 927      BINDING AFFINITY PREDICTED BY RF-SCORE:    0.00 PKD
ROOT
HETATM    1  O   UNL     1      -5.170  11.300  63.289  1.00  0.00    -0.428 OA 
HETATM    2  C   UNL     1      -6.207  10.393  63.666  1.00  0.00    -0.074 C  
HETATM    3  H   UNL     1      -4.896  11.120  62.397  1.00  0.00     0.000 HD 
ENDROOT
BRANCH   2   4
HETATM    4  C   UNL     1      -6.650  10.683  65.108  1.00  0.00     0.035 C  
HETATM    5  C   UNL     1      -5.540  10.480  66.123  1.00  0.00    -0.083 C  
HETATM    6  C   UNL     1      -5.733   9.054  66.578  1.00  0.00    -0.050 C  
HETATM    7  C   UNL     1      -7.236   8.853  66.469  1.00  0.00    -0.085 C  
HETATM    8  O   UNL     1      -7.714   9.788  65.483  1.00  0.00    -0.112 OA 
BRANCH   7   9
HETATM    9  N   UNL     1      -7.613   7.502  66.095  1.00  0.00    -0.086 NA 
HETATM   10  C   UNL     1      -6.769   6.577  65.522  1.00  0.00    -0.047 A  
HETATM   11  N   UNL     1      -7.382   5.439  65.253  1.00  0.00    -0.067 NA 
HETATM   12  C   UNL     1      -8.678   5.619  65.692  1.00  0.00    -0.151 A  
HETATM   13  C   UNL     1      -8.814   6.879  66.211  1.00  0.00    -0.148 A  
HETATM   14  N   UNL     1      -9.967   7.326  66.726  1.00  0.00    -0.221 NA 
HETATM   15  C   UNL     1     -11.014   6.438  66.714  1.00  0.00    -0.251 C  
HETATM   16  N   UNL     1     -11.007   5.227  66.243  1.00  0.00    -0.707 N  
HETATM   17  H   UNL     1     -11.852   4.656  66.283  1.00  0.00     0.000 HD 
HETATM   18  C   UNL     1      -9.831   4.709  65.680  1.00  0.00    -0.204 C  
HETATM   19  O   UNL     1      -9.773   3.581  65.204  1.00  0.00    -0.169 OA 
ENDBRANCH   7   9
ENDBRANCH   2   4
TORSDOF 2
ENDMDL
MODEL      259
REMARK 921   NORMALIZED FREE ENERGY PREDICTED BY IDOCK:   -2.55 KCAL/MOL
REMARK 922        TOTAL FREE ENERGY PREDICTED BY IDOCK:   -3.14 KCAL/MOL
REMARK 923 INTER-LIGAND FREE ENERGY PREDICTED BY IDOCK:   -3.29 KCAL/MOL
REMARK 924 INTRA-LIGAND FREE ENERGY PREDICTED BY IDOCK:    0.15 KCAL/MOL
REMARK 927      BINDING AFFINITY PREDICTED BY RF-SCORE:    0.00 PKD
ROOT
HETATM    1  O   UNL     1      -8.937   8.467  73.270  1.00  0.00    -0.234 OA 
HETATM    2  C   UNL     1     -10.217   7.878  73.038  1.00  0.00    -0.327 C  
HETATM    3  H   UNL     1      -8.881   9.300  72.817  1.00  0.00     0.000 HD 
ENDROOT
BRANCH   2   4
HETATM    4  C   UNL     1     -10.307   6.531  73.770  1.00  0.00    -0.326 C  
HETATM    5  C   UNL     1      -8.978   6.076  74.344  1.00  0.00    -0.134 C  
HETATM    6  C   UNL     1      -8.401   5.203  73.256  1.00  0.00    -0.111 C  
HETATM    7  C   UNL     1      -9.635   4.598  72.605  1.00  0.00    -0.136 C  
HETATM    8  O   UNL     1     -10.727   5.502  72.853  1.00  0.00    -0.214 OA 
BRANCH   7   9
HETATM    9  N   UNL     1      -9.486   4.380  71.177  1.00  0.00    -0.148 NA 
HETATM   10  C   UNL     1      -8.655   3.443  70.604  1.00  0.00    -0.070 A  
HETATM   11  N   UNL     1      -8.690   3.484  69.285  1.00  0.00    -0.077 NA 
HETATM   12  C   UNL     1      -9.602   4.473  68.982  1.00  0.00    -0.175 A  
HETATM   13  C   UNL     1     -10.091   5.015  70.141  1.00  0.00    -0.268 A  
HETATM   14  N   UNL     1     -11.007   5.993  70.150  1.00  0.00    -0.341 NA 
HETATM   15  C   UNL     1     -11.442   6.419  68.919  1.00  0.00    -0.060 C  
HETATM   16  N   UNL     1     -11.047   5.989  67.758  1.00  0.00    -0.372 N  
HETATM   17  H   UNL     1     -11.438   6.387  66.904  1.00  0.00     0.000 HD 
HETATM   18  C   UNL     1     -10.080   4.975  67.686  1.00  0.00    -0.140 C  
HETATM   19  O   UNL     1      -9.657   4.546  66.619  1.00  0.00    -0.158 OA 
ENDBRANCH   7   9
ENDBRANCH   2   4
TORSDOF 2
ENDMDL
MODEL      260
REMARK 921   NORMALIZED FREE ENERGY PREDICTED BY IDOCK:   -2.53 KCAL/MOL
REMARK 922        TOTAL FREE ENERGY PREDICTED BY IDOCK:   -3.13 KCAL/MOL
REMARK 923 INTER-LIGAND FREE ENERGY PREDICTED BY IDOCK:   -2.80 KCAL/MOL
REMARK 924 INTRA-LIGAND FREE ENERGY PREDICTED BY IDOCK:   -0.33 KCAL/MOL
REMARK 927      BINDING AFFINITY PREDICTED BY RF-SCORE:    0.00 PKD
ROOT
HETATM    1  O   UNL     1     -11.282   6.523  69.262  1.00  0.00    -0.408 OA 
HETATM    2  C   UNL     1     -10.273   6.063  68.361  1.00  0.00    -0.181 C  
HETATM    3  H   UNL     1     -11.297   5.971  70.034  1.00  0.00     0.000 HD 
ENDROOT
BRANCH   2   4
HETATM    4  C   UNL     1     -10.248   6.956  67.112  1.00  0.00    -0.240 C  
HETATM    5  C   UNL     1      -9.112   6.620  66.164  1.00  0.00    -0.143 C  
HETATM    6  C   UNL     1      -8.006   7.554  66.591  1.00  0.00    -0.110 C  
HETATM    7  C   UNL     1      -8.756   8.778  67.090  1.00  0.00    -0.120 C  
HETATM    8  O   UNL     1     -10.064   8.332  67.496  1.00  0.00    -0.189 OA 
BRANCH   7   9
HETATM    9  N   UNL     1      -8.096   9.449  68.195  1.00  0.00    -0.109 NA 
HETATM   10  C   UNL     1      -8.134   9.033  69.508  1.00  0.00    -0.105 A  
HETATM   11  N   UNL     1      -7.476   9.850  70.310  1.00  0.00    -0.167 NA 
HETATM   12  C   UNL     1      -6.964  10.828  69.483  1.00  0.00    -0.130 A  
HETATM   13  C   UNL     1      -7.341  10.578  68.191  1.00  0.00    -0.088 A  
HETATM   14  N   UNL     1      -6.973  11.361  67.167  1.00  0.00    -0.118 NA 
HETATM   15  C   UNL     1      -6.181  12.436  67.489  1.00  0.00    -0.148 C  
HETATM   16  N   UNL     1      -5.770  12.778  68.673  1.00  0.00    -0.065 N  
HETATM   17  H   UNL     1      -5.186  13.606  68.794  1.00  0.00     0.000 HD 
HETATM   18  C   UNL     1      -6.133  12.003  69.784  1.00  0.00    -0.145 C  
HETATM   19  O   UNL     1      -5.790  12.289  70.925  1.00  0.00    -0.332 OA 
ENDBRANCH   7   9
ENDBRANCH   2   4
TORSDOF 2
ENDMDL
MODEL      261
REMARK 921   NORMALIZED FREE ENERGY PREDICTED BY IDOCK:   -2.52 KCAL/MOL
REMARK 922        TOTAL FREE ENERGY PREDICTED BY IDOCK:   -3.11 KCAL/MOL
REMARK 923 INTER-LIGAND FREE ENERGY PREDICTED BY IDOCK:   -3.00 KCAL/MOL
REMARK 924 INTRA-LIGAND FREE ENERGY PREDICTED BY IDOCK:   -0.11 KCAL/MOL
REMARK 927      BINDING AFFINITY PREDICTED BY RF-SCORE:    0.00 PKD
ROOT
HETATM    1  O   UNL     1     -11.394   6.564  67.813  1.00  0.00    -0.609 OA 
HETATM    2  C   UNL     1     -10.766   5.957  66.682  1.00  0.00    -0.252 C  
HETATM    3  H   UNL     1     -12.213   6.120  68.001  1.00  0.00     0.000 HD 
ENDROOT
BRANCH   2   4
HETATM    4  C   UNL     1      -9.443   6.674  66.378  1.00  0.00    -0.123 C  
HETATM    5  C   UNL     1      -8.331   5.724  65.973  1.00  0.00    -0.126 C  
HETATM    6  C   UNL     1      -7.625   5.428  67.274  1.00  0.00    -0.092 C  
HETATM    7  C   UNL     1      -7.800   6.714  68.066  1.00  0.00    -0.113 C  
HETATM    8  O   UNL     1      -8.978   7.365  67.554  1.00  0.00    -0.126 OA 
BRANCH   7   9
HETATM    9  N   UNL     1      -7.933   6.499  69.495  1.00  0.00    -0.115 NA 
HETATM   10  C   UNL     1      -7.410   5.427  70.184  1.00  0.00    -0.068 A  
HETATM   11  N   UNL     1      -7.711   5.463  71.469  1.00  0.00    -0.102 NA 
HETATM   12  C   UNL     1      -8.441   6.623  71.633  1.00  0.00    -0.119 A  
HETATM   13  C   UNL     1      -8.570   7.255  70.425  1.00  0.00    -0.144 A  
HETATM   14  N   UNL     1      -9.223   8.417  70.286  1.00  0.00    -0.150 NA 
HETATM   15  C   UNL     1      -9.753   8.949  71.436  1.00  0.00    -0.300 C  
HETATM   16  N   UNL     1      -9.703   8.438  72.629  1.00  0.00    -0.281 N  
HETATM   17  H   UNL     1     -10.140   8.923  73.413  1.00  0.00     0.000 HD 
HETATM   18  C   UNL     1      -9.043   7.217  72.834  1.00  0.00    -0.140 C  
HETATM   19  O   UNL     1      -8.981   6.680  73.934  1.00  0.00    -0.136 OA 
ENDBRANCH   7   9
ENDBRANCH   2   4
TORSDOF 2
ENDMDL
MODEL      262
REMARK 921   NORMALIZED FREE ENERGY PREDICTED BY IDOCK:   -2.52 KCAL/MOL
REMARK 922        TOTAL FREE ENERGY PREDICTED BY IDOCK:   -3.11 KCAL/MOL
REMARK 923 INTER-LIGAND FREE ENERGY PREDICTED BY IDOCK:   -3.24 KCAL/MOL
REMARK 924 INTRA-LIGAND FREE ENERGY PREDICTED BY IDOCK:    0.13 KCAL/MOL
REMARK 927      BINDING AFFINITY PREDICTED BY RF-SCORE:    0.00 PKD
ROOT
HETATM    1  O   UNL     1     -12.269  11.735  69.735  1.00  0.00    -0.269 OA 
HETATM    2  C   UNL     1     -10.978  11.173  69.496  1.00  0.00    -0.220 C  
HETATM    3  H   UNL     1     -12.241  12.673  69.592  1.00  0.00     0.000 HD 
ENDROOT
BRANCH   2   4
HETATM    4  C   UNL     1     -11.023   9.655  69.727  1.00  0.00    -0.240 C  
HETATM    5  C   UNL     1      -9.903   9.157  70.622  1.00  0.00    -0.308 C  
HETATM    6  C   UNL     1      -8.821   8.760  69.648  1.00  0.00    -0.141 C  
HETATM    7  C   UNL     1      -9.601   8.301  68.426  1.00  0.00    -0.144 C  
HETATM    8  O   UNL     1     -10.879   8.964  68.472  1.00  0.00    -0.125 OA 
BRANCH   7   9
HETATM    9  N   UNL     1      -8.935   8.593  67.170  1.00  0.00    -0.131 NA 
HETATM   10  C   UNL     1      -7.861   7.894  66.665  1.00  0.00    -0.102 A  
HETATM   11  N   UNL     1      -7.430   8.396  65.523  1.00  0.00    -0.083 NA 
HETATM   12  C   UNL     1      -8.275   9.454  65.256  1.00  0.00    -0.132 A  
HETATM   13  C   UNL     1      -9.196   9.569  66.263  1.00  0.00    -0.172 A  
HETATM   14  N   UNL     1     -10.154  10.506  66.262  1.00  0.00    -0.224 NA 
HETATM   15  C   UNL     1     -10.166  11.349  65.177  1.00  0.00    -0.277 C  
HETATM   16  N   UNL     1      -9.343  11.343  64.172  1.00  0.00    -0.398 N  
HETATM   17  H   UNL     1      -9.445  12.026  63.421  1.00  0.00     0.000 HD 
HETATM   18  C   UNL     1      -8.312  10.392  64.126  1.00  0.00    -0.139 C  
HETATM   19  O   UNL     1      -7.496  10.353  63.212  1.00  0.00    -0.135 OA 
ENDBRANCH   7   9
ENDBRANCH   2   4
TORSDOF 2
ENDMDL
MODEL      263
REMARK 921   NORMALIZED FREE ENERGY PREDICTED BY IDOCK:   -2.51 KCAL/MOL
REMARK 922        TOTAL FREE ENERGY PREDICTED BY IDOCK:   -3.10 KCAL/MOL
REMARK 923 INTER-LIGAND FREE ENERGY PREDICTED BY IDOCK:   -2.76 KCAL/MOL
REMARK 924 INTRA-LIGAND FREE ENERGY PREDICTED BY IDOCK:   -0.34 KCAL/MOL
REMARK 927      BINDING AFFINITY PREDICTED BY RF-SCORE:    0.00 PKD
ROOT
HETATM    1  O   UNL     1      -6.509   2.622  70.159  1.00  0.00    -0.027 OA 
HETATM    2  C   UNL     1      -6.880   2.293  68.820  1.00  0.00    -0.039 C  
HETATM    3  H   UNL     1      -5.569   2.749  70.209  1.00  0.00     0.000 HD 
ENDROOT
BRANCH   2   4
HETATM    4  C   UNL     1      -8.400   2.087  68.740  1.00  0.00    -0.056 C  
HETATM    5  C   UNL     1      -8.930   2.119  67.318  1.00  0.00    -0.170 C  
HETATM    6  C   UNL     1      -9.329   3.561  67.120  1.00  0.00    -0.229 C  
HETATM    7  C   UNL     1      -9.758   3.998  68.511  1.00  0.00    -0.064 C  
HETATM    8  O   UNL     1      -9.075   3.144  69.449  1.00  0.00    -0.104 OA 
BRANCH   7   9
HETATM    9  N   UNL     1      -9.458   5.389  68.798  1.00  0.00    -0.123 NA 
HETATM   10  C   UNL     1      -8.366   6.077  68.316  1.00  0.00    -0.113 A  
HETATM   11  N   UNL     1      -8.320   7.318  68.763  1.00  0.00    -0.128 NA 
HETATM   12  C   UNL     1      -9.444   7.457  69.552  1.00  0.00    -0.155 A  
HETATM   13  C   UNL     1     -10.139   6.277  69.567  1.00  0.00    -0.176 A  
HETATM   14  N   UNL     1     -11.285   6.124  70.245  1.00  0.00    -0.367 NA 
HETATM   15  C   UNL     1     -11.733   7.231  70.924  1.00  0.00    -0.315 C  
HETATM   16  N   UNL     1     -11.158   8.394  70.990  1.00  0.00    -0.251 N  
HETATM   17  H   UNL     1     -11.582   9.146  71.533  1.00  0.00     0.000 HD 
HETATM   18  C   UNL     1      -9.949   8.609  70.311  1.00  0.00    -0.186 C  
HETATM   19  O   UNL     1      -9.353   9.679  70.354  1.00  0.00    -0.251 OA 
ENDBRANCH   7   9
ENDBRANCH   2   4
TORSDOF 2
ENDMDL
MODEL      264
REMARK 921   NORMALIZED FREE ENERGY PREDICTED BY IDOCK:   -2.48 KCAL/MOL
REMARK 922        TOTAL FREE ENERGY PREDICTED BY IDOCK:   -3.06 KCAL/MOL
REMARK 923 INTER-LIGAND FREE ENERGY PREDICTED BY IDOCK:   -3.17 KCAL/MOL
REMARK 924 INTRA-LIGAND FREE ENERGY PREDICTED BY IDOCK:    0.10 KCAL/MOL
REMARK 927      BINDING AFFINITY PREDICTED BY RF-SCORE:    0.00 PKD
ROOT
HETATM    1  O   UNL     1     -10.884  19.001  67.575  1.00  0.00    -0.463 OA 
HETATM    2  C   UNL     1     -10.232  18.112  68.483  1.00  0.00    -0.384 C  
HETATM    3  H   UNL     1     -11.755  19.203  67.895  1.00  0.00     0.000 HD 
ENDROOT
BRANCH   2   4
HETATM    4  C   UNL     1      -8.824  17.784  67.966  1.00  0.00    -0.259 C  
HETATM    5  C   UNL     1      -8.605  18.212  66.526  1.00  0.00    -0.282 C  
HETATM    6  C   UNL     1      -8.952  16.976  65.732  1.00  0.00     0.132 C  
HETATM    7  C   UNL     1      -8.555  15.841  66.662  1.00  0.00    -0.287 C  
HETATM    8  O   UNL     1      -8.607  16.361  68.004  1.00  0.00    -0.180 OA 
BRANCH   7   9
HETATM    9  N   UNL     1      -9.412  14.674  66.548  1.00  0.00    -0.282 NA 
HETATM   10  C   UNL     1      -9.920  14.181  65.367  1.00  0.00    -0.291 A  
HETATM   11  N   UNL     1     -10.697  13.131  65.558  1.00  0.00    -0.279 NA 
HETATM   12  C   UNL     1     -10.676  12.912  66.920  1.00  0.00    -0.257 A  
HETATM   13  C   UNL     1      -9.885  13.855  67.522  1.00  0.00    -0.236 A  
HETATM   14  N   UNL     1      -9.670  13.879  68.844  1.00  0.00    -0.081 NA 
HETATM   15  C   UNL     1     -10.286  12.889  69.570  1.00  0.00     0.688 C  
HETATM   16  N   UNL     1     -11.062  11.952  69.114  1.00  0.00    -0.299 N  
HETATM   17  H   UNL     1     -11.472  11.270  69.752  1.00  0.00     0.000 HD 
HETATM   18  C   UNL     1     -11.334  11.884  67.739  1.00  0.00    -0.292 C  
HETATM   19  O   UNL     1     -12.073  11.034  67.257  1.00  0.00    -0.115 OA 
ENDBRANCH   7   9
ENDBRANCH   2   4
TORSDOF 2
ENDMDL
MODEL      265
REMARK 921   NORMALIZED FREE ENERGY PREDICTED BY IDOCK:   -2.46 KCAL/MOL
REMARK 922        TOTAL FREE ENERGY PREDICTED BY IDOCK:   -3.05 KCAL/MOL
REMARK 923 INTER-LIGAND FREE ENERGY PREDICTED BY IDOCK:   -2.77 KCAL/MOL
REMARK 924 INTRA-LIGAND FREE ENERGY PREDICTED BY IDOCK:   -0.28 KCAL/MOL
REMARK 927      BINDING AFFINITY PREDICTED BY RF-SCORE:    0.00 PKD
ROOT
HETATM    1  O   UNL     1      -7.164   4.314  70.532  1.00  0.00    -0.040 OA 
HETATM    2  C   UNL     1      -6.636   3.842  71.773  1.00  0.00    -0.019 C  
HETATM    3  H   UNL     1      -6.681   3.928  69.811  1.00  0.00     0.000 HD 
ENDROOT
BRANCH   2   4
HETATM    4  C   UNL     1      -7.417   4.468  72.938  1.00  0.00    -0.085 C  
HETATM    5  C   UNL     1      -8.575   3.607  73.407  1.00  0.00    -0.083 C  
HETATM    6  C   UNL     1      -9.750   4.134  72.620  1.00  0.00    -0.196 C  
HETATM    7  C   UNL     1      -9.417   5.606  72.439  1.00  0.00    -0.143 C  
HETATM    8  O   UNL     1      -7.985   5.726  72.528  1.00  0.00    -0.102 OA 
BRANCH   7   9
HETATM    9  N   UNL     1      -9.883   6.154  71.177  1.00  0.00    -0.179 NA 
HETATM   10  C   UNL     1     -10.585   5.451  70.223  1.00  0.00    -0.259 A  
HETATM   11  N   UNL     1     -10.852   6.184  69.158  1.00  0.00    -0.315 NA 
HETATM   12  C   UNL     1     -10.324   7.427  69.438  1.00  0.00    -0.210 A  
HETATM   13  C   UNL     1      -9.736   7.406  70.675  1.00  0.00    -0.175 A  
HETATM   14  N   UNL     1      -9.151   8.485  71.214  1.00  0.00    -0.177 NA 
HETATM   15  C   UNL     1      -9.182   9.627  70.453  1.00  0.00    -0.202 C  
HETATM   16  N   UNL     1      -9.698   9.765  69.268  1.00  0.00    -0.185 N  
HETATM   17  H   UNL     1      -9.657  10.666  68.792  1.00  0.00     0.000 HD 
HETATM   18  C   UNL     1     -10.314   8.667  68.649  1.00  0.00    -0.193 C  
HETATM   19  O   UNL     1     -10.800   8.734  67.526  1.00  0.00    -0.206 OA 
ENDBRANCH   7   9
ENDBRANCH   2   4
TORSDOF 2
ENDMDL
MODEL      266
REMARK 921   NORMALIZED FREE ENERGY PREDICTED BY IDOCK:   -2.46 KCAL/MOL
REMARK 922        TOTAL FREE ENERGY PREDICTED BY IDOCK:   -3.04 KCAL/MOL
REMARK 923 INTER-LIGAND FREE ENERGY PREDICTED BY IDOCK:   -2.72 KCAL/MOL
REMARK 924 INTRA-LIGAND FREE ENERGY PREDICTED BY IDOCK:   -0.32 KCAL/MOL
REMARK 927      BINDING AFFINITY PREDICTED BY RF-SCORE:    0.00 PKD
ROOT
HETATM    1  O   UNL     1     -11.033   6.566  67.598  1.00  0.00    -0.313 OA 
HETATM    2  C   UNL     1     -10.234   7.699  67.253  1.00  0.00    -0.272 C  
HETATM    3  H   UNL     1     -10.869   5.860  66.984  1.00  0.00     0.000 HD 
ENDROOT
BRANCH   2   4
HETATM    4  C   UNL     1     -10.499   8.841  68.245  1.00  0.00    -0.187 C  
HETATM    5  C   UNL     1      -9.569  10.024  68.052  1.00  0.00    -0.154 C  
HETATM    6  C   UNL     1      -8.435   9.744  69.008  1.00  0.00    -0.137 C  
HETATM    7  C   UNL     1      -9.114   8.994  70.143  1.00  0.00    -0.188 C  
HETATM    8  O   UNL     1     -10.293   8.377  69.592  1.00  0.00    -0.209 OA 
BRANCH   7   9
HETATM    9  N   UNL     1      -8.268   7.987  70.758  1.00  0.00    -0.110 NA 
HETATM   10  C   UNL     1      -7.732   6.900  70.103  1.00  0.00    -0.101 A  
HETATM   11  N   UNL     1      -7.031   6.127  70.911  1.00  0.00    -0.066 NA 
HETATM   12  C   UNL     1      -7.090   6.747  72.142  1.00  0.00    -0.075 A  
HETATM   13  C   UNL     1      -7.843   7.887  72.044  1.00  0.00    -0.104 A  
HETATM   14  N   UNL     1      -8.061   8.700  73.086  1.00  0.00    -0.415 NA 
HETATM   15  C   UNL     1      -7.472   8.329  74.270  1.00  0.00    -0.201 C  
HETATM   16  N   UNL     1      -6.748   7.272  74.486  1.00  0.00    -0.092 N  
HETATM   17  H   UNL     1      -6.364   7.094  75.414  1.00  0.00     0.000 HD 
HETATM   18  C   UNL     1      -6.497   6.377  73.435  1.00  0.00    -0.065 C  
HETATM   19  O   UNL     1      -5.837   5.355  73.586  1.00  0.00    -0.030 OA 
ENDBRANCH   7   9
ENDBRANCH   2   4
TORSDOF 2
ENDMDL
MODEL      267
REMARK 921   NORMALIZED FREE ENERGY PREDICTED BY IDOCK:   -2.44 KCAL/MOL
REMARK 922        TOTAL FREE ENERGY PREDICTED BY IDOCK:   -3.02 KCAL/MOL
REMARK 923 INTER-LIGAND FREE ENERGY PREDICTED BY IDOCK:   -2.86 KCAL/MOL
REMARK 924 INTRA-LIGAND FREE ENERGY PREDICTED BY IDOCK:   -0.16 KCAL/MOL
REMARK 927      BINDING AFFINITY PREDICTED BY RF-SCORE:    0.00 PKD
ROOT
HETATM    1  O   UNL     1     -11.414   8.861  72.071  1.00  0.00    -0.352 OA 
HETATM    2  C   UNL     1      -9.993   8.733  72.006  1.00  0.00    -0.321 C  
HETATM    3  H   UNL     1     -11.711   8.685  72.956  1.00  0.00     0.000 HD 
ENDROOT
BRANCH   2   4
HETATM    4  C   UNL     1      -9.513   9.017  70.575  1.00  0.00    -0.221 C  
HETATM    5  C   UNL     1     -10.635   8.986  69.554  1.00  0.00    -0.231 C  
HETATM    6  C   UNL     1     -10.617   7.564  69.049  1.00  0.00    -0.190 C  
HETATM    7  C   UNL     1      -9.150   7.177  69.151  1.00  0.00    -0.137 C  
HETATM    8  O   UNL     1      -8.565   8.011  70.168  1.00  0.00    -0.127 OA 
BRANCH   7   9
HETATM    9  N   UNL     1      -8.943   5.777  69.477  1.00  0.00    -0.123 NA 
HETATM   10  C   UNL     1      -8.198   4.894  68.727  1.00  0.00    -0.083 A  
HETATM   11  N   UNL     1      -8.206   3.676  69.237  1.00  0.00    -0.056 NA 
HETATM   12  C   UNL     1      -8.968   3.772  70.383  1.00  0.00    -0.096 A  
HETATM   13  C   UNL     1      -9.412   5.059  70.530  1.00  0.00    -0.173 A  
HETATM   14  N   UNL     1     -10.167   5.449  71.566  1.00  0.00    -0.212 NA 
HETATM   15  C   UNL     1     -10.466   4.476  72.489  1.00  0.00    -0.186 C  
HETATM   16  N   UNL     1     -10.111   3.227  72.452  1.00  0.00    -0.161 N  
HETATM   17  H   UNL     1     -10.398   2.590  73.195  1.00  0.00     0.000 HD 
HETATM   18  C   UNL     1      -9.330   2.759  71.384  1.00  0.00    -0.134 C  
HETATM   19  O   UNL     1      -8.983   1.588  71.288  1.00  0.00    -0.058 OA 
ENDBRANCH   7   9
ENDBRANCH   2   4
TORSDOF 2
ENDMDL
MODEL      268
REMARK 921   NORMALIZED FREE ENERGY PREDICTED BY IDOCK:   -2.42 KCAL/MOL
REMARK 922        TOTAL FREE ENERGY PREDICTED BY IDOCK:   -3.00 KCAL/MOL
REMARK 923 INTER-LIGAND FREE ENERGY PREDICTED BY IDOCK:   -2.65 KCAL/MOL
REMARK 924 INTRA-LIGAND FREE ENERGY PREDICTED BY IDOCK:   -0.35 KCAL/MOL
REMARK 927      BINDING AFFINITY PREDICTED BY RF-SCORE:    0.00 PKD
ROOT
HETATM    1  O   UNL     1      -5.523   7.569  64.335  1.00  0.00    -0.032 OA 
HETATM    2  C   UNL     1      -5.872   8.829  63.760  1.00  0.00    -0.072 C  
HETATM    3  H   UNL     1      -4.608   7.578  64.592  1.00  0.00     0.000 HD 
ENDROOT
BRANCH   2   4
HETATM    4  C   UNL     1      -7.351   8.816  63.345  1.00  0.00    -0.100 C  
HETATM    5  C   UNL     1      -7.955  10.205  63.253  1.00  0.00    -0.155 C  
HETATM    6  C   UNL     1      -8.562  10.418  64.619  1.00  0.00    -0.192 C  
HETATM    7  C   UNL     1      -8.973   9.016  65.041  1.00  0.00    -0.147 C  
HETATM    8  O   UNL     1      -8.128   8.098  64.322  1.00  0.00    -0.149 OA 
BRANCH   7   9
HETATM    9  N   UNL     1      -8.855   8.785  66.469  1.00  0.00    -0.126 NA 
HETATM   10  C   UNL     1      -7.952   9.413  67.298  1.00  0.00    -0.106 A  
HETATM   11  N   UNL     1      -8.040   8.988  68.545  1.00  0.00    -0.107 NA 
HETATM   12  C   UNL     1      -9.061   8.061  68.537  1.00  0.00    -0.136 A  
HETATM   13  C   UNL     1      -9.560   7.943  67.267  1.00  0.00    -0.159 A  
HETATM   14  N   UNL     1     -10.573   7.119  66.963  1.00  0.00    -0.329 NA 
HETATM   15  C   UNL     1     -11.095   6.399  68.010  1.00  0.00    -0.267 C  
HETATM   16  N   UNL     1     -10.700   6.420  69.248  1.00  0.00    -0.259 N  
HETATM   17  H   UNL     1     -11.162   5.834  69.943  1.00  0.00     0.000 HD 
HETATM   18  C   UNL     1      -9.636   7.254  69.622  1.00  0.00    -0.155 C  
HETATM   19  O   UNL     1      -9.210   7.299  70.770  1.00  0.00    -0.156 OA 
ENDBRANCH   7   9
ENDBRANCH   2   4
TORSDOF 2
ENDMDL
MODEL      269
REMARK 921   NORMALIZED FREE ENERGY PREDICTED BY IDOCK:   -2.41 KCAL/MOL
REMARK 922        TOTAL FREE ENERGY PREDICTED BY IDOCK:   -2.99 KCAL/MOL
REMARK 923 INTER-LIGAND FREE ENERGY PREDICTED BY IDOCK:   -3.26 KCAL/MOL
REMARK 924 INTRA-LIGAND FREE ENERGY PREDICTED BY IDOCK:    0.26 KCAL/MOL
REMARK 927      BINDING AFFINITY PREDICTED BY RF-SCORE:    0.00 PKD
ROOT
HETATM    1  O   UNL     1     -12.535  10.159  71.320  1.00  0.00    -0.339 OA 
HETATM    2  C   UNL     1     -12.985  10.979  70.241  1.00  0.00    -0.004 C  
HETATM    3  H   UNL     1     -13.282   9.826  71.803  1.00  0.00     0.000 HD 
ENDROOT
BRANCH   2   4
HETATM    4  C   UNL     1     -11.777  11.517  69.460  1.00  0.00    -0.346 C  
HETATM    5  C   UNL     1     -11.749  11.054  68.015  1.00  0.00    -0.257 C  
HETATM    6  C   UNL     1     -10.896   9.809  68.058  1.00  0.00    -0.276 C  
HETATM    7  C   UNL     1      -9.920  10.094  69.188  1.00  0.00    -0.210 C  
HETATM    8  O   UNL     1     -10.556  11.046  70.062  1.00  0.00    -0.047 OA 
BRANCH   7   9
HETATM    9  N   UNL     1      -9.541   8.909  69.937  1.00  0.00    -0.172 NA 
HETATM   10  C   UNL     1      -8.752   8.908  71.066  1.00  0.00    -0.224 A  
HETATM   11  N   UNL     1      -8.538   7.688  71.524  1.00  0.00    -0.114 NA 
HETATM   12  C   UNL     1      -9.237   6.858  70.673  1.00  0.00    -0.158 A  
HETATM   13  C   UNL     1      -9.853   7.608  69.707  1.00  0.00    -0.181 A  
HETATM   14  N   UNL     1     -10.616   7.064  68.749  1.00  0.00    -0.213 NA 
HETATM   15  C   UNL     1     -10.755   5.699  68.795  1.00  0.00    -0.197 C  
HETATM   16  N   UNL     1     -10.214   4.886  69.653  1.00  0.00    -0.238 N  
HETATM   17  H   UNL     1     -10.384   3.883  69.586  1.00  0.00     0.000 HD 
HETATM   18  C   UNL     1      -9.396   5.397  70.671  1.00  0.00    -0.162 C  
HETATM   19  O   UNL     1      -8.845   4.676  71.495  1.00  0.00    -0.120 OA 
ENDBRANCH   7   9
ENDBRANCH   2   4
TORSDOF 2
ENDMDL
MODEL      270
REMARK 921   NORMALIZED FREE ENERGY PREDICTED BY IDOCK:   -2.40 KCAL/MOL
REMARK 922        TOTAL FREE ENERGY PREDICTED BY IDOCK:   -2.98 KCAL/MOL
REMARK 923 INTER-LIGAND FREE ENERGY PREDICTED BY IDOCK:   -2.83 KCAL/MOL
REMARK 924 INTRA-LIGAND FREE ENERGY PREDICTED BY IDOCK:   -0.15 KCAL/MOL
REMARK 927      BINDING AFFINITY PREDICTED BY RF-SCORE:    0.00 PKD
ROOT
HETATM    1  O   UNL     1      -7.376  10.887  70.266  1.00  0.00    -0.443 OA 
HETATM    2  C   UNL     1      -7.427  10.919  68.839  1.00  0.00    -0.116 C  
HETATM    3  H   UNL     1      -8.211  11.166  70.622  1.00  0.00     0.000 HD 
ENDROOT
BRANCH   2   4
HETATM    4  C   UNL     1      -6.077  10.468  68.262  1.00  0.00    -0.047 C  
HETATM    5  C   UNL     1      -5.868  10.907  66.824  1.00  0.00    -0.085 C  
HETATM    6  C   UNL     1      -6.363   9.730  66.019  1.00  0.00    -0.076 C  
HETATM    7  C   UNL     1      -6.046   8.539  66.911  1.00  0.00    -0.054 C  
HETATM    8  O   UNL     1      -5.999   9.030  68.264  1.00  0.00    -0.041 OA 
BRANCH   7   9
HETATM    9  N   UNL     1      -7.016   7.464  66.806  1.00  0.00    -0.075 NA 
HETATM   10  C   UNL     1      -6.710   6.148  66.539  1.00  0.00    -0.060 A  
HETATM   11  N   UNL     1      -7.788   5.389  66.465  1.00  0.00    -0.100 NA 
HETATM   12  C   UNL     1      -8.843   6.241  66.719  1.00  0.00    -0.126 A  
HETATM   13  C   UNL     1      -8.367   7.508  66.932  1.00  0.00    -0.125 A  
HETATM   14  N   UNL     1      -9.171   8.542  67.216  1.00  0.00    -0.138 NA 
HETATM   15  C   UNL     1     -10.512   8.256  67.292  1.00  0.00    -0.303 C  
HETATM   16  N   UNL     1     -11.078   7.102  67.101  1.00  0.00    -0.585 N  
HETATM   17  H   UNL     1     -12.091   7.009  67.178  1.00  0.00     0.000 HD 
HETATM   18  C   UNL     1     -10.288   5.986  66.789  1.00  0.00    -0.238 C  
HETATM   19  O   UNL     1     -10.770   4.879  66.580  1.00  0.00    -0.223 OA 
ENDBRANCH   7   9
ENDBRANCH   2   4
TORSDOF 2
ENDMDL
MODEL      271
REMARK 921   NORMALIZED FREE ENERGY PREDICTED BY IDOCK:   -2.36 KCAL/MOL
REMARK 922        TOTAL FREE ENERGY PREDICTED BY IDOCK:   -2.93 KCAL/MOL
REMARK 923 INTER-LIGAND FREE ENERGY PREDICTED BY IDOCK:   -2.92 KCAL/MOL
REMARK 924 INTRA-LIGAND FREE ENERGY PREDICTED BY IDOCK:   -0.01 KCAL/MOL
REMARK 927      BINDING AFFINITY PREDICTED BY RF-SCORE:    0.00 PKD
ROOT
HETATM    1  O   UNL     1      -9.551   4.947  73.893  1.00  0.00    -0.127 OA 
HETATM    2  C   UNL     1      -9.987   6.251  74.281  1.00  0.00    -0.310 C  
HETATM    3  H   UNL     1     -10.140   4.293  74.251  1.00  0.00     0.000 HD 
ENDROOT
BRANCH   2   4
HETATM    4  C   UNL     1      -9.035   7.308  73.702  1.00  0.00    -0.194 C  
HETATM    5  C   UNL     1      -9.762   8.455  73.024  1.00  0.00    -0.185 C  
HETATM    6  C   UNL     1      -9.825   8.029  71.577  1.00  0.00    -0.217 C  
HETATM    7  C   UNL     1      -8.555   7.213  71.398  1.00  0.00    -0.116 C  
HETATM    8  O   UNL     1      -8.192   6.711  72.699  1.00  0.00    -0.109 OA 
BRANCH   7   9
HETATM    9  N   UNL     1      -8.702   6.111  70.465  1.00  0.00    -0.141 NA 
HETATM   10  C   UNL     1      -8.075   4.890  70.579  1.00  0.00    -0.084 A  
HETATM   11  N   UNL     1      -8.360   4.086  69.572  1.00  0.00    -0.057 NA 
HETATM   12  C   UNL     1      -9.231   4.802  68.777  1.00  0.00    -0.124 A  
HETATM   13  C   UNL     1      -9.442   6.038  69.329  1.00  0.00    -0.132 A  
HETATM   14  N   UNL     1     -10.258   6.945  68.775  1.00  0.00    -0.167 NA 
HETATM   15  C   UNL     1     -10.886   6.559  67.616  1.00  0.00    -0.337 C  
HETATM   16  N   UNL     1     -10.758   5.423  66.998  1.00  0.00    -0.344 N  
HETATM   17  H   UNL     1     -11.273   5.248  66.135  1.00  0.00     0.000 HD 
HETATM   18  C   UNL     1      -9.908   4.439  67.524  1.00  0.00    -0.128 C  
HETATM   19  O   UNL     1      -9.734   3.358  66.973  1.00  0.00    -0.149 OA 
ENDBRANCH   7   9
ENDBRANCH   2   4
TORSDOF 2
ENDMDL
MODEL      272
REMARK 921   NORMALIZED FREE ENERGY PREDICTED BY IDOCK:   -2.33 KCAL/MOL
REMARK 922        TOTAL FREE ENERGY PREDICTED BY IDOCK:   -2.89 KCAL/MOL
REMARK 923 INTER-LIGAND FREE ENERGY PREDICTED BY IDOCK:   -2.83 KCAL/MOL
REMARK 924 INTRA-LIGAND FREE ENERGY PREDICTED BY IDOCK:   -0.06 KCAL/MOL
REMARK 927      BINDING AFFINITY PREDICTED BY RF-SCORE:    0.00 PKD
ROOT
HETATM    1  O   UNL     1      -6.308   2.558  69.846  1.00  0.00    -0.027 OA 
HETATM    2  C   UNL     1      -6.100   2.388  68.443  1.00  0.00    -0.025 C  
HETATM    3  H   UNL     1      -5.479   2.743  70.272  1.00  0.00     0.000 HD 
ENDROOT
BRANCH   2   4
HETATM    4  C   UNL     1      -7.440   2.089  67.754  1.00  0.00    -0.055 C  
HETATM    5  C   UNL     1      -7.848   3.160  66.758  1.00  0.00    -0.076 C  
HETATM    6  C   UNL     1      -8.717   4.088  67.571  1.00  0.00    -0.116 C  
HETATM    7  C   UNL     1      -9.367   3.158  68.584  1.00  0.00    -0.171 C  
HETATM    8  O   UNL     1      -8.492   2.025  68.736  1.00  0.00    -0.055 OA 
BRANCH   7   9
HETATM    9  N   UNL     1      -9.599   3.782  69.875  1.00  0.00    -0.196 NA 
HETATM   10  C   UNL     1      -9.188   3.268  71.085  1.00  0.00    -0.125 A  
HETATM   11  N   UNL     1      -9.563   4.022  72.101  1.00  0.00    -0.141 NA 
HETATM   12  C   UNL     1     -10.226   5.089  71.530  1.00  0.00    -0.204 A  
HETATM   13  C   UNL     1     -10.242   4.941  70.169  1.00  0.00    -0.240 A  
HETATM   14  N   UNL     1     -10.811   5.838  69.352  1.00  0.00    -0.333 NA 
HETATM   15  C   UNL     1     -11.375   6.932  69.963  1.00  0.00    -0.294 C  
HETATM   16  N   UNL     1     -11.429   7.175  71.238  1.00  0.00    -0.270 N  
HETATM   17  H   UNL     1     -11.881   8.023  71.580  1.00  0.00     0.000 HD 
HETATM   18  C   UNL     1     -10.861   6.264  72.142  1.00  0.00    -0.242 C  
HETATM   19  O   UNL     1     -10.900   6.433  73.355  1.00  0.00    -0.263 OA 
ENDBRANCH   7   9
ENDBRANCH   2   4
TORSDOF 2
ENDMDL
MODEL      273
REMARK 921   NORMALIZED FREE ENERGY PREDICTED BY IDOCK:   -2.25 KCAL/MOL
REMARK 922        TOTAL FREE ENERGY PREDICTED BY IDOCK:   -2.81 KCAL/MOL
REMARK 923 INTER-LIGAND FREE ENERGY PREDICTED BY IDOCK:   -2.54 KCAL/MOL
REMARK 924 INTRA-LIGAND FREE ENERGY PREDICTED BY IDOCK:   -0.28 KCAL/MOL
REMARK 927      BINDING AFFINITY PREDICTED BY RF-SCORE:    0.00 PKD
ROOT
HETATM    1  O   UNL     1      -9.537  11.176  65.671  1.00  0.00    -0.206 OA 
HETATM    2  C   UNL     1      -9.618  10.308  64.540  1.00  0.00    -0.316 C  
HETATM    3  H   UNL     1     -10.407  11.471  65.911  1.00  0.00     0.000 HD 
ENDROOT
BRANCH   2   4
HETATM    4  C   UNL     1      -8.211   9.830  64.152  1.00  0.00    -0.158 C  
HETATM    5  C   UNL     1      -8.226   8.639  63.211  1.00  0.00    -0.162 C  
HETATM    6  C   UNL     1      -8.139   7.453  64.140  1.00  0.00    -0.046 C  
HETATM    7  C   UNL     1      -7.318   7.981  65.306  1.00  0.00    -0.070 C  
HETATM    8  O   UNL     1      -7.494   9.411  65.328  1.00  0.00    -0.096 OA 
BRANCH   7   9
HETATM    9  N   UNL     1      -7.700   7.414  66.587  1.00  0.00    -0.099 NA 
HETATM   10  C   UNL     1      -6.976   6.470  67.279  1.00  0.00    -0.075 A  
HETATM   11  N   UNL     1      -7.572   6.105  68.399  1.00  0.00    -0.090 NA 
HETATM   12  C   UNL     1      -8.725   6.861  68.454  1.00  0.00    -0.124 A  
HETATM   13  C   UNL     1      -8.797   7.664  67.346  1.00  0.00    -0.124 A  
HETATM   14  N   UNL     1      -9.808   8.519  67.140  1.00  0.00    -0.186 NA 
HETATM   15  C   UNL     1     -10.774   8.553  68.116  1.00  0.00    -0.042 C  
HETATM   16  N   UNL     1     -10.817   7.836  69.199  1.00  0.00    -0.410 N  
HETATM   17  H   UNL     1     -11.592   7.943  69.854  1.00  0.00     0.000 HD 
HETATM   18  C   UNL     1      -9.792   6.915  69.462  1.00  0.00    -0.159 C  
HETATM   19  O   UNL     1      -9.792   6.200  70.457  1.00  0.00    -0.174 OA 
ENDBRANCH   7   9
ENDBRANCH   2   4
TORSDOF 2
ENDMDL
MODEL      274
REMARK 921   NORMALIZED FREE ENERGY PREDICTED BY IDOCK:   -2.25 KCAL/MOL
REMARK 922        TOTAL FREE ENERGY PREDICTED BY IDOCK:   -2.81 KCAL/MOL
REMARK 923 INTER-LIGAND FREE ENERGY PREDICTED BY IDOCK:   -2.79 KCAL/MOL
REMARK 924 INTRA-LIGAND FREE ENERGY PREDICTED BY IDOCK:   -0.02 KCAL/MOL
REMARK 927      BINDING AFFINITY PREDICTED BY RF-SCORE:    0.00 PKD
ROOT
HETATM    1  O   UNL     1      -7.927   6.875  73.302  1.00  0.00    -0.098 OA 
HETATM    2  C   UNL     1      -8.841   7.935  73.021  1.00  0.00    -0.217 C  
HETATM    3  H   UNL     1      -7.036   7.203  73.265  1.00  0.00     0.000 HD 
ENDROOT
BRANCH   2   4
HETATM    4  C   UNL     1     -10.282   7.406  73.080  1.00  0.00    -0.286 C  
HETATM    5  C   UNL     1     -10.374   5.994  73.630  1.00  0.00    -0.265 C  
HETATM    6  C   UNL     1     -10.333   5.129  72.394  1.00  0.00    -0.257 C  
HETATM    7  C   UNL     1     -11.007   5.993  71.340  1.00  0.00    -0.276 C  
HETATM    8  O   UNL     1     -10.842   7.363  71.754  1.00  0.00    -0.221 OA 
BRANCH   7   9
HETATM    9  N   UNL     1     -10.462   5.809  70.007  1.00  0.00    -0.256 NA 
HETATM   10  C   UNL     1     -11.188   5.895  68.839  1.00  0.00    -0.054 A  
HETATM   11  N   UNL     1     -10.449   5.649  67.773  1.00  0.00    -0.217 NA 
HETATM   12  C   UNL     1      -9.180   5.415  68.262  1.00  0.00    -0.111 A  
HETATM   13  C   UNL     1      -9.191   5.519  69.628  1.00  0.00    -0.132 A  
HETATM   14  N   UNL     1      -8.089   5.354  70.373  1.00  0.00    -0.099 NA 
HETATM   15  C   UNL     1      -6.934   5.081  69.682  1.00  0.00    -0.054 C  
HETATM   16  N   UNL     1      -6.803   4.951  68.396  1.00  0.00    -0.054 N  
HETATM   17  H   UNL     1      -5.891   4.741  67.992  1.00  0.00     0.000 HD 
HETATM   18  C   UNL     1      -7.925   5.101  67.566  1.00  0.00    -0.100 C  
HETATM   19  O   UNL     1      -7.864   4.969  66.350  1.00  0.00    -0.098 OA 
ENDBRANCH   7   9
ENDBRANCH   2   4
TORSDOF 2
ENDMDL
MODEL      275
REMARK 921   NORMALIZED FREE ENERGY PREDICTED BY IDOCK:   -2.23 KCAL/MOL
REMARK 922        TOTAL FREE ENERGY PREDICTED BY IDOCK:   -2.79 KCAL/MOL
REMARK 923 INTER-LIGAND FREE ENERGY PREDICTED BY IDOCK:   -2.73 KCAL/MOL
REMARK 924 INTRA-LIGAND FREE ENERGY PREDICTED BY IDOCK:   -0.06 KCAL/MOL
REMARK 927      BINDING AFFINITY PREDICTED BY RF-SCORE:    0.00 PKD
ROOT
HETATM    1  O   UNL     1     -11.832  11.339  70.972  1.00  0.00    -0.304 OA 
HETATM    2  C   UNL     1     -11.939  10.211  70.103  1.00  0.00    -0.185 C  
HETATM    3  H   UNL     1     -12.020  12.135  70.489  1.00  0.00     0.000 HD 
ENDROOT
BRANCH   2   4
HETATM    4  C   UNL     1     -11.636   8.924  70.884  1.00  0.00    -0.283 C  
HETATM    5  C   UNL     1     -10.321   8.983  71.640  1.00  0.00    -0.420 C  
HETATM    6  C   UNL     1      -9.331   8.376  70.676  1.00  0.00    -0.182 C  
HETATM    7  C   UNL     1     -10.166   7.364  69.909  1.00  0.00    -0.211 C  
HETATM    8  O   UNL     1     -11.533   7.812  69.975  1.00  0.00    -0.129 OA 
BRANCH   7   9
HETATM    9  N   UNL     1      -9.761   7.212  68.523  1.00  0.00    -0.142 NA 
HETATM   10  C   UNL     1     -10.621   7.187  67.448  1.00  0.00    -0.302 A  
HETATM   11  N   UNL     1      -9.987   7.001  66.304  1.00  0.00     0.012 NA 
HETATM   12  C   UNL     1      -8.652   6.927  66.644  1.00  0.00    -0.124 A  
HETATM   13  C   UNL     1      -8.517   7.061  68.000  1.00  0.00    -0.125 A  
HETATM   14  N   UNL     1      -7.325   7.042  68.612  1.00  0.00    -0.094 NA 
HETATM   15  C   UNL     1      -6.233   6.888  67.794  1.00  0.00    -0.041 C  
HETATM   16  N   UNL     1      -6.237   6.743  66.502  1.00  0.00    -0.042 N  
HETATM   17  H   UNL     1      -5.359   6.630  65.996  1.00  0.00     0.000 HD 
HETATM   18  C   UNL     1      -7.457   6.743  65.809  1.00  0.00    -0.085 C  
HETATM   19  O   UNL     1      -7.521   6.591  64.595  1.00  0.00    -0.075 OA 
ENDBRANCH   7   9
ENDBRANCH   2   4
TORSDOF 2
ENDMDL
MODEL      276
REMARK 921   NORMALIZED FREE ENERGY PREDICTED BY IDOCK:   -2.21 KCAL/MOL
REMARK 922        TOTAL FREE ENERGY PREDICTED BY IDOCK:   -2.77 KCAL/MOL
REMARK 923 INTER-LIGAND FREE ENERGY PREDICTED BY IDOCK:   -2.73 KCAL/MOL
REMARK 924 INTRA-LIGAND FREE ENERGY PREDICTED BY IDOCK:   -0.04 KCAL/MOL
REMARK 927      BINDING AFFINITY PREDICTED BY RF-SCORE:    0.00 PKD
ROOT
HETATM    1  O   UNL     1      -6.091   7.436  63.874  1.00  0.00    -0.047 OA 
HETATM    2  C   UNL     1      -6.119   8.717  63.243  1.00  0.00    -0.085 C  
HETATM    3  H   UNL     1      -5.219   7.264  64.209  1.00  0.00     0.000 HD 
ENDROOT
BRANCH   2   4
HETATM    4  C   UNL     1      -7.528   8.996  62.700  1.00  0.00    -0.099 C  
HETATM    5  C   UNL     1      -7.816  10.476  62.526  1.00  0.00    -0.178 C  
HETATM    6  C   UNL     1      -8.473  10.865  63.828  1.00  0.00     0.096 C  
HETATM    7  C   UNL     1      -9.203   9.598  64.243  1.00  0.00    -0.178 C  
HETATM    8  O   UNL     1      -8.516   8.495  63.622  1.00  0.00    -0.134 OA 
BRANCH   7   9
HETATM    9  N   UNL     1      -9.253   9.405  65.681  1.00  0.00    -0.209 NA 
HETATM   10  C   UNL     1      -9.073   8.199  66.322  1.00  0.00    -0.185 A  
HETATM   11  N   UNL     1      -9.205   8.304  67.631  1.00  0.00    -0.137 NA 
HETATM   12  C   UNL     1      -9.457   9.641  67.859  1.00  0.00    -0.131 A  
HETATM   13  C   UNL     1      -9.481  10.312  66.665  1.00  0.00    -0.166 A  
HETATM   14  N   UNL     1      -9.692  11.632  66.584  1.00  0.00    -0.198 NA 
HETATM   15  C   UNL     1      -9.876  12.285  67.778  1.00  0.00    -0.201 C  
HETATM   16  N   UNL     1      -9.885  11.757  68.965  1.00  0.00    -0.413 N  
HETATM   17  H   UNL     1     -10.038  12.343  69.786  1.00  0.00     0.000 HD 
HETATM   18  C   UNL     1      -9.681  10.377  69.111  1.00  0.00    -0.220 C  
HETATM   19  O   UNL     1      -9.698   9.823  70.204  1.00  0.00    -0.242 OA 
ENDBRANCH   7   9
ENDBRANCH   2   4
TORSDOF 2
ENDMDL
MODEL      277
REMARK 921   NORMALIZED FREE ENERGY PREDICTED BY IDOCK:   -2.19 KCAL/MOL
REMARK 922        TOTAL FREE ENERGY PREDICTED BY IDOCK:   -2.75 KCAL/MOL
REMARK 923 INTER-LIGAND FREE ENERGY PREDICTED BY IDOCK:   -2.48 KCAL/MOL
REMARK 924 INTRA-LIGAND FREE ENERGY PREDICTED BY IDOCK:   -0.27 KCAL/MOL
REMARK 927      BINDING AFFINITY PREDICTED BY RF-SCORE:    0.00 PKD
ROOT
HETATM    1  O   UNL     1      -8.897  10.391  64.022  1.00  0.00    -0.187 OA 
HETATM    2  C   UNL     1      -7.964  10.608  65.081  1.00  0.00    -0.036 C  
HETATM    3  H   UNL     1      -9.480  11.138  63.951  1.00  0.00     0.000 HD 
ENDROOT
BRANCH   2   4
HETATM    4  C   UNL     1      -7.021   9.401  65.195  1.00  0.00    -0.092 C  
HETATM    5  C   UNL     1      -7.445   8.231  64.326  1.00  0.00    -0.107 C  
HETATM    6  C   UNL     1      -8.288   7.388  65.251  1.00  0.00    -0.110 C  
HETATM    7  C   UNL     1      -7.662   7.633  66.615  1.00  0.00    -0.098 C  
HETATM    8  O   UNL     1      -7.008   8.915  66.551  1.00  0.00    -0.078 OA 
BRANCH   7   9
HETATM    9  N   UNL     1      -8.622   7.619  67.703  1.00  0.00    -0.116 NA 
HETATM   10  C   UNL     1      -9.273   8.729  68.196  1.00  0.00    -0.140 A  
HETATM   11  N   UNL     1     -10.065   8.434  69.210  1.00  0.00    -0.197 NA 
HETATM   12  C   UNL     1      -9.947   7.069  69.372  1.00  0.00    -0.162 A  
HETATM   13  C   UNL     1      -9.068   6.574  68.445  1.00  0.00    -0.123 A  
HETATM   14  N   UNL     1      -8.768   5.270  68.360  1.00  0.00    -0.098 NA 
HETATM   15  C   UNL     1      -9.407   4.448  69.256  1.00  0.00    -0.156 C  
HETATM   16  N   UNL     1     -10.249   4.802  70.180  1.00  0.00    -0.236 N  
HETATM   17  H   UNL     1     -10.658   4.100  70.796  1.00  0.00     0.000 HD 
HETATM   18  C   UNL     1     -10.590   6.155  70.325  1.00  0.00    -0.258 C  
HETATM   19  O   UNL     1     -11.363   6.547  71.191  1.00  0.00    -0.284 OA 
ENDBRANCH   7   9
ENDBRANCH   2   4
TORSDOF 2
ENDMDL
MODEL      278
REMARK 921   NORMALIZED FREE ENERGY PREDICTED BY IDOCK:   -2.18 KCAL/MOL
REMARK 922        TOTAL FREE ENERGY PREDICTED BY IDOCK:   -2.73 KCAL/MOL
REMARK 923 INTER-LIGAND FREE ENERGY PREDICTED BY IDOCK:   -2.57 KCAL/MOL
REMARK 924 INTRA-LIGAND FREE ENERGY PREDICTED BY IDOCK:   -0.17 KCAL/MOL
REMARK 927      BINDING AFFINITY PREDICTED BY RF-SCORE:    0.00 PKD
ROOT
HETATM    1  O   UNL     1     -10.669   8.791  72.279  1.00  0.00    -0.344 OA 
HETATM    2  C   UNL     1     -11.277   9.662  71.324  1.00  0.00    -0.376 C  
HETATM    3  H   UNL     1     -11.322   8.487  72.897  1.00  0.00     0.000 HD 
ENDROOT
BRANCH   2   4
HETATM    4  C   UNL     1     -10.221  10.154  70.324  1.00  0.00    -0.120 C  
HETATM    5  C   UNL     1     -10.780  10.384  68.933  1.00  0.00    -0.255 C  
HETATM    6  C   UNL     1     -10.528   9.074  68.227  1.00  0.00    -0.247 C  
HETATM    7  C   UNL     1      -9.251   8.567  68.878  1.00  0.00    -0.146 C  
HETATM    8  O   UNL     1      -9.180   9.167  70.186  1.00  0.00    -0.174 OA 
BRANCH   7   9
HETATM    9  N   UNL     1      -9.194   7.121  68.991  1.00  0.00    -0.136 NA 
HETATM   10  C   UNL     1      -9.996   6.243  68.297  1.00  0.00    -0.139 A  
HETATM   11  N   UNL     1      -9.755   4.985  68.618  1.00  0.00    -0.148 NA 
HETATM   12  C   UNL     1      -8.734   5.041  69.545  1.00  0.00    -0.091 A  
HETATM   13  C   UNL     1      -8.391   6.349  69.767  1.00  0.00    -0.127 A  
HETATM   14  N   UNL     1      -7.415   6.704  70.614  1.00  0.00    -0.082 NA 
HETATM   15  C   UNL     1      -6.765   5.673  71.247  1.00  0.00    -0.053 C  
HETATM   16  N   UNL     1      -7.008   4.402  71.124  1.00  0.00    -0.035 N  
HETATM   17  H   UNL     1      -6.461   3.722  71.652  1.00  0.00     0.000 HD 
HETATM   18  C   UNL     1      -8.026   3.971  70.261  1.00  0.00    -0.051 C  
HETATM   19  O   UNL     1      -8.311   2.788  70.121  1.00  0.00    -0.044 OA 
ENDBRANCH   7   9
ENDBRANCH   2   4
TORSDOF 2
ENDMDL
MODEL      279
REMARK 921   NORMALIZED FREE ENERGY PREDICTED BY IDOCK:   -2.16 KCAL/MOL
REMARK 922        TOTAL FREE ENERGY PREDICTED BY IDOCK:   -2.71 KCAL/MOL
REMARK 923 INTER-LIGAND FREE ENERGY PREDICTED BY IDOCK:   -2.50 KCAL/MOL
REMARK 924 INTRA-LIGAND FREE ENERGY PREDICTED BY IDOCK:   -0.20 KCAL/MOL
REMARK 927      BINDING AFFINITY PREDICTED BY RF-SCORE:    0.00 PKD
ROOT
HETATM    1  O   UNL     1      -9.615  12.666  67.622  1.00  0.00    -0.179 OA 
HETATM    2  C   UNL     1      -9.267  11.887  68.768  1.00  0.00     0.034 C  
HETATM    3  H   UNL     1      -8.993  13.377  67.518  1.00  0.00     0.000 HD 
ENDROOT
BRANCH   2   4
HETATM    4  C   UNL     1     -10.271  10.737  68.936  1.00  0.00    -0.203 C  
HETATM    5  C   UNL     1      -9.718   9.578  69.744  1.00  0.00    -0.234 C  
HETATM    6  C   UNL     1      -9.157   8.649  68.694  1.00  0.00    -0.138 C  
HETATM    7  C   UNL     1     -10.070   8.881  67.500  1.00  0.00    -0.227 C  
HETATM    8  O   UNL     1     -10.624  10.202  67.646  1.00  0.00    -0.226 OA 
BRANCH   7   9
HETATM    9  N   UNL     1      -9.391   8.766  66.222  1.00  0.00    -0.204 NA 
HETATM   10  C   UNL     1      -9.400   9.726  65.234  1.00  0.00    -0.255 A  
HETATM   11  N   UNL     1      -8.730   9.346  64.162  1.00  0.00    -0.206 NA 
HETATM   12  C   UNL     1      -8.239   8.094  64.471  1.00  0.00    -0.115 A  
HETATM   13  C   UNL     1      -8.641   7.745  65.733  1.00  0.00    -0.143 A  
HETATM   14  N   UNL     1      -8.299   6.582  66.304  1.00  0.00    -0.119 NA 
HETATM   15  C   UNL     1      -7.505   5.753  65.548  1.00  0.00    -0.077 C  
HETATM   16  N   UNL     1      -7.072   5.972  64.342  1.00  0.00    -0.051 N  
HETATM   17  H   UNL     1      -6.490   5.277  63.873  1.00  0.00     0.000 HD 
HETATM   18  C   UNL     1      -7.409   7.167  63.690  1.00  0.00    -0.085 C  
HETATM   19  O   UNL     1      -7.044   7.417  62.547  1.00  0.00    -0.074 OA 
ENDBRANCH   7   9
ENDBRANCH   2   4
TORSDOF 2
ENDMDL
MODEL      280
REMARK 921   NORMALIZED FREE ENERGY PREDICTED BY IDOCK:   -2.15 KCAL/MOL
REMARK 922        TOTAL FREE ENERGY PREDICTED BY IDOCK:   -2.70 KCAL/MOL
REMARK 923 INTER-LIGAND FREE ENERGY PREDICTED BY IDOCK:   -2.38 KCAL/MOL
REMARK 924 INTRA-LIGAND FREE ENERGY PREDICTED BY IDOCK:   -0.32 KCAL/MOL
REMARK 927      BINDING AFFINITY PREDICTED BY RF-SCORE:    0.00 PKD
ROOT
HETATM    1  O   UNL     1      -7.111  10.579  64.070  1.00  0.00    -0.329 OA 
HETATM    2  C   UNL     1      -8.038  10.199  65.088  1.00  0.00    -0.148 C  
HETATM    3  H   UNL     1      -7.297  10.098  63.272  1.00  0.00     0.000 HD 
ENDROOT
BRANCH   2   4
HETATM    4  C   UNL     1      -7.736  10.976  66.378  1.00  0.00    -0.146 C  
HETATM    5  C   UNL     1      -6.332  10.735  66.903  1.00  0.00    -0.084 C  
HETATM    6  C   UNL     1      -6.510   9.599  67.882  1.00  0.00    -0.061 C  
HETATM    7  C   UNL     1      -7.912   9.822  68.424  1.00  0.00    -0.089 C  
HETATM    8  O   UNL     1      -8.637  10.561  67.422  1.00  0.00    -0.122 OA 
BRANCH   7   9
HETATM    9  N   UNL     1      -8.614   8.591  68.737  1.00  0.00    -0.130 NA 
HETATM   10  C   UNL     1      -9.532   7.975  67.916  1.00  0.00    -0.145 A  
HETATM   11  N   UNL     1     -10.043   6.888  68.464  1.00  0.00    -0.156 NA 
HETATM   12  C   UNL     1      -9.412   6.773  69.686  1.00  0.00    -0.146 A  
HETATM   13  C   UNL     1      -8.536   7.813  69.847  1.00  0.00    -0.132 A  
HETATM   14  N   UNL     1      -7.772   7.950  70.940  1.00  0.00    -0.081 NA 
HETATM   15  C   UNL     1      -7.912   6.974  71.896  1.00  0.00    -0.098 C  
HETATM   16  N   UNL     1      -8.713   5.951  71.858  1.00  0.00    -0.138 N  
HETATM   17  H   UNL     1      -8.736   5.289  72.634  1.00  0.00     0.000 HD 
HETATM   18  C   UNL     1      -9.545   5.762  70.745  1.00  0.00    -0.171 C  
HETATM   19  O   UNL     1     -10.332   4.827  70.664  1.00  0.00    -0.208 OA 
ENDBRANCH   7   9
ENDBRANCH   2   4
TORSDOF 2
ENDMDL
MODEL      281
REMARK 921   NORMALIZED FREE ENERGY PREDICTED BY IDOCK:   -2.13 KCAL/MOL
REMARK 922        TOTAL FREE ENERGY PREDICTED BY IDOCK:   -2.67 KCAL/MOL
REMARK 923 INTER-LIGAND FREE ENERGY PREDICTED BY IDOCK:   -2.74 KCAL/MOL
REMARK 924 INTRA-LIGAND FREE ENERGY PREDICTED BY IDOCK:    0.07 KCAL/MOL
REMARK 927      BINDING AFFINITY PREDICTED BY RF-SCORE:    0.00 PKD
ROOT
HETATM    1  O   UNL     1      -6.712  10.572  66.924  1.00  0.00    -0.078 OA 
HETATM    2  C   UNL     1      -5.350  10.910  67.187  1.00  0.00    -0.047 C  
HETATM    3  H   UNL     1      -6.755   9.723  66.500  1.00  0.00     0.000 HD 
ENDROOT
BRANCH   2   4
HETATM    4  C   UNL     1      -5.281  12.284  67.871  1.00  0.00    -0.073 C  
HETATM    5  C   UNL     1      -5.674  12.238  69.336  1.00  0.00    -0.084 C  
HETATM    6  C   UNL     1      -7.149  12.560  69.318  1.00  0.00     0.091 C  
HETATM    7  C   UNL     1      -7.288  13.490  68.123  1.00  0.00    -0.121 C  
HETATM    8  O   UNL     1      -6.195  13.196  67.233  1.00  0.00    -0.298 OA 
BRANCH   7   9
HETATM    9  N   UNL     1      -8.551  13.346  67.423  1.00  0.00    -0.194 NA 
HETATM   10  C   UNL     1      -8.694  12.843  66.148  1.00  0.00     0.410 A  
HETATM   11  N   UNL     1      -9.951  12.857  65.744  1.00  0.00    -0.272 NA 
HETATM   12  C   UNL     1     -10.664  13.368  66.809  1.00  0.00    -0.277 A  
HETATM   13  C   UNL     1      -9.806  13.660  67.835  1.00  0.00    -0.237 A  
HETATM   14  N   UNL     1     -10.225  14.160  69.006  1.00  0.00    -0.175 NA 
HETATM   15  C   UNL     1     -11.580  14.355  69.124  1.00  0.00    -0.307 C  
HETATM   16  N   UNL     1     -12.485  14.125  68.221  1.00  0.00    -0.464 N  
HETATM   17  H   UNL     1     -13.467  14.315  68.420  1.00  0.00     0.000 HD 
HETATM   18  C   UNL     1     -12.104  13.613  66.971  1.00  0.00    -0.380 C  
HETATM   19  O   UNL     1     -12.912  13.396  66.077  1.00  0.00    -0.235 OA 
ENDBRANCH   7   9
ENDBRANCH   2   4
TORSDOF 2
ENDMDL
MODEL      282
REMARK 921   NORMALIZED FREE ENERGY PREDICTED BY IDOCK:   -2.12 KCAL/MOL
REMARK 922        TOTAL FREE ENERGY PREDICTED BY IDOCK:   -2.66 KCAL/MOL
REMARK 923 INTER-LIGAND FREE ENERGY PREDICTED BY IDOCK:   -2.34 KCAL/MOL
REMARK 924 INTRA-LIGAND FREE ENERGY PREDICTED BY IDOCK:   -0.32 KCAL/MOL
REMARK 927      BINDING AFFINITY PREDICTED BY RF-SCORE:    0.00 PKD
ROOT
HETATM    1  O   UNL     1      -8.399  11.234  67.644  1.00  0.00    -0.119 OA 
HETATM    2  C   UNL     1      -8.054  10.052  66.920  1.00  0.00    -0.117 C  
HETATM    3  H   UNL     1      -9.138  11.661  67.227  1.00  0.00     0.000 HD 
ENDROOT
BRANCH   2   4
HETATM    4  C   UNL     1      -6.859   9.362  67.594  1.00  0.00    -0.076 C  
HETATM    5  C   UNL     1      -6.460   8.065  66.915  1.00  0.00    -0.056 C  
HETATM    6  C   UNL     1      -7.226   7.013  67.681  1.00  0.00    -0.091 C  
HETATM    7  C   UNL     1      -7.306   7.593  69.084  1.00  0.00    -0.089 C  
HETATM    8  O   UNL     1      -7.192   9.023  68.954  1.00  0.00    -0.071 OA 
BRANCH   7   9
HETATM    9  N   UNL     1      -8.534   7.255  69.780  1.00  0.00    -0.135 NA 
HETATM   10  C   UNL     1      -9.741   7.896  69.608  1.00  0.00    -0.173 A  
HETATM   11  N   UNL     1     -10.683   7.406  70.393  1.00  0.00    -0.232 NA 
HETATM   12  C   UNL     1     -10.073   6.384  71.091  1.00  0.00    -0.185 A  
HETATM   13  C   UNL     1      -8.760   6.292  70.710  1.00  0.00    -0.136 A  
HETATM   14  N   UNL     1      -7.925   5.374  71.216  1.00  0.00    -0.108 NA 
HETATM   15  C   UNL     1      -8.467   4.516  72.142  1.00  0.00    -0.113 C  
HETATM   16  N   UNL     1      -9.688   4.513  72.586  1.00  0.00    -0.140 N  
HETATM   17  H   UNL     1      -9.979   3.828  73.283  1.00  0.00     0.000 HD 
HETATM   18  C   UNL     1     -10.604   5.459  72.101  1.00  0.00    -0.227 C  
HETATM   19  O   UNL     1     -11.762   5.515  72.498  1.00  0.00    -0.272 OA 
ENDBRANCH   7   9
ENDBRANCH   2   4
TORSDOF 2
ENDMDL
MODEL      283
REMARK 921   NORMALIZED FREE ENERGY PREDICTED BY IDOCK:   -2.11 KCAL/MOL
REMARK 922        TOTAL FREE ENERGY PREDICTED BY IDOCK:   -2.66 KCAL/MOL
REMARK 923 INTER-LIGAND FREE ENERGY PREDICTED BY IDOCK:   -2.62 KCAL/MOL
REMARK 924 INTRA-LIGAND FREE ENERGY PREDICTED BY IDOCK:   -0.04 KCAL/MOL
REMARK 927      BINDING AFFINITY PREDICTED BY RF-SCORE:    0.00 PKD
ROOT
HETATM    1  O   UNL     1     -12.467   8.205  70.818  1.00  0.00    -0.503 OA 
HETATM    2  C   UNL     1     -11.360   9.084  70.620  1.00  0.00    -0.265 C  
HETATM    3  H   UNL     1     -12.797   8.299  71.704  1.00  0.00     0.000 HD 
ENDROOT
BRANCH   2   4
HETATM    4  C   UNL     1     -10.826   8.931  69.188  1.00  0.00    -0.070 C  
HETATM    5  C   UNL     1      -9.352   9.269  69.064  1.00  0.00    -0.151 C  
HETATM    6  C   UNL     1      -9.353  10.728  68.679  1.00  0.00    -0.184 C  
HETATM    7  C   UNL     1     -10.634  10.875  67.872  1.00  0.00    -0.207 C  
HETATM    8  O   UNL     1     -11.525   9.831  68.307  1.00  0.00    -0.001 OA 
BRANCH   7   9
HETATM    9  N   UNL     1     -11.271  12.170  68.030  1.00  0.00    -0.244 NA 
HETATM   10  C   UNL     1     -11.338  13.141  67.056  1.00  0.00    -0.312 A  
HETATM   11  N   UNL     1     -11.944  14.234  67.481  1.00  0.00    -0.393 NA 
HETATM   12  C   UNL     1     -12.313  13.957  68.781  1.00  0.00    -0.021 A  
HETATM   13  C   UNL     1     -11.904  12.692  69.112  1.00  0.00    -0.297 A  
HETATM   14  N   UNL     1     -12.140  12.149  70.314  1.00  0.00    -0.338 NA 
HETATM   15  C   UNL     1     -12.831  12.936  71.203  1.00  0.00    -0.238 C  
HETATM   16  N   UNL     1     -13.259  14.147  71.007  1.00  0.00    -0.312 N  
HETATM   17  H   UNL     1     -13.758  14.641  71.747  1.00  0.00     0.000 HD 
HETATM   18  C   UNL     1     -13.030  14.772  69.771  1.00  0.00     0.268 C  
HETATM   19  O   UNL     1     -13.394  15.918  69.538  1.00  0.00     0.651 OA 
ENDBRANCH   7   9
ENDBRANCH   2   4
TORSDOF 2
ENDMDL
MODEL      284
REMARK 921   NORMALIZED FREE ENERGY PREDICTED BY IDOCK:   -2.08 KCAL/MOL
REMARK 922        TOTAL FREE ENERGY PREDICTED BY IDOCK:   -2.62 KCAL/MOL
REMARK 923 INTER-LIGAND FREE ENERGY PREDICTED BY IDOCK:   -2.32 KCAL/MOL
REMARK 924 INTRA-LIGAND FREE ENERGY PREDICTED BY IDOCK:   -0.30 KCAL/MOL
REMARK 927      BINDING AFFINITY PREDICTED BY RF-SCORE:    0.00 PKD
ROOT
HETATM    1  O   UNL     1      -7.220   3.337  68.976  1.00  0.00    -0.048 OA 
HETATM    2  C   UNL     1      -7.494   4.035  70.191  1.00  0.00    -0.045 C  
HETATM    3  H   UNL     1      -6.303   3.090  68.948  1.00  0.00     0.000 HD 
ENDROOT
BRANCH   2   4
HETATM    4  C   UNL     1      -8.976   4.434  70.235  1.00  0.00    -0.088 C  
HETATM    5  C   UNL     1      -9.653   4.361  68.879  1.00  0.00    -0.233 C  
HETATM    6  C   UNL     1      -9.513   5.764  68.338  1.00  0.00    -0.137 C  
HETATM    7  C   UNL     1      -9.547   6.626  69.590  1.00  0.00    -0.151 C  
HETATM    8  O   UNL     1      -9.104   5.797  70.681  1.00  0.00    -0.147 OA 
BRANCH   7   9
HETATM    9  N   UNL     1      -8.716   7.812  69.498  1.00  0.00    -0.135 NA 
HETATM   10  C   UNL     1      -7.351   7.835  69.682  1.00  0.00    -0.088 A  
HETATM   11  N   UNL     1      -6.853   9.053  69.575  1.00  0.00    -0.047 NA 
HETATM   12  C   UNL     1      -7.935   9.858  69.282  1.00  0.00    -0.121 A  
HETATM   13  C   UNL     1      -9.071   9.095  69.231  1.00  0.00    -0.146 A  
HETATM   14  N   UNL     1     -10.276   9.612  68.952  1.00  0.00    -0.193 NA 
HETATM   15  C   UNL     1     -10.307  10.963  68.708  1.00  0.00    -0.198 C  
HETATM   16  N   UNL     1      -9.302  11.787  68.738  1.00  0.00    -0.388 N  
HETATM   17  H   UNL     1      -9.445  12.778  68.545  1.00  0.00     0.000 HD 
HETATM   18  C   UNL     1      -8.018  11.304  69.036  1.00  0.00    -0.061 C  
HETATM   19  O   UNL     1      -7.039  12.038  69.097  1.00  0.00    -0.096 OA 
ENDBRANCH   7   9
ENDBRANCH   2   4
TORSDOF 2
ENDMDL
MODEL      285
REMARK 921   NORMALIZED FREE ENERGY PREDICTED BY IDOCK:   -2.05 KCAL/MOL
REMARK 922        TOTAL FREE ENERGY PREDICTED BY IDOCK:   -2.59 KCAL/MOL
REMARK 923 INTER-LIGAND FREE ENERGY PREDICTED BY IDOCK:   -2.49 KCAL/MOL
REMARK 924 INTRA-LIGAND FREE ENERGY PREDICTED BY IDOCK:   -0.10 KCAL/MOL
REMARK 927      BINDING AFFINITY PREDICTED BY RF-SCORE:    0.00 PKD
ROOT
HETATM    1  O   UNL     1     -10.801   5.410  71.908  1.00  0.00    -0.231 OA 
HETATM    2  C   UNL     1     -11.267   6.713  72.262  1.00  0.00    -0.267 C  
HETATM    3  H   UNL     1     -11.490   4.773  72.053  1.00  0.00     0.000 HD 
ENDROOT
BRANCH   2   4
HETATM    4  C   UNL     1     -10.153   7.743  72.027  1.00  0.00    -0.191 C  
HETATM    5  C   UNL     1     -10.574   8.875  71.107  1.00  0.00    -0.335 C  
HETATM    6  C   UNL     1     -10.133   8.405  69.742  1.00  0.00    -0.197 C  
HETATM    7  C   UNL     1      -8.896   7.573  70.042  1.00  0.00    -0.144 C  
HETATM    8  O   UNL     1      -9.023   7.108  71.400  1.00  0.00    -0.136 OA 
BRANCH   7   9
HETATM    9  N   UNL     1      -8.728   6.444  69.145  1.00  0.00    -0.127 NA 
HETATM   10  C   UNL     1      -9.104   5.149  69.426  1.00  0.00    -0.108 A  
HETATM   11  N   UNL     1      -8.802   4.317  68.447  1.00  0.00    -0.102 NA 
HETATM   12  C   UNL     1      -8.225   5.105  67.472  1.00  0.00    -0.103 A  
HETATM   13  C   UNL     1      -8.186   6.406  67.901  1.00  0.00    -0.115 A  
HETATM   14  N   UNL     1      -7.688   7.398  67.150  1.00  0.00    -0.113 NA 
HETATM   15  C   UNL     1      -7.223   7.036  65.909  1.00  0.00    -0.074 C  
HETATM   16  N   UNL     1      -7.200   5.840  65.401  1.00  0.00    -0.069 N  
HETATM   17  H   UNL     1      -6.822   5.688  64.465  1.00  0.00     0.000 HD 
HETATM   18  C   UNL     1      -7.696   4.760  66.146  1.00  0.00    -0.091 C  
HETATM   19  O   UNL     1      -7.681   3.610  65.724  1.00  0.00    -0.084 OA 
ENDBRANCH   7   9
ENDBRANCH   2   4
TORSDOF 2
ENDMDL
MODEL      286
REMARK 921   NORMALIZED FREE ENERGY PREDICTED BY IDOCK:   -2.04 KCAL/MOL
REMARK 922        TOTAL FREE ENERGY PREDICTED BY IDOCK:   -2.57 KCAL/MOL
REMARK 923 INTER-LIGAND FREE ENERGY PREDICTED BY IDOCK:   -2.25 KCAL/MOL
REMARK 924 INTRA-LIGAND FREE ENERGY PREDICTED BY IDOCK:   -0.32 KCAL/MOL
REMARK 927      BINDING AFFINITY PREDICTED BY RF-SCORE:    0.00 PKD
ROOT
HETATM    1  O   UNL     1      -6.957  10.673  63.956  1.00  0.00    -0.346 OA 
HETATM    2  C   UNL     1      -7.863   9.668  64.413  1.00  0.00    -0.129 C  
HETATM    3  H   UNL     1      -7.000  10.734  63.009  1.00  0.00     0.000 HD 
ENDROOT
BRANCH   2   4
HETATM    4  C   UNL     1      -7.795   9.567  65.944  1.00  0.00    -0.100 C  
HETATM    5  C   UNL     1      -6.377   9.433  66.468  1.00  0.00    -0.066 C  
HETATM    6  C   UNL     1      -6.178   7.940  66.576  1.00  0.00    -0.046 C  
HETATM    7  C   UNL     1      -7.572   7.425  66.898  1.00  0.00    -0.102 C  
HETATM    8  O   UNL     1      -8.506   8.397  66.391  1.00  0.00    -0.114 OA 
BRANCH   7   9
HETATM    9  N   UNL     1      -7.853   6.121  66.326  1.00  0.00    -0.102 NA 
HETATM   10  C   UNL     1      -7.594   5.759  65.022  1.00  0.00    -0.087 A  
HETATM   11  N   UNL     1      -7.982   4.524  64.760  1.00  0.00    -0.093 NA 
HETATM   12  C   UNL     1      -8.494   4.050  65.951  1.00  0.00    -0.109 A  
HETATM   13  C   UNL     1      -8.409   5.027  66.906  1.00  0.00    -0.107 A  
HETATM   14  N   UNL     1      -8.821   4.840  68.168  1.00  0.00    -0.103 NA 
HETATM   15  C   UNL     1      -9.330   3.597  68.455  1.00  0.00    -0.165 C  
HETATM   16  N   UNL     1      -9.469   2.600  67.633  1.00  0.00    -0.362 N  
HETATM   17  H   UNL     1      -9.868   1.719  67.959  1.00  0.00     0.000 HD 
HETATM   18  C   UNL     1      -9.066   2.741  66.297  1.00  0.00    -0.119 C  
HETATM   19  O   UNL     1      -9.191   1.841  65.475  1.00  0.00    -0.105 OA 
ENDBRANCH   7   9
ENDBRANCH   2   4
TORSDOF 2
ENDMDL
MODEL      287
REMARK 921   NORMALIZED FREE ENERGY PREDICTED BY IDOCK:   -2.02 KCAL/MOL
REMARK 922        TOTAL FREE ENERGY PREDICTED BY IDOCK:   -2.55 KCAL/MOL
REMARK 923 INTER-LIGAND FREE ENERGY PREDICTED BY IDOCK:   -2.24 KCAL/MOL
REMARK 924 INTRA-LIGAND FREE ENERGY PREDICTED BY IDOCK:   -0.31 KCAL/MOL
REMARK 927      BINDING AFFINITY PREDICTED BY RF-SCORE:    0.00 PKD
ROOT
HETATM    1  O   UNL     1     -11.231  10.062  68.742  1.00  0.00    -0.391 OA 
HETATM    2  C   UNL     1     -11.249   8.709  69.199  1.00  0.00     0.321 C  
HETATM    3  H   UNL     1     -11.375  10.086  67.804  1.00  0.00     0.000 HD 
ENDROOT
BRANCH   2   4
HETATM    4  C   UNL     1     -11.016   8.671  70.716  1.00  0.00    -0.245 C  
HETATM    5  C   UNL     1      -9.736   9.369  71.139  1.00  0.00    -0.257 C  
HETATM    6  C   UNL     1      -8.718   8.255  71.170  1.00  0.00    -0.176 C  
HETATM    7  C   UNL     1      -9.543   7.040  71.563  1.00  0.00    -0.158 C  
HETATM    8  O   UNL     1     -10.900   7.306  71.160  1.00  0.00    -0.238 OA 
BRANCH   7   9
HETATM    9  N   UNL     1      -9.078   5.805  70.957  1.00  0.00    -0.145 NA 
HETATM   10  C   UNL     1      -8.220   5.728  69.882  1.00  0.00    -0.115 A  
HETATM   11  N   UNL     1      -7.991   4.481  69.514  1.00  0.00    -0.061 NA 
HETATM   12  C   UNL     1      -8.711   3.708  70.402  1.00  0.00    -0.073 A  
HETATM   13  C   UNL     1      -9.370   4.521  71.286  1.00  0.00    -0.148 A  
HETATM   14  N   UNL     1     -10.139   4.040  72.272  1.00  0.00    -0.171 NA 
HETATM   15  C   UNL     1     -10.223   2.672  72.355  1.00  0.00    -0.145 C  
HETATM   16  N   UNL     1      -9.654   1.804  71.573  1.00  0.00    -0.120 N  
HETATM   17  H   UNL     1      -9.794   0.806  71.727  1.00  0.00     0.000 HD 
HETATM   18  C   UNL     1      -8.847   2.249  70.515  1.00  0.00    -0.074 C  
HETATM   19  O   UNL     1      -8.303   1.476  69.735  1.00  0.00    -0.044 OA 
ENDBRANCH   7   9
ENDBRANCH   2   4
TORSDOF 2
ENDMDL
MODEL      288
REMARK 921   NORMALIZED FREE ENERGY PREDICTED BY IDOCK:   -2.01 KCAL/MOL
REMARK 922        TOTAL FREE ENERGY PREDICTED BY IDOCK:   -2.54 KCAL/MOL
REMARK 923 INTER-LIGAND FREE ENERGY PREDICTED BY IDOCK:   -2.30 KCAL/MOL
REMARK 924 INTRA-LIGAND FREE ENERGY PREDICTED BY IDOCK:   -0.25 KCAL/MOL
REMARK 927      BINDING AFFINITY PREDICTED BY RF-SCORE:    0.00 PKD
ROOT
HETATM    1  O   UNL     1     -10.948   4.861  73.073  1.00  0.00    -0.245 OA 
HETATM    2  C   UNL     1     -12.052   5.681  72.689  1.00  0.00     0.024 C  
HETATM    3  H   UNL     1     -11.263   4.104  73.553  1.00  0.00     0.000 HD 
ENDROOT
BRANCH   2   4
HETATM    4  C   UNL     1     -11.543   6.905  71.913  1.00  0.00    -0.286 C  
HETATM    5  C   UNL     1     -11.852   6.838  70.429  1.00  0.00    -0.395 C  
HETATM    6  C   UNL     1     -10.613   6.214  69.836  1.00  0.00    -0.328 C  
HETATM    7  C   UNL     1      -9.503   6.702  70.753  1.00  0.00    -0.168 C  
HETATM    8  O   UNL     1     -10.110   6.996  72.026  1.00  0.00    -0.185 OA 
BRANCH   7   9
HETATM    9  N   UNL     1      -8.430   5.740  70.926  1.00  0.00    -0.124 NA 
HETATM   10  C   UNL     1      -7.098   6.061  71.072  1.00  0.00    -0.069 A  
HETATM   11  N   UNL     1      -6.335   4.989  71.176  1.00  0.00    -0.022 NA 
HETATM   12  C   UNL     1      -7.207   3.921  71.120  1.00  0.00    -0.033 A  
HETATM   13  C   UNL     1      -8.487   4.384  70.972  1.00  0.00    -0.089 A  
HETATM   14  N   UNL     1      -9.546   3.567  70.902  1.00  0.00    -0.167 NA 
HETATM   15  C   UNL     1      -9.275   2.224  70.997  1.00  0.00    -0.120 C  
HETATM   16  N   UNL     1      -8.107   1.669  71.130  1.00  0.00    -0.046 N  
HETATM   17  H   UNL     1      -8.025   0.654  71.185  1.00  0.00     0.000 HD 
HETATM   18  C   UNL     1      -6.961   2.475  71.196  1.00  0.00    -0.032 C  
HETATM   19  O   UNL     1      -5.834   2.005  71.301  1.00  0.00    -0.012 OA 
ENDBRANCH   7   9
ENDBRANCH   2   4
TORSDOF 2
ENDMDL
MODEL      289
REMARK 921   NORMALIZED FREE ENERGY PREDICTED BY IDOCK:   -2.01 KCAL/MOL
REMARK 922        TOTAL FREE ENERGY PREDICTED BY IDOCK:   -2.54 KCAL/MOL
REMARK 923 INTER-LIGAND FREE ENERGY PREDICTED BY IDOCK:   -2.62 KCAL/MOL
REMARK 924 INTRA-LIGAND FREE ENERGY PREDICTED BY IDOCK:    0.08 KCAL/MOL
REMARK 927      BINDING AFFINITY PREDICTED BY RF-SCORE:    0.00 PKD
ROOT
HETATM    1  O   UNL     1     -11.158   5.377  67.823  1.00  0.00    -0.036 OA 
HETATM    2  C   UNL     1     -10.737   6.326  66.842  1.00  0.00    -0.339 C  
HETATM    3  H   UNL     1     -12.014   5.619  68.157  1.00  0.00     0.000 HD 
ENDROOT
BRANCH   2   4
HETATM    4  C   UNL     1      -9.354   5.935  66.302  1.00  0.00    -0.152 C  
HETATM    5  C   UNL     1      -8.427   5.398  67.377  1.00  0.00    -0.106 C  
HETATM    6  C   UNL     1      -7.666   6.620  67.832  1.00  0.00    -0.108 C  
HETATM    7  C   UNL     1      -7.590   7.472  66.575  1.00  0.00    -0.089 C  
HETATM    8  O   UNL     1      -8.702   7.090  65.742  1.00  0.00    -0.148 OA 
BRANCH   7   9
HETATM    9  N   UNL     1      -7.636   8.898  66.839  1.00  0.00    -0.086 NA 
HETATM   10  C   UNL     1      -6.698   9.596  67.568  1.00  0.00    -0.070 A  
HETATM   11  N   UNL     1      -7.004  10.875  67.682  1.00  0.00    -0.080 NA 
HETATM   12  C   UNL     1      -8.180  11.026  66.977  1.00  0.00    -0.138 A  
HETATM   13  C   UNL     1      -8.561   9.816  66.459  1.00  0.00    -0.127 A  
HETATM   14  N   UNL     1      -9.664   9.666  65.714  1.00  0.00    -0.264 NA 
HETATM   15  C   UNL     1     -10.396  10.806  65.487  1.00  0.00    -0.241 C  
HETATM   16  N   UNL     1     -10.141  12.000  65.932  1.00  0.00    -0.230 N  
HETATM   17  H   UNL     1     -10.762  12.776  65.703  1.00  0.00     0.000 HD 
HETATM   18  C   UNL     1      -9.005  12.216  66.727  1.00  0.00    -0.203 C  
HETATM   19  O   UNL     1      -8.727  13.316  67.189  1.00  0.00    -0.206 OA 
ENDBRANCH   7   9
ENDBRANCH   2   4
TORSDOF 2
ENDMDL
MODEL      290
REMARK 921   NORMALIZED FREE ENERGY PREDICTED BY IDOCK:   -1.89 KCAL/MOL
REMARK 922        TOTAL FREE ENERGY PREDICTED BY IDOCK:   -2.41 KCAL/MOL
REMARK 923 INTER-LIGAND FREE ENERGY PREDICTED BY IDOCK:   -2.43 KCAL/MOL
REMARK 924 INTRA-LIGAND FREE ENERGY PREDICTED BY IDOCK:    0.02 KCAL/MOL
REMARK 927      BINDING AFFINITY PREDICTED BY RF-SCORE:    0.00 PKD
ROOT
HETATM    1  O   UNL     1      -6.490   4.384  70.179  1.00  0.00    -0.030 OA 
HETATM    2  C   UNL     1      -6.782   5.418  71.119  1.00  0.00    -0.044 C  
HETATM    3  H   UNL     1      -5.586   4.108  70.278  1.00  0.00     0.000 HD 
ENDROOT
BRANCH   2   4
HETATM    4  C   UNL     1      -8.243   5.864  70.960  1.00  0.00    -0.122 C  
HETATM    5  C   UNL     1      -9.213   5.022  71.768  1.00  0.00    -0.171 C  
HETATM    6  C   UNL     1      -9.656   3.958  70.794  1.00  0.00    -0.259 C  
HETATM    7  C   UNL     1      -9.601   4.669  69.451  1.00  0.00    -0.187 C  
HETATM    8  O   UNL     1      -8.646   5.739  69.583  1.00  0.00    -0.113 OA 
BRANCH   7   9
HETATM    9  N   UNL     1      -9.223   3.799  68.352  1.00  0.00    -0.144 NA 
HETATM   10  C   UNL     1      -8.327   2.757  68.442  1.00  0.00    -0.065 A  
HETATM   11  N   UNL     1      -8.143   2.155  67.282  1.00  0.00    -0.066 NA 
HETATM   12  C   UNL     1      -8.973   2.816  66.399  1.00  0.00    -0.145 A  
HETATM   13  C   UNL     1      -9.635   3.817  67.058  1.00  0.00    -0.180 A  
HETATM   14  N   UNL     1     -10.522   4.618  66.450  1.00  0.00    -0.238 NA 
HETATM   15  C   UNL     1     -10.738   4.369  65.117  1.00  0.00    -0.113 C  
HETATM   16  N   UNL     1     -10.166   3.459  64.388  1.00  0.00    -0.336 N  
HETATM   17  H   UNL     1     -10.402   3.370  63.400  1.00  0.00     0.000 HD 
HETATM   18  C   UNL     1      -9.220   2.600  64.967  1.00  0.00    -0.137 C  
HETATM   19  O   UNL     1      -8.635   1.737  64.323  1.00  0.00    -0.081 OA 
ENDBRANCH   7   9
ENDBRANCH   2   4
TORSDOF 2
ENDMDL
MODEL      291
REMARK 921   NORMALIZED FREE ENERGY PREDICTED BY IDOCK:   -1.88 KCAL/MOL
REMARK 922        TOTAL FREE ENERGY PREDICTED BY IDOCK:   -2.39 KCAL/MOL
REMARK 923 INTER-LIGAND FREE ENERGY PREDICTED BY IDOCK:   -2.36 KCAL/MOL
REMARK 924 INTRA-LIGAND FREE ENERGY PREDICTED BY IDOCK:   -0.03 KCAL/MOL
REMARK 927      BINDING AFFINITY PREDICTED BY RF-SCORE:    0.00 PKD
ROOT
HETATM    1  O   UNL     1     -10.283  10.607  63.296  1.00  0.00    -0.516 OA 
HETATM    2  C   UNL     1      -9.182  11.341  63.834  1.00  0.00    -0.062 C  
HETATM    3  H   UNL     1     -11.069  11.139  63.329  1.00  0.00     0.000 HD 
ENDROOT
BRANCH   2   4
HETATM    4  C   UNL     1      -7.911  10.480  63.781  1.00  0.00    -0.013 C  
HETATM    5  C   UNL     1      -8.149   9.106  63.182  1.00  0.00    -0.164 C  
HETATM    6  C   UNL     1      -8.428   8.238  64.384  1.00  0.00    -0.022 C  
HETATM    7  C   UNL     1      -7.593   8.880  65.480  1.00  0.00    -0.087 C  
HETATM    8  O   UNL     1      -7.411  10.261  65.114  1.00  0.00    -0.139 OA 
BRANCH   7   9
HETATM    9  N   UNL     1      -8.200   8.792  66.796  1.00  0.00    -0.107 NA 
HETATM   10  C   UNL     1      -9.256   7.971  67.125  1.00  0.00    -0.142 A  
HETATM   11  N   UNL     1      -9.630   8.117  68.383  1.00  0.00    -0.146 NA 
HETATM   12  C   UNL     1      -8.764   9.055  68.907  1.00  0.00    -0.136 A  
HETATM   13  C   UNL     1      -7.888   9.462  67.935  1.00  0.00    -0.091 A  
HETATM   14  N   UNL     1      -6.923  10.362  68.165  1.00  0.00    -0.073 NA 
HETATM   15  C   UNL     1      -6.853  10.853  69.446  1.00  0.00    -0.114 C  
HETATM   16  N   UNL     1      -7.631  10.551  70.443  1.00  0.00    -0.073 N  
HETATM   17  H   UNL     1      -7.488  10.986  71.355  1.00  0.00     0.000 HD 
HETATM   18  C   UNL     1      -8.667   9.624  70.258  1.00  0.00    -0.208 C  
HETATM   19  O   UNL     1      -9.441   9.317  71.157  1.00  0.00    -0.267 OA 
ENDBRANCH   7   9
ENDBRANCH   2   4
TORSDOF 2
ENDMDL
MODEL      292
REMARK 921   NORMALIZED FREE ENERGY PREDICTED BY IDOCK:   -1.87 KCAL/MOL
REMARK 922        TOTAL FREE ENERGY PREDICTED BY IDOCK:   -2.39 KCAL/MOL
REMARK 923 INTER-LIGAND FREE ENERGY PREDICTED BY IDOCK:   -2.33 KCAL/MOL
REMARK 924 INTRA-LIGAND FREE ENERGY PREDICTED BY IDOCK:   -0.06 KCAL/MOL
REMARK 927      BINDING AFFINITY PREDICTED BY RF-SCORE:    0.00 PKD
ROOT
HETATM    1  O   UNL     1      -7.038  10.593  64.055  1.00  0.00    -0.342 OA 
HETATM    2  C   UNL     1      -7.743   9.967  65.128  1.00  0.00    -0.137 C  
HETATM    3  H   UNL     1      -7.333  10.235  63.226  1.00  0.00     0.000 HD 
ENDROOT
BRANCH   2   4
HETATM    4  C   UNL     1      -7.266  10.546  66.468  1.00  0.00    -0.124 C  
HETATM    5  C   UNL     1      -5.762  10.458  66.652  1.00  0.00    -0.059 C  
HETATM    6  C   UNL     1      -5.570   9.155  67.390  1.00  0.00    -0.042 C  
HETATM    7  C   UNL     1      -6.834   9.039  68.226  1.00  0.00    -0.065 C  
HETATM    8  O   UNL     1      -7.852   9.807  67.557  1.00  0.00    -0.095 OA 
BRANCH   7   9
HETATM    9  N   UNL     1      -7.284   7.670  68.407  1.00  0.00    -0.087 NA 
HETATM   10  C   UNL     1      -6.481   6.556  68.303  1.00  0.00    -0.049 A  
HETATM   11  N   UNL     1      -7.157   5.435  68.480  1.00  0.00    -0.061 NA 
HETATM   12  C   UNL     1      -8.453   5.835  68.736  1.00  0.00    -0.107 A  
HETATM   13  C   UNL     1      -8.525   7.202  68.695  1.00  0.00    -0.125 A  
HETATM   14  N   UNL     1      -9.665   7.871  68.919  1.00  0.00    -0.156 NA 
HETATM   15  C   UNL     1     -10.766   7.102  69.206  1.00  0.00    -0.215 C  
HETATM   16  N   UNL     1     -10.820   5.805  69.263  1.00  0.00    -0.320 N  
HETATM   17  H   UNL     1     -11.700   5.338  69.481  1.00  0.00     0.000 HD 
HETATM   18  C   UNL     1      -9.661   5.051  69.025  1.00  0.00    -0.170 C  
HETATM   19  O   UNL     1      -9.659   3.826  69.047  1.00  0.00    -0.175 OA 
ENDBRANCH   7   9
ENDBRANCH   2   4
TORSDOF 2
ENDMDL
MODEL      293
REMARK 921   NORMALIZED FREE ENERGY PREDICTED BY IDOCK:   -1.80 KCAL/MOL
REMARK 922        TOTAL FREE ENERGY PREDICTED BY IDOCK:   -2.31 KCAL/MOL
REMARK 923 INTER-LIGAND FREE ENERGY PREDICTED BY IDOCK:   -2.08 KCAL/MOL
REMARK 924 INTRA-LIGAND FREE ENERGY PREDICTED BY IDOCK:   -0.24 KCAL/MOL
REMARK 927      BINDING AFFINITY PREDICTED BY RF-SCORE:    0.00 PKD
ROOT
HETATM    1  O   UNL     1      -6.254   4.407  70.259  1.00  0.00    -0.021 OA 
HETATM    2  C   UNL     1      -6.576   5.437  71.194  1.00  0.00    -0.043 C  
HETATM    3  H   UNL     1      -5.358   4.121  70.394  1.00  0.00     0.000 HD 
ENDROOT
BRANCH   2   4
HETATM    4  C   UNL     1      -8.025   5.900  70.975  1.00  0.00    -0.116 C  
HETATM    5  C   UNL     1      -8.696   5.216  69.798  1.00  0.00    -0.115 C  
HETATM    6  C   UNL     1      -8.447   6.163  68.649  1.00  0.00    -0.114 C  
HETATM    7  C   UNL     1      -8.423   7.527  69.319  1.00  0.00    -0.136 C  
HETATM    8  O   UNL     1      -8.051   7.312  70.694  1.00  0.00    -0.105 OA 
BRANCH   7   9
HETATM    9  N   UNL     1      -7.503   8.461  68.697  1.00  0.00    -0.091 NA 
HETATM   10  C   UNL     1      -6.158   8.552  68.981  1.00  0.00    -0.043 A  
HETATM   11  N   UNL     1      -5.566   9.512  68.294  1.00  0.00    -0.037 NA 
HETATM   12  C   UNL     1      -6.562  10.056  67.508  1.00  0.00    -0.068 A  
HETATM   13  C   UNL     1      -7.743   9.408  67.754  1.00  0.00    -0.088 A  
HETATM   14  N   UNL     1      -8.882   9.719  67.120  1.00  0.00    -0.132 NA 
HETATM   15  C   UNL     1      -8.796  10.729  66.193  1.00  0.00    -0.177 C  
HETATM   16  N   UNL     1      -7.739  11.418  65.883  1.00  0.00    -0.366 N  
HETATM   17  H   UNL     1      -7.795  12.154  65.178  1.00  0.00     0.000 HD 
HETATM   18  C   UNL     1      -6.521  11.146  66.523  1.00  0.00    -0.129 C  
HETATM   19  O   UNL     1      -5.498  11.777  66.285  1.00  0.00    -0.296 OA 
ENDBRANCH   7   9
ENDBRANCH   2   4
TORSDOF 2
ENDMDL
MODEL      294
REMARK 921   NORMALIZED FREE ENERGY PREDICTED BY IDOCK:   -1.80 KCAL/MOL
REMARK 922        TOTAL FREE ENERGY PREDICTED BY IDOCK:   -2.30 KCAL/MOL
REMARK 923 INTER-LIGAND FREE ENERGY PREDICTED BY IDOCK:   -2.05 KCAL/MOL
REMARK 924 INTRA-LIGAND FREE ENERGY PREDICTED BY IDOCK:   -0.25 KCAL/MOL
REMARK 927      BINDING AFFINITY PREDICTED BY RF-SCORE:    0.00 PKD
ROOT
HETATM    1  O   UNL     1      -9.878  10.474  66.656  1.00  0.00    -0.186 OA 
HETATM    2  C   UNL     1      -9.664   9.572  65.570  1.00  0.00    -0.273 C  
HETATM    3  H   UNL     1     -10.802  10.685  66.720  1.00  0.00     0.000 HD 
ENDROOT
BRANCH   2   4
HETATM    4  C   UNL     1      -8.170   9.232  65.466  1.00  0.00    -0.124 C  
HETATM    5  C   UNL     1      -7.888   8.077  64.522  1.00  0.00    -0.138 C  
HETATM    6  C   UNL     1      -7.880   6.871  65.429  1.00  0.00    -0.115 C  
HETATM    7  C   UNL     1      -7.361   7.428  66.745  1.00  0.00    -0.092 C  
HETATM    8  O   UNL     1      -7.667   8.835  66.756  1.00  0.00    -0.092 OA 
BRANCH   7   9
HETATM    9  N   UNL     1      -7.938   6.786  67.913  1.00  0.00    -0.112 NA 
HETATM   10  C   UNL     1      -8.831   5.738  67.876  1.00  0.00    -0.108 A  
HETATM   11  N   UNL     1      -9.220   5.372  69.083  1.00  0.00    -0.114 NA 
HETATM   12  C   UNL     1      -8.533   6.199  69.948  1.00  0.00    -0.129 A  
HETATM   13  C   UNL     1      -7.746   7.059  69.229  1.00  0.00    -0.109 A  
HETATM   14  N   UNL     1      -6.955   7.970  69.811  1.00  0.00    -0.051 NA 
HETATM   15  C   UNL     1      -6.969   7.988  71.184  1.00  0.00    -0.051 C  
HETATM   16  N   UNL     1      -7.677   7.232  71.969  1.00  0.00    -0.089 N  
HETATM   17  H   UNL     1      -7.611   7.339  72.981  1.00  0.00     0.000 HD 
HETATM   18  C   UNL     1      -8.533   6.268  71.416  1.00  0.00    -0.127 C  
HETATM   19  O   UNL     1      -9.238   5.542  72.107  1.00  0.00    -0.143 OA 
ENDBRANCH   7   9
ENDBRANCH   2   4
TORSDOF 2
ENDMDL
MODEL      295
REMARK 921   NORMALIZED FREE ENERGY PREDICTED BY IDOCK:   -1.68 KCAL/MOL
REMARK 922        TOTAL FREE ENERGY PREDICTED BY IDOCK:   -2.18 KCAL/MOL
REMARK 923 INTER-LIGAND FREE ENERGY PREDICTED BY IDOCK:   -2.16 KCAL/MOL
REMARK 924 INTRA-LIGAND FREE ENERGY PREDICTED BY IDOCK:   -0.02 KCAL/MOL
REMARK 927      BINDING AFFINITY PREDICTED BY RF-SCORE:    0.00 PKD
ROOT
HETATM    1  O   UNL     1      -5.889   8.922  69.898  1.00  0.00    -0.031 OA 
HETATM    2  C   UNL     1      -6.838   9.973  69.712  1.00  0.00    -0.094 C  
HETATM    3  H   UNL     1      -5.050   9.180  69.534  1.00  0.00     0.000 HD 
ENDROOT
BRANCH   2   4
HETATM    4  C   UNL     1      -8.194   9.556  70.300  1.00  0.00    -0.187 C  
HETATM    5  C   UNL     1      -8.069   8.825  71.624  1.00  0.00    -0.153 C  
HETATM    6  C   UNL     1      -8.036   7.370  71.224  1.00  0.00    -0.100 C  
HETATM    7  C   UNL     1      -8.899   7.333  69.972  1.00  0.00    -0.141 C  
HETATM    8  O   UNL     1      -8.862   8.653  69.398  1.00  0.00    -0.140 OA 
BRANCH   7   9
HETATM    9  N   UNL     1      -8.458   6.354  68.995  1.00  0.00    -0.124 NA 
HETATM   10  C   UNL     1      -7.218   5.754  68.983  1.00  0.00    -0.078 A  
HETATM   11  N   UNL     1      -7.072   4.930  67.962  1.00  0.00    -0.061 NA 
HETATM   12  C   UNL     1      -8.277   4.974  67.291  1.00  0.00    -0.107 A  
HETATM   13  C   UNL     1      -9.123   5.841  67.928  1.00  0.00    -0.109 A  
HETATM   14  N   UNL     1     -10.373   6.073  67.503  1.00  0.00    -0.183 NA 
HETATM   15  C   UNL     1     -10.765   5.377  66.386  1.00  0.00    -0.217 C  
HETATM   16  N   UNL     1     -10.051   4.539  65.695  1.00  0.00    -0.232 N  
HETATM   17  H   UNL     1     -10.448   4.083  64.874  1.00  0.00     0.000 HD 
HETATM   18  C   UNL     1      -8.731   4.267  66.086  1.00  0.00    -0.114 C  
HETATM   19  O   UNL     1      -8.007   3.501  65.461  1.00  0.00    -0.091 OA 
ENDBRANCH   7   9
ENDBRANCH   2   4
TORSDOF 2
ENDMDL
MODEL      296
REMARK 921   NORMALIZED FREE ENERGY PREDICTED BY IDOCK:   -1.62 KCAL/MOL
REMARK 922        TOTAL FREE ENERGY PREDICTED BY IDOCK:   -2.10 KCAL/MOL
REMARK 923 INTER-LIGAND FREE ENERGY PREDICTED BY IDOCK:   -2.33 KCAL/MOL
REMARK 924 INTRA-LIGAND FREE ENERGY PREDICTED BY IDOCK:    0.23 KCAL/MOL
REMARK 927      BINDING AFFINITY PREDICTED BY RF-SCORE:    0.00 PKD
ROOT
HETATM    1  O   UNL     1      -6.489   8.073  69.719  1.00  0.00    -0.036 OA 
HETATM    2  C   UNL     1      -7.368   9.197  69.654  1.00  0.00    -0.065 C  
HETATM    3  H   UNL     1      -5.658   8.293  69.316  1.00  0.00     0.000 HD 
ENDROOT
BRANCH   2   4
HETATM    4  C   UNL     1      -8.712   8.842  70.306  1.00  0.00    -0.161 C  
HETATM    5  C   UNL     1      -8.619   7.662  71.257  1.00  0.00    -0.124 C  
HETATM    6  C   UNL     1      -8.970   6.478  70.389  1.00  0.00    -0.152 C  
HETATM    7  C   UNL     1      -9.948   7.062  69.381  1.00  0.00    -0.162 C  
HETATM    8  O   UNL     1      -9.666   8.472  69.292  1.00  0.00    -0.169 OA 
BRANCH   7   9
HETATM    9  N   UNL     1      -9.855   6.454  68.067  1.00  0.00    -0.121 NA 
HETATM   10  C   UNL     1      -9.887   7.142  66.874  1.00  0.00    -0.208 A  
HETATM   11  N   UNL     1      -9.820   6.337  65.830  1.00  0.00     0.183 NA 
HETATM   12  C   UNL     1      -9.714   5.068  66.363  1.00  0.00    -0.182 A  
HETATM   13  C   UNL     1      -9.731   5.144  67.730  1.00  0.00    -0.148 A  
HETATM   14  N   UNL     1      -9.629   4.062  68.514  1.00  0.00    -0.144 NA 
HETATM   15  C   UNL     1      -9.496   2.860  67.863  1.00  0.00    -0.148 C  
HETATM   16  N   UNL     1      -9.477   2.664  66.579  1.00  0.00    -0.386 N  
HETATM   17  H   UNL     1      -9.378   1.720  66.206  1.00  0.00     0.000 HD 
HETATM   18  C   UNL     1      -9.591   3.758  65.708  1.00  0.00    -0.162 C  
HETATM   19  O   UNL     1      -9.599   3.630  64.490  1.00  0.00    -0.147 OA 
ENDBRANCH   7   9
ENDBRANCH   2   4
TORSDOF 2
ENDMDL
MODEL      297
REMARK 921   NORMALIZED FREE ENERGY PREDICTED BY IDOCK:   -1.55 KCAL/MOL
REMARK 922        TOTAL FREE ENERGY PREDICTED BY IDOCK:   -2.03 KCAL/MOL
REMARK 923 INTER-LIGAND FREE ENERGY PREDICTED BY IDOCK:   -1.96 KCAL/MOL
REMARK 924 INTRA-LIGAND FREE ENERGY PREDICTED BY IDOCK:   -0.07 KCAL/MOL
REMARK 927      BINDING AFFINITY PREDICTED BY RF-SCORE:    0.00 PKD
ROOT
HETATM    1  O   UNL     1      -6.612   4.069  69.538  1.00  0.00    -0.032 OA 
HETATM    2  C   UNL     1      -6.683   3.694  70.914  1.00  0.00    -0.032 C  
HETATM    3  H   UNL     1      -5.803   3.745  69.159  1.00  0.00     0.000 HD 
ENDROOT
BRANCH   2   4
HETATM    4  C   UNL     1      -7.990   4.218  71.527  1.00  0.00    -0.082 C  
HETATM    5  C   UNL     1      -9.131   3.223  71.433  1.00  0.00    -0.173 C  
HETATM    6  C   UNL     1      -9.830   3.603  70.150  1.00  0.00    -0.071 C  
HETATM    7  C   UNL     1      -9.611   5.106  70.066  1.00  0.00    -0.181 C  
HETATM    8  O   UNL     1      -8.421   5.399  70.823  1.00  0.00    -0.116 OA 
BRANCH   7   9
HETATM    9  N   UNL     1      -9.467   5.594  68.707  1.00  0.00    -0.123 NA 
HETATM   10  C   UNL     1      -9.976   4.973  67.587  1.00  0.00    -0.155 A  
HETATM   11  N   UNL     1      -9.667   5.615  66.476  1.00  0.00    -0.154 NA 
HETATM   12  C   UNL     1      -8.947   6.718  66.888  1.00  0.00    -0.128 A  
HETATM   13  C   UNL     1      -8.831   6.704  68.253  1.00  0.00    -0.124 A  
HETATM   14  N   UNL     1      -8.190   7.665  68.932  1.00  0.00    -0.127 NA 
HETATM   15  C   UNL     1      -7.658   8.681  68.177  1.00  0.00    -0.097 C  
HETATM   16  N   UNL     1      -7.696   8.796  66.883  1.00  0.00    -0.094 N  
HETATM   17  H   UNL     1      -7.258   9.597  66.426  1.00  0.00     0.000 HD 
HETATM   18  C   UNL     1      -8.343   7.814  66.118  1.00  0.00    -0.129 C  
HETATM   19  O   UNL     1      -8.392   7.862  64.895  1.00  0.00    -0.142 OA 
ENDBRANCH   7   9
ENDBRANCH   2   4
TORSDOF 2
ENDMDL
MODEL      298
REMARK 921   NORMALIZED FREE ENERGY PREDICTED BY IDOCK:   -1.24 KCAL/MOL
REMARK 922        TOTAL FREE ENERGY PREDICTED BY IDOCK:   -1.68 KCAL/MOL
REMARK 923 INTER-LIGAND FREE ENERGY PREDICTED BY IDOCK:   -1.67 KCAL/MOL
REMARK 924 INTRA-LIGAND FREE ENERGY PREDICTED BY IDOCK:   -0.02 KCAL/MOL
REMARK 927      BINDING AFFINITY PREDICTED BY RF-SCORE:    0.00 PKD
ROOT
HETATM    1  O   UNL     1      -6.444   8.060  69.735  1.00  0.00    -0.036 OA 
HETATM    2  C   UNL     1      -7.448   9.063  69.580  1.00  0.00    -0.076 C  
HETATM    3  H   UNL     1      -5.631   8.357  69.344  1.00  0.00     0.000 HD 
ENDROOT
BRANCH   2   4
HETATM    4  C   UNL     1      -8.763   8.582  70.212  1.00  0.00    -0.142 C  
HETATM    5  C   UNL     1      -8.549   7.638  71.382  1.00  0.00    -0.127 C  
HETATM    6  C   UNL     1      -8.602   6.270  70.748  1.00  0.00    -0.135 C  
HETATM    7  C   UNL     1      -9.570   6.458  69.591  1.00  0.00    -0.146 C  
HETATM    8  O   UNL     1      -9.537   7.855  69.239  1.00  0.00    -0.156 OA 
BRANCH   7   9
HETATM    9  N   UNL     1      -9.249   5.647  68.430  1.00  0.00    -0.117 NA 
HETATM   10  C   UNL     1     -10.176   5.050  67.604  1.00  0.00    -0.111 A  
HETATM   11  N   UNL     1      -9.608   4.342  66.646  1.00  0.00    -0.188 NA 
HETATM   12  C   UNL     1      -8.251   4.503  66.838  1.00  0.00    -0.102 A  
HETATM   13  C   UNL     1      -8.036   5.305  67.927  1.00  0.00    -0.095 A  
HETATM   14  N   UNL     1      -6.807   5.644  68.342  1.00  0.00    -0.061 NA 
HETATM   15  C   UNL     1      -5.765   5.144  67.601  1.00  0.00    -0.017 C  
HETATM   16  N   UNL     1      -5.845   4.370  66.560  1.00  0.00    -0.025 N  
HETATM   17  H   UNL     1      -4.997   4.053  66.090  1.00  0.00     0.000 HD 
HETATM   18  C   UNL     1      -7.104   3.972  66.088  1.00  0.00    -0.067 C  
HETATM   19  O   UNL     1      -7.238   3.228  65.123  1.00  0.00    -0.067 OA 
ENDBRANCH   7   9
ENDBRANCH   2   4
TORSDOF 2
ENDMDL
MODEL      299
REMARK 921   NORMALIZED FREE ENERGY PREDICTED BY IDOCK:    2.10 KCAL/MOL
REMARK 922        TOTAL FREE ENERGY PREDICTED BY IDOCK:    2.05 KCAL/MOL
REMARK 923 INTER-LIGAND FREE ENERGY PREDICTED BY IDOCK:    2.08 KCAL/MOL
REMARK 924 INTRA-LIGAND FREE ENERGY PREDICTED BY IDOCK:   -0.04 KCAL/MOL
REMARK 927      BINDING AFFINITY PREDICTED BY RF-SCORE:    0.00 PKD
ROOT
HETATM    1  O   UNL     1     -11.401  18.895  64.912  1.00  0.00     0.070 OA 
HETATM    2  C   UNL     1     -10.509  18.714  66.012  1.00  0.00    -0.414 C  
HETATM    3  H   UNL     1     -10.921  18.827  64.095  1.00  0.00     0.000 HD 
ENDROOT
BRANCH   2   4
HETATM    4  C   UNL     1     -11.286  18.825  67.332  1.00  0.00     0.515 C  
HETATM    5  C   UNL     1     -11.183  20.199  67.969  1.00  0.00     0.754 C  
HETATM    6  C   UNL     1     -10.016  20.065  68.915  1.00  0.00    -0.343 C  
HETATM    7  C   UNL     1     -10.078  18.607  69.342  1.00  0.00     0.131 C  
HETATM    8  O   UNL     1     -10.757  17.891  68.292  1.00  0.00    -0.334 OA 
BRANCH   7   9
HETATM    9  N   UNL     1      -8.773  18.018  69.581  1.00  0.00     0.771 NA 
HETATM   10  C   UNL     1      -7.635  18.725  69.903  1.00  0.00     0.759 A  
HETATM   11  N   UNL     1      -6.580  17.941  70.030  1.00  0.00     0.150 NA 
HETATM   12  C   UNL     1      -7.053  16.664  69.807  1.00  0.00     0.248 A  
HETATM   13  C   UNL     1      -8.395  16.715  69.537  1.00  0.00     0.338 A  
HETATM   14  N   UNL     1      -9.123  15.617  69.293  1.00  0.00    -0.258 NA 
HETATM   15  C   UNL     1      -8.444  14.424  69.338  1.00  0.00     0.275 C  
HETATM   16  N   UNL     1      -7.177  14.253  69.573  1.00  0.00    -0.322 N  
HETATM   17  H   UNL     1      -6.778  13.315  69.576  1.00  0.00     0.000 HD 
HETATM   18  C   UNL     1      -6.362  15.368  69.823  1.00  0.00    -0.163 C  
HETATM   19  O   UNL     1      -5.159  15.267  70.031  1.00  0.00    -0.096 OA 
ENDBRANCH   7   9
ENDBRANCH   2   4
TORSDOF 2
ENDMDL
MODEL      300
REMARK 921   NORMALIZED FREE ENERGY PREDICTED BY IDOCK:    7.57 KCAL/MOL
REMARK 922        TOTAL FREE ENERGY PREDICTED BY IDOCK:    8.16 KCAL/MOL
REMARK 923 INTER-LIGAND FREE ENERGY PREDICTED BY IDOCK:    8.06 KCAL/MOL
REMARK 924 INTRA-LIGAND FREE ENERGY PREDICTED BY IDOCK:    0.11 KCAL/MOL
REMARK 927      BINDING AFFINITY PREDICTED BY RF-SCORE:    0.00 PKD
ROOT
HETATM    1  O   UNL     1      -9.512  15.918  64.158  1.00  0.00     2.215 OA 
HETATM    2  C   UNL     1     -10.370  14.879  64.633  1.00  0.00    -0.021 C  
HETATM    3  H   UNL     1      -9.581  15.984  63.214  1.00  0.00     0.000 HD 
ENDROOT
BRANCH   2   4
HETATM    4  C   UNL     1     -10.258  14.772  66.161  1.00  0.00    -0.297 C  
HETATM    5  C   UNL     1      -9.390  15.858  66.770  1.00  0.00    -0.262 C  
HETATM    6  C   UNL     1      -8.023  15.222  66.840  1.00  0.00    -0.194 C  
HETATM    7  C   UNL     1      -8.334  13.749  67.054  1.00  0.00    -0.087 C  
HETATM    8  O   UNL     1      -9.651  13.517  66.521  1.00  0.00    -0.269 OA 
BRANCH   7   9
HETATM    9  N   UNL     1      -7.378  12.858  66.421  1.00  0.00     0.971 NA 
HETATM   10  C   UNL     1      -6.075  13.186  66.118  1.00  0.00     4.174 A  
HETATM   11  N   UNL     1      -5.439  12.199  65.514  1.00  0.00     1.703 NA 
HETATM   12  C   UNL     1      -6.358  11.172  65.443  1.00  0.00     0.382 A  
HETATM   13  C   UNL     1      -7.541  11.577  66.003  1.00  0.00     0.288 A  
HETATM   14  N   UNL     1      -8.612  10.776  66.084  1.00  0.00    -0.163 NA 
HETATM   15  C   UNL     1      -8.454   9.509  65.578  1.00  0.00    -0.140 C  
HETATM   16  N   UNL     1      -7.390   9.018  65.017  1.00  0.00    -0.094 N  
HETATM   17  H   UNL     1      -7.389   8.059  64.670  1.00  0.00     0.000 HD 
HETATM   18  C   UNL     1      -6.241   9.814  64.893  1.00  0.00    -0.096 C  
HETATM   19  O   UNL     1      -5.217   9.409  64.357  1.00  0.00    -0.055 OA 
ENDBRANCH   7   9
ENDBRANCH   2   4
TORSDOF 2
ENDMDL
MODEL      301
REMARK 921   NORMALIZED FREE ENERGY PREDICTED BY IDOCK:    9.52 KCAL/MOL
REMARK 922        TOTAL FREE ENERGY PREDICTED BY IDOCK:   10.34 KCAL/MOL
REMARK 923 INTER-LIGAND FREE ENERGY PREDICTED BY IDOCK:   10.63 KCAL/MOL
REMARK 924 INTRA-LIGAND FREE ENERGY PREDICTED BY IDOCK:   -0.30 KCAL/MOL
REMARK 927      BINDING AFFINITY PREDICTED BY RF-SCORE:    0.00 PKD
ROOT
HETATM    1  O   UNL     1     -12.062  20.446  66.756  1.00  0.00     2.269 OA 
HETATM    2  C   UNL     1     -10.725  20.393  67.256  1.00  0.00     0.262 C  
HETATM    3  H   UNL     1     -12.600  20.973  67.335  1.00  0.00     0.000 HD 
ENDROOT
BRANCH   2   4
HETATM    4  C   UNL     1      -9.856  19.540  66.320  1.00  0.00    -0.429 C  
HETATM    5  C   UNL     1     -10.670  18.710  65.344  1.00  0.00     0.217 C  
HETATM    6  C   UNL     1     -10.831  17.387  66.051  1.00  0.00     0.016 C  
HETATM    7  C   UNL     1      -9.552  17.269  66.866  1.00  0.00    -0.268 C  
HETATM    8  O   UNL     1      -9.074  18.608  67.092  1.00  0.00    -0.279 OA 
BRANCH   7   9
HETATM    9  N   UNL     1      -9.736  16.587  68.134  1.00  0.00    -0.230 NA 
HETATM   10  C   UNL     1     -10.836  16.723  68.951  1.00  0.00    -0.301 A  
HETATM   11  N   UNL     1     -10.726  16.015  70.060  1.00  0.00    -0.325 NA 
HETATM   12  C   UNL     1      -9.512  15.368  69.953  1.00  0.00    -0.052 A  
HETATM   13  C   UNL     1      -8.912  15.716  68.772  1.00  0.00    -0.205 A  
HETATM   14  N   UNL     1      -7.723  15.226  68.394  1.00  0.00    -0.120 NA 
HETATM   15  C   UNL     1      -7.137  14.338  69.263  1.00  0.00    -0.107 C  
HETATM   16  N   UNL     1      -7.604  13.941  70.409  1.00  0.00     0.772 N  
HETATM   17  H   UNL     1      -7.075  13.278  70.976  1.00  0.00     0.000 HD 
HETATM   18  C   UNL     1      -8.839  14.430  70.862  1.00  0.00     3.644 C  
HETATM   19  O   UNL     1      -9.317  14.106  71.942  1.00  0.00     5.766 OA 
ENDBRANCH   7   9
ENDBRANCH   2   4
TORSDOF 2
ENDMDL
MODEL      302
REMARK 921   NORMALIZED FREE ENERGY PREDICTED BY IDOCK:   21.60 KCAL/MOL
REMARK 922        TOTAL FREE ENERGY PREDICTED BY IDOCK:   23.83 KCAL/MOL
REMARK 923 INTER-LIGAND FREE ENERGY PREDICTED BY IDOCK:   23.74 KCAL/MOL
REMARK 924 INTRA-LIGAND FREE ENERGY PREDICTED BY IDOCK:    0.09 KCAL/MOL
REMARK 927      BINDING AFFINITY PREDICTED BY RF-SCORE:    0.00 PKD
ROOT
HETATM    1  O   UNL     1      -9.197  19.884  62.808  1.00  0.00    12.370 OA 
HETATM    2  C   UNL     1      -9.098  19.463  64.170  1.00  0.00     7.972 C  
HETATM    3  H   UNL     1      -8.327  19.989  62.442  1.00  0.00     0.000 HD 
ENDROOT
BRANCH   2   4
HETATM    4  C   UNL     1     -10.504  19.293  64.763  1.00  0.00     2.438 C  
HETATM    5  C   UNL     1     -11.095  20.594  65.274  1.00  0.00     1.068 C  
HETATM    6  C   UNL     1     -10.713  20.608  66.734  1.00  0.00     0.685 C  
HETATM    7  C   UNL     1     -10.699  19.133  67.105  1.00  0.00    -0.471 C  
HETATM    8  O   UNL     1     -10.455  18.398  65.890  1.00  0.00    -0.531 OA 
BRANCH   7   9
HETATM    9  N   UNL     1      -9.695  18.797  68.098  1.00  0.00    -0.323 NA 
HETATM   10  C   UNL     1      -9.384  19.566  69.198  1.00  0.00    -0.198 A  
HETATM   11  N   UNL     1      -8.409  19.040  69.916  1.00  0.00     0.808 NA 
HETATM   12  C   UNL     1      -8.086  17.863  69.273  1.00  0.00     0.228 A  
HETATM   13  C   UNL     1      -8.877  17.715  68.165  1.00  0.00    -0.269 A  
HETATM   14  N   UNL     1      -8.791  16.652  67.353  1.00  0.00    -0.187 NA 
HETATM   15  C   UNL     1      -7.862  15.704  67.703  1.00  0.00    -0.154 C  
HETATM   16  N   UNL     1      -7.053  15.739  68.720  1.00  0.00    -0.123 N  
HETATM   17  H   UNL     1      -6.396  14.975  68.879  1.00  0.00     0.000 HD 
HETATM   18  C   UNL     1      -7.089  16.833  69.597  1.00  0.00     0.105 C  
HETATM   19  O   UNL     1      -6.336  16.928  70.560  1.00  0.00     0.320 OA 
ENDBRANCH   7   9
ENDBRANCH   2   4
TORSDOF 2
ENDMDL
MODEL      303
REMARK 921   NORMALIZED FREE ENERGY PREDICTED BY IDOCK:   33.70 KCAL/MOL
REMARK 922        TOTAL FREE ENERGY PREDICTED BY IDOCK:   37.34 KCAL/MOL
REMARK 923 INTER-LIGAND FREE ENERGY PREDICTED BY IDOCK:   37.67 KCAL/MOL
REMARK 924 INTRA-LIGAND FREE ENERGY PREDICTED BY IDOCK:   -0.32 KCAL/MOL
REMARK 927      BINDING AFFINITY PREDICTED BY RF-SCORE:    0.00 PKD
ROOT
HETATM    1  O   UNL     1      -7.892  17.467  64.690  1.00  0.00     3.377 OA 
HETATM    2  C   UNL     1      -9.130  17.438  63.977  1.00  0.00    10.949 C  
HETATM    3  H   UNL     1      -7.678  18.363  64.923  1.00  0.00     0.000 HD 
ENDROOT
BRANCH   2   4
HETATM    4  C   UNL     1      -9.476  15.990  63.600  1.00  0.00    10.223 C  
HETATM    5  C   UNL     1     -10.956  15.681  63.724  1.00  0.00     1.698 C  
HETATM    6  C   UNL     1     -11.086  15.122  65.121  1.00  0.00    -0.410 C  
HETATM    7  C   UNL     1      -9.750  14.433  65.346  1.00  0.00    -0.121 C  
HETATM    8  O   UNL     1      -8.795  15.078  64.482  1.00  0.00     3.068 OA 
BRANCH   7   9
HETATM    9  N   UNL     1      -9.294  14.494  66.723  1.00  0.00    -0.250 NA 
HETATM   10  C   UNL     1      -8.589  15.540  67.276  1.00  0.00    -0.193 A  
HETATM   11  N   UNL     1      -8.271  15.317  68.538  1.00  0.00    -0.139 NA 
HETATM   12  C   UNL     1      -8.813  14.083  68.831  1.00  0.00     0.062 A  
HETATM   13  C   UNL     1      -9.442  13.585  67.721  1.00  0.00    -0.216 A  
HETATM   14  N   UNL     1     -10.072  12.402  67.718  1.00  0.00    -0.199 NA 
HETATM   15  C   UNL     1     -10.060  11.713  68.906  1.00  0.00    -0.092 C  
HETATM   16  N   UNL     1      -9.492  12.078  70.016  1.00  0.00     1.900 N  
HETATM   17  H   UNL     1      -9.544  11.479  70.840  1.00  0.00     0.000 HD 
HETATM   18  C   UNL     1      -8.807  13.302  70.075  1.00  0.00     3.210 C  
HETATM   19  O   UNL     1      -8.237  13.687  71.089  1.00  0.00     4.801 OA 
ENDBRANCH   7   9
ENDBRANCH   2   4
TORSDOF 2
ENDMDL
