MODEL        1
REMARK 921   NORMALIZED FREE ENERGY PREDICTED BY IDOCK:   -4.43 KCAL/MOL
REMARK 922        TOTAL FREE ENERGY PREDICTED BY IDOCK:  -11.79 KCAL/MOL
REMARK 923 INTER-LIGAND FREE ENERGY PREDICTED BY IDOCK:   -9.09 KCAL/MOL
REMARK 924 INTRA-LIGAND FREE ENERGY PREDICTED BY IDOCK:   -2.70 KCAL/MOL
REMARK 927      BINDING AFFINITY PREDICTED BY RF-SCORE:    0.00 PKD
ROOT
HETATM    1  C   UNL     1     -10.557  11.579  63.566  1.00  0.00    -0.487 C  
HETATM    2  C   UNL     1     -11.639  12.642  63.526  1.00  0.00    -0.584 C  
ENDROOT
BRANCH   2   3
HETATM    3  C   UNL     1     -12.525  12.574  64.767  1.00  0.00    -0.532 C  
BRANCH   3   4
HETATM    4  C   UNL     1     -12.600  13.935  65.449  1.00  0.00    -0.538 C  
BRANCH   4   5
HETATM    5  C   UNL     1     -12.392  13.803  66.950  1.00  0.00    -0.328 C  
BRANCH   5   6
HETATM    6  C   UNL     1     -11.664  12.504  67.281  1.00  0.00    -0.431 C  
BRANCH   6   7
HETATM    7  C   UNL     1     -10.275  12.812  67.813  1.00  0.00    -0.223 C  
BRANCH   7   8
HETATM    8  C   UNL     1      -9.306  13.168  66.690  1.00  0.00    -0.242 C  
BRANCH   8   9
HETATM    9  C   UNL     1      -8.527  14.407  67.106  1.00  0.00    -0.229 C  
BRANCH   9  10
HETATM   10  C   UNL     1      -9.301  15.689  66.827  1.00  0.00    -0.246 C  
BRANCH  10  11
HETATM   11  N   UNL     1      -9.297  16.661  68.035  1.00  0.00    -0.224 N  
HETATM   12  C   UNL     1      -8.279  16.205  69.081  1.00  0.00    -0.230 C  
HETATM   13  C   UNL     1      -8.959  18.080  67.570  1.00  0.00    -0.249 C  
BRANCH  11  14
HETATM   14  C   UNL     1     -10.730  16.617  68.625  1.00  0.00    -0.349 C  
BRANCH  14  15
HETATM   15  C   UNL     1     -10.838  15.698  69.833  1.00  0.00    -0.324 C  
BRANCH  15  16
HETATM   16  C   UNL     1     -12.155  15.877  70.573  1.00  0.00    -0.343 C  
BRANCH  16  17
HETATM   17  C   UNL     1     -11.866  15.889  72.071  1.00  0.00    -0.609 C  
BRANCH  17  18
HETATM   18  C   UNL     1     -12.917  15.116  72.850  1.00  0.00    -0.561 C  
BRANCH  18  19
HETATM   19  C   UNL     1     -13.742  14.262  71.896  1.00  0.00    -0.524 C  
BRANCH  19  20
HETATM   20  C   UNL     1     -13.424  12.783  72.090  1.00  0.00    -0.591 C  
BRANCH  20  21
HETATM   21  C   UNL     1     -12.598  12.245  70.926  1.00  0.00    -0.334 C  
BRANCH  21  22
HETATM   22  C   UNL     1     -12.427  10.734  71.042  1.00  0.00    -0.522 C  
HETATM   23  C   UNL     1     -11.118  10.279  70.423  1.00  0.00    -0.391 C  
ENDBRANCH  21  22
ENDBRANCH  20  21
ENDBRANCH  19  20
ENDBRANCH  18  19
ENDBRANCH  17  18
ENDBRANCH  16  17
ENDBRANCH  15  16
ENDBRANCH  14  15
ENDBRANCH  11  14
ENDBRANCH  10  11
ENDBRANCH   9  10
ENDBRANCH   8   9
ENDBRANCH   7   8
ENDBRANCH   6   7
ENDBRANCH   5   6
ENDBRANCH   4   5
ENDBRANCH   3   4
ENDBRANCH   2   3
TORSDOF 18
ENDMDL
MODEL        2
REMARK 921   NORMALIZED FREE ENERGY PREDICTED BY IDOCK:   -4.27 KCAL/MOL
REMARK 922        TOTAL FREE ENERGY PREDICTED BY IDOCK:  -11.46 KCAL/MOL
REMARK 923 INTER-LIGAND FREE ENERGY PREDICTED BY IDOCK:   -8.99 KCAL/MOL
REMARK 924 INTRA-LIGAND FREE ENERGY PREDICTED BY IDOCK:   -2.47 KCAL/MOL
REMARK 927      BINDING AFFINITY PREDICTED BY RF-SCORE:    0.00 PKD
ROOT
HETATM    1  C   UNL     1     -10.457   9.039  70.153  1.00  0.00    -0.240 C  
HETATM    2  C   UNL     1     -11.312  10.166  70.703  1.00  0.00    -0.433 C  
ENDROOT
BRANCH   2   3
HETATM    3  C   UNL     1     -12.439   9.627  71.579  1.00  0.00    -0.476 C  
BRANCH   3   4
HETATM    4  C   UNL     1     -13.409  10.742  71.953  1.00  0.00    -0.445 C  
BRANCH   4   5
HETATM    5  C   UNL     1     -12.844  12.103  71.575  1.00  0.00    -0.394 C  
BRANCH   5   6
HETATM    6  C   UNL     1     -13.594  13.217  72.298  1.00  0.00    -0.703 C  
BRANCH   6   7
HETATM    7  C   UNL     1     -13.580  14.481  71.456  1.00  0.00    -0.465 C  
BRANCH   7   8
HETATM    8  C   UNL     1     -12.744  15.581  72.104  1.00  0.00    -0.486 C  
BRANCH   8   9
HETATM    9  C   UNL     1     -11.601  15.930  71.162  1.00  0.00    -0.481 C  
BRANCH   9  10
HETATM   10  C   UNL     1     -11.933  15.598  69.713  1.00  0.00    -0.354 C  
BRANCH  10  11
HETATM   11  N   UNL     1     -10.719  15.787  68.766  1.00  0.00    -0.240 N  
HETATM   12  C   UNL     1     -10.780  17.158  68.092  1.00  0.00    -0.366 C  
HETATM   13  C   UNL     1      -9.411  15.655  69.550  1.00  0.00    -0.275 C  
BRANCH  11  14
HETATM   14  C   UNL     1     -10.825  14.661  67.705  1.00  0.00    -0.267 C  
BRANCH  14  15
HETATM   15  C   UNL     1     -12.044  13.774  67.914  1.00  0.00    -0.322 C  
BRANCH  15  16
HETATM   16  C   UNL     1     -11.767  12.324  67.542  1.00  0.00    -0.402 C  
BRANCH  16  17
HETATM   17  C   UNL     1     -10.281  12.050  67.755  1.00  0.00    -0.211 C  
BRANCH  17  18
HETATM   18  C   UNL     1      -9.807  10.865  66.931  1.00  0.00    -0.222 C  
BRANCH  18  19
HETATM   19  C   UNL     1      -9.319  11.344  65.571  1.00  0.00    -0.228 C  
BRANCH  19  20
HETATM   20  C   UNL     1     -10.072  10.634  64.451  1.00  0.00    -0.418 C  
BRANCH  20  21
HETATM   21  C   UNL     1     -10.550  11.629  63.398  1.00  0.00    -0.472 C  
BRANCH  21  22
HETATM   22  C   UNL     1     -11.942  12.147  63.740  1.00  0.00    -0.607 C  
HETATM   23  C   UNL     1     -11.931  13.647  63.971  1.00  0.00    -0.478 C  
ENDBRANCH  21  22
ENDBRANCH  20  21
ENDBRANCH  19  20
ENDBRANCH  18  19
ENDBRANCH  17  18
ENDBRANCH  16  17
ENDBRANCH  15  16
ENDBRANCH  14  15
ENDBRANCH  11  14
ENDBRANCH  10  11
ENDBRANCH   9  10
ENDBRANCH   8   9
ENDBRANCH   7   8
ENDBRANCH   6   7
ENDBRANCH   5   6
ENDBRANCH   4   5
ENDBRANCH   3   4
ENDBRANCH   2   3
TORSDOF 18
ENDMDL
MODEL        3
REMARK 921   NORMALIZED FREE ENERGY PREDICTED BY IDOCK:   -4.22 KCAL/MOL
REMARK 922        TOTAL FREE ENERGY PREDICTED BY IDOCK:  -11.37 KCAL/MOL
REMARK 923 INTER-LIGAND FREE ENERGY PREDICTED BY IDOCK:   -9.19 KCAL/MOL
REMARK 924 INTRA-LIGAND FREE ENERGY PREDICTED BY IDOCK:   -2.18 KCAL/MOL
REMARK 927      BINDING AFFINITY PREDICTED BY RF-SCORE:    0.00 PKD
ROOT
HETATM    1  C   UNL     1     -12.555  15.789  74.009  1.00  0.00    -0.758 C  
HETATM    2  C   UNL     1     -12.147  15.977  72.560  1.00  0.00    -0.635 C  
ENDROOT
BRANCH   2   3
HETATM    3  C   UNL     1     -13.208  15.425  71.612  1.00  0.00    -0.563 C  
BRANCH   3   4
HETATM    4  C   UNL     1     -14.008  14.317  72.287  1.00  0.00    -0.629 C  
BRANCH   4   5
HETATM    5  C   UNL     1     -13.404  12.953  71.990  1.00  0.00    -0.579 C  
BRANCH   5   6
HETATM    6  C   UNL     1     -12.522  13.014  70.747  1.00  0.00    -0.384 C  
BRANCH   6   7
HETATM    7  C   UNL     1     -12.038  11.619  70.387  1.00  0.00    -0.462 C  
BRANCH   7   8
HETATM    8  C   UNL     1     -11.906  11.439  68.878  1.00  0.00    -0.413 C  
BRANCH   8   9
HETATM    9  C   UNL     1     -10.589  10.731  68.596  1.00  0.00    -0.226 C  
BRANCH   9  10
HETATM   10  C   UNL     1     -10.632   9.943  67.293  1.00  0.00    -0.252 C  
BRANCH  10  11
HETATM   11  N   UNL     1      -9.304  10.036  66.497  1.00  0.00    -0.157 N  
HETATM   12  C   UNL     1      -8.129  10.262  67.449  1.00  0.00    -0.110 C  
HETATM   13  C   UNL     1      -9.079   8.753  65.693  1.00  0.00    -0.191 C  
BRANCH  11  14
HETATM   14  C   UNL     1      -9.462  11.247  65.542  1.00  0.00    -0.229 C  
BRANCH  14  15
HETATM   15  C   UNL     1     -10.650  11.100  64.602  1.00  0.00    -0.386 C  
BRANCH  15  16
HETATM   16  C   UNL     1     -10.709  12.222  63.575  1.00  0.00    -0.497 C  
BRANCH  16  17
HETATM   17  C   UNL     1     -12.090  12.865  63.647  1.00  0.00    -0.611 C  
BRANCH  17  18
HETATM   18  C   UNL     1     -12.069  14.149  64.460  1.00  0.00    -0.489 C  
BRANCH  18  19
HETATM   19  C   UNL     1     -12.318  13.834  65.929  1.00  0.00    -0.516 C  
BRANCH  19  20
HETATM   20  C   UNL     1     -11.201  14.405  66.795  1.00  0.00    -0.340 C  
BRANCH  20  21
HETATM   21  C   UNL     1     -11.769  15.114  68.021  1.00  0.00    -0.304 C  
BRANCH  21  22
HETATM   22  C   UNL     1     -10.709  15.995  68.672  1.00  0.00    -0.281 C  
HETATM   23  C   UNL     1      -9.709  15.166  69.457  1.00  0.00    -0.172 C  
ENDBRANCH  21  22
ENDBRANCH  20  21
ENDBRANCH  19  20
ENDBRANCH  18  19
ENDBRANCH  17  18
ENDBRANCH  16  17
ENDBRANCH  15  16
ENDBRANCH  14  15
ENDBRANCH  11  14
ENDBRANCH  10  11
ENDBRANCH   9  10
ENDBRANCH   8   9
ENDBRANCH   7   8
ENDBRANCH   6   7
ENDBRANCH   5   6
ENDBRANCH   4   5
ENDBRANCH   3   4
ENDBRANCH   2   3
TORSDOF 18
ENDMDL
MODEL        4
REMARK 921   NORMALIZED FREE ENERGY PREDICTED BY IDOCK:   -4.16 KCAL/MOL
REMARK 922        TOTAL FREE ENERGY PREDICTED BY IDOCK:  -11.24 KCAL/MOL
REMARK 923 INTER-LIGAND FREE ENERGY PREDICTED BY IDOCK:   -8.93 KCAL/MOL
REMARK 924 INTRA-LIGAND FREE ENERGY PREDICTED BY IDOCK:   -2.31 KCAL/MOL
REMARK 927      BINDING AFFINITY PREDICTED BY RF-SCORE:    0.00 PKD
ROOT
HETATM    1  C   UNL     1     -12.731  15.201  73.482  1.00  0.00    -0.678 C  
HETATM    2  C   UNL     1     -13.924  15.467  72.583  1.00  0.00    -0.617 C  
ENDROOT
BRANCH   2   3
HETATM    3  C   UNL     1     -14.204  14.277  71.670  1.00  0.00    -0.469 C  
BRANCH   3   4
HETATM    4  C   UNL     1     -13.423  13.052  72.129  1.00  0.00    -0.638 C  
BRANCH   4   5
HETATM    5  C   UNL     1     -12.443  12.598  71.057  1.00  0.00    -0.354 C  
BRANCH   5   6
HETATM    6  C   UNL     1     -12.530  13.503  69.832  1.00  0.00    -0.194 C  
BRANCH   6   7
HETATM    7  C   UNL     1     -11.335  14.439  69.795  1.00  0.00    -0.285 C  
BRANCH   7   8
HETATM    8  C   UNL     1     -11.744  15.864  69.435  1.00  0.00    -0.350 C  
BRANCH   8   9
HETATM    9  C   UNL     1     -10.498  16.738  69.450  1.00  0.00    -0.312 C  
BRANCH   9  10
HETATM   10  C   UNL     1     -10.545  17.817  68.376  1.00  0.00    -0.291 C  
BRANCH  10  11
HETATM   11  N   UNL     1      -9.153  18.092  67.749  1.00  0.00    -0.260 N  
HETATM   12  C   UNL     1      -9.310  18.750  66.378  1.00  0.00    -0.312 C  
HETATM   13  C   UNL     1      -8.330  19.000  68.667  1.00  0.00    -0.361 C  
BRANCH  11  14
HETATM   14  C   UNL     1      -8.467  16.709  67.607  1.00  0.00    -0.192 C  
BRANCH  14  15
HETATM   15  C   UNL     1      -8.764  16.043  66.271  1.00  0.00    -0.372 C  
BRANCH  15  16
HETATM   16  C   UNL     1      -9.696  14.850  66.421  1.00  0.00    -0.306 C  
BRANCH  16  17
HETATM   17  C   UNL     1     -10.962  15.126  65.617  1.00  0.00    -0.359 C  
BRANCH  17  18
HETATM   18  C   UNL     1     -12.146  14.335  66.146  1.00  0.00    -0.424 C  
BRANCH  18  19
HETATM   19  C   UNL     1     -12.199  12.971  65.471  1.00  0.00    -0.521 C  
BRANCH  19  20
HETATM   20  C   UNL     1     -11.770  13.079  64.011  1.00  0.00    -0.497 C  
BRANCH  20  21
HETATM   21  C   UNL     1     -11.571  11.698  63.396  1.00  0.00    -0.340 C  
BRANCH  21  22
HETATM   22  C   UNL     1     -10.086  11.388  63.239  1.00  0.00    -0.424 C  
HETATM   23  C   UNL     1      -9.648  10.292  64.192  1.00  0.00    -0.376 C  
ENDBRANCH  21  22
ENDBRANCH  20  21
ENDBRANCH  19  20
ENDBRANCH  18  19
ENDBRANCH  17  18
ENDBRANCH  16  17
ENDBRANCH  15  16
ENDBRANCH  14  15
ENDBRANCH  11  14
ENDBRANCH  10  11
ENDBRANCH   9  10
ENDBRANCH   8   9
ENDBRANCH   7   8
ENDBRANCH   6   7
ENDBRANCH   5   6
ENDBRANCH   4   5
ENDBRANCH   3   4
ENDBRANCH   2   3
TORSDOF 18
ENDMDL
MODEL        5
REMARK 921   NORMALIZED FREE ENERGY PREDICTED BY IDOCK:   -4.16 KCAL/MOL
REMARK 922        TOTAL FREE ENERGY PREDICTED BY IDOCK:  -11.24 KCAL/MOL
REMARK 923 INTER-LIGAND FREE ENERGY PREDICTED BY IDOCK:   -9.27 KCAL/MOL
REMARK 924 INTRA-LIGAND FREE ENERGY PREDICTED BY IDOCK:   -1.97 KCAL/MOL
REMARK 927      BINDING AFFINITY PREDICTED BY RF-SCORE:    0.00 PKD
ROOT
HETATM    1  C   UNL     1     -11.198   6.392  69.546  1.00  0.00    -0.477 C  
HETATM    2  C   UNL     1     -11.300   6.798  71.005  1.00  0.00    -0.356 C  
ENDROOT
BRANCH   2   3
HETATM    3  C   UNL     1     -12.721   7.226  71.361  1.00  0.00    -0.427 C  
BRANCH   3   4
HETATM    4  C   UNL     1     -12.721   8.605  72.009  1.00  0.00    -0.427 C  
BRANCH   4   5
HETATM    5  C   UNL     1     -11.557   9.444  71.503  1.00  0.00    -0.467 C  
BRANCH   5   6
HETATM    6  C   UNL     1     -12.054  10.774  70.945  1.00  0.00    -0.475 C  
BRANCH   6   7
HETATM    7  C   UNL     1     -12.150  10.696  69.431  1.00  0.00    -0.250 C  
BRANCH   7   8
HETATM    8  C   UNL     1     -11.112  11.584  68.752  1.00  0.00    -0.288 C  
BRANCH   8   9
HETATM    9  C   UNL     1     -11.759  12.232  67.537  1.00  0.00    -0.402 C  
BRANCH   9  10
HETATM   10  C   UNL     1     -10.842  12.211  66.322  1.00  0.00    -0.282 C  
BRANCH  10  11
HETATM   11  N   UNL     1     -11.226  13.281  65.267  1.00  0.00    -0.292 N  
HETATM   12  C   UNL     1     -11.129  12.696  63.857  1.00  0.00    -0.427 C  
HETATM   13  C   UNL     1     -12.648  13.787  65.520  1.00  0.00    -0.512 C  
BRANCH  11  14
HETATM   14  C   UNL     1     -10.206  14.436  65.440  1.00  0.00    -0.382 C  
BRANCH  14  15
HETATM   15  C   UNL     1     -10.716  15.532  66.365  1.00  0.00    -0.303 C  
BRANCH  15  16
HETATM   16  C   UNL     1      -9.969  15.554  67.691  1.00  0.00    -0.233 C  
BRANCH  16  17
HETATM   17  C   UNL     1     -10.614  16.607  68.587  1.00  0.00    -0.337 C  
BRANCH  17  18
HETATM   18  C   UNL     1     -10.802  16.097  70.006  1.00  0.00    -0.349 C  
BRANCH  18  19
HETATM   19  C   UNL     1     -11.845  14.988  70.021  1.00  0.00    -0.360 C  
BRANCH  19  20
HETATM   20  C   UNL     1     -12.073  14.488  71.444  1.00  0.00    -0.420 C  
BRANCH  20  21
HETATM   21  C   UNL     1     -13.563  14.413  71.765  1.00  0.00    -0.479 C  
BRANCH  21  22
HETATM   22  C   UNL     1     -13.968  15.544  72.703  1.00  0.00    -0.617 C  
HETATM   23  C   UNL     1     -12.886  15.822  73.730  1.00  0.00    -0.710 C  
ENDBRANCH  21  22
ENDBRANCH  20  21
ENDBRANCH  19  20
ENDBRANCH  18  19
ENDBRANCH  17  18
ENDBRANCH  16  17
ENDBRANCH  15  16
ENDBRANCH  14  15
ENDBRANCH  11  14
ENDBRANCH  10  11
ENDBRANCH   9  10
ENDBRANCH   8   9
ENDBRANCH   7   8
ENDBRANCH   6   7
ENDBRANCH   5   6
ENDBRANCH   4   5
ENDBRANCH   3   4
ENDBRANCH   2   3
TORSDOF 18
ENDMDL
MODEL        6
REMARK 921   NORMALIZED FREE ENERGY PREDICTED BY IDOCK:   -4.16 KCAL/MOL
REMARK 922        TOTAL FREE ENERGY PREDICTED BY IDOCK:  -11.23 KCAL/MOL
REMARK 923 INTER-LIGAND FREE ENERGY PREDICTED BY IDOCK:   -9.60 KCAL/MOL
REMARK 924 INTRA-LIGAND FREE ENERGY PREDICTED BY IDOCK:   -1.63 KCAL/MOL
REMARK 927      BINDING AFFINITY PREDICTED BY RF-SCORE:    0.00 PKD
ROOT
HETATM    1  C   UNL     1     -12.895  15.821  73.896  1.00  0.00    -0.676 C  
HETATM    2  C   UNL     1     -13.136  15.356  72.472  1.00  0.00    -0.518 C  
ENDROOT
BRANCH   2   3
HETATM    3  C   UNL     1     -13.680  13.931  72.442  1.00  0.00    -0.678 C  
BRANCH   3   4
HETATM    4  C   UNL     1     -12.832  13.051  71.530  1.00  0.00    -0.386 C  
BRANCH   4   5
HETATM    5  C   UNL     1     -13.095  11.577  71.800  1.00  0.00    -0.503 C  
BRANCH   5   6
HETATM    6  C   UNL     1     -12.409  10.707  70.752  1.00  0.00    -0.472 C  
BRANCH   6   7
HETATM    7  C   UNL     1     -11.591  11.577  69.813  1.00  0.00    -0.401 C  
BRANCH   7   8
HETATM    8  C   UNL     1     -11.847  11.225  68.351  1.00  0.00    -0.331 C  
BRANCH   8   9
HETATM    9  C   UNL     1     -11.701  12.493  67.521  1.00  0.00    -0.439 C  
BRANCH   9  10
HETATM   10  C   UNL     1     -11.019  12.227  66.186  1.00  0.00    -0.293 C  
BRANCH  10  11
HETATM   11  N   UNL     1     -11.378  13.288  65.113  1.00  0.00    -0.293 N  
HETATM   12  C   UNL     1     -11.431  12.645  63.727  1.00  0.00    -0.470 C  
HETATM   13  C   UNL     1     -12.728  13.932  65.437  1.00  0.00    -0.490 C  
BRANCH  11  14
HETATM   14  C   UNL     1     -10.249  14.350  65.169  1.00  0.00    -0.391 C  
BRANCH  14  15
HETATM   15  C   UNL     1     -10.747  15.707  65.645  1.00  0.00    -0.376 C  
BRANCH  15  16
HETATM   16  C   UNL     1     -10.167  16.087  67.000  1.00  0.00    -0.282 C  
BRANCH  16  17
HETATM   17  C   UNL     1     -10.477  17.558  67.259  1.00  0.00    -0.327 C  
BRANCH  17  18
HETATM   18  C   UNL     1     -10.601  18.341  65.963  1.00  0.00    -0.318 C  
BRANCH  18  19
HETATM   19  C   UNL     1     -10.377  19.823  66.232  1.00  0.00    -0.626 C  
BRANCH  19  20
HETATM   20  C   UNL     1      -9.181  20.024  67.156  1.00  0.00    -0.483 C  
BRANCH  20  21
HETATM   21  C   UNL     1      -7.870  19.940  66.380  1.00  0.00    -0.335 C  
BRANCH  21  22
HETATM   22  C   UNL     1      -6.938  18.911  67.010  1.00  0.00    -0.211 C  
HETATM   23  C   UNL     1      -6.659  17.764  66.055  1.00  0.00    -0.305 C  
ENDBRANCH  21  22
ENDBRANCH  20  21
ENDBRANCH  19  20
ENDBRANCH  18  19
ENDBRANCH  17  18
ENDBRANCH  16  17
ENDBRANCH  15  16
ENDBRANCH  14  15
ENDBRANCH  11  14
ENDBRANCH  10  11
ENDBRANCH   9  10
ENDBRANCH   8   9
ENDBRANCH   7   8
ENDBRANCH   6   7
ENDBRANCH   5   6
ENDBRANCH   4   5
ENDBRANCH   3   4
ENDBRANCH   2   3
TORSDOF 18
ENDMDL
MODEL        7
REMARK 921   NORMALIZED FREE ENERGY PREDICTED BY IDOCK:   -4.15 KCAL/MOL
REMARK 922        TOTAL FREE ENERGY PREDICTED BY IDOCK:  -11.22 KCAL/MOL
REMARK 923 INTER-LIGAND FREE ENERGY PREDICTED BY IDOCK:   -9.18 KCAL/MOL
REMARK 924 INTRA-LIGAND FREE ENERGY PREDICTED BY IDOCK:   -2.04 KCAL/MOL
REMARK 927      BINDING AFFINITY PREDICTED BY RF-SCORE:    0.00 PKD
ROOT
HETATM    1  C   UNL     1     -10.664  15.708  65.497  1.00  0.00    -0.403 C  
HETATM    2  C   UNL     1     -10.684  14.870  66.761  1.00  0.00    -0.312 C  
ENDROOT
BRANCH   2   3
HETATM    3  C   UNL     1     -11.928  13.988  66.819  1.00  0.00    -0.473 C  
BRANCH   3   4
HETATM    4  C   UNL     1     -12.671  14.018  65.489  1.00  0.00    -0.517 C  
BRANCH   4   5
HETATM    5  C   UNL     1     -12.656  12.649  64.827  1.00  0.00    -0.530 C  
BRANCH   5   6
HETATM    6  C   UNL     1     -11.878  12.693  63.516  1.00  0.00    -0.619 C  
BRANCH   6   7
HETATM    7  C   UNL     1     -10.411  12.399  63.776  1.00  0.00    -0.454 C  
BRANCH   7   8
HETATM    8  C   UNL     1     -10.190  10.946  64.187  1.00  0.00    -0.424 C  
BRANCH   8   9
HETATM    9  C   UNL     1      -9.623  10.930  65.599  1.00  0.00    -0.268 C  
BRANCH   9  10
HETATM   10  C   UNL     1      -9.627   9.531  66.200  1.00  0.00    -0.239 C  
BRANCH  10  11
HETATM   11  N   UNL     1      -9.743   9.549  67.746  1.00  0.00    -0.143 N  
HETATM   12  C   UNL     1      -9.658   8.126  68.301  1.00  0.00    -0.144 C  
HETATM   13  C   UNL     1      -8.629  10.407  68.351  1.00  0.00    -0.128 C  
BRANCH  11  14
HETATM   14  C   UNL     1     -11.129  10.167  68.064  1.00  0.00    -0.240 C  
BRANCH  14  15
HETATM   15  C   UNL     1     -11.042  11.327  69.045  1.00  0.00    -0.301 C  
BRANCH  15  16
HETATM   16  C   UNL     1     -12.036  11.185  70.189  1.00  0.00    -0.449 C  
BRANCH  16  17
HETATM   17  C   UNL     1     -12.364  12.579  70.714  1.00  0.00    -0.376 C  
BRANCH  17  18
HETATM   18  C   UNL     1     -13.179  12.517  71.995  1.00  0.00    -0.524 C  
BRANCH  18  19
HETATM   19  C   UNL     1     -13.787  13.883  72.285  1.00  0.00    -0.669 C  
BRANCH  19  20
HETATM   20  C   UNL     1     -12.942  14.639  73.305  1.00  0.00    -0.569 C  
BRANCH  20  21
HETATM   21  C   UNL     1     -11.946  15.563  72.611  1.00  0.00    -0.562 C  
BRANCH  21  22
HETATM   22  C   UNL     1     -12.447  15.951  71.225  1.00  0.00    -0.442 C  
HETATM   23  C   UNL     1     -11.302  16.056  70.235  1.00  0.00    -0.391 C  
ENDBRANCH  21  22
ENDBRANCH  20  21
ENDBRANCH  19  20
ENDBRANCH  18  19
ENDBRANCH  17  18
ENDBRANCH  16  17
ENDBRANCH  15  16
ENDBRANCH  14  15
ENDBRANCH  11  14
ENDBRANCH  10  11
ENDBRANCH   9  10
ENDBRANCH   8   9
ENDBRANCH   7   8
ENDBRANCH   6   7
ENDBRANCH   5   6
ENDBRANCH   4   5
ENDBRANCH   3   4
ENDBRANCH   2   3
TORSDOF 18
ENDMDL
MODEL        8
REMARK 921   NORMALIZED FREE ENERGY PREDICTED BY IDOCK:   -4.14 KCAL/MOL
REMARK 922        TOTAL FREE ENERGY PREDICTED BY IDOCK:  -11.20 KCAL/MOL
REMARK 923 INTER-LIGAND FREE ENERGY PREDICTED BY IDOCK:   -9.25 KCAL/MOL
REMARK 924 INTRA-LIGAND FREE ENERGY PREDICTED BY IDOCK:   -1.95 KCAL/MOL
REMARK 927      BINDING AFFINITY PREDICTED BY RF-SCORE:    0.00 PKD
ROOT
HETATM    1  C   UNL     1     -10.188   9.704  70.493  1.00  0.00    -0.351 C  
HETATM    2  C   UNL     1     -11.506  10.444  70.357  1.00  0.00    -0.420 C  
ENDROOT
BRANCH   2   3
HETATM    3  C   UNL     1     -12.558   9.873  71.303  1.00  0.00    -0.480 C  
BRANCH   3   4
HETATM    4  C   UNL     1     -13.274  10.993  72.049  1.00  0.00    -0.447 C  
BRANCH   4   5
HETATM    5  C   UNL     1     -12.940  12.349  71.446  1.00  0.00    -0.348 C  
BRANCH   5   6
HETATM    6  C   UNL     1     -13.524  13.474  72.293  1.00  0.00    -0.669 C  
BRANCH   6   7
HETATM    7  C   UNL     1     -13.658  14.735  71.457  1.00  0.00    -0.495 C  
BRANCH   7   8
HETATM    8  C   UNL     1     -12.568  15.750  71.787  1.00  0.00    -0.524 C  
BRANCH   8   9
HETATM    9  C   UNL     1     -11.373  15.477  70.885  1.00  0.00    -0.406 C  
BRANCH   9  10
HETATM   10  C   UNL     1     -11.759  15.462  69.412  1.00  0.00    -0.351 C  
BRANCH  10  11
HETATM   11  N   UNL     1     -10.575  15.832  68.483  1.00  0.00    -0.244 N  
HETATM   12  C   UNL     1     -10.429  17.352  68.388  1.00  0.00    -0.384 C  
HETATM   13  C   UNL     1      -9.276  15.220  69.012  1.00  0.00    -0.223 C  
BRANCH  11  14
HETATM   14  C   UNL     1     -10.921  15.238  67.093  1.00  0.00    -0.331 C  
BRANCH  14  15
HETATM   15  C   UNL     1     -11.884  14.063  67.182  1.00  0.00    -0.444 C  
BRANCH  15  16
HETATM   16  C   UNL     1     -12.720  13.911  65.919  1.00  0.00    -0.466 C  
BRANCH  16  17
HETATM   17  C   UNL     1     -11.809  14.115  64.713  1.00  0.00    -0.425 C  
BRANCH  17  18
HETATM   18  C   UNL     1     -12.275  13.304  63.515  1.00  0.00    -0.513 C  
BRANCH  18  19
HETATM   19  C   UNL     1     -11.574  11.953  63.502  1.00  0.00    -0.537 C  
BRANCH  19  20
HETATM   20  C   UNL     1     -10.315  11.994  64.361  1.00  0.00    -0.342 C  
BRANCH  20  21
HETATM   21  C   UNL     1     -10.068  10.647  65.034  1.00  0.00    -0.388 C  
BRANCH  21  22
HETATM   22  C   UNL     1     -10.483  10.694  66.500  1.00  0.00    -0.285 C  
HETATM   23  C   UNL     1      -9.417  11.355  67.354  1.00  0.00    -0.174 C  
ENDBRANCH  21  22
ENDBRANCH  20  21
ENDBRANCH  19  20
ENDBRANCH  18  19
ENDBRANCH  17  18
ENDBRANCH  16  17
ENDBRANCH  15  16
ENDBRANCH  14  15
ENDBRANCH  11  14
ENDBRANCH  10  11
ENDBRANCH   9  10
ENDBRANCH   8   9
ENDBRANCH   7   8
ENDBRANCH   6   7
ENDBRANCH   5   6
ENDBRANCH   4   5
ENDBRANCH   3   4
ENDBRANCH   2   3
TORSDOF 18
ENDMDL
MODEL        9
REMARK 921   NORMALIZED FREE ENERGY PREDICTED BY IDOCK:   -4.14 KCAL/MOL
REMARK 922        TOTAL FREE ENERGY PREDICTED BY IDOCK:  -11.19 KCAL/MOL
REMARK 923 INTER-LIGAND FREE ENERGY PREDICTED BY IDOCK:   -9.03 KCAL/MOL
REMARK 924 INTRA-LIGAND FREE ENERGY PREDICTED BY IDOCK:   -2.16 KCAL/MOL
REMARK 927      BINDING AFFINITY PREDICTED BY RF-SCORE:    0.00 PKD
ROOT
HETATM    1  C   UNL     1     -12.418  15.565  74.363  1.00  0.00    -0.768 C  
HETATM    2  C   UNL     1     -12.890  14.635  73.261  1.00  0.00    -0.580 C  
ENDROOT
BRANCH   2   3
HETATM    3  C   UNL     1     -13.718  15.386  72.222  1.00  0.00    -0.629 C  
BRANCH   3   4
HETATM    4  C   UNL     1     -13.199  15.107  70.816  1.00  0.00    -0.433 C  
BRANCH   4   5
HETATM    5  C   UNL     1     -11.681  15.000  70.809  1.00  0.00    -0.371 C  
BRANCH   5   6
HETATM    6  C   UNL     1     -11.063  16.162  70.039  1.00  0.00    -0.363 C  
BRANCH   6   7
HETATM    7  C   UNL     1      -9.691  15.768  69.520  1.00  0.00    -0.276 C  
BRANCH   7   8
HETATM    8  C   UNL     1      -9.402  16.391  68.158  1.00  0.00    -0.209 C  
BRANCH   8   9
HETATM    9  C   UNL     1     -10.420  15.855  67.161  1.00  0.00    -0.313 C  
BRANCH   9  10
HETATM   10  C   UNL     1      -9.788  14.899  66.159  1.00  0.00    -0.308 C  
BRANCH  10  11
HETATM   11  N   UNL     1     -10.530  13.539  66.085  1.00  0.00    -0.291 N  
HETATM   12  C   UNL     1     -11.958  13.684  66.612  1.00  0.00    -0.415 C  
HETATM   13  C   UNL     1     -10.561  13.030  64.642  1.00  0.00    -0.378 C  
BRANCH  11  14
HETATM   14  C   UNL     1      -9.723  12.563  66.981  1.00  0.00    -0.213 C  
BRANCH  14  15
HETATM   15  C   UNL     1     -10.490  12.141  68.225  1.00  0.00    -0.225 C  
BRANCH  15  16
HETATM   16  C   UNL     1     -10.283  10.670  68.554  1.00  0.00    -0.191 C  
BRANCH  16  17
HETATM   17  C   UNL     1     -11.373  10.238  69.530  1.00  0.00    -0.299 C  
BRANCH  17  18
HETATM   18  C   UNL     1     -12.134  11.430  70.083  1.00  0.00    -0.439 C  
BRANCH  18  19
HETATM   19  C   UNL     1     -12.949  11.004  71.297  1.00  0.00    -0.472 C  
BRANCH  19  20
HETATM   20  C   UNL     1     -12.473   9.650  71.812  1.00  0.00    -0.487 C  
BRANCH  20  21
HETATM   21  C   UNL     1     -13.645   8.818  72.325  1.00  0.00    -0.478 C  
BRANCH  21  22
HETATM   22  C   UNL     1     -13.812   7.554  71.490  1.00  0.00    -0.487 C  
HETATM   23  C   UNL     1     -12.479   6.868  71.255  1.00  0.00    -0.409 C  
ENDBRANCH  21  22
ENDBRANCH  20  21
ENDBRANCH  19  20
ENDBRANCH  18  19
ENDBRANCH  17  18
ENDBRANCH  16  17
ENDBRANCH  15  16
ENDBRANCH  14  15
ENDBRANCH  11  14
ENDBRANCH  10  11
ENDBRANCH   9  10
ENDBRANCH   8   9
ENDBRANCH   7   8
ENDBRANCH   6   7
ENDBRANCH   5   6
ENDBRANCH   4   5
ENDBRANCH   3   4
ENDBRANCH   2   3
TORSDOF 18
ENDMDL
MODEL       10
REMARK 921   NORMALIZED FREE ENERGY PREDICTED BY IDOCK:   -4.12 KCAL/MOL
REMARK 922        TOTAL FREE ENERGY PREDICTED BY IDOCK:  -11.15 KCAL/MOL
REMARK 923 INTER-LIGAND FREE ENERGY PREDICTED BY IDOCK:   -9.06 KCAL/MOL
REMARK 924 INTRA-LIGAND FREE ENERGY PREDICTED BY IDOCK:   -2.10 KCAL/MOL
REMARK 927      BINDING AFFINITY PREDICTED BY RF-SCORE:    0.00 PKD
ROOT
HETATM    1  C   UNL     1      -9.936  10.719  64.089  1.00  0.00    -0.405 C  
HETATM    2  C   UNL     1     -10.430  11.911  63.290  1.00  0.00    -0.427 C  
ENDROOT
BRANCH   2   3
HETATM    3  C   UNL     1     -11.881  12.240  63.630  1.00  0.00    -0.610 C  
BRANCH   3   4
HETATM    4  C   UNL     1     -12.009  13.686  64.096  1.00  0.00    -0.488 C  
BRANCH   4   5
HETATM    5  C   UNL     1     -12.887  13.781  65.335  1.00  0.00    -0.455 C  
BRANCH   5   6
HETATM    6  C   UNL     1     -12.041  14.061  66.573  1.00  0.00    -0.488 C  
BRANCH   6   7
HETATM    7  C   UNL     1     -10.680  14.592  66.160  1.00  0.00    -0.314 C  
BRANCH   7   8
HETATM    8  C   UNL     1      -9.545  13.789  66.789  1.00  0.00    -0.283 C  
BRANCH   8   9
HETATM    9  C   UNL     1     -10.154  12.753  67.722  1.00  0.00    -0.224 C  
BRANCH   9  10
HETATM   10  C   UNL     1      -9.444  11.409  67.626  1.00  0.00    -0.162 C  
BRANCH  10  11
HETATM   11  N   UNL     1     -10.195  10.283  68.381  1.00  0.00    -0.160 N  
HETATM   12  C   UNL     1     -10.422   9.085  67.458  1.00  0.00    -0.272 C  
HETATM   13  C   UNL     1      -9.395   9.844  69.610  1.00  0.00    -0.228 C  
BRANCH  11  14
HETATM   14  C   UNL     1     -11.554  10.892  68.815  1.00  0.00    -0.309 C  
BRANCH  14  15
HETATM   15  C   UNL     1     -11.644  11.109  70.318  1.00  0.00    -0.388 C  
BRANCH  15  16
HETATM   16  C   UNL     1     -12.910  10.504  70.909  1.00  0.00    -0.485 C  
BRANCH  16  17
HETATM   17  C   UNL     1     -13.407  11.422  72.021  1.00  0.00    -0.388 C  
BRANCH  17  18
HETATM   18  C   UNL     1     -13.030  12.871  71.761  1.00  0.00    -0.416 C  
BRANCH  18  19
HETATM   19  C   UNL     1     -14.145  13.789  72.244  1.00  0.00    -0.627 C  
BRANCH  19  20
HETATM   20  C   UNL     1     -13.647  15.226  72.352  1.00  0.00    -0.592 C  
BRANCH  20  21
HETATM   21  C   UNL     1     -12.126  15.271  72.458  1.00  0.00    -0.505 C  
BRANCH  21  22
HETATM   22  C   UNL     1     -11.538  16.172  71.378  1.00  0.00    -0.495 C  
HETATM   23  C   UNL     1     -10.970  15.357  70.231  1.00  0.00    -0.336 C  
ENDBRANCH  21  22
ENDBRANCH  20  21
ENDBRANCH  19  20
ENDBRANCH  18  19
ENDBRANCH  17  18
ENDBRANCH  16  17
ENDBRANCH  15  16
ENDBRANCH  14  15
ENDBRANCH  11  14
ENDBRANCH  10  11
ENDBRANCH   9  10
ENDBRANCH   8   9
ENDBRANCH   7   8
ENDBRANCH   6   7
ENDBRANCH   5   6
ENDBRANCH   4   5
ENDBRANCH   3   4
ENDBRANCH   2   3
TORSDOF 18
ENDMDL
MODEL       11
REMARK 921   NORMALIZED FREE ENERGY PREDICTED BY IDOCK:   -4.08 KCAL/MOL
REMARK 922        TOTAL FREE ENERGY PREDICTED BY IDOCK:  -11.08 KCAL/MOL
REMARK 923 INTER-LIGAND FREE ENERGY PREDICTED BY IDOCK:   -8.59 KCAL/MOL
REMARK 924 INTRA-LIGAND FREE ENERGY PREDICTED BY IDOCK:   -2.50 KCAL/MOL
REMARK 927      BINDING AFFINITY PREDICTED BY RF-SCORE:    0.00 PKD
ROOT
HETATM    1  C   UNL     1      -8.548   9.489  69.634  1.00  0.00    -0.189 C  
HETATM    2  C   UNL     1      -8.889   9.924  68.221  1.00  0.00    -0.119 C  
ENDROOT
BRANCH   2   3
HETATM    3  C   UNL     1      -9.969   9.034  67.614  1.00  0.00    -0.252 C  
BRANCH   3   4
HETATM    4  C   UNL     1     -10.019   9.203  66.100  1.00  0.00    -0.338 C  
BRANCH   4   5
HETATM    5  C   UNL     1     -10.153  10.670  65.722  1.00  0.00    -0.327 C  
BRANCH   5   6
HETATM    6  C   UNL     1     -10.262  10.828  64.209  1.00  0.00    -0.422 C  
BRANCH   6   7
HETATM    7  C   UNL     1     -10.771  12.219  63.869  1.00  0.00    -0.463 C  
BRANCH   7   8
HETATM    8  C   UNL     1     -12.255  12.371  64.188  1.00  0.00    -0.558 C  
BRANCH   8   9
HETATM    9  C   UNL     1     -12.426  13.574  65.104  1.00  0.00    -0.495 C  
BRANCH   9  10
HETATM   10  C   UNL     1     -11.212  14.493  65.073  1.00  0.00    -0.382 C  
BRANCH  10  11
HETATM   11  N   UNL     1     -10.629  14.757  66.485  1.00  0.00    -0.293 N  
HETATM   12  C   UNL     1      -9.250  14.109  66.620  1.00  0.00    -0.252 C  
HETATM   13  C   UNL     1     -10.519  16.263  66.739  1.00  0.00    -0.287 C  
BRANCH  11  14
HETATM   14  C   UNL     1     -11.625  14.115  67.485  1.00  0.00    -0.367 C  
BRANCH  14  15
HETATM   15  C   UNL     1     -10.950  13.139  68.437  1.00  0.00    -0.287 C  
BRANCH  15  16
HETATM   16  C   UNL     1     -11.867  12.728  69.581  1.00  0.00    -0.384 C  
BRANCH  16  17
HETATM   17  C   UNL     1     -12.083  11.220  69.505  1.00  0.00    -0.386 C  
BRANCH  17  18
HETATM   18  C   UNL     1     -11.751  10.539  70.822  1.00  0.00    -0.454 C  
BRANCH  18  19
HETATM   19  C   UNL     1     -13.012  10.401  71.664  1.00  0.00    -0.581 C  
BRANCH  19  20
HETATM   20  C   UNL     1     -13.106   9.002  72.262  1.00  0.00    -0.508 C  
BRANCH  20  21
HETATM   21  C   UNL     1     -11.819   8.218  72.023  1.00  0.00    -0.408 C  
BRANCH  21  22
HETATM   22  C   UNL     1     -12.128   6.835  71.460  1.00  0.00    -0.410 C  
HETATM   23  C   UNL     1     -11.545   6.663  70.070  1.00  0.00    -0.423 C  
ENDBRANCH  21  22
ENDBRANCH  20  21
ENDBRANCH  19  20
ENDBRANCH  18  19
ENDBRANCH  17  18
ENDBRANCH  16  17
ENDBRANCH  15  16
ENDBRANCH  14  15
ENDBRANCH  11  14
ENDBRANCH  10  11
ENDBRANCH   9  10
ENDBRANCH   8   9
ENDBRANCH   7   8
ENDBRANCH   6   7
ENDBRANCH   5   6
ENDBRANCH   4   5
ENDBRANCH   3   4
ENDBRANCH   2   3
TORSDOF 18
ENDMDL
MODEL       12
REMARK 921   NORMALIZED FREE ENERGY PREDICTED BY IDOCK:   -4.06 KCAL/MOL
REMARK 922        TOTAL FREE ENERGY PREDICTED BY IDOCK:  -11.03 KCAL/MOL
REMARK 923 INTER-LIGAND FREE ENERGY PREDICTED BY IDOCK:   -9.12 KCAL/MOL
REMARK 924 INTRA-LIGAND FREE ENERGY PREDICTED BY IDOCK:   -1.91 KCAL/MOL
REMARK 927      BINDING AFFINITY PREDICTED BY RF-SCORE:    0.00 PKD
ROOT
HETATM    1  C   UNL     1      -6.258  19.131  66.071  1.00  0.00    -0.209 C  
HETATM    2  C   UNL     1      -7.651  19.703  65.885  1.00  0.00    -0.320 C  
ENDROOT
BRANCH   2   3
HETATM    3  C   UNL     1      -8.171  20.319  67.180  1.00  0.00    -0.385 C  
BRANCH   3   4
HETATM    4  C   UNL     1      -9.688  20.463  67.136  1.00  0.00    -0.601 C  
BRANCH   4   5
HETATM    5  C   UNL     1     -10.348  19.593  68.195  1.00  0.00    -0.561 C  
BRANCH   5   6
HETATM    6  C   UNL     1      -9.976  18.127  67.996  1.00  0.00    -0.353 C  
BRANCH   6   7
HETATM    7  C   UNL     1     -10.588  17.608  66.707  1.00  0.00    -0.224 C  
BRANCH   7   8
HETATM    8  C   UNL     1      -9.881  16.351  66.211  1.00  0.00    -0.336 C  
BRANCH   8   9
HETATM    9  C   UNL     1     -10.937  15.301  65.897  1.00  0.00    -0.325 C  
BRANCH   9  10
HETATM   10  C   UNL     1     -10.540  14.428  64.714  1.00  0.00    -0.393 C  
BRANCH  10  11
HETATM   11  N   UNL     1     -11.023  12.962  64.868  1.00  0.00    -0.290 N  
HETATM   12  C   UNL     1     -12.551  12.908  64.907  1.00  0.00    -0.458 C  
HETATM   13  C   UNL     1     -10.506  12.110  63.706  1.00  0.00    -0.437 C  
BRANCH  11  14
HETATM   14  C   UNL     1     -10.433  12.457  66.210  1.00  0.00    -0.245 C  
BRANCH  14  15
HETATM   15  C   UNL     1     -11.246  11.323  66.816  1.00  0.00    -0.265 C  
BRANCH  15  16
HETATM   16  C   UNL     1     -11.535  11.552  68.293  1.00  0.00    -0.368 C  
BRANCH  16  17
HETATM   17  C   UNL     1     -10.922  12.887  68.700  1.00  0.00    -0.295 C  
BRANCH  17  18
HETATM   18  C   UNL     1     -11.811  13.638  69.677  1.00  0.00    -0.396 C  
BRANCH  18  19
HETATM   19  C   UNL     1     -11.739  15.133  69.396  1.00  0.00    -0.355 C  
BRANCH  19  20
HETATM   20  C   UNL     1     -11.485  15.908  70.684  1.00  0.00    -0.426 C  
BRANCH  20  21
HETATM   21  C   UNL     1     -11.948  15.113  71.901  1.00  0.00    -0.465 C  
BRANCH  21  22
HETATM   22  C   UNL     1     -12.530  16.042  72.961  1.00  0.00    -0.614 C  
HETATM   23  C   UNL     1     -12.314  15.488  74.357  1.00  0.00    -0.798 C  
ENDBRANCH  21  22
ENDBRANCH  20  21
ENDBRANCH  19  20
ENDBRANCH  18  19
ENDBRANCH  17  18
ENDBRANCH  16  17
ENDBRANCH  15  16
ENDBRANCH  14  15
ENDBRANCH  11  14
ENDBRANCH  10  11
ENDBRANCH   9  10
ENDBRANCH   8   9
ENDBRANCH   7   8
ENDBRANCH   6   7
ENDBRANCH   5   6
ENDBRANCH   4   5
ENDBRANCH   3   4
ENDBRANCH   2   3
TORSDOF 18
ENDMDL
MODEL       13
REMARK 921   NORMALIZED FREE ENERGY PREDICTED BY IDOCK:   -4.04 KCAL/MOL
REMARK 922        TOTAL FREE ENERGY PREDICTED BY IDOCK:  -11.00 KCAL/MOL
REMARK 923 INTER-LIGAND FREE ENERGY PREDICTED BY IDOCK:   -9.10 KCAL/MOL
REMARK 924 INTRA-LIGAND FREE ENERGY PREDICTED BY IDOCK:   -1.89 KCAL/MOL
REMARK 927      BINDING AFFINITY PREDICTED BY RF-SCORE:    0.00 PKD
ROOT
HETATM    1  C   UNL     1     -12.563  16.071  73.595  1.00  0.00    -0.706 C  
HETATM    2  C   UNL     1     -12.131  15.960  72.145  1.00  0.00    -0.596 C  
ENDROOT
BRANCH   2   3
HETATM    3  C   UNL     1     -12.991  14.951  71.389  1.00  0.00    -0.427 C  
BRANCH   3   4
HETATM    4  C   UNL     1     -13.815  14.113  72.359  1.00  0.00    -0.638 C  
BRANCH   4   5
HETATM    5  C   UNL     1     -13.436  12.643  72.265  1.00  0.00    -0.541 C  
BRANCH   5   6
HETATM    6  C   UNL     1     -12.582  12.385  71.028  1.00  0.00    -0.349 C  
BRANCH   6   7
HETATM    7  C   UNL     1     -12.415  10.890  70.817  1.00  0.00    -0.489 C  
BRANCH   7   8
HETATM    8  C   UNL     1     -13.216  10.084  71.834  1.00  0.00    -0.557 C  
BRANCH   8   9
HETATM    9  C   UNL     1     -12.521   8.745  72.037  1.00  0.00    -0.452 C  
BRANCH   9  10
HETATM   10  C   UNL     1     -11.065   8.784  71.592  1.00  0.00    -0.327 C  
BRANCH  10  11
HETATM   11  N   UNL     1     -10.630   7.485  70.866  1.00  0.00    -0.218 N  
HETATM   12  C   UNL     1      -9.684   6.673  71.752  1.00  0.00    -0.161 C  
HETATM   13  C   UNL     1     -11.856   6.641  70.510  1.00  0.00    -0.370 C  
BRANCH  11  14
HETATM   14  C   UNL     1      -9.899   7.940  69.576  1.00  0.00    -0.176 C  
BRANCH  14  15
HETATM   15  C   UNL     1     -10.691   8.974  68.789  1.00  0.00    -0.140 C  
BRANCH  15  16
HETATM   16  C   UNL     1      -9.785   9.931  68.029  1.00  0.00    -0.160 C  
BRANCH  16  17
HETATM   17  C   UNL     1     -10.578  10.523  66.868  1.00  0.00    -0.303 C  
BRANCH  17  18
HETATM   18  C   UNL     1     -11.519  11.620  67.334  1.00  0.00    -0.357 C  
BRANCH  18  19
HETATM   19  C   UNL     1     -10.853  12.979  67.161  1.00  0.00    -0.278 C  
BRANCH  19  20
HETATM   20  C   UNL     1      -9.889  12.956  65.980  1.00  0.00    -0.256 C  
BRANCH  20  21
HETATM   21  C   UNL     1     -10.539  13.549  64.733  1.00  0.00    -0.429 C  
BRANCH  21  22
HETATM   22  C   UNL     1     -10.795  12.465  63.693  1.00  0.00    -0.509 C  
HETATM   23  C   UNL     1     -12.268  12.107  63.621  1.00  0.00    -0.663 C  
ENDBRANCH  21  22
ENDBRANCH  20  21
ENDBRANCH  19  20
ENDBRANCH  18  19
ENDBRANCH  17  18
ENDBRANCH  16  17
ENDBRANCH  15  16
ENDBRANCH  14  15
ENDBRANCH  11  14
ENDBRANCH  10  11
ENDBRANCH   9  10
ENDBRANCH   8   9
ENDBRANCH   7   8
ENDBRANCH   6   7
ENDBRANCH   5   6
ENDBRANCH   4   5
ENDBRANCH   3   4
ENDBRANCH   2   3
TORSDOF 18
ENDMDL
MODEL       14
REMARK 921   NORMALIZED FREE ENERGY PREDICTED BY IDOCK:   -4.01 KCAL/MOL
REMARK 922        TOTAL FREE ENERGY PREDICTED BY IDOCK:  -10.93 KCAL/MOL
REMARK 923 INTER-LIGAND FREE ENERGY PREDICTED BY IDOCK:   -9.54 KCAL/MOL
REMARK 924 INTRA-LIGAND FREE ENERGY PREDICTED BY IDOCK:   -1.40 KCAL/MOL
REMARK 927      BINDING AFFINITY PREDICTED BY RF-SCORE:    0.00 PKD
ROOT
HETATM    1  C   UNL     1      -6.136  20.404  66.262  1.00  0.00    -0.225 C  
HETATM    2  C   UNL     1      -7.361  20.486  67.155  1.00  0.00    -0.374 C  
ENDROOT
BRANCH   2   3
HETATM    3  C   UNL     1      -8.600  19.955  66.441  1.00  0.00    -0.386 C  
BRANCH   3   4
HETATM    4  C   UNL     1      -9.864  20.335  67.203  1.00  0.00    -0.606 C  
BRANCH   4   5
HETATM    5  C   UNL     1     -10.862  19.187  67.208  1.00  0.00    -0.529 C  
BRANCH   5   6
HETATM    6  C   UNL     1     -10.482  18.147  68.257  1.00  0.00    -0.333 C  
BRANCH   6   7
HETATM    7  C   UNL     1     -10.609  16.751  67.671  1.00  0.00    -0.325 C  
BRANCH   7   8
HETATM    8  C   UNL     1      -9.679  16.554  66.478  1.00  0.00    -0.290 C  
BRANCH   8   9
HETATM    9  C   UNL     1     -10.398  15.692  65.450  1.00  0.00    -0.421 C  
BRANCH   9  10
HETATM   10  C   UNL     1     -10.123  14.208  65.655  1.00  0.00    -0.328 C  
BRANCH  10  11
HETATM   11  N   UNL     1     -11.180  13.306  64.967  1.00  0.00    -0.298 N  
HETATM   12  C   UNL     1     -12.257  14.163  64.301  1.00  0.00    -0.420 C  
HETATM   13  C   UNL     1     -10.511  12.412  63.920  1.00  0.00    -0.439 C  
BRANCH  11  14
HETATM   14  C   UNL     1     -11.802  12.440  66.093  1.00  0.00    -0.376 C  
BRANCH  14  15
HETATM   15  C   UNL     1     -10.969  12.451  67.367  1.00  0.00    -0.296 C  
BRANCH  15  16
HETATM   16  C   UNL     1     -11.334  11.305  68.299  1.00  0.00    -0.359 C  
BRANCH  16  17
HETATM   17  C   UNL     1     -11.784  11.894  69.631  1.00  0.00    -0.413 C  
BRANCH  17  18
HETATM   18  C   UNL     1     -12.350  10.828  70.553  1.00  0.00    -0.458 C  
BRANCH  18  19
HETATM   19  C   UNL     1     -13.015  11.485  71.756  1.00  0.00    -0.500 C  
BRANCH  19  20
HETATM   20  C   UNL     1     -12.935  13.004  71.648  1.00  0.00    -0.417 C  
BRANCH  20  21
HETATM   21  C   UNL     1     -14.063  13.668  72.433  1.00  0.00    -0.586 C  
BRANCH  21  22
HETATM   22  C   UNL     1     -13.881  15.181  72.459  1.00  0.00    -0.602 C  
HETATM   23  C   UNL     1     -13.029  15.654  71.295  1.00  0.00    -0.556 C  
ENDBRANCH  21  22
ENDBRANCH  20  21
ENDBRANCH  19  20
ENDBRANCH  18  19
ENDBRANCH  17  18
ENDBRANCH  16  17
ENDBRANCH  15  16
ENDBRANCH  14  15
ENDBRANCH  11  14
ENDBRANCH  10  11
ENDBRANCH   9  10
ENDBRANCH   8   9
ENDBRANCH   7   8
ENDBRANCH   6   7
ENDBRANCH   5   6
ENDBRANCH   4   5
ENDBRANCH   3   4
ENDBRANCH   2   3
TORSDOF 18
ENDMDL
MODEL       15
REMARK 921   NORMALIZED FREE ENERGY PREDICTED BY IDOCK:   -4.01 KCAL/MOL
REMARK 922        TOTAL FREE ENERGY PREDICTED BY IDOCK:  -10.93 KCAL/MOL
REMARK 923 INTER-LIGAND FREE ENERGY PREDICTED BY IDOCK:   -8.91 KCAL/MOL
REMARK 924 INTRA-LIGAND FREE ENERGY PREDICTED BY IDOCK:   -2.02 KCAL/MOL
REMARK 927      BINDING AFFINITY PREDICTED BY RF-SCORE:    0.00 PKD
ROOT
HETATM    1  C   UNL     1      -9.028  11.512  66.311  1.00  0.00    -0.199 C  
HETATM    2  C   UNL     1     -10.390  11.036  65.840  1.00  0.00    -0.315 C  
ENDROOT
BRANCH   2   3
HETATM    3  C   UNL     1     -10.482  11.047  64.317  1.00  0.00    -0.427 C  
BRANCH   3   4
HETATM    4  C   UNL     1     -10.516  12.477  63.791  1.00  0.00    -0.451 C  
BRANCH   4   5
HETATM    5  C   UNL     1     -11.942  13.008  63.751  1.00  0.00    -0.585 C  
BRANCH   5   6
HETATM    6  C   UNL     1     -12.080  14.247  64.630  1.00  0.00    -0.478 C  
BRANCH   6   7
HETATM    7  C   UNL     1     -12.371  13.834  66.063  1.00  0.00    -0.499 C  
BRANCH   7   8
HETATM    8  C   UNL     1     -11.425  14.512  67.049  1.00  0.00    -0.383 C  
BRANCH   8   9
HETATM    9  C   UNL     1     -11.793  14.057  68.454  1.00  0.00    -0.397 C  
BRANCH   9  10
HETATM   10  C   UNL     1     -12.031  15.233  69.391  1.00  0.00    -0.315 C  
BRANCH  10  11
HETATM   11  N   UNL     1     -12.427  14.783  70.821  1.00  0.00    -0.314 N  
HETATM   12  C   UNL     1     -11.434  15.335  71.845  1.00  0.00    -0.424 C  
HETATM   13  C   UNL     1     -13.839  15.270  71.157  1.00  0.00    -0.417 C  
BRANCH  11  14
HETATM   14  C   UNL     1     -12.382  13.233  70.810  1.00  0.00    -0.344 C  
BRANCH  14  15
HETATM   15  C   UNL     1     -13.145  12.617  71.973  1.00  0.00    -0.471 C  
BRANCH  15  16
HETATM   16  C   UNL     1     -13.158  11.097  71.908  1.00  0.00    -0.513 C  
BRANCH  16  17
HETATM   17  C   UNL     1     -12.164  10.654  70.840  1.00  0.00    -0.497 C  
BRANCH  17  18
HETATM   18  C   UNL     1     -11.262   9.538  71.341  1.00  0.00    -0.452 C  
BRANCH  18  19
HETATM   19  C   UNL     1      -9.982   9.500  70.517  1.00  0.00    -0.335 C  
BRANCH  19  20
HETATM   20  C   UNL     1     -10.304   9.321  69.037  1.00  0.00    -0.228 C  
BRANCH  20  21
HETATM   21  C   UNL     1      -9.664   8.049  68.489  1.00  0.00    -0.166 C  
BRANCH  21  22
HETATM   22  C   UNL     1     -10.733   7.031  68.106  1.00  0.00    -0.242 C  
HETATM   23  C   UNL     1     -11.279   6.319  69.330  1.00  0.00    -0.458 C  
ENDBRANCH  21  22
ENDBRANCH  20  21
ENDBRANCH  19  20
ENDBRANCH  18  19
ENDBRANCH  17  18
ENDBRANCH  16  17
ENDBRANCH  15  16
ENDBRANCH  14  15
ENDBRANCH  11  14
ENDBRANCH  10  11
ENDBRANCH   9  10
ENDBRANCH   8   9
ENDBRANCH   7   8
ENDBRANCH   6   7
ENDBRANCH   5   6
ENDBRANCH   4   5
ENDBRANCH   3   4
ENDBRANCH   2   3
TORSDOF 18
ENDMDL
MODEL       16
REMARK 921   NORMALIZED FREE ENERGY PREDICTED BY IDOCK:   -4.01 KCAL/MOL
REMARK 922        TOTAL FREE ENERGY PREDICTED BY IDOCK:  -10.93 KCAL/MOL
REMARK 923 INTER-LIGAND FREE ENERGY PREDICTED BY IDOCK:   -8.37 KCAL/MOL
REMARK 924 INTRA-LIGAND FREE ENERGY PREDICTED BY IDOCK:   -2.57 KCAL/MOL
REMARK 927      BINDING AFFINITY PREDICTED BY RF-SCORE:    0.00 PKD
ROOT
HETATM    1  C   UNL     1     -10.654  19.536  65.703  1.00  0.00    -0.434 C  
HETATM    2  C   UNL     1     -10.314  19.639  67.178  1.00  0.00    -0.581 C  
ENDROOT
BRANCH   2   3
HETATM    3  C   UNL     1      -8.820  19.439  67.416  1.00  0.00    -0.349 C  
BRANCH   3   4
HETATM    4  C   UNL     1      -8.583  18.478  68.575  1.00  0.00    -0.349 C  
BRANCH   4   5
HETATM    5  C   UNL     1      -9.666  17.410  68.626  1.00  0.00    -0.308 C  
BRANCH   5   6
HETATM    6  C   UNL     1      -9.058  16.020  68.470  1.00  0.00    -0.203 C  
BRANCH   6   7
HETATM    7  C   UNL     1      -9.247  15.530  67.045  1.00  0.00    -0.242 C  
BRANCH   7   8
HETATM    8  C   UNL     1     -10.660  15.800  66.537  1.00  0.00    -0.306 C  
BRANCH   8   9
HETATM    9  C   UNL     1     -10.728  15.389  65.074  1.00  0.00    -0.460 C  
BRANCH   9  10
HETATM   10  C   UNL     1     -11.982  14.583  64.765  1.00  0.00    -0.442 C  
BRANCH  10  11
HETATM   11  N   UNL     1     -11.723  13.054  64.770  1.00  0.00    -0.329 N  
HETATM   12  C   UNL     1     -12.613  12.361  63.737  1.00  0.00    -0.437 C  
HETATM   13  C   UNL     1     -10.252  12.766  64.461  1.00  0.00    -0.308 C  
BRANCH  11  14
HETATM   14  C   UNL     1     -12.077  12.565  66.198  1.00  0.00    -0.286 C  
BRANCH  14  15
HETATM   15  C   UNL     1     -10.887  11.949  66.918  1.00  0.00    -0.305 C  
BRANCH  15  16
HETATM   16  C   UNL     1     -11.316  10.970  68.002  1.00  0.00    -0.374 C  
BRANCH  16  17
HETATM   17  C   UNL     1     -10.831  11.501  69.347  1.00  0.00    -0.180 C  
BRANCH  17  18
HETATM   18  C   UNL     1     -11.954  11.551  70.368  1.00  0.00    -0.459 C  
BRANCH  18  19
HETATM   19  C   UNL     1     -12.625  12.917  70.330  1.00  0.00    -0.145 C  
BRANCH  19  20
HETATM   20  C   UNL     1     -11.596  14.011  70.065  1.00  0.00    -0.302 C  
BRANCH  20  21
HETATM   21  C   UNL     1     -12.257  15.386  70.031  1.00  0.00    -0.392 C  
BRANCH  21  22
HETATM   22  C   UNL     1     -13.040  15.638  71.314  1.00  0.00    -0.542 C  
HETATM   23  C   UNL     1     -12.134  16.142  72.423  1.00  0.00    -0.630 C  
ENDBRANCH  21  22
ENDBRANCH  20  21
ENDBRANCH  19  20
ENDBRANCH  18  19
ENDBRANCH  17  18
ENDBRANCH  16  17
ENDBRANCH  15  16
ENDBRANCH  14  15
ENDBRANCH  11  14
ENDBRANCH  10  11
ENDBRANCH   9  10
ENDBRANCH   8   9
ENDBRANCH   7   8
ENDBRANCH   6   7
ENDBRANCH   5   6
ENDBRANCH   4   5
ENDBRANCH   3   4
ENDBRANCH   2   3
TORSDOF 18
ENDMDL
MODEL       17
REMARK 921   NORMALIZED FREE ENERGY PREDICTED BY IDOCK:   -4.01 KCAL/MOL
REMARK 922        TOTAL FREE ENERGY PREDICTED BY IDOCK:  -10.93 KCAL/MOL
REMARK 923 INTER-LIGAND FREE ENERGY PREDICTED BY IDOCK:   -8.45 KCAL/MOL
REMARK 924 INTRA-LIGAND FREE ENERGY PREDICTED BY IDOCK:   -2.48 KCAL/MOL
REMARK 927      BINDING AFFINITY PREDICTED BY RF-SCORE:    0.00 PKD
ROOT
HETATM    1  C   UNL     1      -9.468  10.322  63.598  1.00  0.00    -0.348 C  
HETATM    2  C   UNL     1     -10.574  11.125  64.257  1.00  0.00    -0.425 C  
ENDROOT
BRANCH   2   3
HETATM    3  C   UNL     1     -10.541  12.582  63.807  1.00  0.00    -0.471 C  
BRANCH   3   4
HETATM    4  C   UNL     1     -11.804  13.311  64.252  1.00  0.00    -0.469 C  
BRANCH   4   5
HETATM    5  C   UNL     1     -12.143  12.978  65.697  1.00  0.00    -0.507 C  
BRANCH   5   6
HETATM    6  C   UNL     1     -11.296  13.810  66.655  1.00  0.00    -0.340 C  
BRANCH   6   7
HETATM    7  C   UNL     1     -12.126  14.212  67.862  1.00  0.00    -0.309 C  
BRANCH   7   8
HETATM    8  C   UNL     1     -11.352  15.136  68.796  1.00  0.00    -0.313 C  
BRANCH   8   9
HETATM    9  C   UNL     1     -12.201  15.384  70.035  1.00  0.00    -0.392 C  
BRANCH   9  10
HETATM   10  C   UNL     1     -11.966  14.330  71.108  1.00  0.00    -0.282 C  
BRANCH  10  11
HETATM   11  N   UNL     1     -13.126  14.257  72.135  1.00  0.00    -0.355 N  
HETATM   12  C   UNL     1     -12.706  14.899  73.458  1.00  0.00    -0.499 C  
HETATM   13  C   UNL     1     -14.364  14.970  71.585  1.00  0.00    -0.584 C  
BRANCH  11  14
HETATM   14  C   UNL     1     -13.422  12.749  72.339  1.00  0.00    -0.409 C  
BRANCH  14  15
HETATM   15  C   UNL     1     -13.014  11.905  71.141  1.00  0.00    -0.266 C  
BRANCH  15  16
HETATM   16  C   UNL     1     -12.483  10.540  71.556  1.00  0.00    -0.493 C  
BRANCH  16  17
HETATM   17  C   UNL     1     -11.440  10.100  70.533  1.00  0.00    -0.417 C  
BRANCH  17  18
HETATM   18  C   UNL     1     -11.408  11.028  69.330  1.00  0.00    -0.352 C  
BRANCH  18  19
HETATM   19  C   UNL     1     -11.041  10.239  68.081  1.00  0.00    -0.324 C  
BRANCH  19  20
HETATM   20  C   UNL     1      -9.548  10.356  67.794  1.00  0.00    -0.169 C  
BRANCH  20  21
HETATM   21  C   UNL     1      -9.032   9.118  67.066  1.00  0.00    -0.139 C  
BRANCH  21  22
HETATM   22  C   UNL     1     -10.183   8.180  66.719  1.00  0.00    -0.372 C  
HETATM   23  C   UNL     1      -9.781   6.727  66.890  1.00  0.00    -0.215 C  
ENDBRANCH  21  22
ENDBRANCH  20  21
ENDBRANCH  19  20
ENDBRANCH  18  19
ENDBRANCH  17  18
ENDBRANCH  16  17
ENDBRANCH  15  16
ENDBRANCH  14  15
ENDBRANCH  11  14
ENDBRANCH  10  11
ENDBRANCH   9  10
ENDBRANCH   8   9
ENDBRANCH   7   8
ENDBRANCH   6   7
ENDBRANCH   5   6
ENDBRANCH   4   5
ENDBRANCH   3   4
ENDBRANCH   2   3
TORSDOF 18
ENDMDL
MODEL       18
REMARK 921   NORMALIZED FREE ENERGY PREDICTED BY IDOCK:   -3.99 KCAL/MOL
REMARK 922        TOTAL FREE ENERGY PREDICTED BY IDOCK:  -10.89 KCAL/MOL
REMARK 923 INTER-LIGAND FREE ENERGY PREDICTED BY IDOCK:   -8.74 KCAL/MOL
REMARK 924 INTRA-LIGAND FREE ENERGY PREDICTED BY IDOCK:   -2.15 KCAL/MOL
REMARK 927      BINDING AFFINITY PREDICTED BY RF-SCORE:    0.00 PKD
ROOT
HETATM    1  C   UNL     1     -10.432  18.948  66.549  1.00  0.00    -0.500 C  
HETATM    2  C   UNL     1     -10.200  17.464  66.334  1.00  0.00    -0.339 C  
ENDROOT
BRANCH   2   3
HETATM    3  C   UNL     1     -10.688  16.651  67.529  1.00  0.00    -0.278 C  
BRANCH   3   4
HETATM    4  C   UNL     1     -10.544  15.158  67.258  1.00  0.00    -0.286 C  
BRANCH   4   5
HETATM    5  C   UNL     1     -11.868  14.437  67.469  1.00  0.00    -0.418 C  
BRANCH   5   6
HETATM    6  C   UNL     1     -12.360  13.821  66.164  1.00  0.00    -0.496 C  
BRANCH   6   7
HETATM    7  C   UNL     1     -11.314  14.007  65.078  1.00  0.00    -0.342 C  
BRANCH   7   8
HETATM    8  C   UNL     1     -11.283  12.824  64.115  1.00  0.00    -0.435 C  
BRANCH   8   9
HETATM    9  C   UNL     1     -10.942  11.571  64.909  1.00  0.00    -0.319 C  
BRANCH   9  10
HETATM   10  C   UNL     1      -9.529  11.619  65.473  1.00  0.00    -0.195 C  
BRANCH  10  11
HETATM   11  N   UNL     1      -9.341  10.675  66.689  1.00  0.00    -0.163 N  
HETATM   12  C   UNL     1     -10.103   9.368  66.468  1.00  0.00    -0.262 C  
HETATM   13  C   UNL     1      -7.855  10.377  66.902  1.00  0.00    -0.114 C  
BRANCH  11  14
HETATM   14  C   UNL     1      -9.917  11.433  67.912  1.00  0.00    -0.177 C  
BRANCH  14  15
HETATM   15  C   UNL     1     -11.079  10.698  68.562  1.00  0.00    -0.318 C  
BRANCH  15  16
HETATM   16  C   UNL     1     -11.762  11.538  69.632  1.00  0.00    -0.419 C  
BRANCH  16  17
HETATM   17  C   UNL     1     -12.487  10.598  70.590  1.00  0.00    -0.462 C  
BRANCH  17  18
HETATM   18  C   UNL     1     -13.077  11.348  71.772  1.00  0.00    -0.523 C  
BRANCH  18  19
HETATM   19  C   UNL     1     -12.934  12.849  71.554  1.00  0.00    -0.388 C  
BRANCH  19  20
HETATM   20  C   UNL     1     -14.076  13.600  72.230  1.00  0.00    -0.602 C  
BRANCH  20  21
HETATM   21  C   UNL     1     -13.949  15.103  72.006  1.00  0.00    -0.629 C  
BRANCH  21  22
HETATM   22  C   UNL     1     -12.904  15.402  70.938  1.00  0.00    -0.536 C  
HETATM   23  C   UNL     1     -11.749  16.206  71.506  1.00  0.00    -0.533 C  
ENDBRANCH  21  22
ENDBRANCH  20  21
ENDBRANCH  19  20
ENDBRANCH  18  19
ENDBRANCH  17  18
ENDBRANCH  16  17
ENDBRANCH  15  16
ENDBRANCH  14  15
ENDBRANCH  11  14
ENDBRANCH  10  11
ENDBRANCH   9  10
ENDBRANCH   8   9
ENDBRANCH   7   8
ENDBRANCH   6   7
ENDBRANCH   5   6
ENDBRANCH   4   5
ENDBRANCH   3   4
ENDBRANCH   2   3
TORSDOF 18
ENDMDL
MODEL       19
REMARK 921   NORMALIZED FREE ENERGY PREDICTED BY IDOCK:   -3.99 KCAL/MOL
REMARK 922        TOTAL FREE ENERGY PREDICTED BY IDOCK:  -10.88 KCAL/MOL
REMARK 923 INTER-LIGAND FREE ENERGY PREDICTED BY IDOCK:   -9.15 KCAL/MOL
REMARK 924 INTRA-LIGAND FREE ENERGY PREDICTED BY IDOCK:   -1.73 KCAL/MOL
REMARK 927      BINDING AFFINITY PREDICTED BY RF-SCORE:    0.00 PKD
ROOT
HETATM    1  C   UNL     1     -12.090  14.130  66.671  1.00  0.00    -0.480 C  
HETATM    2  C   UNL     1     -10.724  13.507  66.450  1.00  0.00    -0.287 C  
ENDROOT
BRANCH   2   3
HETATM    3  C   UNL     1     -10.810  12.308  65.511  1.00  0.00    -0.319 C  
BRANCH   3   4
HETATM    4  C   UNL     1     -10.507  11.016  66.261  1.00  0.00    -0.310 C  
BRANCH   4   5
HETATM    5  C   UNL     1      -9.862   9.991  65.340  1.00  0.00    -0.384 C  
BRANCH   5   6
HETATM    6  C   UNL     1      -9.510   8.722  66.109  1.00  0.00    -0.315 C  
BRANCH   6   7
HETATM    7  C   UNL     1     -10.557   8.457  67.177  1.00  0.00    -0.326 C  
BRANCH   7   8
HETATM    8  C   UNL     1     -10.669   6.971  67.502  1.00  0.00    -0.352 C  
BRANCH   8   9
HETATM    9  C   UNL     1     -10.222   6.761  68.941  1.00  0.00    -0.186 C  
BRANCH   9  10
HETATM   10  C   UNL     1     -11.381   6.376  69.850  1.00  0.00    -0.434 C  
BRANCH  10  11
HETATM   11  N   UNL     1     -11.329   7.101  71.220  1.00  0.00    -0.259 N  
HETATM   12  C   UNL     1     -12.743   7.431  71.699  1.00  0.00    -0.365 C  
HETATM   13  C   UNL     1     -10.625   6.222  72.257  1.00  0.00    -0.213 C  
BRANCH  11  14
HETATM   14  C   UNL     1     -10.523   8.404  70.984  1.00  0.00    -0.206 C  
BRANCH  14  15
HETATM   15  C   UNL     1     -11.352   9.657  71.227  1.00  0.00    -0.458 C  
BRANCH  15  16
HETATM   16  C   UNL     1     -11.335  10.596  70.030  1.00  0.00    -0.400 C  
BRANCH  16  17
HETATM   17  C   UNL     1     -12.211  11.802  70.354  1.00  0.00    -0.416 C  
BRANCH  17  18
HETATM   18  C   UNL     1     -12.955  11.618  71.666  1.00  0.00    -0.483 C  
BRANCH  18  19
HETATM   19  C   UNL     1     -13.400  12.973  72.201  1.00  0.00    -0.622 C  
BRANCH  19  20
HETATM   20  C   UNL     1     -12.993  14.087  71.242  1.00  0.00    -0.418 C  
BRANCH  20  21
HETATM   21  C   UNL     1     -13.104  15.452  71.913  1.00  0.00    -0.515 C  
BRANCH  21  22
HETATM   22  C   UNL     1     -11.912  15.700  72.830  1.00  0.00    -0.590 C  
HETATM   23  C   UNL     1     -12.332  15.715  74.288  1.00  0.00    -0.813 C  
ENDBRANCH  21  22
ENDBRANCH  20  21
ENDBRANCH  19  20
ENDBRANCH  18  19
ENDBRANCH  17  18
ENDBRANCH  16  17
ENDBRANCH  15  16
ENDBRANCH  14  15
ENDBRANCH  11  14
ENDBRANCH  10  11
ENDBRANCH   9  10
ENDBRANCH   8   9
ENDBRANCH   7   8
ENDBRANCH   6   7
ENDBRANCH   5   6
ENDBRANCH   4   5
ENDBRANCH   3   4
ENDBRANCH   2   3
TORSDOF 18
ENDMDL
MODEL       20
REMARK 921   NORMALIZED FREE ENERGY PREDICTED BY IDOCK:   -3.97 KCAL/MOL
REMARK 922        TOTAL FREE ENERGY PREDICTED BY IDOCK:  -10.85 KCAL/MOL
REMARK 923 INTER-LIGAND FREE ENERGY PREDICTED BY IDOCK:   -8.91 KCAL/MOL
REMARK 924 INTRA-LIGAND FREE ENERGY PREDICTED BY IDOCK:   -1.94 KCAL/MOL
REMARK 927      BINDING AFFINITY PREDICTED BY RF-SCORE:    0.00 PKD
ROOT
HETATM    1  C   UNL     1     -12.424  15.760  74.191  1.00  0.00    -0.793 C  
HETATM    2  C   UNL     1     -12.250  15.936  72.694  1.00  0.00    -0.603 C  
ENDROOT
BRANCH   2   3
HETATM    3  C   UNL     1     -13.416  15.319  71.927  1.00  0.00    -0.547 C  
BRANCH   3   4
HETATM    4  C   UNL     1     -13.039  13.941  71.394  1.00  0.00    -0.413 C  
BRANCH   4   5
HETATM    5  C   UNL     1     -13.602  12.842  72.284  1.00  0.00    -0.611 C  
BRANCH   5   6
HETATM    6  C   UNL     1     -13.138  11.471  71.804  1.00  0.00    -0.503 C  
BRANCH   6   7
HETATM    7  C   UNL     1     -12.182  11.628  70.634  1.00  0.00    -0.461 C  
BRANCH   7   8
HETATM    8  C   UNL     1     -11.399  10.346  70.368  1.00  0.00    -0.417 C  
BRANCH   8   9
HETATM    9  C   UNL     1     -11.774   9.328  71.435  1.00  0.00    -0.431 C  
BRANCH   9  10
HETATM   10  C   UNL     1     -10.572   8.515  71.896  1.00  0.00    -0.322 C  
BRANCH  10  11
HETATM   11  N   UNL     1     -10.793   6.987  71.746  1.00  0.00    -0.221 N  
HETATM   12  C   UNL     1     -10.009   6.229  72.817  1.00  0.00    -0.172 C  
HETATM   13  C   UNL     1     -12.283   6.655  71.864  1.00  0.00    -0.335 C  
BRANCH  11  14
HETATM   14  C   UNL     1     -10.271   6.616  70.334  1.00  0.00    -0.188 C  
BRANCH  14  15
HETATM   15  C   UNL     1     -11.395   6.273  69.366  1.00  0.00    -0.448 C  
BRANCH  15  16
HETATM   16  C   UNL     1     -11.006   6.542  67.919  1.00  0.00    -0.382 C  
BRANCH  16  17
HETATM   17  C   UNL     1      -9.981   7.671  67.899  1.00  0.00    -0.208 C  
BRANCH  17  18
HETATM   18  C   UNL     1     -10.581   8.963  67.370  1.00  0.00    -0.305 C  
BRANCH  18  19
HETATM   19  C   UNL     1      -9.469   9.906  66.931  1.00  0.00    -0.202 C  
BRANCH  19  20
HETATM   20  C   UNL     1      -9.911  11.358  67.076  1.00  0.00    -0.227 C  
BRANCH  20  21
HETATM   21  C   UNL     1     -11.364  11.533  66.647  1.00  0.00    -0.285 C  
BRANCH  21  22
HETATM   22  C   UNL     1     -11.984  12.748  67.329  1.00  0.00    -0.345 C  
HETATM   23  C   UNL     1     -12.053  13.934  66.385  1.00  0.00    -0.489 C  
ENDBRANCH  21  22
ENDBRANCH  20  21
ENDBRANCH  19  20
ENDBRANCH  18  19
ENDBRANCH  17  18
ENDBRANCH  16  17
ENDBRANCH  15  16
ENDBRANCH  14  15
ENDBRANCH  11  14
ENDBRANCH  10  11
ENDBRANCH   9  10
ENDBRANCH   8   9
ENDBRANCH   7   8
ENDBRANCH   6   7
ENDBRANCH   5   6
ENDBRANCH   4   5
ENDBRANCH   3   4
ENDBRANCH   2   3
TORSDOF 18
ENDMDL
MODEL       21
REMARK 921   NORMALIZED FREE ENERGY PREDICTED BY IDOCK:   -3.97 KCAL/MOL
REMARK 922        TOTAL FREE ENERGY PREDICTED BY IDOCK:  -10.84 KCAL/MOL
REMARK 923 INTER-LIGAND FREE ENERGY PREDICTED BY IDOCK:   -8.97 KCAL/MOL
REMARK 924 INTRA-LIGAND FREE ENERGY PREDICTED BY IDOCK:   -1.87 KCAL/MOL
REMARK 927      BINDING AFFINITY PREDICTED BY RF-SCORE:    0.00 PKD
ROOT
HETATM    1  C   UNL     1      -7.815  20.510  67.209  1.00  0.00    -0.367 C  
HETATM    2  C   UNL     1      -8.603  19.869  66.081  1.00  0.00    -0.348 C  
ENDROOT
BRANCH   2   3
HETATM    3  C   UNL     1     -10.103  19.930  66.352  1.00  0.00    -0.615 C  
BRANCH   3   4
HETATM    4  C   UNL     1     -10.413  19.460  67.769  1.00  0.00    -0.556 C  
BRANCH   4   5
HETATM    5  C   UNL     1     -10.641  17.956  67.804  1.00  0.00    -0.399 C  
BRANCH   5   6
HETATM    6  C   UNL     1      -9.493  17.255  68.522  1.00  0.00    -0.285 C  
BRANCH   6   7
HETATM    7  C   UNL     1      -9.076  16.018  67.745  1.00  0.00    -0.196 C  
BRANCH   7   8
HETATM    8  C   UNL     1      -9.154  16.244  66.239  1.00  0.00    -0.366 C  
BRANCH   8   9
HETATM    9  C   UNL     1      -9.844  15.042  65.610  1.00  0.00    -0.380 C  
BRANCH   9  10
HETATM   10  C   UNL     1     -11.091  14.631  66.381  1.00  0.00    -0.334 C  
BRANCH  10  11
HETATM   11  N   UNL     1     -11.316  13.097  66.375  1.00  0.00    -0.305 N  
HETATM   12  C   UNL     1     -12.399  12.722  65.363  1.00  0.00    -0.470 C  
HETATM   13  C   UNL     1     -10.012  12.373  66.029  1.00  0.00    -0.255 C  
BRANCH  11  14
HETATM   14  C   UNL     1     -11.770  12.726  67.811  1.00  0.00    -0.359 C  
BRANCH  14  15
HETATM   15  C   UNL     1     -11.922  13.944  68.709  1.00  0.00    -0.393 C  
BRANCH  15  16
HETATM   16  C   UNL     1     -12.067  13.560  70.175  1.00  0.00    -0.425 C  
BRANCH  16  17
HETATM   17  C   UNL     1     -12.217  12.044  70.261  1.00  0.00    -0.348 C  
BRANCH  17  18
HETATM   18  C   UNL     1     -12.990  11.627  71.500  1.00  0.00    -0.463 C  
BRANCH  18  19
HETATM   19  C   UNL     1     -13.042  10.108  71.589  1.00  0.00    -0.550 C  
BRANCH  19  20
HETATM   20  C   UNL     1     -11.719   9.500  71.137  1.00  0.00    -0.438 C  
BRANCH  20  21
HETATM   21  C   UNL     1     -11.207   8.486  72.157  1.00  0.00    -0.432 C  
BRANCH  21  22
HETATM   22  C   UNL     1      -9.684   8.502  72.213  1.00  0.00    -0.380 C  
HETATM   23  C   UNL     1      -9.090   8.999  70.907  1.00  0.00    -0.309 C  
ENDBRANCH  21  22
ENDBRANCH  20  21
ENDBRANCH  19  20
ENDBRANCH  18  19
ENDBRANCH  17  18
ENDBRANCH  16  17
ENDBRANCH  15  16
ENDBRANCH  14  15
ENDBRANCH  11  14
ENDBRANCH  10  11
ENDBRANCH   9  10
ENDBRANCH   8   9
ENDBRANCH   7   8
ENDBRANCH   6   7
ENDBRANCH   5   6
ENDBRANCH   4   5
ENDBRANCH   3   4
ENDBRANCH   2   3
TORSDOF 18
ENDMDL
MODEL       22
REMARK 921   NORMALIZED FREE ENERGY PREDICTED BY IDOCK:   -3.96 KCAL/MOL
REMARK 922        TOTAL FREE ENERGY PREDICTED BY IDOCK:  -10.83 KCAL/MOL
REMARK 923 INTER-LIGAND FREE ENERGY PREDICTED BY IDOCK:   -8.81 KCAL/MOL
REMARK 924 INTRA-LIGAND FREE ENERGY PREDICTED BY IDOCK:   -2.02 KCAL/MOL
REMARK 927      BINDING AFFINITY PREDICTED BY RF-SCORE:    0.00 PKD
ROOT
HETATM    1  C   UNL     1     -10.199  10.037  69.846  1.00  0.00    -0.304 C  
HETATM    2  C   UNL     1     -11.635  10.492  70.025  1.00  0.00    -0.392 C  
ENDROOT
BRANCH   2   3
HETATM    3  C   UNL     1     -12.211   9.993  71.347  1.00  0.00    -0.510 C  
BRANCH   3   4
HETATM    4  C   UNL     1     -13.261  10.964  71.877  1.00  0.00    -0.508 C  
BRANCH   4   5
HETATM    5  C   UNL     1     -12.934  12.393  71.469  1.00  0.00    -0.385 C  
BRANCH   5   6
HETATM    6  C   UNL     1     -13.654  13.388  72.373  1.00  0.00    -0.708 C  
BRANCH   6   7
HETATM    7  C   UNL     1     -13.616  14.773  71.750  1.00  0.00    -0.485 C  
BRANCH   7   8
HETATM    8  C   UNL     1     -12.506  15.631  72.347  1.00  0.00    -0.513 C  
BRANCH   8   9
HETATM    9  C   UNL     1     -11.446  15.853  71.278  1.00  0.00    -0.489 C  
BRANCH   9  10
HETATM   10  C   UNL     1     -12.016  15.718  69.872  1.00  0.00    -0.332 C  
BRANCH  10  11
HETATM   11  N   UNL     1     -10.926  15.834  68.775  1.00  0.00    -0.272 N  
HETATM   12  C   UNL     1     -10.757  17.292  68.346  1.00  0.00    -0.332 C  
HETATM   13  C   UNL     1      -9.592  15.291  69.294  1.00  0.00    -0.249 C  
BRANCH  11  14
HETATM   14  C   UNL     1     -11.427  14.978  67.583  1.00  0.00    -0.333 C  
BRANCH  14  15
HETATM   15  C   UNL     1     -11.802  13.562  67.997  1.00  0.00    -0.400 C  
BRANCH  15  16
HETATM   16  C   UNL     1     -11.891  12.622  66.803  1.00  0.00    -0.440 C  
BRANCH  16  17
HETATM   17  C   UNL     1     -10.545  12.628  66.086  1.00  0.00    -0.280 C  
BRANCH  17  18
HETATM   18  C   UNL     1      -9.758  11.358  66.360  1.00  0.00    -0.231 C  
BRANCH  18  19
HETATM   19  C   UNL     1      -9.576  10.574  65.067  1.00  0.00    -0.331 C  
BRANCH  19  20
HETATM   20  C   UNL     1      -9.257   9.114  65.367  1.00  0.00    -0.266 C  
BRANCH  20  21
HETATM   21  C   UNL     1     -10.108   8.594  66.521  1.00  0.00    -0.339 C  
BRANCH  21  22
HETATM   22  C   UNL     1      -9.891   7.097  66.717  1.00  0.00    -0.272 C  
HETATM   23  C   UNL     1     -11.009   6.482  67.539  1.00  0.00    -0.444 C  
ENDBRANCH  21  22
ENDBRANCH  20  21
ENDBRANCH  19  20
ENDBRANCH  18  19
ENDBRANCH  17  18
ENDBRANCH  16  17
ENDBRANCH  15  16
ENDBRANCH  14  15
ENDBRANCH  11  14
ENDBRANCH  10  11
ENDBRANCH   9  10
ENDBRANCH   8   9
ENDBRANCH   7   8
ENDBRANCH   6   7
ENDBRANCH   5   6
ENDBRANCH   4   5
ENDBRANCH   3   4
ENDBRANCH   2   3
TORSDOF 18
ENDMDL
MODEL       23
REMARK 921   NORMALIZED FREE ENERGY PREDICTED BY IDOCK:   -3.95 KCAL/MOL
REMARK 922        TOTAL FREE ENERGY PREDICTED BY IDOCK:  -10.82 KCAL/MOL
REMARK 923 INTER-LIGAND FREE ENERGY PREDICTED BY IDOCK:   -8.68 KCAL/MOL
REMARK 924 INTRA-LIGAND FREE ENERGY PREDICTED BY IDOCK:   -2.14 KCAL/MOL
REMARK 927      BINDING AFFINITY PREDICTED BY RF-SCORE:    0.00 PKD
ROOT
HETATM    1  C   UNL     1     -11.863   6.766  70.718  1.00  0.00    -0.446 C  
HETATM    2  C   UNL     1     -11.126   7.476  71.839  1.00  0.00    -0.277 C  
ENDROOT
BRANCH   2   3
HETATM    3  C   UNL     1     -11.172   8.990  71.656  1.00  0.00    -0.431 C  
BRANCH   3   4
HETATM    4  C   UNL     1     -12.595   9.510  71.832  1.00  0.00    -0.479 C  
BRANCH   4   5
HETATM    5  C   UNL     1     -12.780  10.839  71.114  1.00  0.00    -0.532 C  
BRANCH   5   6
HETATM    6  C   UNL     1     -11.854  10.932  69.905  1.00  0.00    -0.427 C  
BRANCH   6   7
HETATM    7  C   UNL     1     -11.806  12.363  69.399  1.00  0.00    -0.365 C  
BRANCH   7   8
HETATM    8  C   UNL     1     -12.315  13.349  70.446  1.00  0.00    -0.382 C  
BRANCH   8   9
HETATM    9  C   UNL     1     -12.208  14.754  69.871  1.00  0.00    -0.358 C  
BRANCH   9  10
HETATM   10  C   UNL     1     -10.765  15.145  69.583  1.00  0.00    -0.278 C  
BRANCH  10  11
HETATM   11  N   UNL     1     -10.581  15.732  68.159  1.00  0.00    -0.266 N  
HETATM   12  C   UNL     1     -10.610  17.260  68.207  1.00  0.00    -0.383 C  
HETATM   13  C   UNL     1      -9.255  15.259  67.560  1.00  0.00    -0.199 C  
BRANCH  11  14
HETATM   14  C   UNL     1     -11.770  15.199  67.319  1.00  0.00    -0.157 C  
BRANCH  14  15
HETATM   15  C   UNL     1     -11.326  14.265  66.203  1.00  0.00    -0.342 C  
BRANCH  15  16
HETATM   16  C   UNL     1     -12.506  13.707  65.420  1.00  0.00    -0.537 C  
BRANCH  16  17
HETATM   17  C   UNL     1     -12.049  13.441  63.989  1.00  0.00    -0.506 C  
BRANCH  17  18
HETATM   18  C   UNL     1     -11.866  11.955  63.727  1.00  0.00    -0.558 C  
BRANCH  18  19
HETATM   19  C   UNL     1     -10.382  11.630  63.619  1.00  0.00    -0.466 C  
BRANCH  19  20
HETATM   20  C   UNL     1     -10.033  10.428  64.490  1.00  0.00    -0.401 C  
BRANCH  20  21
HETATM   21  C   UNL     1     -10.408  10.682  65.947  1.00  0.00    -0.291 C  
BRANCH  21  22
HETATM   22  C   UNL     1      -9.612   9.770  66.874  1.00  0.00    -0.228 C  
HETATM   23  C   UNL     1     -10.434   8.568  67.302  1.00  0.00    -0.366 C  
ENDBRANCH  21  22
ENDBRANCH  20  21
ENDBRANCH  19  20
ENDBRANCH  18  19
ENDBRANCH  17  18
ENDBRANCH  16  17
ENDBRANCH  15  16
ENDBRANCH  14  15
ENDBRANCH  11  14
ENDBRANCH  10  11
ENDBRANCH   9  10
ENDBRANCH   8   9
ENDBRANCH   7   8
ENDBRANCH   6   7
ENDBRANCH   5   6
ENDBRANCH   4   5
ENDBRANCH   3   4
ENDBRANCH   2   3
TORSDOF 18
ENDMDL
MODEL       24
REMARK 921   NORMALIZED FREE ENERGY PREDICTED BY IDOCK:   -3.95 KCAL/MOL
REMARK 922        TOTAL FREE ENERGY PREDICTED BY IDOCK:  -10.81 KCAL/MOL
REMARK 923 INTER-LIGAND FREE ENERGY PREDICTED BY IDOCK:   -8.74 KCAL/MOL
REMARK 924 INTRA-LIGAND FREE ENERGY PREDICTED BY IDOCK:   -2.06 KCAL/MOL
REMARK 927      BINDING AFFINITY PREDICTED BY RF-SCORE:    0.00 PKD
ROOT
HETATM    1  C   UNL     1      -9.803  11.720  68.517  1.00  0.00    -0.192 C  
HETATM    2  C   UNL     1     -10.200  11.042  67.218  1.00  0.00    -0.234 C  
ENDROOT
BRANCH   2   3
HETATM    3  C   UNL     1      -9.064  11.093  66.201  1.00  0.00    -0.214 C  
BRANCH   3   4
HETATM    4  C   UNL     1      -9.447  10.341  64.931  1.00  0.00    -0.337 C  
BRANCH   4   5
HETATM    5  C   UNL     1     -10.738  10.890  64.342  1.00  0.00    -0.250 C  
BRANCH   5   6
HETATM    6  C   UNL     1     -10.465  12.152  63.529  1.00  0.00    -0.490 C  
BRANCH   6   7
HETATM    7  C   UNL     1     -11.590  13.152  63.733  1.00  0.00    -0.481 C  
BRANCH   7   8
HETATM    8  C   UNL     1     -12.481  12.767  64.910  1.00  0.00    -0.563 C  
BRANCH   8   9
HETATM    9  C   UNL     1     -12.393  13.869  65.956  1.00  0.00    -0.511 C  
BRANCH   9  10
HETATM   10  C   UNL     1     -11.459  14.992  65.526  1.00  0.00    -0.265 C  
BRANCH  10  11
HETATM   11  N   UNL     1     -10.552  15.487  66.682  1.00  0.00    -0.304 N  
HETATM   12  C   UNL     1      -9.210  14.753  66.656  1.00  0.00    -0.275 C  
HETATM   13  C   UNL     1     -10.318  16.995  66.562  1.00  0.00    -0.298 C  
BRANCH  11  14
HETATM   14  C   UNL     1     -11.315  15.165  67.993  1.00  0.00    -0.337 C  
BRANCH  14  15
HETATM   15  C   UNL     1     -11.031  16.172  69.098  1.00  0.00    -0.309 C  
BRANCH  15  16
HETATM   16  C   UNL     1     -11.308  15.598  70.480  1.00  0.00    -0.386 C  
BRANCH  16  17
HETATM   17  C   UNL     1     -12.643  14.863  70.436  1.00  0.00    -0.394 C  
BRANCH  17  18
HETATM   18  C   UNL     1     -13.329  14.864  71.792  1.00  0.00    -0.453 C  
BRANCH  18  19
HETATM   19  C   UNL     1     -13.677  13.438  72.195  1.00  0.00    -0.646 C  
BRANCH  19  20
HETATM   20  C   UNL     1     -12.798  12.441  71.448  1.00  0.00    -0.360 C  
BRANCH  20  21
HETATM   21  C   UNL     1     -13.065  11.015  71.921  1.00  0.00    -0.525 C  
BRANCH  21  22
HETATM   22  C   UNL     1     -12.241  10.018  71.115  1.00  0.00    -0.477 C  
HETATM   23  C   UNL     1     -11.856   8.814  71.956  1.00  0.00    -0.442 C  
ENDBRANCH  21  22
ENDBRANCH  20  21
ENDBRANCH  19  20
ENDBRANCH  18  19
ENDBRANCH  17  18
ENDBRANCH  16  17
ENDBRANCH  15  16
ENDBRANCH  14  15
ENDBRANCH  11  14
ENDBRANCH  10  11
ENDBRANCH   9  10
ENDBRANCH   8   9
ENDBRANCH   7   8
ENDBRANCH   6   7
ENDBRANCH   5   6
ENDBRANCH   4   5
ENDBRANCH   3   4
ENDBRANCH   2   3
TORSDOF 18
ENDMDL
MODEL       25
REMARK 921   NORMALIZED FREE ENERGY PREDICTED BY IDOCK:   -3.95 KCAL/MOL
REMARK 922        TOTAL FREE ENERGY PREDICTED BY IDOCK:  -10.80 KCAL/MOL
REMARK 923 INTER-LIGAND FREE ENERGY PREDICTED BY IDOCK:   -7.74 KCAL/MOL
REMARK 924 INTRA-LIGAND FREE ENERGY PREDICTED BY IDOCK:   -3.06 KCAL/MOL
REMARK 927      BINDING AFFINITY PREDICTED BY RF-SCORE:    0.00 PKD
ROOT
HETATM    1  C   UNL     1     -14.367  14.236  71.938  1.00  0.00    -0.597 C  
HETATM    2  C   UNL     1     -13.179  14.520  72.838  1.00  0.00    -0.612 C  
ENDROOT
BRANCH   2   3
HETATM    3  C   UNL     1     -12.441  15.781  72.397  1.00  0.00    -0.540 C  
BRANCH   3   4
HETATM    4  C   UNL     1     -11.209  15.423  71.574  1.00  0.00    -0.401 C  
BRANCH   4   5
HETATM    5  C   UNL     1     -11.291  16.029  70.181  1.00  0.00    -0.369 C  
BRANCH   5   6
HETATM    6  C   UNL     1     -11.965  15.062  69.212  1.00  0.00    -0.322 C  
BRANCH   6   7
HETATM    7  C   UNL     1     -11.211  13.744  69.190  1.00  0.00    -0.307 C  
BRANCH   7   8
HETATM    8  C   UNL     1     -12.160  12.550  69.210  1.00  0.00    -0.214 C  
BRANCH   8   9
HETATM    9  C   UNL     1     -11.558  11.476  70.106  1.00  0.00    -0.336 C  
BRANCH   9  10
HETATM   10  C   UNL     1     -11.699  10.085  69.504  1.00  0.00     0.006 C  
BRANCH  10  11
HETATM   11  N   UNL     1     -10.376   9.570  68.879  1.00  0.00    -0.202 N  
HETATM   12  C   UNL     1      -9.175  10.128  69.643  1.00  0.00    -0.183 C  
HETATM   13  C   UNL     1     -10.340   8.040  68.904  1.00  0.00    -0.209 C  
BRANCH  11  14
HETATM   14  C   UNL     1     -10.367  10.083  67.415  1.00  0.00    -0.238 C  
BRANCH  14  15
HETATM   15  C   UNL     1      -9.323  11.166  67.182  1.00  0.00    -0.176 C  
BRANCH  15  16
HETATM   16  C   UNL     1      -9.452  11.796  65.802  1.00  0.00    -0.232 C  
BRANCH  16  17
HETATM   17  C   UNL     1     -10.739  11.289  65.161  1.00  0.00    -0.312 C  
BRANCH  17  18
HETATM   18  C   UNL     1     -11.325  12.309  64.199  1.00  0.00    -0.442 C  
BRANCH  18  19
HETATM   19  C   UNL     1     -12.611  12.884  64.778  1.00  0.00    -0.493 C  
BRANCH  19  20
HETATM   20  C   UNL     1     -12.311  14.102  65.644  1.00  0.00    -0.473 C  
BRANCH  20  21
HETATM   21  C   UNL     1     -11.348  15.052  64.937  1.00  0.00    -0.419 C  
BRANCH  21  22
HETATM   22  C   UNL     1     -10.176  15.404  65.846  1.00  0.00    -0.365 C  
HETATM   23  C   UNL     1     -10.305  16.816  66.389  1.00  0.00    -0.309 C  
ENDBRANCH  21  22
ENDBRANCH  20  21
ENDBRANCH  19  20
ENDBRANCH  18  19
ENDBRANCH  17  18
ENDBRANCH  16  17
ENDBRANCH  15  16
ENDBRANCH  14  15
ENDBRANCH  11  14
ENDBRANCH  10  11
ENDBRANCH   9  10
ENDBRANCH   8   9
ENDBRANCH   7   8
ENDBRANCH   6   7
ENDBRANCH   5   6
ENDBRANCH   4   5
ENDBRANCH   3   4
ENDBRANCH   2   3
TORSDOF 18
ENDMDL
MODEL       26
REMARK 921   NORMALIZED FREE ENERGY PREDICTED BY IDOCK:   -3.94 KCAL/MOL
REMARK 922        TOTAL FREE ENERGY PREDICTED BY IDOCK:  -10.78 KCAL/MOL
REMARK 923 INTER-LIGAND FREE ENERGY PREDICTED BY IDOCK:   -8.50 KCAL/MOL
REMARK 924 INTRA-LIGAND FREE ENERGY PREDICTED BY IDOCK:   -2.28 KCAL/MOL
REMARK 927      BINDING AFFINITY PREDICTED BY RF-SCORE:    0.00 PKD
ROOT
HETATM    1  C   UNL     1     -13.966  14.071  72.087  1.00  0.00    -0.633 C  
HETATM    2  C   UNL     1     -12.668  13.957  71.310  1.00  0.00    -0.444 C  
ENDROOT
BRANCH   2   3
HETATM    3  C   UNL     1     -12.407  12.516  70.880  1.00  0.00    -0.349 C  
BRANCH   3   4
HETATM    4  C   UNL     1     -13.139  11.542  71.795  1.00  0.00    -0.503 C  
BRANCH   4   5
HETATM    5  C   UNL     1     -13.193  10.152  71.176  1.00  0.00    -0.438 C  
BRANCH   5   6
HETATM    6  C   UNL     1     -13.166   9.079  72.260  1.00  0.00    -0.519 C  
BRANCH   6   7
HETATM    7  C   UNL     1     -11.909   8.237  72.122  1.00  0.00    -0.431 C  
BRANCH   7   8
HETATM    8  C   UNL     1     -11.001   8.757  71.012  1.00  0.00    -0.328 C  
BRANCH   8   9
HETATM    9  C   UNL     1     -10.759   7.625  70.024  1.00  0.00    -0.245 C  
BRANCH   9  10
HETATM   10  C   UNL     1      -9.322   7.604  69.520  1.00  0.00    -0.153 C  
BRANCH  10  11
HETATM   11  N   UNL     1      -9.226   7.815  67.987  1.00  0.00    -0.138 N  
HETATM   12  C   UNL     1      -7.905   7.256  67.456  1.00  0.00    -0.112 C  
HETATM   13  C   UNL     1     -10.398   7.126  67.284  1.00  0.00    -0.272 C  
BRANCH  11  14
HETATM   14  C   UNL     1      -9.290   9.348  67.761  1.00  0.00    -0.128 C  
BRANCH  14  15
HETATM   15  C   UNL     1     -10.528   9.773  66.986  1.00  0.00    -0.295 C  
BRANCH  15  16
HETATM   16  C   UNL     1     -11.338  10.824  67.732  1.00  0.00    -0.354 C  
BRANCH  16  17
HETATM   17  C   UNL     1     -10.684  12.183  67.507  1.00  0.00    -0.265 C  
BRANCH  17  18
HETATM   18  C   UNL     1     -11.686  13.317  67.642  1.00  0.00    -0.408 C  
BRANCH  18  19
HETATM   19  C   UNL     1     -11.542  14.275  66.467  1.00  0.00    -0.390 C  
BRANCH  19  20
HETATM   20  C   UNL     1     -12.598  13.984  65.406  1.00  0.00    -0.529 C  
BRANCH  20  21
HETATM   21  C   UNL     1     -11.948  13.606  64.078  1.00  0.00    -0.478 C  
BRANCH  21  22
HETATM   22  C   UNL     1     -12.118  12.117  63.801  1.00  0.00    -0.620 C  
HETATM   23  C   UNL     1     -10.775  11.425  63.666  1.00  0.00    -0.470 C  
ENDBRANCH  21  22
ENDBRANCH  20  21
ENDBRANCH  19  20
ENDBRANCH  18  19
ENDBRANCH  17  18
ENDBRANCH  16  17
ENDBRANCH  15  16
ENDBRANCH  14  15
ENDBRANCH  11  14
ENDBRANCH  10  11
ENDBRANCH   9  10
ENDBRANCH   8   9
ENDBRANCH   7   8
ENDBRANCH   6   7
ENDBRANCH   5   6
ENDBRANCH   4   5
ENDBRANCH   3   4
ENDBRANCH   2   3
TORSDOF 18
ENDMDL
MODEL       27
REMARK 921   NORMALIZED FREE ENERGY PREDICTED BY IDOCK:   -3.93 KCAL/MOL
REMARK 922        TOTAL FREE ENERGY PREDICTED BY IDOCK:  -10.76 KCAL/MOL
REMARK 923 INTER-LIGAND FREE ENERGY PREDICTED BY IDOCK:   -8.87 KCAL/MOL
REMARK 924 INTRA-LIGAND FREE ENERGY PREDICTED BY IDOCK:   -1.90 KCAL/MOL
REMARK 927      BINDING AFFINITY PREDICTED BY RF-SCORE:    0.00 PKD
ROOT
HETATM    1  C   UNL     1      -9.543   4.661  68.520  1.00  0.00    -0.220 C  
HETATM    2  C   UNL     1     -10.520   5.352  69.453  1.00  0.00    -0.331 C  
ENDROOT
BRANCH   2   3
HETATM    3  C   UNL     1     -10.976   6.691  68.881  1.00  0.00    -0.325 C  
BRANCH   3   4
HETATM    4  C   UNL     1     -10.948   6.662  67.357  1.00  0.00    -0.434 C  
BRANCH   4   5
HETATM    5  C   UNL     1     -10.193   7.863  66.805  1.00  0.00    -0.358 C  
BRANCH   5   6
HETATM    6  C   UNL     1     -10.634   9.144  67.504  1.00  0.00    -0.317 C  
BRANCH   6   7
HETATM    7  C   UNL     1     -10.165  10.353  66.713  1.00  0.00    -0.282 C  
BRANCH   7   8
HETATM    8  C   UNL     1      -9.805   9.983  65.277  1.00  0.00    -0.388 C  
BRANCH   8   9
HETATM    9  C   UNL     1     -10.291  11.096  64.361  1.00  0.00    -0.407 C  
BRANCH   9  10
HETATM   10  C   UNL     1     -10.166  12.467  65.011  1.00  0.00    -0.279 C  
BRANCH  10  11
HETATM   11  N   UNL     1     -11.420  13.350  64.782  1.00  0.00    -0.324 N  
HETATM   12  C   UNL     1     -11.017  14.819  64.648  1.00  0.00    -0.316 C  
HETATM   13  C   UNL     1     -12.161  12.900  63.520  1.00  0.00    -0.555 C  
BRANCH  11  14
HETATM   14  C   UNL     1     -12.317  13.151  66.031  1.00  0.00    -0.359 C  
BRANCH  14  15
HETATM   15  C   UNL     1     -11.985  14.125  67.152  1.00  0.00    -0.460 C  
BRANCH  15  16
HETATM   16  C   UNL     1     -11.849  13.425  68.497  1.00  0.00    -0.401 C  
BRANCH  16  17
HETATM   17  C   UNL     1     -12.042  14.463  69.598  1.00  0.00    -0.381 C  
BRANCH  17  18
HETATM   18  C   UNL     1     -12.557  13.830  70.880  1.00  0.00    -0.428 C  
BRANCH  18  19
HETATM   19  C   UNL     1     -12.349  12.322  70.830  1.00  0.00    -0.363 C  
BRANCH  19  20
HETATM   20  C   UNL     1     -13.239  11.625  71.853  1.00  0.00    -0.475 C  
BRANCH  20  21
HETATM   21  C   UNL     1     -13.058  10.111  71.794  1.00  0.00    -0.568 C  
BRANCH  21  22
HETATM   22  C   UNL     1     -11.712   9.754  71.174  1.00  0.00    -0.465 C  
HETATM   23  C   UNL     1     -10.998   8.689  71.985  1.00  0.00    -0.432 C  
ENDBRANCH  21  22
ENDBRANCH  20  21
ENDBRANCH  19  20
ENDBRANCH  18  19
ENDBRANCH  17  18
ENDBRANCH  16  17
ENDBRANCH  15  16
ENDBRANCH  14  15
ENDBRANCH  11  14
ENDBRANCH  10  11
ENDBRANCH   9  10
ENDBRANCH   8   9
ENDBRANCH   7   8
ENDBRANCH   6   7
ENDBRANCH   5   6
ENDBRANCH   4   5
ENDBRANCH   3   4
ENDBRANCH   2   3
TORSDOF 18
ENDMDL
MODEL       28
REMARK 921   NORMALIZED FREE ENERGY PREDICTED BY IDOCK:   -3.92 KCAL/MOL
REMARK 922        TOTAL FREE ENERGY PREDICTED BY IDOCK:  -10.75 KCAL/MOL
REMARK 923 INTER-LIGAND FREE ENERGY PREDICTED BY IDOCK:   -8.30 KCAL/MOL
REMARK 924 INTRA-LIGAND FREE ENERGY PREDICTED BY IDOCK:   -2.44 KCAL/MOL
REMARK 927      BINDING AFFINITY PREDICTED BY RF-SCORE:    0.00 PKD
ROOT
HETATM    1  C   UNL     1     -11.168   6.374  69.150  1.00  0.00    -0.421 C  
HETATM    2  C   UNL     1     -11.031   6.378  70.661  1.00  0.00    -0.355 C  
ENDROOT
BRANCH   2   3
HETATM    3  C   UNL     1     -12.284   6.938  71.327  1.00  0.00    -0.427 C  
BRANCH   3   4
HETATM    4  C   UNL     1     -11.949   8.179  72.146  1.00  0.00    -0.413 C  
BRANCH   4   5
HETATM    5  C   UNL     1     -13.172   9.069  72.309  1.00  0.00    -0.519 C  
BRANCH   5   6
HETATM    6  C   UNL     1     -13.264  10.072  71.164  1.00  0.00    -0.441 C  
BRANCH   6   7
HETATM    7  C   UNL     1     -11.875  10.563  70.794  1.00  0.00    -0.465 C  
BRANCH   7   8
HETATM    8  C   UNL     1     -11.791  10.964  69.325  1.00  0.00    -0.395 C  
BRANCH   8   9
HETATM    9  C   UNL     1     -10.522  10.363  68.738  1.00  0.00    -0.219 C  
BRANCH   9  10
HETATM   10  C   UNL     1     -10.757   9.765  67.358  1.00  0.00    -0.249 C  
BRANCH  10  11
HETATM   11  N   UNL     1      -9.586  10.044  66.380  1.00  0.00    -0.185 N  
HETATM   12  C   UNL     1      -8.590  11.019  67.009  1.00  0.00    -0.140 C  
HETATM   13  C   UNL     1      -8.874   8.738  66.022  1.00  0.00    -0.175 C  
BRANCH  11  14
HETATM   14  C   UNL     1     -10.226  10.671  65.115  1.00  0.00    -0.299 C  
BRANCH  14  15
HETATM   15  C   UNL     1     -10.477  12.165  65.265  1.00  0.00    -0.311 C  
BRANCH  15  16
HETATM   16  C   UNL     1     -11.940  12.524  65.051  1.00  0.00    -0.478 C  
BRANCH  16  17
HETATM   17  C   UNL     1     -12.396  13.393  66.218  1.00  0.00    -0.410 C  
BRANCH  17  18
HETATM   18  C   UNL     1     -11.231  13.798  67.104  1.00  0.00    -0.327 C  
BRANCH  18  19
HETATM   19  C   UNL     1     -11.641  14.962  67.997  1.00  0.00    -0.363 C  
BRANCH  19  20
HETATM   20  C   UNL     1     -11.323  14.655  69.456  1.00  0.00    -0.314 C  
BRANCH  20  21
HETATM   21  C   UNL     1     -12.413  15.194  70.378  1.00  0.00    -0.416 C  
BRANCH  21  22
HETATM   22  C   UNL     1     -12.922  14.098  71.306  1.00  0.00    -0.426 C  
HETATM   23  C   UNL     1     -13.209  14.640  72.694  1.00  0.00    -0.556 C  
ENDBRANCH  21  22
ENDBRANCH  20  21
ENDBRANCH  19  20
ENDBRANCH  18  19
ENDBRANCH  17  18
ENDBRANCH  16  17
ENDBRANCH  15  16
ENDBRANCH  14  15
ENDBRANCH  11  14
ENDBRANCH  10  11
ENDBRANCH   9  10
ENDBRANCH   8   9
ENDBRANCH   7   8
ENDBRANCH   6   7
ENDBRANCH   5   6
ENDBRANCH   4   5
ENDBRANCH   3   4
ENDBRANCH   2   3
TORSDOF 18
ENDMDL
MODEL       29
REMARK 921   NORMALIZED FREE ENERGY PREDICTED BY IDOCK:   -3.92 KCAL/MOL
REMARK 922        TOTAL FREE ENERGY PREDICTED BY IDOCK:  -10.74 KCAL/MOL
REMARK 923 INTER-LIGAND FREE ENERGY PREDICTED BY IDOCK:   -8.36 KCAL/MOL
REMARK 924 INTRA-LIGAND FREE ENERGY PREDICTED BY IDOCK:   -2.38 KCAL/MOL
REMARK 927      BINDING AFFINITY PREDICTED BY RF-SCORE:    0.00 PKD
ROOT
HETATM    1  C   UNL     1     -14.284  15.341  72.112  1.00  0.00    -0.667 C  
HETATM    2  C   UNL     1     -13.459  14.068  72.097  1.00  0.00    -0.567 C  
ENDROOT
BRANCH   2   3
HETATM    3  C   UNL     1     -12.308  14.167  71.101  1.00  0.00    -0.447 C  
BRANCH   3   4
HETATM    4  C   UNL     1     -12.111  15.610  70.650  1.00  0.00    -0.443 C  
BRANCH   4   5
HETATM    5  C   UNL     1     -11.398  15.667  69.307  1.00  0.00    -0.348 C  
BRANCH   5   6
HETATM    6  C   UNL     1     -11.670  14.402  68.499  1.00  0.00    -0.370 C  
BRANCH   6   7
HETATM    7  C   UNL     1     -11.520  14.693  67.016  1.00  0.00    -0.379 C  
BRANCH   7   8
HETATM    8  C   UNL     1     -12.242  13.656  66.161  1.00  0.00    -0.490 C  
BRANCH   8   9
HETATM    9  C   UNL     1     -11.197  12.761  65.512  1.00  0.00    -0.329 C  
BRANCH   9  10
HETATM   10  C   UNL     1     -11.229  11.345  66.072  1.00  0.00    -0.112 C  
BRANCH  10  11
HETATM   11  N   UNL     1      -9.825  10.842  66.498  1.00  0.00    -0.196 N  
HETATM   12  C   UNL     1      -9.358   9.721  65.568  1.00  0.00    -0.240 C  
HETATM   13  C   UNL     1      -8.818  11.994  66.465  1.00  0.00    -0.172 C  
BRANCH  11  14
HETATM   14  C   UNL     1      -9.983  10.308  67.945  1.00  0.00    -0.164 C  
BRANCH  14  15
HETATM   15  C   UNL     1     -11.363  10.585  68.523  1.00  0.00    -0.320 C  
BRANCH  15  16
HETATM   16  C   UNL     1     -11.331  10.729  70.038  1.00  0.00    -0.397 C  
BRANCH  16  17
HETATM   17  C   UNL     1     -12.760  10.620  70.561  1.00  0.00    -0.395 C  
BRANCH  17  18
HETATM   18  C   UNL     1     -12.797  10.081  71.981  1.00  0.00    -0.484 C  
BRANCH  18  19
HETATM   19  C   UNL     1     -12.691   8.562  71.959  1.00  0.00    -0.421 C  
BRANCH  19  20
HETATM   20  C   UNL     1     -11.387   8.107  72.606  1.00  0.00    -0.450 C  
BRANCH  20  21
HETATM   21  C   UNL     1     -10.490   7.405  71.592  1.00  0.00    -0.219 C  
BRANCH  21  22
HETATM   22  C   UNL     1     -11.287   7.001  70.356  1.00  0.00    -0.354 C  
HETATM   23  C   UNL     1     -10.650   5.818  69.652  1.00  0.00    -0.396 C  
ENDBRANCH  21  22
ENDBRANCH  20  21
ENDBRANCH  19  20
ENDBRANCH  18  19
ENDBRANCH  17  18
ENDBRANCH  16  17
ENDBRANCH  15  16
ENDBRANCH  14  15
ENDBRANCH  11  14
ENDBRANCH  10  11
ENDBRANCH   9  10
ENDBRANCH   8   9
ENDBRANCH   7   8
ENDBRANCH   6   7
ENDBRANCH   5   6
ENDBRANCH   4   5
ENDBRANCH   3   4
ENDBRANCH   2   3
TORSDOF 18
ENDMDL
MODEL       30
REMARK 921   NORMALIZED FREE ENERGY PREDICTED BY IDOCK:   -3.91 KCAL/MOL
REMARK 922        TOTAL FREE ENERGY PREDICTED BY IDOCK:  -10.72 KCAL/MOL
REMARK 923 INTER-LIGAND FREE ENERGY PREDICTED BY IDOCK:   -8.09 KCAL/MOL
REMARK 924 INTRA-LIGAND FREE ENERGY PREDICTED BY IDOCK:   -2.63 KCAL/MOL
REMARK 927      BINDING AFFINITY PREDICTED BY RF-SCORE:    0.00 PKD
ROOT
HETATM    1  C   UNL     1     -10.785  15.586  65.195  1.00  0.00    -0.460 C  
HETATM    2  C   UNL     1     -11.941  14.939  64.456  1.00  0.00    -0.420 C  
ENDROOT
BRANCH   2   3
HETATM    3  C   UNL     1     -12.733  14.011  65.372  1.00  0.00    -0.499 C  
BRANCH   3   4
HETATM    4  C   UNL     1     -12.409  12.552  65.069  1.00  0.00    -0.522 C  
BRANCH   4   5
HETATM    5  C   UNL     1     -12.052  12.369  63.602  1.00  0.00    -0.648 C  
BRANCH   5   6
HETATM    6  C   UNL     1     -10.767  11.561  63.458  1.00  0.00    -0.483 C  
BRANCH   6   7
HETATM    7  C   UNL     1     -10.039  11.506  64.790  1.00  0.00    -0.316 C  
BRANCH   7   8
HETATM    8  C   UNL     1      -9.696  10.073  65.187  1.00  0.00    -0.380 C  
BRANCH   8   9
HETATM    9  C   UNL     1     -10.440   9.743  66.473  1.00  0.00    -0.212 C  
BRANCH   9  10
HETATM   10  C   UNL     1      -9.489   9.456  67.627  1.00  0.00    -0.132 C  
BRANCH  10  11
HETATM   11  N   UNL     1      -9.526  10.558  68.717  1.00  0.00    -0.172 N  
HETATM   12  C   UNL     1      -9.658   9.929  70.104  1.00  0.00    -0.185 C  
HETATM   13  C   UNL     1      -8.254  11.408  68.654  1.00  0.00    -0.142 C  
BRANCH  11  14
HETATM   14  C   UNL     1     -10.769  11.430  68.402  1.00  0.00    -0.203 C  
BRANCH  14  15
HETATM   15  C   UNL     1     -10.427  12.905  68.254  1.00  0.00    -0.250 C  
BRANCH  15  16
HETATM   16  C   UNL     1     -11.563  13.805  68.720  1.00  0.00    -0.363 C  
BRANCH  16  17
HETATM   17  C   UNL     1     -10.961  15.106  69.241  1.00  0.00    -0.260 C  
BRANCH  17  18
HETATM   18  C   UNL     1      -9.567  15.341  68.685  1.00  0.00    -0.206 C  
BRANCH  18  19
HETATM   19  C   UNL     1      -9.211  16.818  68.792  1.00  0.00    -0.260 C  
BRANCH  19  20
HETATM   20  C   UNL     1     -10.341  17.682  68.245  1.00  0.00    -0.384 C  
BRANCH  20  21
HETATM   21  C   UNL     1     -10.078  19.161  68.514  1.00  0.00    -0.499 C  
BRANCH  21  22
HETATM   22  C   UNL     1     -10.229  19.976  67.234  1.00  0.00    -0.565 C  
HETATM   23  C   UNL     1     -10.424  19.076  66.028  1.00  0.00    -0.530 C  
ENDBRANCH  21  22
ENDBRANCH  20  21
ENDBRANCH  19  20
ENDBRANCH  18  19
ENDBRANCH  17  18
ENDBRANCH  16  17
ENDBRANCH  15  16
ENDBRANCH  14  15
ENDBRANCH  11  14
ENDBRANCH  10  11
ENDBRANCH   9  10
ENDBRANCH   8   9
ENDBRANCH   7   8
ENDBRANCH   6   7
ENDBRANCH   5   6
ENDBRANCH   4   5
ENDBRANCH   3   4
ENDBRANCH   2   3
TORSDOF 18
ENDMDL
MODEL       31
REMARK 921   NORMALIZED FREE ENERGY PREDICTED BY IDOCK:   -3.88 KCAL/MOL
REMARK 922        TOTAL FREE ENERGY PREDICTED BY IDOCK:  -10.67 KCAL/MOL
REMARK 923 INTER-LIGAND FREE ENERGY PREDICTED BY IDOCK:   -8.20 KCAL/MOL
REMARK 924 INTRA-LIGAND FREE ENERGY PREDICTED BY IDOCK:   -2.47 KCAL/MOL
REMARK 927      BINDING AFFINITY PREDICTED BY RF-SCORE:    0.00 PKD
ROOT
HETATM    1  C   UNL     1     -11.885  14.231  64.413  1.00  0.00    -0.444 C  
HETATM    2  C   UNL     1     -12.049  13.060  63.462  1.00  0.00    -0.617 C  
ENDROOT
BRANCH   2   3
HETATM    3  C   UNL     1     -11.592  11.756  64.109  1.00  0.00    -0.394 C  
BRANCH   3   4
HETATM    4  C   UNL     1     -11.222  11.981  65.570  1.00  0.00    -0.372 C  
BRANCH   4   5
HETATM    5  C   UNL     1     -10.238  10.925  66.050  1.00  0.00    -0.311 C  
BRANCH   5   6
HETATM    6  C   UNL     1      -9.142  11.557  66.902  1.00  0.00    -0.181 C  
BRANCH   6   7
HETATM    7  C   UNL     1      -9.167  13.067  66.739  1.00  0.00    -0.229 C  
BRANCH   7   8
HETATM    8  C   UNL     1      -7.975  13.729  67.423  1.00  0.00    -0.175 C  
BRANCH   8   9
HETATM    9  C   UNL     1      -7.976  15.207  67.059  1.00  0.00    -0.223 C  
BRANCH   9  10
HETATM   10  C   UNL     1      -9.371  15.709  66.714  1.00  0.00    -0.246 C  
BRANCH  10  11
HETATM   11  N   UNL     1      -9.847  16.842  67.660  1.00  0.00    -0.254 N  
HETATM   12  C   UNL     1      -8.761  17.167  68.687  1.00  0.00    -0.266 C  
HETATM   13  C   UNL     1     -10.187  18.097  66.853  1.00  0.00    -0.372 C  
BRANCH  11  14
HETATM   14  C   UNL     1     -11.114  16.301  68.370  1.00  0.00    -0.362 C  
BRANCH  14  15
HETATM   15  C   UNL     1     -10.790  15.267  69.438  1.00  0.00    -0.263 C  
BRANCH  15  16
HETATM   16  C   UNL     1     -11.941  15.072  70.415  1.00  0.00    -0.372 C  
BRANCH  16  17
HETATM   17  C   UNL     1     -12.194  13.575  70.566  1.00  0.00    -0.433 C  
BRANCH  17  18
HETATM   18  C   UNL     1     -11.672  12.795  69.371  1.00  0.00    -0.380 C  
BRANCH  18  19
HETATM   19  C   UNL     1     -12.142  11.349  69.453  1.00  0.00    -0.358 C  
BRANCH  19  20
HETATM   20  C   UNL     1     -11.038  10.458  70.011  1.00  0.00    -0.379 C  
BRANCH  20  21
HETATM   21  C   UNL     1     -11.471   9.806  71.321  1.00  0.00    -0.457 C  
BRANCH  21  22
HETATM   22  C   UNL     1     -12.876  10.255  71.706  1.00  0.00    -0.565 C  
HETATM   23  C   UNL     1     -13.689   9.101  72.263  1.00  0.00    -0.548 C  
ENDBRANCH  21  22
ENDBRANCH  20  21
ENDBRANCH  19  20
ENDBRANCH  18  19
ENDBRANCH  17  18
ENDBRANCH  16  17
ENDBRANCH  15  16
ENDBRANCH  14  15
ENDBRANCH  11  14
ENDBRANCH  10  11
ENDBRANCH   9  10
ENDBRANCH   8   9
ENDBRANCH   7   8
ENDBRANCH   6   7
ENDBRANCH   5   6
ENDBRANCH   4   5
ENDBRANCH   3   4
ENDBRANCH   2   3
TORSDOF 18
ENDMDL
MODEL       32
REMARK 921   NORMALIZED FREE ENERGY PREDICTED BY IDOCK:   -3.88 KCAL/MOL
REMARK 922        TOTAL FREE ENERGY PREDICTED BY IDOCK:  -10.66 KCAL/MOL
REMARK 923 INTER-LIGAND FREE ENERGY PREDICTED BY IDOCK:   -7.70 KCAL/MOL
REMARK 924 INTRA-LIGAND FREE ENERGY PREDICTED BY IDOCK:   -2.97 KCAL/MOL
REMARK 927      BINDING AFFINITY PREDICTED BY RF-SCORE:    0.00 PKD
ROOT
HETATM    1  C   UNL     1     -10.447   5.465  70.161  1.00  0.00    -0.361 C  
HETATM    2  C   UNL     1     -11.649   6.390  70.200  1.00  0.00    -0.449 C  
ENDROOT
BRANCH   2   3
HETATM    3  C   UNL     1     -12.107   6.639  71.633  1.00  0.00    -0.404 C  
BRANCH   3   4
HETATM    4  C   UNL     1     -12.742   8.019  71.763  1.00  0.00    -0.352 C  
BRANCH   4   5
HETATM    5  C   UNL     1     -11.678   9.107  71.783  1.00  0.00    -0.456 C  
BRANCH   5   6
HETATM    6  C   UNL     1     -12.287  10.461  71.435  1.00  0.00    -0.500 C  
BRANCH   6   7
HETATM    7  C   UNL     1     -12.283  10.658  69.928  1.00  0.00    -0.346 C  
BRANCH   7   8
HETATM    8  C   UNL     1     -11.801  12.053  69.542  1.00  0.00    -0.390 C  
BRANCH   8   9
HETATM    9  C   UNL     1     -11.563  12.077  68.039  1.00  0.00    -0.407 C  
BRANCH   9  10
HETATM   10  C   UNL     1     -11.605  13.492  67.477  1.00  0.00    -0.350 C  
BRANCH  10  11
HETATM   11  N   UNL     1     -11.499  13.521  65.931  1.00  0.00    -0.313 N  
HETATM   12  C   UNL     1     -12.752  14.153  65.324  1.00  0.00    -0.403 C  
HETATM   13  C   UNL     1     -10.261  14.312  65.500  1.00  0.00    -0.357 C  
BRANCH  11  14
HETATM   14  C   UNL     1     -11.373  12.042  65.483  1.00  0.00    -0.328 C  
BRANCH  14  15
HETATM   15  C   UNL     1     -10.602  11.888  64.180  1.00  0.00    -0.397 C  
BRANCH  15  16
HETATM   16  C   UNL     1      -9.898  10.542  64.086  1.00  0.00    -0.401 C  
BRANCH  16  17
HETATM   17  C   UNL     1      -9.971   9.866  65.452  1.00  0.00    -0.349 C  
BRANCH  17  18
HETATM   18  C   UNL     1      -8.930   8.769  65.591  1.00  0.00    -0.248 C  
BRANCH  18  19
HETATM   19  C   UNL     1      -9.253   7.900  66.799  1.00  0.00    -0.206 C  
BRANCH  19  20
HETATM   20  C   UNL     1      -9.811   8.750  67.935  1.00  0.00    -0.207 C  
BRANCH  20  21
HETATM   21  C   UNL     1      -8.935   8.641  69.180  1.00  0.00    -0.142 C  
BRANCH  21  22
HETATM   22  C   UNL     1      -8.586  10.025  69.714  1.00  0.00    -0.192 C  
HETATM   23  C   UNL     1      -8.025  10.913  68.619  1.00  0.00    -0.140 C  
ENDBRANCH  21  22
ENDBRANCH  20  21
ENDBRANCH  19  20
ENDBRANCH  18  19
ENDBRANCH  17  18
ENDBRANCH  16  17
ENDBRANCH  15  16
ENDBRANCH  14  15
ENDBRANCH  11  14
ENDBRANCH  10  11
ENDBRANCH   9  10
ENDBRANCH   8   9
ENDBRANCH   7   8
ENDBRANCH   6   7
ENDBRANCH   5   6
ENDBRANCH   4   5
ENDBRANCH   3   4
ENDBRANCH   2   3
TORSDOF 18
ENDMDL
MODEL       33
REMARK 921   NORMALIZED FREE ENERGY PREDICTED BY IDOCK:   -3.87 KCAL/MOL
REMARK 922        TOTAL FREE ENERGY PREDICTED BY IDOCK:  -10.65 KCAL/MOL
REMARK 923 INTER-LIGAND FREE ENERGY PREDICTED BY IDOCK:   -8.32 KCAL/MOL
REMARK 924 INTRA-LIGAND FREE ENERGY PREDICTED BY IDOCK:   -2.33 KCAL/MOL
REMARK 927      BINDING AFFINITY PREDICTED BY RF-SCORE:    0.00 PKD
ROOT
HETATM    1  C   UNL     1     -10.699  11.564  63.494  1.00  0.00    -0.483 C  
HETATM    2  C   UNL     1     -11.742  12.663  63.417  1.00  0.00    -0.571 C  
ENDROOT
BRANCH   2   3
HETATM    3  C   UNL     1     -12.742  12.555  64.564  1.00  0.00    -0.440 C  
BRANCH   3   4
HETATM    4  C   UNL     1     -12.517  13.667  65.581  1.00  0.00    -0.540 C  
BRANCH   4   5
HETATM    5  C   UNL     1     -11.912  13.116  66.864  1.00  0.00    -0.421 C  
BRANCH   5   6
HETATM    6  C   UNL     1     -10.395  13.268  66.853  1.00  0.00    -0.255 C  
BRANCH   6   7
HETATM    7  C   UNL     1      -9.740  11.942  67.201  1.00  0.00    -0.194 C  
BRANCH   7   8
HETATM    8  C   UNL     1     -10.720  10.779  67.079  1.00  0.00    -0.320 C  
BRANCH   8   9
HETATM    9  C   UNL     1      -9.922   9.506  66.839  1.00  0.00    -0.278 C  
BRANCH   9  10
HETATM   10  C   UNL     1     -10.451   8.337  67.659  1.00  0.00    -0.235 C  
BRANCH  10  11
HETATM   11  N   UNL     1      -9.315   7.492  68.292  1.00  0.00    -0.141 N  
HETATM   12  C   UNL     1      -9.342   6.066  67.741  1.00  0.00    -0.106 C  
HETATM   13  C   UNL     1      -7.955   8.133  68.002  1.00  0.00    -0.127 C  
BRANCH  11  14
HETATM   14  C   UNL     1      -9.588   7.484  69.819  1.00  0.00    -0.163 C  
BRANCH  14  15
HETATM   15  C   UNL     1     -11.033   7.823  70.156  1.00  0.00    -0.246 C  
BRANCH  15  16
HETATM   16  C   UNL     1     -11.191   8.279  71.600  1.00  0.00    -0.330 C  
BRANCH  16  17
HETATM   17  C   UNL     1     -12.021   9.559  71.610  1.00  0.00    -0.474 C  
BRANCH  17  18
HETATM   18  C   UNL     1     -11.532  10.553  70.570  1.00  0.00    -0.433 C  
BRANCH  18  19
HETATM   19  C   UNL     1     -12.300  11.860  70.704  1.00  0.00    -0.405 C  
BRANCH  19  20
HETATM   20  C   UNL     1     -13.199  11.829  71.935  1.00  0.00    -0.468 C  
BRANCH  20  21
HETATM   21  C   UNL     1     -13.742  13.220  72.251  1.00  0.00    -0.686 C  
BRANCH  21  22
HETATM   22  C   UNL     1     -12.694  14.286  71.952  1.00  0.00    -0.419 C  
HETATM   23  C   UNL     1     -13.271  15.399  71.096  1.00  0.00    -0.583 C  
ENDBRANCH  21  22
ENDBRANCH  20  21
ENDBRANCH  19  20
ENDBRANCH  18  19
ENDBRANCH  17  18
ENDBRANCH  16  17
ENDBRANCH  15  16
ENDBRANCH  14  15
ENDBRANCH  11  14
ENDBRANCH  10  11
ENDBRANCH   9  10
ENDBRANCH   8   9
ENDBRANCH   7   8
ENDBRANCH   6   7
ENDBRANCH   5   6
ENDBRANCH   4   5
ENDBRANCH   3   4
ENDBRANCH   2   3
TORSDOF 18
ENDMDL
MODEL       34
REMARK 921   NORMALIZED FREE ENERGY PREDICTED BY IDOCK:   -3.87 KCAL/MOL
REMARK 922        TOTAL FREE ENERGY PREDICTED BY IDOCK:  -10.63 KCAL/MOL
REMARK 923 INTER-LIGAND FREE ENERGY PREDICTED BY IDOCK:   -8.71 KCAL/MOL
REMARK 924 INTRA-LIGAND FREE ENERGY PREDICTED BY IDOCK:   -1.92 KCAL/MOL
REMARK 927      BINDING AFFINITY PREDICTED BY RF-SCORE:    0.00 PKD
ROOT
HETATM    1  C   UNL     1     -11.383   6.510  70.015  1.00  0.00    -0.472 C  
HETATM    2  C   UNL     1     -12.268   7.019  71.137  1.00  0.00    -0.427 C  
ENDROOT
BRANCH   2   3
HETATM    3  C   UNL     1     -11.737   8.332  71.706  1.00  0.00    -0.357 C  
BRANCH   3   4
HETATM    4  C   UNL     1     -12.843   9.379  71.766  1.00  0.00    -0.484 C  
BRANCH   4   5
HETATM    5  C   UNL     1     -12.392  10.683  71.124  1.00  0.00    -0.505 C  
BRANCH   5   6
HETATM    6  C   UNL     1     -11.372  10.416  70.022  1.00  0.00    -0.384 C  
BRANCH   6   7
HETATM    7  C   UNL     1     -11.797  11.117  68.743  1.00  0.00    -0.388 C  
BRANCH   7   8
HETATM    8  C   UNL     1     -11.611  12.628  68.839  1.00  0.00    -0.363 C  
BRANCH   8   9
HETATM    9  C   UNL     1     -12.154  13.257  67.564  1.00  0.00    -0.312 C  
BRANCH   9  10
HETATM   10  C   UNL     1     -11.683  12.520  66.317  1.00  0.00    -0.404 C  
BRANCH  10  11
HETATM   11  N   UNL     1     -10.983  13.458  65.300  1.00  0.00    -0.288 N  
HETATM   12  C   UNL     1     -10.529  12.666  64.073  1.00  0.00    -0.416 C  
HETATM   13  C   UNL     1     -11.934  14.577  64.871  1.00  0.00    -0.422 C  
BRANCH  11  14
HETATM   14  C   UNL     1      -9.756  14.051  66.040  1.00  0.00    -0.258 C  
BRANCH  14  15
HETATM   15  C   UNL     1      -9.768  15.572  66.067  1.00  0.00    -0.378 C  
BRANCH  15  16
HETATM   16  C   UNL     1      -9.790  16.120  67.487  1.00  0.00    -0.237 C  
BRANCH  16  17
HETATM   17  C   UNL     1     -10.465  17.487  67.464  1.00  0.00    -0.355 C  
BRANCH  17  18
HETATM   18  C   UNL     1     -10.531  18.055  66.056  1.00  0.00    -0.317 C  
BRANCH  18  19
HETATM   19  C   UNL     1     -10.539  19.577  66.114  1.00  0.00    -0.585 C  
BRANCH  19  20
HETATM   20  C   UNL     1      -9.310  20.090  66.857  1.00  0.00    -0.515 C  
BRANCH  20  21
HETATM   21  C   UNL     1      -8.038  19.824  66.059  1.00  0.00    -0.334 C  
BRANCH  21  22
HETATM   22  C   UNL     1      -7.019  19.070  66.907  1.00  0.00    -0.209 C  
HETATM   23  C   UNL     1      -6.661  17.735  66.281  1.00  0.00    -0.303 C  
ENDBRANCH  21  22
ENDBRANCH  20  21
ENDBRANCH  19  20
ENDBRANCH  18  19
ENDBRANCH  17  18
ENDBRANCH  16  17
ENDBRANCH  15  16
ENDBRANCH  14  15
ENDBRANCH  11  14
ENDBRANCH  10  11
ENDBRANCH   9  10
ENDBRANCH   8   9
ENDBRANCH   7   8
ENDBRANCH   6   7
ENDBRANCH   5   6
ENDBRANCH   4   5
ENDBRANCH   3   4
ENDBRANCH   2   3
TORSDOF 18
ENDMDL
MODEL       35
REMARK 921   NORMALIZED FREE ENERGY PREDICTED BY IDOCK:   -3.86 KCAL/MOL
REMARK 922        TOTAL FREE ENERGY PREDICTED BY IDOCK:  -10.62 KCAL/MOL
REMARK 923 INTER-LIGAND FREE ENERGY PREDICTED BY IDOCK:   -8.73 KCAL/MOL
REMARK 924 INTRA-LIGAND FREE ENERGY PREDICTED BY IDOCK:   -1.89 KCAL/MOL
REMARK 927      BINDING AFFINITY PREDICTED BY RF-SCORE:    0.00 PKD
ROOT
HETATM    1  C   UNL     1     -10.423  19.738  66.200  1.00  0.00    -0.613 C  
HETATM    2  C   UNL     1      -9.635  19.015  67.277  1.00  0.00    -0.363 C  
ENDROOT
BRANCH   2   3
HETATM    3  C   UNL     1      -9.188  17.636  66.801  1.00  0.00    -0.281 C  
BRANCH   3   4
HETATM    4  C   UNL     1     -10.336  16.905  66.115  1.00  0.00    -0.327 C  
BRANCH   4   5
HETATM    5  C   UNL     1      -9.915  15.505  65.696  1.00  0.00    -0.394 C  
BRANCH   5   6
HETATM    6  C   UNL     1     -11.115  14.710  65.193  1.00  0.00    -0.382 C  
BRANCH   6   7
HETATM    7  C   UNL     1     -10.712  13.267  64.942  1.00  0.00    -0.365 C  
BRANCH   7   8
HETATM    8  C   UNL     1     -11.324  12.322  65.972  1.00  0.00    -0.398 C  
BRANCH   8   9
HETATM    9  C   UNL     1     -10.259  11.320  66.394  1.00  0.00    -0.273 C  
BRANCH   9  10
HETATM   10  C   UNL     1      -9.840  11.510  67.845  1.00  0.00    -0.185 C  
BRANCH  10  11
HETATM   11  N   UNL     1     -10.364  10.379  68.768  1.00  0.00    -0.184 N  
HETATM   12  C   UNL     1     -10.661   9.121  67.951  1.00  0.00    -0.214 C  
HETATM   13  C   UNL     1      -9.330  10.059  69.851  1.00  0.00    -0.169 C  
BRANCH  11  14
HETATM   14  C   UNL     1     -11.666  10.922  69.412  1.00  0.00    -0.325 C  
BRANCH  14  15
HETATM   15  C   UNL     1     -11.846  10.455  70.849  1.00  0.00    -0.475 C  
BRANCH  15  16
HETATM   16  C   UNL     1     -13.046  11.111  71.518  1.00  0.00    -0.489 C  
BRANCH  16  17
HETATM   17  C   UNL     1     -12.920  12.622  71.352  1.00  0.00    -0.353 C  
BRANCH  17  18
HETATM   18  C   UNL     1     -13.822  13.369  72.321  1.00  0.00    -0.671 C  
BRANCH  18  19
HETATM   19  C   UNL     1     -13.164  14.679  72.733  1.00  0.00    -0.591 C  
BRANCH  19  20
HETATM   20  C   UNL     1     -13.041  15.615  71.536  1.00  0.00    -0.561 C  
BRANCH  20  21
HETATM   21  C   UNL     1     -11.578  15.933  71.239  1.00  0.00    -0.509 C  
BRANCH  21  22
HETATM   22  C   UNL     1     -11.361  16.117  69.741  1.00  0.00    -0.323 C  
HETATM   23  C   UNL     1     -11.186  14.781  69.042  1.00  0.00    -0.286 C  
ENDBRANCH  21  22
ENDBRANCH  20  21
ENDBRANCH  19  20
ENDBRANCH  18  19
ENDBRANCH  17  18
ENDBRANCH  16  17
ENDBRANCH  15  16
ENDBRANCH  14  15
ENDBRANCH  11  14
ENDBRANCH  10  11
ENDBRANCH   9  10
ENDBRANCH   8   9
ENDBRANCH   7   8
ENDBRANCH   6   7
ENDBRANCH   5   6
ENDBRANCH   4   5
ENDBRANCH   3   4
ENDBRANCH   2   3
TORSDOF 18
ENDMDL
MODEL       36
REMARK 921   NORMALIZED FREE ENERGY PREDICTED BY IDOCK:   -3.85 KCAL/MOL
REMARK 922        TOTAL FREE ENERGY PREDICTED BY IDOCK:  -10.61 KCAL/MOL
REMARK 923 INTER-LIGAND FREE ENERGY PREDICTED BY IDOCK:   -8.20 KCAL/MOL
REMARK 924 INTRA-LIGAND FREE ENERGY PREDICTED BY IDOCK:   -2.41 KCAL/MOL
REMARK 927      BINDING AFFINITY PREDICTED BY RF-SCORE:    0.00 PKD
ROOT
HETATM    1  C   UNL     1     -12.684  13.900  65.384  1.00  0.00    -0.525 C  
HETATM    2  C   UNL     1     -12.901  12.564  64.700  1.00  0.00    -0.325 C  
ENDROOT
BRANCH   2   3
HETATM    3  C   UNL     1     -11.988  12.409  63.488  1.00  0.00    -0.627 C  
BRANCH   3   4
HETATM    4  C   UNL     1     -10.523  12.474  63.906  1.00  0.00    -0.464 C  
BRANCH   4   5
HETATM    5  C   UNL     1      -9.998  11.091  64.261  1.00  0.00    -0.373 C  
BRANCH   5   6
HETATM    6  C   UNL     1     -10.246  10.781  65.733  1.00  0.00    -0.319 C  
BRANCH   6   7
HETATM    7  C   UNL     1      -9.239  11.524  66.595  1.00  0.00    -0.194 C  
BRANCH   7   8
HETATM    8  C   UNL     1      -9.920  12.524  67.524  1.00  0.00    -0.201 C  
BRANCH   8   9
HETATM    9  C   UNL     1      -9.442  13.921  67.155  1.00  0.00    -0.246 C  
BRANCH   9  10
HETATM   10  C   UNL     1      -8.943  14.694  68.368  1.00  0.00    -0.180 C  
BRANCH  10  11
HETATM   11  N   UNL     1      -9.701  16.031  68.574  1.00  0.00    -0.208 N  
HETATM   12  C   UNL     1      -8.710  17.178  68.771  1.00  0.00    -0.235 C  
HETATM   13  C   UNL     1     -10.596  16.323  67.367  1.00  0.00    -0.307 C  
BRANCH  11  14
HETATM   14  C   UNL     1     -10.564  15.841  69.849  1.00  0.00    -0.328 C  
BRANCH  14  15
HETATM   15  C   UNL     1     -11.981  15.387  69.533  1.00  0.00    -0.358 C  
BRANCH  15  16
HETATM   16  C   UNL     1     -12.265  13.988  70.063  1.00  0.00    -0.414 C  
BRANCH  16  17
HETATM   17  C   UNL     1     -12.970  14.119  71.409  1.00  0.00    -0.422 C  
BRANCH  17  18
HETATM   18  C   UNL     1     -13.345  12.761  71.979  1.00  0.00    -0.565 C  
BRANCH  18  19
HETATM   19  C   UNL     1     -12.834  11.658  71.062  1.00  0.00    -0.339 C  
BRANCH  19  20
HETATM   20  C   UNL     1     -12.897  10.306  71.765  1.00  0.00    -0.565 C  
BRANCH  20  21
HETATM   21  C   UNL     1     -11.690   9.446  71.404  1.00  0.00    -0.448 C  
BRANCH  21  22
HETATM   22  C   UNL     1     -10.900  10.079  70.264  1.00  0.00    -0.370 C  
HETATM   23  C   UNL     1      -9.872   9.114  69.703  1.00  0.00    -0.188 C  
ENDBRANCH  21  22
ENDBRANCH  20  21
ENDBRANCH  19  20
ENDBRANCH  18  19
ENDBRANCH  17  18
ENDBRANCH  16  17
ENDBRANCH  15  16
ENDBRANCH  14  15
ENDBRANCH  11  14
ENDBRANCH  10  11
ENDBRANCH   9  10
ENDBRANCH   8   9
ENDBRANCH   7   8
ENDBRANCH   6   7
ENDBRANCH   5   6
ENDBRANCH   4   5
ENDBRANCH   3   4
ENDBRANCH   2   3
TORSDOF 18
ENDMDL
MODEL       37
REMARK 921   NORMALIZED FREE ENERGY PREDICTED BY IDOCK:   -3.84 KCAL/MOL
REMARK 922        TOTAL FREE ENERGY PREDICTED BY IDOCK:  -10.59 KCAL/MOL
REMARK 923 INTER-LIGAND FREE ENERGY PREDICTED BY IDOCK:   -8.86 KCAL/MOL
REMARK 924 INTRA-LIGAND FREE ENERGY PREDICTED BY IDOCK:   -1.73 KCAL/MOL
REMARK 927      BINDING AFFINITY PREDICTED BY RF-SCORE:    0.00 PKD
ROOT
HETATM    1  C   UNL     1      -6.500  19.662  65.757  1.00  0.00    -0.248 C  
HETATM    2  C   UNL     1      -7.576  19.191  66.718  1.00  0.00    -0.251 C  
ENDROOT
BRANCH   2   3
HETATM    3  C   UNL     1      -8.886  19.939  66.489  1.00  0.00    -0.432 C  
BRANCH   3   4
HETATM    4  C   UNL     1      -9.846  19.709  67.651  1.00  0.00    -0.494 C  
BRANCH   4   5
HETATM    5  C   UNL     1     -10.754  18.519  67.378  1.00  0.00    -0.424 C  
BRANCH   5   6
HETATM    6  C   UNL     1     -10.325  17.314  68.209  1.00  0.00    -0.361 C  
BRANCH   6   7
HETATM    7  C   UNL     1     -10.454  16.045  67.384  1.00  0.00    -0.308 C  
BRANCH   7   8
HETATM    8  C   UNL     1      -9.919  16.236  65.968  1.00  0.00    -0.370 C  
BRANCH   8   9
HETATM    9  C   UNL     1     -10.863  15.534  65.002  1.00  0.00    -0.468 C  
BRANCH   9  10
HETATM   10  C   UNL     1     -10.536  14.054  64.857  1.00  0.00    -0.424 C  
BRANCH  10  11
HETATM   11  N   UNL     1     -11.788  13.151  65.008  1.00  0.00    -0.336 N  
HETATM   12  C   UNL     1     -12.983  13.976  65.488  1.00  0.00    -0.316 C  
HETATM   13  C   UNL     1     -12.123  12.485  63.671  1.00  0.00    -0.554 C  
BRANCH  11  14
HETATM   14  C   UNL     1     -11.417  12.078  66.063  1.00  0.00    -0.338 C  
BRANCH  14  15
HETATM   15  C   UNL     1     -10.114  12.393  66.784  1.00  0.00    -0.226 C  
BRANCH  15  16
HETATM   16  C   UNL     1     -10.280  12.382  68.297  1.00  0.00    -0.230 C  
BRANCH  16  17
HETATM   17  C   UNL     1      -9.909  10.995  68.811  1.00  0.00    -0.206 C  
BRANCH  17  18
HETATM   18  C   UNL     1     -11.028  10.386  69.640  1.00  0.00    -0.325 C  
BRANCH  18  19
HETATM   19  C   UNL     1     -11.950  11.486  70.148  1.00  0.00    -0.452 C  
BRANCH  19  20
HETATM   20  C   UNL     1     -12.837  10.964  71.273  1.00  0.00    -0.536 C  
BRANCH  20  21
HETATM   21  C   UNL     1     -12.726   9.447  71.397  1.00  0.00    -0.425 C  
BRANCH  21  22
HETATM   22  C   UNL     1     -13.924   8.881  72.151  1.00  0.00    -0.520 C  
HETATM   23  C   UNL     1     -14.344   7.537  71.586  1.00  0.00    -0.621 C  
ENDBRANCH  21  22
ENDBRANCH  20  21
ENDBRANCH  19  20
ENDBRANCH  18  19
ENDBRANCH  17  18
ENDBRANCH  16  17
ENDBRANCH  15  16
ENDBRANCH  14  15
ENDBRANCH  11  14
ENDBRANCH  10  11
ENDBRANCH   9  10
ENDBRANCH   8   9
ENDBRANCH   7   8
ENDBRANCH   6   7
ENDBRANCH   5   6
ENDBRANCH   4   5
ENDBRANCH   3   4
ENDBRANCH   2   3
TORSDOF 18
ENDMDL
MODEL       38
REMARK 921   NORMALIZED FREE ENERGY PREDICTED BY IDOCK:   -3.84 KCAL/MOL
REMARK 922        TOTAL FREE ENERGY PREDICTED BY IDOCK:  -10.58 KCAL/MOL
REMARK 923 INTER-LIGAND FREE ENERGY PREDICTED BY IDOCK:   -8.25 KCAL/MOL
REMARK 924 INTRA-LIGAND FREE ENERGY PREDICTED BY IDOCK:   -2.34 KCAL/MOL
REMARK 927      BINDING AFFINITY PREDICTED BY RF-SCORE:    0.00 PKD
ROOT
HETATM    1  C   UNL     1     -12.386  15.285  73.991  1.00  0.00    -0.767 C  
HETATM    2  C   UNL     1     -12.267  16.081  72.705  1.00  0.00    -0.619 C  
ENDROOT
BRANCH   2   3
HETATM    3  C   UNL     1     -13.167  15.507  71.615  1.00  0.00    -0.575 C  
BRANCH   3   4
HETATM    4  C   UNL     1     -13.199  13.985  71.691  1.00  0.00    -0.442 C  
BRANCH   4   5
HETATM    5  C   UNL     1     -12.292  13.368  70.636  1.00  0.00    -0.423 C  
BRANCH   5   6
HETATM    6  C   UNL     1     -11.998  14.372  69.526  1.00  0.00    -0.376 C  
BRANCH   6   7
HETATM    7  C   UNL     1     -12.084  13.687  68.173  1.00  0.00    -0.310 C  
BRANCH   7   8
HETATM    8  C   UNL     1     -11.966  14.685  67.026  1.00  0.00    -0.301 C  
BRANCH   8   9
HETATM    9  C   UNL     1     -12.583  14.060  65.783  1.00  0.00    -0.512 C  
BRANCH   9  10
HETATM   10  C   UNL     1     -11.556  13.854  64.678  1.00  0.00    -0.385 C  
BRANCH  10  11
HETATM   11  N   UNL     1     -11.389  12.361  64.292  1.00  0.00    -0.336 N  
HETATM   12  C   UNL     1     -12.601  11.880  63.493  1.00  0.00    -0.459 C  
HETATM   13  C   UNL     1     -10.116  12.168  63.464  1.00  0.00    -0.383 C  
BRANCH  11  14
HETATM   14  C   UNL     1     -11.283  11.583  65.629  1.00  0.00    -0.148 C  
BRANCH  14  15
HETATM   15  C   UNL     1      -9.843  11.280  66.017  1.00  0.00    -0.267 C  
BRANCH  15  16
HETATM   16  C   UNL     1      -9.438  11.980  67.306  1.00  0.00    -0.181 C  
BRANCH  16  17
HETATM   17  C   UNL     1      -8.269  12.910  67.001  1.00  0.00    -0.086 C  
BRANCH  17  18
HETATM   18  C   UNL     1      -8.512  14.311  67.537  1.00  0.00    -0.195 C  
BRANCH  18  19
HETATM   19  C   UNL     1      -8.616  15.295  66.379  1.00  0.00    -0.197 C  
BRANCH  19  20
HETATM   20  C   UNL     1      -8.583  16.731  66.893  1.00  0.00    -0.240 C  
BRANCH  20  21
HETATM   21  C   UNL     1      -8.882  16.783  68.388  1.00  0.00    -0.237 C  
BRANCH  21  22
HETATM   22  C   UNL     1     -10.208  17.491  68.646  1.00  0.00    -0.373 C  
HETATM   23  C   UNL     1     -10.622  18.336  67.456  1.00  0.00    -0.432 C  
ENDBRANCH  21  22
ENDBRANCH  20  21
ENDBRANCH  19  20
ENDBRANCH  18  19
ENDBRANCH  17  18
ENDBRANCH  16  17
ENDBRANCH  15  16
ENDBRANCH  14  15
ENDBRANCH  11  14
ENDBRANCH  10  11
ENDBRANCH   9  10
ENDBRANCH   8   9
ENDBRANCH   7   8
ENDBRANCH   6   7
ENDBRANCH   5   6
ENDBRANCH   4   5
ENDBRANCH   3   4
ENDBRANCH   2   3
TORSDOF 18
ENDMDL
MODEL       39
REMARK 921   NORMALIZED FREE ENERGY PREDICTED BY IDOCK:   -3.83 KCAL/MOL
REMARK 922        TOTAL FREE ENERGY PREDICTED BY IDOCK:  -10.56 KCAL/MOL
REMARK 923 INTER-LIGAND FREE ENERGY PREDICTED BY IDOCK:   -7.73 KCAL/MOL
REMARK 924 INTRA-LIGAND FREE ENERGY PREDICTED BY IDOCK:   -2.83 KCAL/MOL
REMARK 927      BINDING AFFINITY PREDICTED BY RF-SCORE:    0.00 PKD
ROOT
HETATM    1  C   UNL     1      -7.390   9.684  65.014  1.00  0.00    -0.117 C  
HETATM    2  C   UNL     1      -8.737   9.351  64.401  1.00  0.00    -0.227 C  
ENDROOT
BRANCH   2   3
HETATM    3  C   UNL     1      -8.873   9.956  63.006  1.00  0.00    -0.251 C  
BRANCH   3   4
HETATM    4  C   UNL     1      -9.647  11.267  63.062  1.00  0.00    -0.397 C  
BRANCH   4   5
HETATM    5  C   UNL     1     -10.763  11.196  64.094  1.00  0.00    -0.415 C  
BRANCH   5   6
HETATM    6  C   UNL     1     -11.974  12.002  63.635  1.00  0.00    -0.612 C  
BRANCH   6   7
HETATM    7  C   UNL     1     -12.456  12.899  64.762  1.00  0.00    -0.517 C  
BRANCH   7   8
HETATM    8  C   UNL     1     -12.213  14.373  64.454  1.00  0.00    -0.481 C  
BRANCH   8   9
HETATM    9  C   UNL     1     -10.816  14.738  64.935  1.00  0.00    -0.433 C  
BRANCH   9  10
HETATM   10  C   UNL     1     -10.712  16.205  65.330  1.00  0.00    -0.358 C  
BRANCH  10  11
HETATM   11  N   UNL     1     -10.120  16.399  66.750  1.00  0.00    -0.276 N  
HETATM   12  C   UNL     1      -8.848  15.566  66.913  1.00  0.00    -0.255 C  
HETATM   13  C   UNL     1      -9.805  17.877  66.995  1.00  0.00    -0.314 C  
BRANCH  11  14
HETATM   14  C   UNL     1     -11.212  15.912  67.739  1.00  0.00    -0.258 C  
BRANCH  14  15
HETATM   15  C   UNL     1     -10.792  14.668  68.508  1.00  0.00    -0.256 C  
BRANCH  15  16
HETATM   16  C   UNL     1     -11.972  13.754  68.806  1.00  0.00    -0.400 C  
BRANCH  16  17
HETATM   17  C   UNL     1     -11.688  12.388  68.191  1.00  0.00    -0.408 C  
BRANCH  17  18
HETATM   18  C   UNL     1     -10.271  12.300  67.651  1.00  0.00    -0.208 C  
BRANCH  18  19
HETATM   19  C   UNL     1      -9.839  10.842  67.569  1.00  0.00    -0.197 C  
BRANCH  19  20
HETATM   20  C   UNL     1     -10.949   9.926  68.074  1.00  0.00    -0.269 C  
BRANCH  20  21
HETATM   21  C   UNL     1     -10.440   9.011  69.184  1.00  0.00    -0.239 C  
BRANCH  21  22
HETATM   22  C   UNL     1     -10.426   9.744  70.521  1.00  0.00    -0.366 C  
HETATM   23  C   UNL     1     -11.835  10.005  71.021  1.00  0.00    -0.476 C  
ENDBRANCH  21  22
ENDBRANCH  20  21
ENDBRANCH  19  20
ENDBRANCH  18  19
ENDBRANCH  17  18
ENDBRANCH  16  17
ENDBRANCH  15  16
ENDBRANCH  14  15
ENDBRANCH  11  14
ENDBRANCH  10  11
ENDBRANCH   9  10
ENDBRANCH   8   9
ENDBRANCH   7   8
ENDBRANCH   6   7
ENDBRANCH   5   6
ENDBRANCH   4   5
ENDBRANCH   3   4
ENDBRANCH   2   3
TORSDOF 18
ENDMDL
MODEL       40
REMARK 921   NORMALIZED FREE ENERGY PREDICTED BY IDOCK:   -3.83 KCAL/MOL
REMARK 922        TOTAL FREE ENERGY PREDICTED BY IDOCK:  -10.55 KCAL/MOL
REMARK 923 INTER-LIGAND FREE ENERGY PREDICTED BY IDOCK:   -7.70 KCAL/MOL
REMARK 924 INTRA-LIGAND FREE ENERGY PREDICTED BY IDOCK:   -2.86 KCAL/MOL
REMARK 927      BINDING AFFINITY PREDICTED BY RF-SCORE:    0.00 PKD
ROOT
HETATM    1  C   UNL     1      -8.436  14.055  67.960  1.00  0.00    -0.171 C  
HETATM    2  C   UNL     1      -9.382  13.410  66.964  1.00  0.00    -0.243 C  
ENDROOT
BRANCH   2   3
HETATM    3  C   UNL     1     -10.417  14.411  66.459  1.00  0.00    -0.289 C  
BRANCH   3   4
HETATM    4  C   UNL     1     -11.824  13.973  66.849  1.00  0.00    -0.458 C  
BRANCH   4   5
HETATM    5  C   UNL     1     -12.718  13.861  65.623  1.00  0.00    -0.534 C  
BRANCH   5   6
HETATM    6  C   UNL     1     -12.477  12.540  64.900  1.00  0.00    -0.524 C  
BRANCH   6   7
HETATM    7  C   UNL     1     -11.846  12.801  63.543  1.00  0.00    -0.618 C  
BRANCH   7   8
HETATM    8  C   UNL     1     -10.576  11.981  63.344  1.00  0.00    -0.478 C  
BRANCH   8   9
HETATM    9  C   UNL     1     -10.464  10.987  64.492  1.00  0.00    -0.411 C  
BRANCH   9  10
HETATM   10  C   UNL     1      -9.384   9.943  64.241  1.00  0.00    -0.253 C  
BRANCH  10  11
HETATM   11  N   UNL     1      -8.801   9.363  65.555  1.00  0.00    -0.172 N  
HETATM   12  C   UNL     1      -8.332   7.923  65.338  1.00  0.00    -0.140 C  
HETATM   13  C   UNL     1      -7.629  10.220  66.038  1.00  0.00    -0.128 C  
BRANCH  11  14
HETATM   14  C   UNL     1      -9.956   9.401  66.589  1.00  0.00    -0.258 C  
BRANCH  14  15
HETATM   15  C   UNL     1      -9.469   9.205  68.017  1.00  0.00    -0.157 C  
BRANCH  15  16
HETATM   16  C   UNL     1      -9.979  10.294  68.950  1.00  0.00    -0.209 C  
BRANCH  16  17
HETATM   17  C   UNL     1     -11.393  10.672  68.520  1.00  0.00    -0.348 C  
BRANCH  17  18
HETATM   18  C   UNL     1     -12.288  10.944  69.717  1.00  0.00    -0.326 C  
BRANCH  18  19
HETATM   19  C   UNL     1     -11.683  10.319  70.967  1.00  0.00    -0.461 C  
BRANCH  19  20
HETATM   20  C   UNL     1     -12.512   9.123  71.423  1.00  0.00    -0.396 C  
BRANCH  20  21
HETATM   21  C   UNL     1     -11.649   8.114  72.175  1.00  0.00    -0.417 C  
BRANCH  21  22
HETATM   22  C   UNL     1     -10.788   7.313  71.204  1.00  0.00    -0.260 C  
HETATM   23  C   UNL     1     -11.639   6.623  70.154  1.00  0.00    -0.446 C  
ENDBRANCH  21  22
ENDBRANCH  20  21
ENDBRANCH  19  20
ENDBRANCH  18  19
ENDBRANCH  17  18
ENDBRANCH  16  17
ENDBRANCH  15  16
ENDBRANCH  14  15
ENDBRANCH  11  14
ENDBRANCH  10  11
ENDBRANCH   9  10
ENDBRANCH   8   9
ENDBRANCH   7   8
ENDBRANCH   6   7
ENDBRANCH   5   6
ENDBRANCH   4   5
ENDBRANCH   3   4
ENDBRANCH   2   3
TORSDOF 18
ENDMDL
MODEL       41
REMARK 921   NORMALIZED FREE ENERGY PREDICTED BY IDOCK:   -3.81 KCAL/MOL
REMARK 922        TOTAL FREE ENERGY PREDICTED BY IDOCK:  -10.53 KCAL/MOL
REMARK 923 INTER-LIGAND FREE ENERGY PREDICTED BY IDOCK:   -8.15 KCAL/MOL
REMARK 924 INTRA-LIGAND FREE ENERGY PREDICTED BY IDOCK:   -2.38 KCAL/MOL
REMARK 927      BINDING AFFINITY PREDICTED BY RF-SCORE:    0.00 PKD
ROOT
HETATM    1  C   UNL     1     -10.449   5.812  71.416  1.00  0.00    -0.296 C  
HETATM    2  C   UNL     1     -11.097   7.162  71.661  1.00  0.00    -0.264 C  
ENDROOT
BRANCH   2   3
HETATM    3  C   UNL     1     -12.565   7.152  71.246  1.00  0.00    -0.421 C  
BRANCH   3   4
HETATM    4  C   UNL     1     -13.290   8.372  71.804  1.00  0.00    -0.378 C  
BRANCH   4   5
HETATM    5  C   UNL     1     -12.344   9.558  71.924  1.00  0.00    -0.450 C  
BRANCH   5   6
HETATM    6  C   UNL     1     -12.898  10.766  71.176  1.00  0.00    -0.513 C  
BRANCH   6   7
HETATM    7  C   UNL     1     -12.307  10.824  69.778  1.00  0.00    -0.305 C  
BRANCH   7   8
HETATM    8  C   UNL     1     -10.831  10.440  69.773  1.00  0.00    -0.342 C  
BRANCH   8   9
HETATM    9  C   UNL     1     -10.605   9.424  68.663  1.00  0.00    -0.230 C  
BRANCH   9  10
HETATM   10  C   UNL     1     -10.477  10.087  67.298  1.00  0.00    -0.254 C  
BRANCH  10  11
HETATM   11  N   UNL     1      -9.386   9.427  66.415  1.00  0.00    -0.173 N  
HETATM   12  C   UNL     1      -7.994   9.771  66.945  1.00  0.00    -0.105 C  
HETATM   13  C   UNL     1      -9.570   7.907  66.396  1.00  0.00    -0.181 C  
BRANCH  11  14
HETATM   14  C   UNL     1      -9.578  10.009  64.991  1.00  0.00    -0.297 C  
BRANCH  14  15
HETATM   15  C   UNL     1     -10.592  11.144  64.955  1.00  0.00    -0.356 C  
BRANCH  15  16
HETATM   16  C   UNL     1     -10.855  11.631  63.537  1.00  0.00    -0.497 C  
BRANCH  16  17
HETATM   17  C   UNL     1     -12.023  12.612  63.576  1.00  0.00    -0.630 C  
BRANCH  17  18
HETATM   18  C   UNL     1     -12.611  12.727  64.972  1.00  0.00    -0.538 C  
BRANCH  18  19
HETATM   19  C   UNL     1     -12.702  14.193  65.374  1.00  0.00    -0.453 C  
BRANCH  19  20
HETATM   20  C   UNL     1     -11.662  14.520  66.441  1.00  0.00    -0.372 C  
BRANCH  20  21
HETATM   21  C   UNL     1     -11.834  13.624  67.664  1.00  0.00    -0.404 C  
BRANCH  21  22
HETATM   22  C   UNL     1     -11.188  14.258  68.890  1.00  0.00    -0.289 C  
HETATM   23  C   UNL     1     -12.221  14.569  69.958  1.00  0.00    -0.396 C  
ENDBRANCH  21  22
ENDBRANCH  20  21
ENDBRANCH  19  20
ENDBRANCH  18  19
ENDBRANCH  17  18
ENDBRANCH  16  17
ENDBRANCH  15  16
ENDBRANCH  14  15
ENDBRANCH  11  14
ENDBRANCH  10  11
ENDBRANCH   9  10
ENDBRANCH   8   9
ENDBRANCH   7   8
ENDBRANCH   6   7
ENDBRANCH   5   6
ENDBRANCH   4   5
ENDBRANCH   3   4
ENDBRANCH   2   3
TORSDOF 18
ENDMDL
MODEL       42
REMARK 921   NORMALIZED FREE ENERGY PREDICTED BY IDOCK:   -3.81 KCAL/MOL
REMARK 922        TOTAL FREE ENERGY PREDICTED BY IDOCK:  -10.52 KCAL/MOL
REMARK 923 INTER-LIGAND FREE ENERGY PREDICTED BY IDOCK:   -8.52 KCAL/MOL
REMARK 924 INTRA-LIGAND FREE ENERGY PREDICTED BY IDOCK:   -2.00 KCAL/MOL
REMARK 927      BINDING AFFINITY PREDICTED BY RF-SCORE:    0.00 PKD
ROOT
HETATM    1  C   UNL     1     -13.712  15.392  72.475  1.00  0.00    -0.652 C  
HETATM    2  C   UNL     1     -14.081  13.943  72.212  1.00  0.00    -0.632 C  
ENDROOT
BRANCH   2   3
HETATM    3  C   UNL     1     -12.926  13.190  71.559  1.00  0.00    -0.412 C  
BRANCH   3   4
HETATM    4  C   UNL     1     -13.079  11.688  71.765  1.00  0.00    -0.487 C  
BRANCH   4   5
HETATM    5  C   UNL     1     -12.248  10.913  70.752  1.00  0.00    -0.483 C  
BRANCH   5   6
HETATM    6  C   UNL     1     -11.649   9.664  71.391  1.00  0.00    -0.472 C  
BRANCH   6   7
HETATM    7  C   UNL     1     -12.757   8.786  71.947  1.00  0.00    -0.427 C  
BRANCH   7   8
HETATM    8  C   UNL     1     -12.711   7.378  71.362  1.00  0.00    -0.408 C  
BRANCH   8   9
HETATM    9  C   UNL     1     -11.283   7.092  70.920  1.00  0.00    -0.318 C  
BRANCH   9  10
HETATM   10  C   UNL     1     -11.236   6.301  69.619  1.00  0.00    -0.437 C  
BRANCH  10  11
HETATM   11  N   UNL     1     -10.045   6.713  68.715  1.00  0.00    -0.151 N  
HETATM   12  C   UNL     1      -9.104   7.652  69.471  1.00  0.00    -0.146 C  
HETATM   13  C   UNL     1      -9.276   5.472  68.255  1.00  0.00    -0.109 C  
BRANCH  11  14
HETATM   14  C   UNL     1     -10.666   7.442  67.496  1.00  0.00    -0.240 C  
BRANCH  14  15
HETATM   15  C   UNL     1     -10.660   8.955  67.654  1.00  0.00    -0.292 C  
BRANCH  15  16
HETATM   16  C   UNL     1     -10.038   9.653  66.452  1.00  0.00    -0.317 C  
BRANCH  16  17
HETATM   17  C   UNL     1     -10.012  11.153  66.729  1.00  0.00    -0.242 C  
BRANCH  17  18
HETATM   18  C   UNL     1     -11.374  11.667  67.161  1.00  0.00    -0.373 C  
BRANCH  18  19
HETATM   19  C   UNL     1     -11.983  12.511  66.049  1.00  0.00    -0.456 C  
BRANCH  19  20
HETATM   20  C   UNL     1     -12.163  13.954  66.510  1.00  0.00    -0.482 C  
BRANCH  20  21
HETATM   21  C   UNL     1     -11.895  14.087  68.006  1.00  0.00    -0.403 C  
BRANCH  21  22
HETATM   22  C   UNL     1     -10.933  15.238  68.278  1.00  0.00    -0.276 C  
HETATM   23  C   UNL     1     -11.069  15.744  69.703  1.00  0.00    -0.307 C  
ENDBRANCH  21  22
ENDBRANCH  20  21
ENDBRANCH  19  20
ENDBRANCH  18  19
ENDBRANCH  17  18
ENDBRANCH  16  17
ENDBRANCH  15  16
ENDBRANCH  14  15
ENDBRANCH  11  14
ENDBRANCH  10  11
ENDBRANCH   9  10
ENDBRANCH   8   9
ENDBRANCH   7   8
ENDBRANCH   6   7
ENDBRANCH   5   6
ENDBRANCH   4   5
ENDBRANCH   3   4
ENDBRANCH   2   3
TORSDOF 18
ENDMDL
MODEL       43
REMARK 921   NORMALIZED FREE ENERGY PREDICTED BY IDOCK:   -3.80 KCAL/MOL
REMARK 922        TOTAL FREE ENERGY PREDICTED BY IDOCK:  -10.49 KCAL/MOL
REMARK 923 INTER-LIGAND FREE ENERGY PREDICTED BY IDOCK:   -8.14 KCAL/MOL
REMARK 924 INTRA-LIGAND FREE ENERGY PREDICTED BY IDOCK:   -2.35 KCAL/MOL
REMARK 927      BINDING AFFINITY PREDICTED BY RF-SCORE:    0.00 PKD
ROOT
HETATM    1  C   UNL     1      -8.628  16.360  66.375  1.00  0.00    -0.358 C  
HETATM    2  C   UNL     1     -10.081  16.307  65.939  1.00  0.00    -0.381 C  
ENDROOT
BRANCH   2   3
HETATM    3  C   UNL     1     -10.437  14.936  65.373  1.00  0.00    -0.406 C  
BRANCH   3   4
HETATM    4  C   UNL     1     -11.619  15.039  64.416  1.00  0.00    -0.281 C  
BRANCH   4   5
HETATM    5  C   UNL     1     -12.776  14.169  64.885  1.00  0.00    -0.284 C  
BRANCH   5   6
HETATM    6  C   UNL     1     -12.418  12.691  64.770  1.00  0.00    -0.555 C  
BRANCH   6   7
HETATM    7  C   UNL     1     -11.939  12.384  63.361  1.00  0.00    -0.595 C  
BRANCH   7   8
HETATM    8  C   UNL     1     -10.470  11.972  63.342  1.00  0.00    -0.474 C  
BRANCH   8   9
HETATM    9  C   UNL     1     -10.315  10.715  64.187  1.00  0.00    -0.293 C  
BRANCH   9  10
HETATM   10  C   UNL     1      -8.904  10.570  64.742  1.00  0.00    -0.196 C  
BRANCH  10  11
HETATM   11  N   UNL     1      -8.879  10.499  66.291  1.00  0.00    -0.155 N  
HETATM   12  C   UNL     1      -8.231   9.193  66.752  1.00  0.00    -0.119 C  
HETATM   13  C   UNL     1      -8.104  11.689  66.862  1.00  0.00    -0.164 C  
BRANCH  11  14
HETATM   14  C   UNL     1     -10.360  10.555  66.746  1.00  0.00    -0.245 C  
BRANCH  14  15
HETATM   15  C   UNL     1     -10.513  11.040  68.180  1.00  0.00    -0.216 C  
BRANCH  15  16
HETATM   16  C   UNL     1     -11.659  12.031  68.330  1.00  0.00    -0.394 C  
BRANCH  16  17
HETATM   17  C   UNL     1     -11.108  13.312  68.947  1.00  0.00    -0.304 C  
BRANCH  17  18
HETATM   18  C   UNL     1     -11.895  14.533  68.500  1.00  0.00    -0.355 C  
BRANCH  18  19
HETATM   19  C   UNL     1     -11.619  15.697  69.441  1.00  0.00    -0.378 C  
BRANCH  19  20
HETATM   20  C   UNL     1     -11.910  15.300  70.884  1.00  0.00    -0.387 C  
BRANCH  20  21
HETATM   21  C   UNL     1     -13.349  15.633  71.264  1.00  0.00    -0.485 C  
BRANCH  21  22
HETATM   22  C   UNL     1     -13.971  14.494  72.065  1.00  0.00    -0.587 C  
HETATM   23  C   UNL     1     -13.168  13.215  71.918  1.00  0.00    -0.526 C  
ENDBRANCH  21  22
ENDBRANCH  20  21
ENDBRANCH  19  20
ENDBRANCH  18  19
ENDBRANCH  17  18
ENDBRANCH  16  17
ENDBRANCH  15  16
ENDBRANCH  14  15
ENDBRANCH  11  14
ENDBRANCH  10  11
ENDBRANCH   9  10
ENDBRANCH   8   9
ENDBRANCH   7   8
ENDBRANCH   6   7
ENDBRANCH   5   6
ENDBRANCH   4   5
ENDBRANCH   3   4
ENDBRANCH   2   3
TORSDOF 18
ENDMDL
MODEL       44
REMARK 921   NORMALIZED FREE ENERGY PREDICTED BY IDOCK:   -3.79 KCAL/MOL
REMARK 922        TOTAL FREE ENERGY PREDICTED BY IDOCK:  -10.49 KCAL/MOL
REMARK 923 INTER-LIGAND FREE ENERGY PREDICTED BY IDOCK:   -8.58 KCAL/MOL
REMARK 924 INTRA-LIGAND FREE ENERGY PREDICTED BY IDOCK:   -1.91 KCAL/MOL
REMARK 927      BINDING AFFINITY PREDICTED BY RF-SCORE:    0.00 PKD
ROOT
HETATM    1  C   UNL     1     -12.794  15.761  73.608  1.00  0.00    -0.716 C  
HETATM    2  C   UNL     1     -13.838  15.556  72.526  1.00  0.00    -0.669 C  
ENDROOT
BRANCH   2   3
HETATM    3  C   UNL     1     -13.195  15.110  71.216  1.00  0.00    -0.536 C  
BRANCH   3   4
HETATM    4  C   UNL     1     -12.826  13.632  71.275  1.00  0.00    -0.424 C  
BRANCH   4   5
HETATM    5  C   UNL     1     -11.957  13.242  70.089  1.00  0.00    -0.388 C  
BRANCH   5   6
HETATM    6  C   UNL     1     -11.397  14.482  69.400  1.00  0.00    -0.314 C  
BRANCH   6   7
HETATM    7  C   UNL     1     -11.876  14.535  67.959  1.00  0.00    -0.350 C  
BRANCH   7   8
HETATM    8  C   UNL     1     -10.819  15.130  67.034  1.00  0.00    -0.314 C  
BRANCH   8   9
HETATM    9  C   UNL     1     -11.256  14.895  65.596  1.00  0.00    -0.347 C  
BRANCH   9  10
HETATM   10  C   UNL     1     -10.314  13.954  64.858  1.00  0.00    -0.406 C  
BRANCH  10  11
HETATM   11  N   UNL     1     -11.056  12.754  64.213  1.00  0.00    -0.346 N  
HETATM   12  C   UNL     1     -12.216  13.250  63.349  1.00  0.00    -0.403 C  
HETATM   13  C   UNL     1     -10.089  11.932  63.358  1.00  0.00    -0.438 C  
BRANCH  11  14
HETATM   14  C   UNL     1     -11.591  11.899  65.391  1.00  0.00    -0.223 C  
BRANCH  14  15
HETATM   15  C   UNL     1     -10.530  10.977  65.974  1.00  0.00    -0.304 C  
BRANCH  15  16
HETATM   16  C   UNL     1     -10.260  11.272  67.443  1.00  0.00    -0.217 C  
BRANCH  16  17
HETATM   17  C   UNL     1      -9.597  10.047  68.064  1.00  0.00    -0.154 C  
BRANCH  17  18
HETATM   18  C   UNL     1      -9.037  10.351  69.443  1.00  0.00    -0.170 C  
BRANCH  18  19
HETATM   19  C   UNL     1      -9.444   9.254  70.418  1.00  0.00    -0.292 C  
BRANCH  19  20
HETATM   20  C   UNL     1     -10.907   8.875  70.217  1.00  0.00    -0.265 C  
BRANCH  20  21
HETATM   21  C   UNL     1     -11.782   9.473  71.315  1.00  0.00    -0.444 C  
BRANCH  21  22
HETATM   22  C   UNL     1     -12.363   8.374  72.198  1.00  0.00    -0.426 C  
HETATM   23  C   UNL     1     -12.781   7.170  71.374  1.00  0.00    -0.433 C  
ENDBRANCH  21  22
ENDBRANCH  20  21
ENDBRANCH  19  20
ENDBRANCH  18  19
ENDBRANCH  17  18
ENDBRANCH  16  17
ENDBRANCH  15  16
ENDBRANCH  14  15
ENDBRANCH  11  14
ENDBRANCH  10  11
ENDBRANCH   9  10
ENDBRANCH   8   9
ENDBRANCH   7   8
ENDBRANCH   6   7
ENDBRANCH   5   6
ENDBRANCH   4   5
ENDBRANCH   3   4
ENDBRANCH   2   3
TORSDOF 18
ENDMDL
MODEL       45
REMARK 921   NORMALIZED FREE ENERGY PREDICTED BY IDOCK:   -3.79 KCAL/MOL
REMARK 922        TOTAL FREE ENERGY PREDICTED BY IDOCK:  -10.48 KCAL/MOL
REMARK 923 INTER-LIGAND FREE ENERGY PREDICTED BY IDOCK:   -8.55 KCAL/MOL
REMARK 924 INTRA-LIGAND FREE ENERGY PREDICTED BY IDOCK:   -1.92 KCAL/MOL
REMARK 927      BINDING AFFINITY PREDICTED BY RF-SCORE:    0.00 PKD
ROOT
HETATM    1  C   UNL     1     -13.222  15.580  71.511  1.00  0.00    -0.589 C  
HETATM    2  C   UNL     1     -14.032  14.602  72.342  1.00  0.00    -0.578 C  
ENDROOT
BRANCH   2   3
HETATM    3  C   UNL     1     -13.586  13.164  72.093  1.00  0.00    -0.637 C  
BRANCH   3   4
HETATM    4  C   UNL     1     -12.547  13.109  70.979  1.00  0.00    -0.397 C  
BRANCH   4   5
HETATM    5  C   UNL     1     -12.293  11.674  70.544  1.00  0.00    -0.410 C  
BRANCH   5   6
HETATM    6  C   UNL     1     -12.812  10.694  71.590  1.00  0.00    -0.570 C  
BRANCH   6   7
HETATM    7  C   UNL     1     -12.205   9.320  71.359  1.00  0.00    -0.426 C  
BRANCH   7   8
HETATM    8  C   UNL     1     -10.701   9.401  71.123  1.00  0.00    -0.417 C  
BRANCH   8   9
HETATM    9  C   UNL     1     -10.356   8.517  69.933  1.00  0.00    -0.210 C  
BRANCH   9  10
HETATM   10  C   UNL     1     -10.795   9.137  68.614  1.00  0.00    -0.049 C  
BRANCH  10  11
HETATM   11  N   UNL     1     -10.027   8.556  67.398  1.00  0.00    -0.195 N  
HETATM   12  C   UNL     1      -8.556   8.339  67.754  1.00  0.00    -0.131 C  
HETATM   13  C   UNL     1     -10.654   7.230  66.961  1.00  0.00    -0.344 C  
BRANCH  11  14
HETATM   14  C   UNL     1     -10.157   9.610  66.268  1.00  0.00    -0.252 C  
BRANCH  14  15
HETATM   15  C   UNL     1      -8.859   9.804  65.498  1.00  0.00    -0.192 C  
BRANCH  15  16
HETATM   16  C   UNL     1      -9.044  10.700  64.281  1.00  0.00    -0.244 C  
BRANCH  16  17
HETATM   17  C   UNL     1     -10.531  11.009  64.134  1.00  0.00    -0.434 C  
BRANCH  17  18
HETATM   18  C   UNL     1     -10.763  12.277  63.330  1.00  0.00    -0.438 C  
BRANCH  18  19
HETATM   19  C   UNL     1     -11.924  13.060  63.927  1.00  0.00    -0.551 C  
BRANCH  19  20
HETATM   20  C   UNL     1     -12.203  12.601  65.354  1.00  0.00    -0.517 C  
BRANCH  20  21
HETATM   21  C   UNL     1     -11.888  13.707  66.356  1.00  0.00    -0.433 C  
BRANCH  21  22
HETATM   22  C   UNL     1     -10.700  13.319  67.229  1.00  0.00    -0.262 C  
HETATM   23  C   UNL     1      -9.465  14.122  66.867  1.00  0.00    -0.275 C  
ENDBRANCH  21  22
ENDBRANCH  20  21
ENDBRANCH  19  20
ENDBRANCH  18  19
ENDBRANCH  17  18
ENDBRANCH  16  17
ENDBRANCH  15  16
ENDBRANCH  14  15
ENDBRANCH  11  14
ENDBRANCH  10  11
ENDBRANCH   9  10
ENDBRANCH   8   9
ENDBRANCH   7   8
ENDBRANCH   6   7
ENDBRANCH   5   6
ENDBRANCH   4   5
ENDBRANCH   3   4
ENDBRANCH   2   3
TORSDOF 18
ENDMDL
MODEL       46
REMARK 921   NORMALIZED FREE ENERGY PREDICTED BY IDOCK:   -3.77 KCAL/MOL
REMARK 922        TOTAL FREE ENERGY PREDICTED BY IDOCK:  -10.43 KCAL/MOL
REMARK 923 INTER-LIGAND FREE ENERGY PREDICTED BY IDOCK:   -8.33 KCAL/MOL
REMARK 924 INTRA-LIGAND FREE ENERGY PREDICTED BY IDOCK:   -2.11 KCAL/MOL
REMARK 927      BINDING AFFINITY PREDICTED BY RF-SCORE:    0.00 PKD
ROOT
HETATM    1  C   UNL     1     -10.792   6.210  68.960  1.00  0.00    -0.416 C  
HETATM    2  C   UNL     1     -11.035   6.423  67.477  1.00  0.00    -0.454 C  
ENDROOT
BRANCH   2   3
HETATM    3  C   UNL     1     -10.317   7.672  66.974  1.00  0.00    -0.400 C  
BRANCH   3   4
HETATM    4  C   UNL     1     -10.440   8.806  67.984  1.00  0.00    -0.260 C  
BRANCH   4   5
HETATM    5  C   UNL     1     -10.698  10.132  67.284  1.00  0.00    -0.316 C  
BRANCH   5   6
HETATM    6  C   UNL     1     -10.025  10.158  65.915  1.00  0.00    -0.334 C  
BRANCH   6   7
HETATM    7  C   UNL     1      -9.394  11.518  65.675  1.00  0.00    -0.221 C  
BRANCH   7   8
HETATM    8  C   UNL     1      -8.680  12.037  66.920  1.00  0.00    -0.193 C  
BRANCH   8   9
HETATM    9  C   UNL     1      -9.006  13.515  67.076  1.00  0.00    -0.237 C  
BRANCH   9  10
HETATM   10  C   UNL     1      -9.942  13.773  68.249  1.00  0.00    -0.243 C  
BRANCH  10  11
HETATM   11  N   UNL     1     -11.156  14.656  67.860  1.00  0.00    -0.280 N  
HETATM   12  C   UNL     1     -10.684  15.927  67.152  1.00  0.00    -0.301 C  
HETATM   13  C   UNL     1     -12.104  13.877  66.944  1.00  0.00    -0.430 C  
BRANCH  11  14
HETATM   14  C   UNL     1     -11.868  15.014  69.190  1.00  0.00    -0.308 C  
BRANCH  14  15
HETATM   15  C   UNL     1     -11.919  13.843  70.160  1.00  0.00    -0.402 C  
BRANCH  15  16
HETATM   16  C   UNL     1     -12.942  14.060  71.266  1.00  0.00    -0.418 C  
BRANCH  16  17
HETATM   17  C   UNL     1     -13.239  12.713  71.917  1.00  0.00    -0.504 C  
BRANCH  17  18
HETATM   18  C   UNL     1     -12.694  11.560  71.091  1.00  0.00    -0.458 C  
BRANCH  18  19
HETATM   19  C   UNL     1     -13.009  10.239  71.779  1.00  0.00    -0.574 C  
BRANCH  19  20
HETATM   20  C   UNL     1     -12.040   9.153  71.323  1.00  0.00    -0.392 C  
BRANCH  20  21
HETATM   21  C   UNL     1     -11.725   8.189  72.463  1.00  0.00    -0.457 C  
BRANCH  21  22
HETATM   22  C   UNL     1     -10.219   8.076  72.671  1.00  0.00    -0.385 C  
HETATM   23  C   UNL     1      -9.456   8.786  71.568  1.00  0.00    -0.341 C  
ENDBRANCH  21  22
ENDBRANCH  20  21
ENDBRANCH  19  20
ENDBRANCH  18  19
ENDBRANCH  17  18
ENDBRANCH  16  17
ENDBRANCH  15  16
ENDBRANCH  14  15
ENDBRANCH  11  14
ENDBRANCH  10  11
ENDBRANCH   9  10
ENDBRANCH   8   9
ENDBRANCH   7   8
ENDBRANCH   6   7
ENDBRANCH   5   6
ENDBRANCH   4   5
ENDBRANCH   3   4
ENDBRANCH   2   3
TORSDOF 18
ENDMDL
MODEL       47
REMARK 921   NORMALIZED FREE ENERGY PREDICTED BY IDOCK:   -3.77 KCAL/MOL
REMARK 922        TOTAL FREE ENERGY PREDICTED BY IDOCK:  -10.43 KCAL/MOL
REMARK 923 INTER-LIGAND FREE ENERGY PREDICTED BY IDOCK:   -8.27 KCAL/MOL
REMARK 924 INTRA-LIGAND FREE ENERGY PREDICTED BY IDOCK:   -2.15 KCAL/MOL
REMARK 927      BINDING AFFINITY PREDICTED BY RF-SCORE:    0.00 PKD
ROOT
HETATM    1  C   UNL     1     -10.216   7.431  67.119  1.00  0.00    -0.347 C  
HETATM    2  C   UNL     1     -10.117   8.902  66.759  1.00  0.00    -0.350 C  
ENDROOT
BRANCH   2   3
HETATM    3  C   UNL     1      -9.188   9.117  65.568  1.00  0.00    -0.287 C  
BRANCH   3   4
HETATM    4  C   UNL     1      -9.201  10.577  65.132  1.00  0.00    -0.243 C  
BRANCH   4   5
HETATM    5  C   UNL     1      -9.714  10.714  63.706  1.00  0.00    -0.382 C  
BRANCH   5   6
HETATM    6  C   UNL     1     -10.388  12.068  63.504  1.00  0.00    -0.492 C  
BRANCH   6   7
HETATM    7  C   UNL     1     -11.897  11.901  63.522  1.00  0.00    -0.560 C  
BRANCH   7   8
HETATM    8  C   UNL     1     -12.564  12.900  64.462  1.00  0.00    -0.420 C  
BRANCH   8   9
HETATM    9  C   UNL     1     -11.959  12.729  65.848  1.00  0.00    -0.506 C  
BRANCH   9  10
HETATM   10  C   UNL     1     -12.175  13.958  66.721  1.00  0.00    -0.399 C  
BRANCH  10  11
HETATM   11  N   UNL     1     -11.270  13.960  67.980  1.00  0.00    -0.260 N  
HETATM   12  C   UNL     1      -9.915  13.327  67.661  1.00  0.00    -0.229 C  
HETATM   13  C   UNL     1     -11.067  15.391  68.484  1.00  0.00    -0.295 C  
BRANCH  11  14
HETATM   14  C   UNL     1     -12.019  13.117  69.046  1.00  0.00    -0.285 C  
BRANCH  14  15
HETATM   15  C   UNL     1     -11.291  11.825  69.387  1.00  0.00    -0.337 C  
BRANCH  15  16
HETATM   16  C   UNL     1     -12.249  10.729  69.830  1.00  0.00    -0.384 C  
BRANCH  16  17
HETATM   17  C   UNL     1     -12.904  11.163  71.138  1.00  0.00    -0.473 C  
BRANCH  17  18
HETATM   18  C   UNL     1     -13.349   9.969  71.965  1.00  0.00    -0.513 C  
BRANCH  18  19
HETATM   19  C   UNL     1     -12.534   8.742  71.580  1.00  0.00    -0.374 C  
BRANCH  19  20
HETATM   20  C   UNL     1     -11.561   8.374  72.694  1.00  0.00    -0.367 C  
BRANCH  20  21
HETATM   21  C   UNL     1     -10.343   7.643  72.137  1.00  0.00    -0.270 C  
BRANCH  21  22
HETATM   22  C   UNL     1      -9.992   8.164  70.748  1.00  0.00    -0.209 C  
HETATM   23  C   UNL     1      -8.884   9.199  70.812  1.00  0.00    -0.291 C  
ENDBRANCH  21  22
ENDBRANCH  20  21
ENDBRANCH  19  20
ENDBRANCH  18  19
ENDBRANCH  17  18
ENDBRANCH  16  17
ENDBRANCH  15  16
ENDBRANCH  14  15
ENDBRANCH  11  14
ENDBRANCH  10  11
ENDBRANCH   9  10
ENDBRANCH   8   9
ENDBRANCH   7   8
ENDBRANCH   6   7
ENDBRANCH   5   6
ENDBRANCH   4   5
ENDBRANCH   3   4
ENDBRANCH   2   3
TORSDOF 18
ENDMDL
MODEL       48
REMARK 921   NORMALIZED FREE ENERGY PREDICTED BY IDOCK:   -3.76 KCAL/MOL
REMARK 922        TOTAL FREE ENERGY PREDICTED BY IDOCK:  -10.41 KCAL/MOL
REMARK 923 INTER-LIGAND FREE ENERGY PREDICTED BY IDOCK:   -7.51 KCAL/MOL
REMARK 924 INTRA-LIGAND FREE ENERGY PREDICTED BY IDOCK:   -2.90 KCAL/MOL
REMARK 927      BINDING AFFINITY PREDICTED BY RF-SCORE:    0.00 PKD
ROOT
HETATM    1  C   UNL     1     -10.803  15.820  65.453  1.00  0.00    -0.376 C  
HETATM    2  C   UNL     1     -11.262  14.511  66.068  1.00  0.00    -0.337 C  
ENDROOT
BRANCH   2   3
HETATM    3  C   UNL     1     -12.609  14.076  65.499  1.00  0.00    -0.543 C  
BRANCH   3   4
HETATM    4  C   UNL     1     -12.528  12.658  64.947  1.00  0.00    -0.564 C  
BRANCH   4   5
HETATM    5  C   UNL     1     -11.864  12.645  63.578  1.00  0.00    -0.619 C  
BRANCH   5   6
HETATM    6  C   UNL     1     -10.654  11.716  63.575  1.00  0.00    -0.496 C  
BRANCH   6   7
HETATM    7  C   UNL     1     -10.461  11.115  64.956  1.00  0.00    -0.357 C  
BRANCH   7   8
HETATM    8  C   UNL     1      -9.474   9.952  64.933  1.00  0.00    -0.355 C  
BRANCH   8   9
HETATM    9  C   UNL     1      -9.312   9.434  66.355  1.00  0.00    -0.241 C  
BRANCH   9  10
HETATM   10  C   UNL     1     -10.639   9.381  67.099  1.00  0.00    -0.224 C  
BRANCH  10  11
HETATM   11  N   UNL     1     -10.601  10.158  68.441  1.00  0.00    -0.204 N  
HETATM   12  C   UNL     1     -11.752  11.162  68.506  1.00  0.00    -0.298 C  
HETATM   13  C   UNL     1     -10.697   9.184  69.618  1.00  0.00    -0.225 C  
BRANCH  11  14
HETATM   14  C   UNL     1      -9.239  10.899  68.467  1.00  0.00    -0.181 C  
BRANCH  14  15
HETATM   15  C   UNL     1      -9.388  12.403  68.290  1.00  0.00    -0.199 C  
BRANCH  15  16
HETATM   16  C   UNL     1      -8.053  13.126  68.390  1.00  0.00    -0.130 C  
BRANCH  16  17
HETATM   17  C   UNL     1      -8.252  14.568  67.933  1.00  0.00    -0.155 C  
BRANCH  17  18
HETATM   18  C   UNL     1      -8.487  15.501  69.109  1.00  0.00    -0.248 C  
BRANCH  18  19
HETATM   19  C   UNL     1      -9.147  16.785  68.624  1.00  0.00    -0.254 C  
BRANCH  19  20
HETATM   20  C   UNL     1     -10.634  16.784  68.966  1.00  0.00    -0.343 C  
BRANCH  20  21
HETATM   21  C   UNL     1     -10.925  15.848  70.135  1.00  0.00    -0.369 C  
BRANCH  21  22
HETATM   22  C   UNL     1     -12.040  14.872  69.778  1.00  0.00    -0.357 C  
HETATM   23  C   UNL     1     -12.243  13.842  70.874  1.00  0.00    -0.436 C  
ENDBRANCH  21  22
ENDBRANCH  20  21
ENDBRANCH  19  20
ENDBRANCH  18  19
ENDBRANCH  17  18
ENDBRANCH  16  17
ENDBRANCH  15  16
ENDBRANCH  14  15
ENDBRANCH  11  14
ENDBRANCH  10  11
ENDBRANCH   9  10
ENDBRANCH   8   9
ENDBRANCH   7   8
ENDBRANCH   6   7
ENDBRANCH   5   6
ENDBRANCH   4   5
ENDBRANCH   3   4
ENDBRANCH   2   3
TORSDOF 18
ENDMDL
MODEL       49
REMARK 921   NORMALIZED FREE ENERGY PREDICTED BY IDOCK:   -3.75 KCAL/MOL
REMARK 922        TOTAL FREE ENERGY PREDICTED BY IDOCK:  -10.40 KCAL/MOL
REMARK 923 INTER-LIGAND FREE ENERGY PREDICTED BY IDOCK:   -7.52 KCAL/MOL
REMARK 924 INTRA-LIGAND FREE ENERGY PREDICTED BY IDOCK:   -2.88 KCAL/MOL
REMARK 927      BINDING AFFINITY PREDICTED BY RF-SCORE:    0.00 PKD
ROOT
HETATM    1  C   UNL     1     -11.140  15.166  64.853  1.00  0.00    -0.425 C  
HETATM    2  C   UNL     1     -11.912  13.957  64.358  1.00  0.00    -0.480 C  
ENDROOT
BRANCH   2   3
HETATM    3  C   UNL     1     -12.333  13.059  65.518  1.00  0.00    -0.527 C  
BRANCH   3   4
HETATM    4  C   UNL     1     -12.187  13.793  66.846  1.00  0.00    -0.408 C  
BRANCH   4   5
HETATM    5  C   UNL     1     -11.918  12.815  67.980  1.00  0.00    -0.315 C  
BRANCH   5   6
HETATM    6  C   UNL     1     -12.028  13.514  69.331  1.00  0.00    -0.383 C  
BRANCH   6   7
HETATM    7  C   UNL     1     -12.176  12.483  70.437  1.00  0.00    -0.368 C  
BRANCH   7   8
HETATM    8  C   UNL     1     -11.973  11.064  69.915  1.00  0.00    -0.427 C  
BRANCH   8   9
HETATM    9  C   UNL     1     -12.096  10.101  71.088  1.00  0.00    -0.485 C  
BRANCH   9  10
HETATM   10  C   UNL     1     -10.851   9.241  71.254  1.00  0.00    -0.347 C  
BRANCH  10  11
HETATM   11  N   UNL     1     -11.188   7.770  71.611  1.00  0.00    -0.243 N  
HETATM   12  C   UNL     1     -10.852   7.489  73.076  1.00  0.00    -0.392 C  
HETATM   13  C   UNL     1     -12.671   7.490  71.358  1.00  0.00    -0.348 C  
BRANCH  11  14
HETATM   14  C   UNL     1     -10.310   6.892  70.681  1.00  0.00    -0.200 C  
BRANCH  14  15
HETATM   15  C   UNL     1     -10.789   6.910  69.237  1.00  0.00    -0.270 C  
BRANCH  15  16
HETATM   16  C   UNL     1      -9.736   7.468  68.291  1.00  0.00    -0.163 C  
BRANCH  16  17
HETATM   17  C   UNL     1     -10.436   7.952  67.025  1.00  0.00    -0.419 C  
BRANCH  17  18
HETATM   18  C   UNL     1     -10.632   9.458  67.034  1.00  0.00    -0.272 C  
BRANCH  18  19
HETATM   19  C   UNL     1      -9.952  10.074  65.818  1.00  0.00    -0.346 C  
BRANCH  19  20
HETATM   20  C   UNL     1      -9.019  11.203  66.241  1.00  0.00    -0.202 C  
BRANCH  20  21
HETATM   21  C   UNL     1      -8.804  11.198  67.751  1.00  0.00    -0.135 C  
BRANCH  21  22
HETATM   22  C   UNL     1      -8.048  12.446  68.191  1.00  0.00    -0.163 C  
HETATM   23  C   UNL     1      -8.525  13.674  67.437  1.00  0.00    -0.206 C  
ENDBRANCH  21  22
ENDBRANCH  20  21
ENDBRANCH  19  20
ENDBRANCH  18  19
ENDBRANCH  17  18
ENDBRANCH  16  17
ENDBRANCH  15  16
ENDBRANCH  14  15
ENDBRANCH  11  14
ENDBRANCH  10  11
ENDBRANCH   9  10
ENDBRANCH   8   9
ENDBRANCH   7   8
ENDBRANCH   6   7
ENDBRANCH   5   6
ENDBRANCH   4   5
ENDBRANCH   3   4
ENDBRANCH   2   3
TORSDOF 18
ENDMDL
MODEL       50
REMARK 921   NORMALIZED FREE ENERGY PREDICTED BY IDOCK:   -3.75 KCAL/MOL
REMARK 922        TOTAL FREE ENERGY PREDICTED BY IDOCK:  -10.39 KCAL/MOL
REMARK 923 INTER-LIGAND FREE ENERGY PREDICTED BY IDOCK:   -8.83 KCAL/MOL
REMARK 924 INTRA-LIGAND FREE ENERGY PREDICTED BY IDOCK:   -1.57 KCAL/MOL
REMARK 927      BINDING AFFINITY PREDICTED BY RF-SCORE:    0.00 PKD
ROOT
HETATM    1  C   UNL     1      -7.015  20.964  67.111  1.00  0.00    -0.426 C  
HETATM    2  C   UNL     1      -8.100  19.914  67.248  1.00  0.00    -0.341 C  
ENDROOT
BRANCH   2   3
HETATM    3  C   UNL     1      -9.488  20.546  67.213  1.00  0.00    -0.559 C  
BRANCH   3   4
HETATM    4  C   UNL     1     -10.507  19.576  66.625  1.00  0.00    -0.593 C  
BRANCH   4   5
HETATM    5  C   UNL     1     -10.717  18.385  67.548  1.00  0.00    -0.399 C  
BRANCH   5   6
HETATM    6  C   UNL     1     -10.332  17.086  66.847  1.00  0.00    -0.303 C  
BRANCH   6   7
HETATM    7  C   UNL     1     -10.390  15.930  67.831  1.00  0.00    -0.269 C  
BRANCH   7   8
HETATM    8  C   UNL     1     -11.394  16.191  68.950  1.00  0.00    -0.350 C  
BRANCH   8   9
HETATM    9  C   UNL     1     -11.232  15.102  70.000  1.00  0.00    -0.301 C  
BRANCH   9  10
HETATM   10  C   UNL     1     -12.508  14.292  70.185  1.00  0.00    -0.335 C  
BRANCH  10  11
HETATM   11  N   UNL     1     -13.090  14.417  71.617  1.00  0.00    -0.331 N  
HETATM   12  C   UNL     1     -12.083  15.100  72.542  1.00  0.00    -0.386 C  
HETATM   13  C   UNL     1     -14.393  15.221  71.589  1.00  0.00    -0.561 C  
BRANCH  11  14
HETATM   14  C   UNL     1     -13.364  12.968  72.095  1.00  0.00    -0.524 C  
BRANCH  14  15
HETATM   15  C   UNL     1     -12.692  11.925  71.214  1.00  0.00    -0.401 C  
BRANCH  15  16
HETATM   16  C   UNL     1     -13.063  10.506  71.623  1.00  0.00    -0.551 C  
BRANCH  16  17
HETATM   17  C   UNL     1     -12.066   9.546  70.982  1.00  0.00    -0.398 C  
BRANCH  17  18
HETATM   18  C   UNL     1     -10.997  10.289  70.199  1.00  0.00    -0.377 C  
BRANCH  18  19
HETATM   19  C   UNL     1     -10.855   9.676  68.812  1.00  0.00    -0.199 C  
BRANCH  19  20
HETATM   20  C   UNL     1      -9.923  10.519  67.948  1.00  0.00    -0.193 C  
BRANCH  20  21
HETATM   21  C   UNL     1     -10.480  10.676  66.536  1.00  0.00    -0.285 C  
BRANCH  21  22
HETATM   22  C   UNL     1     -10.629  12.151  66.178  1.00  0.00    -0.290 C  
HETATM   23  C   UNL     1     -11.908  12.730  66.753  1.00  0.00    -0.452 C  
ENDBRANCH  21  22
ENDBRANCH  20  21
ENDBRANCH  19  20
ENDBRANCH  18  19
ENDBRANCH  17  18
ENDBRANCH  16  17
ENDBRANCH  15  16
ENDBRANCH  14  15
ENDBRANCH  11  14
ENDBRANCH  10  11
ENDBRANCH   9  10
ENDBRANCH   8   9
ENDBRANCH   7   8
ENDBRANCH   6   7
ENDBRANCH   5   6
ENDBRANCH   4   5
ENDBRANCH   3   4
ENDBRANCH   2   3
TORSDOF 18
ENDMDL
MODEL       51
REMARK 921   NORMALIZED FREE ENERGY PREDICTED BY IDOCK:   -3.75 KCAL/MOL
REMARK 922        TOTAL FREE ENERGY PREDICTED BY IDOCK:  -10.39 KCAL/MOL
REMARK 923 INTER-LIGAND FREE ENERGY PREDICTED BY IDOCK:   -8.97 KCAL/MOL
REMARK 924 INTRA-LIGAND FREE ENERGY PREDICTED BY IDOCK:   -1.43 KCAL/MOL
REMARK 927      BINDING AFFINITY PREDICTED BY RF-SCORE:    0.00 PKD
ROOT
HETATM    1  C   UNL     1     -10.440   5.587  70.401  1.00  0.00    -0.356 C  
HETATM    2  C   UNL     1     -11.604   6.550  70.261  1.00  0.00    -0.473 C  
ENDROOT
BRANCH   2   3
HETATM    3  C   UNL     1     -12.246   6.841  71.615  1.00  0.00    -0.410 C  
BRANCH   3   4
HETATM    4  C   UNL     1     -12.021   8.294  72.015  1.00  0.00    -0.405 C  
BRANCH   4   5
HETATM    5  C   UNL     1     -13.344   9.037  72.132  1.00  0.00    -0.510 C  
BRANCH   5   6
HETATM    6  C   UNL     1     -13.178  10.499  71.731  1.00  0.00    -0.522 C  
BRANCH   6   7
HETATM    7  C   UNL     1     -12.034  10.636  70.740  1.00  0.00    -0.477 C  
BRANCH   7   8
HETATM    8  C   UNL     1     -11.929  12.056  70.193  1.00  0.00    -0.401 C  
BRANCH   8   9
HETATM    9  C   UNL     1     -11.767  11.975  68.682  1.00  0.00    -0.380 C  
BRANCH   9  10
HETATM   10  C   UNL     1     -11.857  13.345  68.023  1.00  0.00    -0.357 C  
BRANCH  10  11
HETATM   11  N   UNL     1     -11.383  13.328  66.547  1.00  0.00    -0.312 N  
HETATM   12  C   UNL     1     -11.129  11.892  66.087  1.00  0.00    -0.326 C  
HETATM   13  C   UNL     1     -12.434  13.981  65.646  1.00  0.00    -0.504 C  
BRANCH  11  14
HETATM   14  C   UNL     1     -10.065  14.144  66.512  1.00  0.00    -0.280 C  
BRANCH  14  15
HETATM   15  C   UNL     1     -10.211  15.518  67.150  1.00  0.00    -0.260 C  
BRANCH  15  16
HETATM   16  C   UNL     1      -8.862  16.138  67.488  1.00  0.00    -0.198 C  
BRANCH  16  17
HETATM   17  C   UNL     1      -8.324  16.826  66.237  1.00  0.00    -0.353 C  
BRANCH  17  18
HETATM   18  C   UNL     1      -7.103  17.676  66.547  1.00  0.00    -0.282 C  
BRANCH  18  19
HETATM   19  C   UNL     1      -7.331  19.101  66.062  1.00  0.00    -0.295 C  
BRANCH  19  20
HETATM   20  C   UNL     1      -8.105  19.904  67.102  1.00  0.00    -0.341 C  
BRANCH  20  21
HETATM   21  C   UNL     1      -9.539  20.154  66.644  1.00  0.00    -0.547 C  
BRANCH  21  22
HETATM   22  C   UNL     1     -10.517  19.929  67.792  1.00  0.00    -0.511 C  
HETATM   23  C   UNL     1      -9.819  19.338  69.003  1.00  0.00    -0.466 C  
ENDBRANCH  21  22
ENDBRANCH  20  21
ENDBRANCH  19  20
ENDBRANCH  18  19
ENDBRANCH  17  18
ENDBRANCH  16  17
ENDBRANCH  15  16
ENDBRANCH  14  15
ENDBRANCH  11  14
ENDBRANCH  10  11
ENDBRANCH   9  10
ENDBRANCH   8   9
ENDBRANCH   7   8
ENDBRANCH   6   7
ENDBRANCH   5   6
ENDBRANCH   4   5
ENDBRANCH   3   4
ENDBRANCH   2   3
TORSDOF 18
ENDMDL
MODEL       52
REMARK 921   NORMALIZED FREE ENERGY PREDICTED BY IDOCK:   -3.74 KCAL/MOL
REMARK 922        TOTAL FREE ENERGY PREDICTED BY IDOCK:  -10.38 KCAL/MOL
REMARK 923 INTER-LIGAND FREE ENERGY PREDICTED BY IDOCK:   -8.07 KCAL/MOL
REMARK 924 INTRA-LIGAND FREE ENERGY PREDICTED BY IDOCK:   -2.31 KCAL/MOL
REMARK 927      BINDING AFFINITY PREDICTED BY RF-SCORE:    0.00 PKD
ROOT
HETATM    1  C   UNL     1     -12.530  16.169  74.048  1.00  0.00    -0.711 C  
HETATM    2  C   UNL     1     -11.928  16.264  72.659  1.00  0.00    -0.644 C  
ENDROOT
BRANCH   2   3
HETATM    3  C   UNL     1     -12.755  15.480  71.644  1.00  0.00    -0.502 C  
BRANCH   3   4
HETATM    4  C   UNL     1     -13.896  14.742  72.335  1.00  0.00    -0.578 C  
BRANCH   4   5
HETATM    5  C   UNL     1     -13.725  13.235  72.206  1.00  0.00    -0.686 C  
BRANCH   5   6
HETATM    6  C   UNL     1     -12.543  12.903  71.302  1.00  0.00    -0.352 C  
BRANCH   6   7
HETATM    7  C   UNL     1     -12.648  11.467  70.820  1.00  0.00    -0.409 C  
BRANCH   7   8
HETATM    8  C   UNL     1     -11.565  11.133  69.799  1.00  0.00    -0.409 C  
BRANCH   8   9
HETATM    9  C   UNL     1     -10.836   9.881  70.266  1.00  0.00    -0.367 C  
BRANCH   9  10
HETATM   10  C   UNL     1     -10.423   8.992  69.102  1.00  0.00    -0.225 C  
BRANCH  10  11
HETATM   11  N   UNL     1      -8.887   8.793  69.021  1.00  0.00    -0.136 N  
HETATM   12  C   UNL     1      -8.232   9.171  70.350  1.00  0.00    -0.171 C  
HETATM   13  C   UNL     1      -8.559   7.338  68.678  1.00  0.00    -0.128 C  
BRANCH  11  14
HETATM   14  C   UNL     1      -8.393   9.734  67.892  1.00  0.00    -0.114 C  
BRANCH  14  15
HETATM   15  C   UNL     1      -9.398   9.865  66.757  1.00  0.00    -0.187 C  
BRANCH  15  16
HETATM   16  C   UNL     1      -9.713  11.319  66.436  1.00  0.00    -0.238 C  
BRANCH  16  17
HETATM   17  C   UNL     1     -11.138  11.394  65.897  1.00  0.00    -0.225 C  
BRANCH  17  18
HETATM   18  C   UNL     1     -11.791  12.727  66.222  1.00  0.00    -0.485 C  
BRANCH  18  19
HETATM   19  C   UNL     1     -10.719  13.780  66.466  1.00  0.00    -0.284 C  
BRANCH  19  20
HETATM   20  C   UNL     1     -11.195  14.800  67.495  1.00  0.00    -0.339 C  
BRANCH  20  21
HETATM   21  C   UNL     1     -10.361  14.720  68.770  1.00  0.00    -0.248 C  
BRANCH  21  22
HETATM   22  C   UNL     1     -10.068  16.115  69.310  1.00  0.00    -0.260 C  
HETATM   23  C   UNL     1     -10.492  17.187  68.323  1.00  0.00    -0.373 C  
ENDBRANCH  21  22
ENDBRANCH  20  21
ENDBRANCH  19  20
ENDBRANCH  18  19
ENDBRANCH  17  18
ENDBRANCH  16  17
ENDBRANCH  15  16
ENDBRANCH  14  15
ENDBRANCH  11  14
ENDBRANCH  10  11
ENDBRANCH   9  10
ENDBRANCH   8   9
ENDBRANCH   7   8
ENDBRANCH   6   7
ENDBRANCH   5   6
ENDBRANCH   4   5
ENDBRANCH   3   4
ENDBRANCH   2   3
TORSDOF 18
ENDMDL
MODEL       53
REMARK 921   NORMALIZED FREE ENERGY PREDICTED BY IDOCK:   -3.74 KCAL/MOL
REMARK 922        TOTAL FREE ENERGY PREDICTED BY IDOCK:  -10.37 KCAL/MOL
REMARK 923 INTER-LIGAND FREE ENERGY PREDICTED BY IDOCK:   -8.43 KCAL/MOL
REMARK 924 INTRA-LIGAND FREE ENERGY PREDICTED BY IDOCK:   -1.94 KCAL/MOL
REMARK 927      BINDING AFFINITY PREDICTED BY RF-SCORE:    0.00 PKD
ROOT
HETATM    1  C   UNL     1     -12.820  15.430  71.025  1.00  0.00    -0.525 C  
HETATM    2  C   UNL     1     -13.804  15.032  72.108  1.00  0.00    -0.584 C  
ENDROOT
BRANCH   2   3
HETATM    3  C   UNL     1     -13.770  13.528  72.361  1.00  0.00    -0.704 C  
BRANCH   3   4
HETATM    4  C   UNL     1     -12.863  12.834  71.351  1.00  0.00    -0.371 C  
BRANCH   4   5
HETATM    5  C   UNL     1     -12.900  11.324  71.535  1.00  0.00    -0.519 C  
BRANCH   5   6
HETATM    6  C   UNL     1     -12.506  10.614  70.244  1.00  0.00    -0.381 C  
BRANCH   6   7
HETATM    7  C   UNL     1     -11.041  10.218  70.297  1.00  0.00    -0.388 C  
BRANCH   7   8
HETATM    8  C   UNL     1     -10.296  10.637  69.033  1.00  0.00    -0.237 C  
BRANCH   8   9
HETATM    9  C   UNL     1     -11.046  11.800  68.400  1.00  0.00    -0.286 C  
BRANCH   9  10
HETATM   10  C   UNL     1     -10.186  13.053  68.311  1.00  0.00    -0.246 C  
BRANCH  10  11
HETATM   11  N   UNL     1     -10.799  14.130  67.378  1.00  0.00    -0.284 N  
HETATM   12  C   UNL     1     -12.268  13.814  67.096  1.00  0.00    -0.313 C  
HETATM   13  C   UNL     1     -10.682  15.514  68.020  1.00  0.00    -0.283 C  
BRANCH  11  14
HETATM   14  C   UNL     1      -9.976  14.076  66.065  1.00  0.00    -0.315 C  
BRANCH  14  15
HETATM   15  C   UNL     1     -10.855  14.021  64.825  1.00  0.00    -0.430 C  
BRANCH  15  16
HETATM   16  C   UNL     1     -10.670  12.724  64.049  1.00  0.00    -0.457 C  
BRANCH  16  17
HETATM   17  C   UNL     1      -9.768  11.802  64.863  1.00  0.00    -0.199 C  
BRANCH  17  18
HETATM   18  C   UNL     1      -9.951  10.347  64.468  1.00  0.00    -0.401 C  
BRANCH  18  19
HETATM   19  C   UNL     1      -9.945   9.469  65.712  1.00  0.00    -0.316 C  
BRANCH  19  20
HETATM   20  C   UNL     1      -8.864   8.399  65.607  1.00  0.00    -0.196 C  
BRANCH  20  21
HETATM   21  C   UNL     1      -9.196   7.199  66.488  1.00  0.00    -0.199 C  
BRANCH  21  22
HETATM   22  C   UNL     1     -10.614   7.310  67.037  1.00  0.00    -0.415 C  
HETATM   23  C   UNL     1     -10.803   6.431  68.259  1.00  0.00    -0.384 C  
ENDBRANCH  21  22
ENDBRANCH  20  21
ENDBRANCH  19  20
ENDBRANCH  18  19
ENDBRANCH  17  18
ENDBRANCH  16  17
ENDBRANCH  15  16
ENDBRANCH  14  15
ENDBRANCH  11  14
ENDBRANCH  10  11
ENDBRANCH   9  10
ENDBRANCH   8   9
ENDBRANCH   7   8
ENDBRANCH   6   7
ENDBRANCH   5   6
ENDBRANCH   4   5
ENDBRANCH   3   4
ENDBRANCH   2   3
TORSDOF 18
ENDMDL
MODEL       54
REMARK 921   NORMALIZED FREE ENERGY PREDICTED BY IDOCK:   -3.74 KCAL/MOL
REMARK 922        TOTAL FREE ENERGY PREDICTED BY IDOCK:  -10.37 KCAL/MOL
REMARK 923 INTER-LIGAND FREE ENERGY PREDICTED BY IDOCK:   -8.40 KCAL/MOL
REMARK 924 INTRA-LIGAND FREE ENERGY PREDICTED BY IDOCK:   -1.97 KCAL/MOL
REMARK 927      BINDING AFFINITY PREDICTED BY RF-SCORE:    0.00 PKD
ROOT
HETATM    1  C   UNL     1     -14.411   8.492  71.877  1.00  0.00    -0.536 C  
HETATM    2  C   UNL     1     -13.374   9.511  72.310  1.00  0.00    -0.526 C  
ENDROOT
BRANCH   2   3
HETATM    3  C   UNL     1     -12.638  10.095  71.107  1.00  0.00    -0.486 C  
BRANCH   3   4
HETATM    4  C   UNL     1     -11.143   9.814  71.203  1.00  0.00    -0.414 C  
BRANCH   4   5
HETATM    5  C   UNL     1     -10.879   8.541  71.994  1.00  0.00    -0.405 C  
BRANCH   5   6
HETATM    6  C   UNL     1     -10.291   7.460  71.094  1.00  0.00    -0.209 C  
BRANCH   6   7
HETATM    7  C   UNL     1     -11.409   6.656  70.452  1.00  0.00    -0.421 C  
BRANCH   7   8
HETATM    8  C   UNL     1     -11.073   6.267  69.016  1.00  0.00    -0.446 C  
BRANCH   8   9
HETATM    9  C   UNL     1      -9.945   7.165  68.529  1.00  0.00    -0.163 C  
BRANCH   9  10
HETATM   10  C   UNL     1     -10.247   7.774  67.167  1.00  0.00    -0.295 C  
BRANCH  10  11
HETATM   11  N   UNL     1      -9.578   9.160  66.974  1.00  0.00    -0.160 N  
HETATM   12  C   UNL     1      -8.282   9.241  67.781  1.00  0.00    -0.115 C  
HETATM   13  C   UNL     1      -9.280   9.401  65.492  1.00  0.00    -0.232 C  
BRANCH  11  14
HETATM   14  C   UNL     1     -10.601  10.204  67.492  1.00  0.00    -0.273 C  
BRANCH  14  15
HETATM   15  C   UNL     1      -9.937  11.495  67.950  1.00  0.00    -0.193 C  
BRANCH  15  16
HETATM   16  C   UNL     1     -10.662  12.728  67.427  1.00  0.00    -0.248 C  
BRANCH  16  17
HETATM   17  C   UNL     1     -11.970  12.878  68.197  1.00  0.00    -0.306 C  
BRANCH  17  18
HETATM   18  C   UNL     1     -11.730  13.343  69.624  1.00  0.00    -0.375 C  
BRANCH  18  19
HETATM   19  C   UNL     1     -11.295  14.802  69.624  1.00  0.00    -0.316 C  
BRANCH  19  20
HETATM   20  C   UNL     1     -12.219  15.635  70.506  1.00  0.00    -0.437 C  
BRANCH  20  21
HETATM   21  C   UNL     1     -11.678  15.727  71.930  1.00  0.00    -0.572 C  
BRANCH  21  22
HETATM   22  C   UNL     1     -12.606  15.009  72.905  1.00  0.00    -0.510 C  
HETATM   23  C   UNL     1     -12.333  15.431  74.337  1.00  0.00    -0.766 C  
ENDBRANCH  21  22
ENDBRANCH  20  21
ENDBRANCH  19  20
ENDBRANCH  18  19
ENDBRANCH  17  18
ENDBRANCH  16  17
ENDBRANCH  15  16
ENDBRANCH  14  15
ENDBRANCH  11  14
ENDBRANCH  10  11
ENDBRANCH   9  10
ENDBRANCH   8   9
ENDBRANCH   7   8
ENDBRANCH   6   7
ENDBRANCH   5   6
ENDBRANCH   4   5
ENDBRANCH   3   4
ENDBRANCH   2   3
TORSDOF 18
ENDMDL
MODEL       55
REMARK 921   NORMALIZED FREE ENERGY PREDICTED BY IDOCK:   -3.73 KCAL/MOL
REMARK 922        TOTAL FREE ENERGY PREDICTED BY IDOCK:  -10.36 KCAL/MOL
REMARK 923 INTER-LIGAND FREE ENERGY PREDICTED BY IDOCK:   -7.86 KCAL/MOL
REMARK 924 INTRA-LIGAND FREE ENERGY PREDICTED BY IDOCK:   -2.50 KCAL/MOL
REMARK 927      BINDING AFFINITY PREDICTED BY RF-SCORE:    0.00 PKD
ROOT
HETATM    1  C   UNL     1     -11.812   6.824  70.242  1.00  0.00    -0.359 C  
HETATM    2  C   UNL     1     -11.904   6.995  71.746  1.00  0.00    -0.347 C  
ENDROOT
BRANCH   2   3
HETATM    3  C   UNL     1     -11.746   8.459  72.146  1.00  0.00    -0.442 C  
BRANCH   3   4
HETATM    4  C   UNL     1     -13.088   9.180  72.089  1.00  0.00    -0.516 C  
BRANCH   4   5
HETATM    5  C   UNL     1     -12.917  10.606  71.586  1.00  0.00    -0.582 C  
BRANCH   5   6
HETATM    6  C   UNL     1     -11.721  10.705  70.644  1.00  0.00    -0.454 C  
BRANCH   6   7
HETATM    7  C   UNL     1     -11.897  11.888  69.708  1.00  0.00    -0.411 C  
BRANCH   7   8
HETATM    8  C   UNL     1     -11.815  11.468  68.244  1.00  0.00    -0.327 C  
BRANCH   8   9
HETATM    9  C   UNL     1     -11.144  10.104  68.176  1.00  0.00    -0.290 C  
BRANCH   9  10
HETATM   10  C   UNL     1     -10.185   9.997  66.998  1.00  0.00    -0.237 C  
BRANCH  10  11
HETATM   11  N   UNL     1      -8.702  10.152  67.422  1.00  0.00    -0.125 N  
HETATM   12  C   UNL     1      -8.554   9.929  68.928  1.00  0.00    -0.135 C  
HETATM   13  C   UNL     1      -7.827   9.152  66.663  1.00  0.00    -0.100 C  
BRANCH  11  14
HETATM   14  C   UNL     1      -8.302  11.604  67.053  1.00  0.00    -0.169 C  
BRANCH  14  15
HETATM   15  C   UNL     1      -8.233  12.519  68.267  1.00  0.00    -0.168 C  
BRANCH  15  16
HETATM   16  C   UNL     1      -8.874  13.874  68.000  1.00  0.00    -0.184 C  
BRANCH  16  17
HETATM   17  C   UNL     1      -9.563  13.819  66.641  1.00  0.00    -0.295 C  
BRANCH  17  18
HETATM   18  C   UNL     1     -10.805  14.693  66.607  1.00  0.00    -0.312 C  
BRANCH  18  19
HETATM   19  C   UNL     1     -10.975  15.294  65.218  1.00  0.00    -0.403 C  
BRANCH  19  20
HETATM   20  C   UNL     1     -12.265  14.797  64.574  1.00  0.00    -0.443 C  
BRANCH  20  21
HETATM   21  C   UNL     1     -12.408  13.286  64.733  1.00  0.00    -0.454 C  
BRANCH  21  22
HETATM   22  C   UNL     1     -12.007  12.570  63.449  1.00  0.00    -0.602 C  
HETATM   23  C   UNL     1     -10.620  11.965  63.567  1.00  0.00    -0.507 C  
ENDBRANCH  21  22
ENDBRANCH  20  21
ENDBRANCH  19  20
ENDBRANCH  18  19
ENDBRANCH  17  18
ENDBRANCH  16  17
ENDBRANCH  15  16
ENDBRANCH  14  15
ENDBRANCH  11  14
ENDBRANCH  10  11
ENDBRANCH   9  10
ENDBRANCH   8   9
ENDBRANCH   7   8
ENDBRANCH   6   7
ENDBRANCH   5   6
ENDBRANCH   4   5
ENDBRANCH   3   4
ENDBRANCH   2   3
TORSDOF 18
ENDMDL
MODEL       56
REMARK 921   NORMALIZED FREE ENERGY PREDICTED BY IDOCK:   -3.73 KCAL/MOL
REMARK 922        TOTAL FREE ENERGY PREDICTED BY IDOCK:  -10.36 KCAL/MOL
REMARK 923 INTER-LIGAND FREE ENERGY PREDICTED BY IDOCK:   -7.96 KCAL/MOL
REMARK 924 INTRA-LIGAND FREE ENERGY PREDICTED BY IDOCK:   -2.40 KCAL/MOL
REMARK 927      BINDING AFFINITY PREDICTED BY RF-SCORE:    0.00 PKD
ROOT
HETATM    1  C   UNL     1     -10.996  15.288  64.840  1.00  0.00    -0.445 C  
HETATM    2  C   UNL     1     -12.212  14.404  64.633  1.00  0.00    -0.479 C  
ENDROOT
BRANCH   2   3
HETATM    3  C   UNL     1     -11.913  13.276  63.650  1.00  0.00    -0.547 C  
BRANCH   3   4
HETATM    4  C   UNL     1     -11.624  11.977  64.394  1.00  0.00    -0.411 C  
BRANCH   4   5
HETATM    5  C   UNL     1     -10.568  11.158  63.668  1.00  0.00    -0.414 C  
BRANCH   5   6
HETATM    6  C   UNL     1      -9.693  10.404  64.664  1.00  0.00    -0.392 C  
BRANCH   6   7
HETATM    7  C   UNL     1      -9.053  11.382  65.634  1.00  0.00    -0.173 C  
BRANCH   7   8
HETATM    8  C   UNL     1      -7.833  10.778  66.322  1.00  0.00    -0.156 C  
BRANCH   8   9
HETATM    9  C   UNL     1      -7.944  11.048  67.816  1.00  0.00    -0.115 C  
BRANCH   9  10
HETATM   10  C   UNL     1      -8.183   9.772  68.611  1.00  0.00    -0.106 C  
BRANCH  10  11
HETATM   11  N   UNL     1      -9.666   9.602  69.032  1.00  0.00    -0.163 N  
HETATM   12  C   UNL     1     -10.419   8.767  67.996  1.00  0.00    -0.204 C  
HETATM   13  C   UNL     1      -9.752   8.925  70.402  1.00  0.00    -0.191 C  
BRANCH  11  14
HETATM   14  C   UNL     1     -10.257  11.033  69.102  1.00  0.00    -0.166 C  
BRANCH  14  15
HETATM   15  C   UNL     1     -11.523  11.185  68.271  1.00  0.00    -0.373 C  
BRANCH  15  16
HETATM   16  C   UNL     1     -11.775  12.631  67.870  1.00  0.00    -0.412 C  
BRANCH  16  17
HETATM   17  C   UNL     1     -10.707  13.503  68.522  1.00  0.00    -0.270 C  
BRANCH  17  18
HETATM   18  C   UNL     1     -11.217  14.909  68.789  1.00  0.00    -0.288 C  
BRANCH  18  19
HETATM   19  C   UNL     1     -11.344  15.136  70.289  1.00  0.00    -0.315 C  
BRANCH  19  20
HETATM   20  C   UNL     1     -12.764  15.560  70.649  1.00  0.00    -0.487 C  
BRANCH  20  21
HETATM   21  C   UNL     1     -13.270  14.795  71.868  1.00  0.00    -0.436 C  
BRANCH  21  22
HETATM   22  C   UNL     1     -13.350  15.712  73.083  1.00  0.00    -0.660 C  
HETATM   23  C   UNL     1     -12.208  15.448  74.048  1.00  0.00    -0.757 C  
ENDBRANCH  21  22
ENDBRANCH  20  21
ENDBRANCH  19  20
ENDBRANCH  18  19
ENDBRANCH  17  18
ENDBRANCH  16  17
ENDBRANCH  15  16
ENDBRANCH  14  15
ENDBRANCH  11  14
ENDBRANCH  10  11
ENDBRANCH   9  10
ENDBRANCH   8   9
ENDBRANCH   7   8
ENDBRANCH   6   7
ENDBRANCH   5   6
ENDBRANCH   4   5
ENDBRANCH   3   4
ENDBRANCH   2   3
TORSDOF 18
ENDMDL
MODEL       57
REMARK 921   NORMALIZED FREE ENERGY PREDICTED BY IDOCK:   -3.73 KCAL/MOL
REMARK 922        TOTAL FREE ENERGY PREDICTED BY IDOCK:  -10.35 KCAL/MOL
REMARK 923 INTER-LIGAND FREE ENERGY PREDICTED BY IDOCK:   -7.70 KCAL/MOL
REMARK 924 INTRA-LIGAND FREE ENERGY PREDICTED BY IDOCK:   -2.65 KCAL/MOL
REMARK 927      BINDING AFFINITY PREDICTED BY RF-SCORE:    0.00 PKD
ROOT
HETATM    1  C   UNL     1     -10.372  19.979  65.646  1.00  0.00    -0.395 C  
HETATM    2  C   UNL     1     -10.773  19.472  67.019  1.00  0.00    -0.592 C  
ENDROOT
BRANCH   2   3
HETATM    3  C   UNL     1     -10.620  17.957  67.115  1.00  0.00    -0.315 C  
BRANCH   3   4
HETATM    4  C   UNL     1      -9.552  17.463  66.147  1.00  0.00    -0.213 C  
BRANCH   4   5
HETATM    5  C   UNL     1      -9.828  16.029  65.719  1.00  0.00    -0.357 C  
BRANCH   5   6
HETATM    6  C   UNL     1     -11.072  15.960  64.839  1.00  0.00    -0.400 C  
BRANCH   6   7
HETATM    7  C   UNL     1     -11.738  14.604  64.991  1.00  0.00    -0.385 C  
BRANCH   7   8
HETATM    8  C   UNL     1     -12.143  14.332  66.436  1.00  0.00    -0.442 C  
BRANCH   8   9
HETATM    9  C   UNL     1     -11.975  12.844  66.708  1.00  0.00    -0.418 C  
BRANCH   9  10
HETATM   10  C   UNL     1     -10.832  12.241  65.902  1.00  0.00    -0.271 C  
BRANCH  10  11
HETATM   11  N   UNL     1      -9.712  11.659  66.802  1.00  0.00    -0.198 N  
HETATM   12  C   UNL     1     -10.285  11.231  68.154  1.00  0.00    -0.180 C  
HETATM   13  C   UNL     1      -9.053  10.459  66.117  1.00  0.00    -0.160 C  
BRANCH  11  14
HETATM   14  C   UNL     1      -8.680  12.801  66.993  1.00  0.00    -0.197 C  
BRANCH  14  15
HETATM   15  C   UNL     1      -8.751  13.427  68.379  1.00  0.00    -0.134 C  
BRANCH  15  16
HETATM   16  C   UNL     1      -7.988  14.742  68.452  1.00  0.00    -0.138 C  
BRANCH  16  17
HETATM   17  C   UNL     1      -8.800  15.721  69.294  1.00  0.00    -0.262 C  
BRANCH  17  18
HETATM   18  C   UNL     1     -10.201  15.200  69.564  1.00  0.00    -0.241 C  
BRANCH  18  19
HETATM   19  C   UNL     1     -11.036  16.286  70.228  1.00  0.00    -0.340 C  
BRANCH  19  20
HETATM   20  C   UNL     1     -12.095  15.668  71.134  1.00  0.00    -0.454 C  
BRANCH  20  21
HETATM   21  C   UNL     1     -11.470  15.131  72.418  1.00  0.00    -0.395 C  
BRANCH  21  22
HETATM   22  C   UNL     1     -12.447  15.248  73.582  1.00  0.00    -0.716 C  
HETATM   23  C   UNL     1     -13.766  15.851  73.135  1.00  0.00    -0.499 C  
ENDBRANCH  21  22
ENDBRANCH  20  21
ENDBRANCH  19  20
ENDBRANCH  18  19
ENDBRANCH  17  18
ENDBRANCH  16  17
ENDBRANCH  15  16
ENDBRANCH  14  15
ENDBRANCH  11  14
ENDBRANCH  10  11
ENDBRANCH   9  10
ENDBRANCH   8   9
ENDBRANCH   7   8
ENDBRANCH   6   7
ENDBRANCH   5   6
ENDBRANCH   4   5
ENDBRANCH   3   4
ENDBRANCH   2   3
TORSDOF 18
ENDMDL
MODEL       58
REMARK 921   NORMALIZED FREE ENERGY PREDICTED BY IDOCK:   -3.73 KCAL/MOL
REMARK 922        TOTAL FREE ENERGY PREDICTED BY IDOCK:  -10.35 KCAL/MOL
REMARK 923 INTER-LIGAND FREE ENERGY PREDICTED BY IDOCK:   -7.40 KCAL/MOL
REMARK 924 INTRA-LIGAND FREE ENERGY PREDICTED BY IDOCK:   -2.96 KCAL/MOL
REMARK 927      BINDING AFFINITY PREDICTED BY RF-SCORE:    0.00 PKD
ROOT
HETATM    1  C   UNL     1     -12.017  12.340  63.587  1.00  0.00    -0.633 C  
HETATM    2  C   UNL     1     -10.561  11.951  63.769  1.00  0.00    -0.475 C  
ENDROOT
BRANCH   2   3
HETATM    3  C   UNL     1     -10.422  10.762  64.714  1.00  0.00    -0.335 C  
BRANCH   3   4
HETATM    4  C   UNL     1      -8.958  10.372  64.876  1.00  0.00    -0.225 C  
BRANCH   4   5
HETATM    5  C   UNL     1      -8.777   9.410  66.041  1.00  0.00    -0.171 C  
BRANCH   5   6
HETATM    6  C   UNL     1     -10.090   8.704  66.365  1.00  0.00    -0.294 C  
BRANCH   6   7
HETATM    7  C   UNL     1     -10.350   8.759  67.861  1.00  0.00    -0.281 C  
BRANCH   7   8
HETATM    8  C   UNL     1      -9.052   8.813  68.659  1.00  0.00    -0.141 C  
BRANCH   8   9
HETATM    9  C   UNL     1      -9.343   8.347  70.078  1.00  0.00    -0.159 C  
BRANCH   9  10
HETATM   10  C   UNL     1     -10.517   7.379  70.132  1.00  0.00    -0.220 C  
BRANCH  10  11
HETATM   11  N   UNL     1     -11.264   7.425  71.489  1.00  0.00    -0.240 N  
HETATM   12  C   UNL     1     -11.586   6.009  71.967  1.00  0.00    -0.276 C  
HETATM   13  C   UNL     1     -10.412   8.143  72.539  1.00  0.00    -0.339 C  
BRANCH  11  14
HETATM   14  C   UNL     1     -12.573   8.215  71.230  1.00  0.00    -0.229 C  
BRANCH  14  15
HETATM   15  C   UNL     1     -12.752   9.383  72.189  1.00  0.00    -0.460 C  
BRANCH  15  16
HETATM   16  C   UNL     1     -13.023  10.689  71.456  1.00  0.00    -0.566 C  
BRANCH  16  17
HETATM   17  C   UNL     1     -12.141  10.733  70.212  1.00  0.00    -0.433 C  
BRANCH  17  18
HETATM   18  C   UNL     1     -11.856  12.161  69.778  1.00  0.00    -0.397 C  
BRANCH  18  19
HETATM   19  C   UNL     1     -11.570  12.198  68.283  1.00  0.00    -0.382 C  
BRANCH  19  20
HETATM   20  C   UNL     1     -10.102  12.521  68.026  1.00  0.00    -0.220 C  
BRANCH  20  21
HETATM   21  C   UNL     1      -9.960  13.627  66.984  1.00  0.00    -0.248 C  
BRANCH  21  22
HETATM   22  C   UNL     1     -11.325  14.191  66.609  1.00  0.00    -0.352 C  
HETATM   23  C   UNL     1     -11.215  15.190  65.472  1.00  0.00    -0.320 C  
ENDBRANCH  21  22
ENDBRANCH  20  21
ENDBRANCH  19  20
ENDBRANCH  18  19
ENDBRANCH  17  18
ENDBRANCH  16  17
ENDBRANCH  15  16
ENDBRANCH  14  15
ENDBRANCH  11  14
ENDBRANCH  10  11
ENDBRANCH   9  10
ENDBRANCH   8   9
ENDBRANCH   7   8
ENDBRANCH   6   7
ENDBRANCH   5   6
ENDBRANCH   4   5
ENDBRANCH   3   4
ENDBRANCH   2   3
TORSDOF 18
ENDMDL
MODEL       59
REMARK 921   NORMALIZED FREE ENERGY PREDICTED BY IDOCK:   -3.73 KCAL/MOL
REMARK 922        TOTAL FREE ENERGY PREDICTED BY IDOCK:  -10.35 KCAL/MOL
REMARK 923 INTER-LIGAND FREE ENERGY PREDICTED BY IDOCK:   -8.25 KCAL/MOL
REMARK 924 INTRA-LIGAND FREE ENERGY PREDICTED BY IDOCK:   -2.10 KCAL/MOL
REMARK 927      BINDING AFFINITY PREDICTED BY RF-SCORE:    0.00 PKD
ROOT
HETATM    1  C   UNL     1     -10.992  15.568  64.750  1.00  0.00    -0.416 C  
HETATM    2  C   UNL     1     -12.119  14.619  64.389  1.00  0.00    -0.481 C  
ENDROOT
BRANCH   2   3
HETATM    3  C   UNL     1     -12.615  13.859  65.615  1.00  0.00    -0.553 C  
BRANCH   3   4
HETATM    4  C   UNL     1     -11.921  14.361  66.876  1.00  0.00    -0.425 C  
BRANCH   4   5
HETATM    5  C   UNL     1     -11.971  13.313  67.978  1.00  0.00    -0.351 C  
BRANCH   5   6
HETATM    6  C   UNL     1     -12.085  13.976  69.347  1.00  0.00    -0.386 C  
BRANCH   6   7
HETATM    7  C   UNL     1     -12.207  12.915  70.427  1.00  0.00    -0.381 C  
BRANCH   7   8
HETATM    8  C   UNL     1     -12.001  11.512  69.865  1.00  0.00    -0.426 C  
BRANCH   8   9
HETATM    9  C   UNL     1     -12.363  10.506  70.948  1.00  0.00    -0.490 C  
BRANCH   9  10
HETATM   10  C   UNL     1     -11.295   9.434  71.114  1.00  0.00    -0.351 C  
BRANCH  10  11
HETATM   11  N   UNL     1     -11.793   8.219  71.939  1.00  0.00    -0.302 N  
HETATM   12  C   UNL     1     -10.788   7.876  73.039  1.00  0.00    -0.342 C  
HETATM   13  C   UNL     1     -13.156   8.527  72.563  1.00  0.00    -0.238 C  
BRANCH  11  14
HETATM   14  C   UNL     1     -11.915   7.042  70.936  1.00  0.00    -0.364 C  
BRANCH  14  15
HETATM   15  C   UNL     1     -10.724   6.952  69.993  1.00  0.00    -0.276 C  
BRANCH  15  16
HETATM   16  C   UNL     1     -11.043   6.141  68.744  1.00  0.00    -0.398 C  
BRANCH  16  17
HETATM   17  C   UNL     1     -10.418   6.844  67.544  1.00  0.00    -0.314 C  
BRANCH  17  18
HETATM   18  C   UNL     1     -10.667   8.342  67.579  1.00  0.00    -0.207 C  
BRANCH  18  19
HETATM   19  C   UNL     1     -10.083   8.992  66.332  1.00  0.00    -0.351 C  
BRANCH  19  20
HETATM   20  C   UNL     1      -9.209  10.183  66.708  1.00  0.00    -0.174 C  
BRANCH  20  21
HETATM   21  C   UNL     1      -9.561  11.406  65.867  1.00  0.00    -0.254 C  
BRANCH  21  22
HETATM   22  C   UNL     1     -10.646  11.067  64.851  1.00  0.00    -0.328 C  
HETATM   23  C   UNL     1     -10.155  11.274  63.431  1.00  0.00    -0.445 C  
ENDBRANCH  21  22
ENDBRANCH  20  21
ENDBRANCH  19  20
ENDBRANCH  18  19
ENDBRANCH  17  18
ENDBRANCH  16  17
ENDBRANCH  15  16
ENDBRANCH  14  15
ENDBRANCH  11  14
ENDBRANCH  10  11
ENDBRANCH   9  10
ENDBRANCH   8   9
ENDBRANCH   7   8
ENDBRANCH   6   7
ENDBRANCH   5   6
ENDBRANCH   4   5
ENDBRANCH   3   4
ENDBRANCH   2   3
TORSDOF 18
ENDMDL
MODEL       60
REMARK 921   NORMALIZED FREE ENERGY PREDICTED BY IDOCK:   -3.72 KCAL/MOL
REMARK 922        TOTAL FREE ENERGY PREDICTED BY IDOCK:  -10.34 KCAL/MOL
REMARK 923 INTER-LIGAND FREE ENERGY PREDICTED BY IDOCK:   -7.99 KCAL/MOL
REMARK 924 INTRA-LIGAND FREE ENERGY PREDICTED BY IDOCK:   -2.35 KCAL/MOL
REMARK 927      BINDING AFFINITY PREDICTED BY RF-SCORE:    0.00 PKD
ROOT
HETATM    1  C   UNL     1     -11.928  10.883  69.535  1.00  0.00    -0.401 C  
HETATM    2  C   UNL     1     -12.405  11.546  70.814  1.00  0.00    -0.472 C  
ENDROOT
BRANCH   2   3
HETATM    3  C   UNL     1     -13.109  10.545  71.726  1.00  0.00    -0.570 C  
BRANCH   3   4
HETATM    4  C   UNL     1     -12.744   9.117  71.339  1.00  0.00    -0.383 C  
BRANCH   4   5
HETATM    5  C   UNL     1     -11.871   8.471  72.405  1.00  0.00    -0.437 C  
BRANCH   5   6
HETATM    6  C   UNL     1     -11.109   7.282  71.829  1.00  0.00    -0.265 C  
BRANCH   6   7
HETATM    7  C   UNL     1     -11.849   6.730  70.622  1.00  0.00    -0.442 C  
BRANCH   7   8
HETATM    8  C   UNL     1     -10.923   5.933  69.709  1.00  0.00    -0.452 C  
BRANCH   8   9
HETATM    9  C   UNL     1     -10.936   6.580  68.331  1.00  0.00    -0.358 C  
BRANCH   9  10
HETATM   10  C   UNL     1     -10.107   7.857  68.292  1.00  0.00    -0.194 C  
BRANCH  10  11
HETATM   11  N   UNL     1      -8.771   7.675  67.525  1.00  0.00    -0.125 N  
HETATM   12  C   UNL     1      -7.652   7.285  68.492  1.00  0.00    -0.118 C  
HETATM   13  C   UNL     1      -8.922   6.599  66.448  1.00  0.00    -0.148 C  
BRANCH  11  14
HETATM   14  C   UNL     1      -8.463   9.048  66.873  1.00  0.00    -0.119 C  
BRANCH  14  15
HETATM   15  C   UNL     1      -9.711   9.897  66.680  1.00  0.00    -0.252 C  
BRANCH  15  16
HETATM   16  C   UNL     1     -10.126   9.982  65.218  1.00  0.00    -0.299 C  
BRANCH  16  17
HETATM   17  C   UNL     1      -9.333  11.106  64.559  1.00  0.00    -0.191 C  
BRANCH  17  18
HETATM   18  C   UNL     1     -10.075  11.692  63.370  1.00  0.00    -0.468 C  
BRANCH  18  19
HETATM   19  C   UNL     1     -11.559  11.802  63.691  1.00  0.00    -0.521 C  
BRANCH  19  20
HETATM   20  C   UNL     1     -11.948  13.257  63.928  1.00  0.00    -0.541 C  
BRANCH  20  21
HETATM   21  C   UNL     1     -12.766  13.402  65.208  1.00  0.00    -0.481 C  
BRANCH  21  22
HETATM   22  C   UNL     1     -11.964  12.928  66.415  1.00  0.00    -0.462 C  
HETATM   23  C   UNL     1     -10.800  13.859  66.703  1.00  0.00    -0.289 C  
ENDBRANCH  21  22
ENDBRANCH  20  21
ENDBRANCH  19  20
ENDBRANCH  18  19
ENDBRANCH  17  18
ENDBRANCH  16  17
ENDBRANCH  15  16
ENDBRANCH  14  15
ENDBRANCH  11  14
ENDBRANCH  10  11
ENDBRANCH   9  10
ENDBRANCH   8   9
ENDBRANCH   7   8
ENDBRANCH   6   7
ENDBRANCH   5   6
ENDBRANCH   4   5
ENDBRANCH   3   4
ENDBRANCH   2   3
TORSDOF 18
ENDMDL
MODEL       61
REMARK 921   NORMALIZED FREE ENERGY PREDICTED BY IDOCK:   -3.72 KCAL/MOL
REMARK 922        TOTAL FREE ENERGY PREDICTED BY IDOCK:  -10.33 KCAL/MOL
REMARK 923 INTER-LIGAND FREE ENERGY PREDICTED BY IDOCK:   -8.66 KCAL/MOL
REMARK 924 INTRA-LIGAND FREE ENERGY PREDICTED BY IDOCK:   -1.68 KCAL/MOL
REMARK 927      BINDING AFFINITY PREDICTED BY RF-SCORE:    0.00 PKD
ROOT
HETATM    1  C   UNL     1     -11.018  11.632  63.716  1.00  0.00    -0.495 C  
HETATM    2  C   UNL     1      -9.861  10.889  63.074  1.00  0.00    -0.358 C  
ENDROOT
BRANCH   2   3
HETATM    3  C   UNL     1      -9.098  10.062  64.104  1.00  0.00    -0.295 C  
BRANCH   3   4
HETATM    4  C   UNL     1      -9.882   9.969  65.408  1.00  0.00    -0.384 C  
BRANCH   4   5
HETATM    5  C   UNL     1      -9.575   8.668  66.135  1.00  0.00    -0.305 C  
BRANCH   5   6
HETATM    6  C   UNL     1     -10.707   8.306  67.091  1.00  0.00    -0.240 C  
BRANCH   6   7
HETATM    7  C   UNL     1     -10.894   6.799  67.123  1.00  0.00    -0.462 C  
BRANCH   7   8
HETATM    8  C   UNL     1     -10.929   6.265  68.552  1.00  0.00    -0.421 C  
BRANCH   8   9
HETATM    9  C   UNL     1     -10.431   7.360  69.484  1.00  0.00    -0.236 C  
BRANCH   9  10
HETATM   10  C   UNL     1     -10.194   6.843  70.897  1.00  0.00    -0.197 C  
BRANCH  10  11
HETATM   11  N   UNL     1     -11.126   7.514  71.940  1.00  0.00    -0.234 N  
HETATM   12  C   UNL     1     -12.559   7.007  71.775  1.00  0.00    -0.350 C  
HETATM   13  C   UNL     1     -10.632   7.216  73.358  1.00  0.00    -0.382 C  
BRANCH  11  14
HETATM   14  C   UNL     1     -11.058   9.037  71.656  1.00  0.00    -0.363 C  
BRANCH  14  15
HETATM   15  C   UNL     1     -12.425   9.703  71.710  1.00  0.00    -0.487 C  
BRANCH  15  16
HETATM   16  C   UNL     1     -12.703  10.541  70.471  1.00  0.00    -0.385 C  
BRANCH  16  17
HETATM   17  C   UNL     1     -11.377  10.811  69.767  1.00  0.00    -0.372 C  
BRANCH  17  18
HETATM   18  C   UNL     1     -11.554  11.732  68.572  1.00  0.00    -0.380 C  
BRANCH  18  19
HETATM   19  C   UNL     1     -10.931  13.089  68.869  1.00  0.00    -0.271 C  
BRANCH  19  20
HETATM   20  C   UNL     1     -12.014  14.127  69.142  1.00  0.00    -0.388 C  
BRANCH  20  21
HETATM   21  C   UNL     1     -12.455  14.086  70.602  1.00  0.00    -0.435 C  
BRANCH  21  22
HETATM   22  C   UNL     1     -13.174  15.375  70.983  1.00  0.00    -0.560 C  
HETATM   23  C   UNL     1     -14.089  15.164  72.175  1.00  0.00    -0.654 C  
ENDBRANCH  21  22
ENDBRANCH  20  21
ENDBRANCH  19  20
ENDBRANCH  18  19
ENDBRANCH  17  18
ENDBRANCH  16  17
ENDBRANCH  15  16
ENDBRANCH  14  15
ENDBRANCH  11  14
ENDBRANCH  10  11
ENDBRANCH   9  10
ENDBRANCH   8   9
ENDBRANCH   7   8
ENDBRANCH   6   7
ENDBRANCH   5   6
ENDBRANCH   4   5
ENDBRANCH   3   4
ENDBRANCH   2   3
TORSDOF 18
ENDMDL
MODEL       62
REMARK 921   NORMALIZED FREE ENERGY PREDICTED BY IDOCK:   -3.72 KCAL/MOL
REMARK 922        TOTAL FREE ENERGY PREDICTED BY IDOCK:  -10.33 KCAL/MOL
REMARK 923 INTER-LIGAND FREE ENERGY PREDICTED BY IDOCK:   -7.79 KCAL/MOL
REMARK 924 INTRA-LIGAND FREE ENERGY PREDICTED BY IDOCK:   -2.54 KCAL/MOL
REMARK 927      BINDING AFFINITY PREDICTED BY RF-SCORE:    0.00 PKD
ROOT
HETATM    1  C   UNL     1      -7.923  10.447  65.617  1.00  0.00    -0.153 C  
HETATM    2  C   UNL     1      -9.016  10.322  66.662  1.00  0.00    -0.156 C  
ENDROOT
BRANCH   2   3
HETATM    3  C   UNL     1     -10.396  10.525  66.045  1.00  0.00    -0.279 C  
BRANCH   3   4
HETATM    4  C   UNL     1     -10.423  11.788  65.193  1.00  0.00    -0.330 C  
BRANCH   4   5
HETATM    5  C   UNL     1     -11.842  12.323  65.059  1.00  0.00    -0.412 C  
BRANCH   5   6
HETATM    6  C   UNL     1     -11.856  13.613  64.246  1.00  0.00    -0.464 C  
BRANCH   6   7
HETATM    7  C   UNL     1     -11.786  14.812  65.176  1.00  0.00    -0.337 C  
BRANCH   7   8
HETATM    8  C   UNL     1     -10.457  15.549  65.047  1.00  0.00    -0.392 C  
BRANCH   8   9
HETATM    9  C   UNL     1     -10.415  16.646  66.101  1.00  0.00    -0.291 C  
BRANCH   9  10
HETATM   10  C   UNL     1      -9.015  16.841  66.667  1.00  0.00    -0.250 C  
BRANCH  10  11
HETATM   11  N   UNL     1      -9.030  17.262  68.160  1.00  0.00    -0.246 N  
HETATM   12  C   UNL     1      -7.698  17.907  68.544  1.00  0.00    -0.297 C  
HETATM   13  C   UNL     1     -10.174  18.244  68.421  1.00  0.00    -0.380 C  
BRANCH  11  14
HETATM   14  C   UNL     1      -9.248  15.957  68.969  1.00  0.00    -0.242 C  
BRANCH  14  15
HETATM   15  C   UNL     1      -8.449  14.785  68.417  1.00  0.00    -0.157 C  
BRANCH  15  16
HETATM   16  C   UNL     1      -9.277  13.510  68.349  1.00  0.00    -0.159 C  
BRANCH  16  17
HETATM   17  C   UNL     1     -10.742  13.877  68.558  1.00  0.00    -0.268 C  
BRANCH  17  18
HETATM   18  C   UNL     1     -11.587  12.653  68.872  1.00  0.00    -0.363 C  
BRANCH  18  19
HETATM   19  C   UNL     1     -12.096  12.733  70.305  1.00  0.00    -0.373 C  
BRANCH  19  20
HETATM   20  C   UNL     1     -12.586  14.142  70.622  1.00  0.00    -0.421 C  
BRANCH  20  21
HETATM   21  C   UNL     1     -13.624  14.121  71.740  1.00  0.00    -0.483 C  
BRANCH  21  22
HETATM   22  C   UNL     1     -13.823  15.519  72.314  1.00  0.00    -0.639 C  
HETATM   23  C   UNL     1     -12.977  15.730  73.556  1.00  0.00    -0.693 C  
ENDBRANCH  21  22
ENDBRANCH  20  21
ENDBRANCH  19  20
ENDBRANCH  18  19
ENDBRANCH  17  18
ENDBRANCH  16  17
ENDBRANCH  15  16
ENDBRANCH  14  15
ENDBRANCH  11  14
ENDBRANCH  10  11
ENDBRANCH   9  10
ENDBRANCH   8   9
ENDBRANCH   7   8
ENDBRANCH   6   7
ENDBRANCH   5   6
ENDBRANCH   4   5
ENDBRANCH   3   4
ENDBRANCH   2   3
TORSDOF 18
ENDMDL
MODEL       63
REMARK 921   NORMALIZED FREE ENERGY PREDICTED BY IDOCK:   -3.71 KCAL/MOL
REMARK 922        TOTAL FREE ENERGY PREDICTED BY IDOCK:  -10.32 KCAL/MOL
REMARK 923 INTER-LIGAND FREE ENERGY PREDICTED BY IDOCK:   -8.65 KCAL/MOL
REMARK 924 INTRA-LIGAND FREE ENERGY PREDICTED BY IDOCK:   -1.67 KCAL/MOL
REMARK 927      BINDING AFFINITY PREDICTED BY RF-SCORE:    0.00 PKD
ROOT
HETATM    1  C   UNL     1     -13.985  15.347  72.305  1.00  0.00    -0.661 C  
HETATM    2  C   UNL     1     -13.471  13.927  72.159  1.00  0.00    -0.578 C  
ENDROOT
BRANCH   2   3
HETATM    3  C   UNL     1     -12.489  13.812  70.997  1.00  0.00    -0.458 C  
BRANCH   3   4
HETATM    4  C   UNL     1     -12.192  12.350  70.687  1.00  0.00    -0.368 C  
BRANCH   4   5
HETATM    5  C   UNL     1     -13.012  11.428  71.577  1.00  0.00    -0.505 C  
BRANCH   5   6
HETATM    6  C   UNL     1     -12.891   9.981  71.110  1.00  0.00    -0.480 C  
BRANCH   6   7
HETATM    7  C   UNL     1     -13.902   9.115  71.841  1.00  0.00    -0.455 C  
BRANCH   7   8
HETATM    8  C   UNL     1     -13.690   7.632  71.551  1.00  0.00    -0.440 C  
BRANCH   8   9
HETATM    9  C   UNL     1     -12.205   7.327  71.683  1.00  0.00    -0.377 C  
BRANCH   9  10
HETATM   10  C   UNL     1     -11.693   6.475  70.529  1.00  0.00    -0.375 C  
BRANCH  10  11
HETATM   11  N   UNL     1     -10.163   6.231  70.604  1.00  0.00    -0.189 N  
HETATM   12  C   UNL     1      -9.542   7.088  71.707  1.00  0.00    -0.155 C  
HETATM   13  C   UNL     1      -9.877   4.752  70.875  1.00  0.00    -0.209 C  
BRANCH  11  14
HETATM   14  C   UNL     1      -9.597   6.642  69.220  1.00  0.00    -0.143 C  
BRANCH  14  15
HETATM   15  C   UNL     1     -10.526   7.581  68.463  1.00  0.00    -0.211 C  
BRANCH  15  16
HETATM   16  C   UNL     1      -9.939   8.978  68.325  1.00  0.00    -0.198 C  
BRANCH  16  17
HETATM   17  C   UNL     1     -10.537   9.629  67.082  1.00  0.00    -0.298 C  
BRANCH  17  18
HETATM   18  C   UNL     1     -10.256  11.122  67.041  1.00  0.00    -0.251 C  
BRANCH  18  19
HETATM   19  C   UNL     1     -11.558  11.896  67.198  1.00  0.00    -0.363 C  
BRANCH  19  20
HETATM   20  C   UNL     1     -11.404  13.315  66.661  1.00  0.00    -0.353 C  
BRANCH  20  21
HETATM   21  C   UNL     1     -12.508  13.643  65.660  1.00  0.00    -0.540 C  
BRANCH  21  22
HETATM   22  C   UNL     1     -12.515  12.634  64.517  1.00  0.00    -0.525 C  
HETATM   23  C   UNL     1     -11.195  12.643  63.767  1.00  0.00    -0.519 C  
ENDBRANCH  21  22
ENDBRANCH  20  21
ENDBRANCH  19  20
ENDBRANCH  18  19
ENDBRANCH  17  18
ENDBRANCH  16  17
ENDBRANCH  15  16
ENDBRANCH  14  15
ENDBRANCH  11  14
ENDBRANCH  10  11
ENDBRANCH   9  10
ENDBRANCH   8   9
ENDBRANCH   7   8
ENDBRANCH   6   7
ENDBRANCH   5   6
ENDBRANCH   4   5
ENDBRANCH   3   4
ENDBRANCH   2   3
TORSDOF 18
ENDMDL
MODEL       64
REMARK 921   NORMALIZED FREE ENERGY PREDICTED BY IDOCK:   -3.71 KCAL/MOL
REMARK 922        TOTAL FREE ENERGY PREDICTED BY IDOCK:  -10.32 KCAL/MOL
REMARK 923 INTER-LIGAND FREE ENERGY PREDICTED BY IDOCK:   -8.06 KCAL/MOL
REMARK 924 INTRA-LIGAND FREE ENERGY PREDICTED BY IDOCK:   -2.26 KCAL/MOL
REMARK 927      BINDING AFFINITY PREDICTED BY RF-SCORE:    0.00 PKD
ROOT
HETATM    1  C   UNL     1     -10.753   5.549  70.428  1.00  0.00    -0.321 C  
HETATM    2  C   UNL     1     -10.827   6.985  70.912  1.00  0.00    -0.268 C  
ENDROOT
BRANCH   2   3
HETATM    3  C   UNL     1     -12.150   7.262  71.620  1.00  0.00    -0.359 C  
BRANCH   3   4
HETATM    4  C   UNL     1     -12.232   8.721  72.055  1.00  0.00    -0.447 C  
BRANCH   4   5
HETATM    5  C   UNL     1     -11.536   9.627  71.050  1.00  0.00    -0.444 C  
BRANCH   5   6
HETATM    6  C   UNL     1     -12.505  10.670  70.504  1.00  0.00    -0.445 C  
BRANCH   6   7
HETATM    7  C   UNL     1     -11.737  11.755  69.769  1.00  0.00    -0.408 C  
BRANCH   7   8
HETATM    8  C   UNL     1     -11.685  11.492  68.268  1.00  0.00    -0.371 C  
BRANCH   8   9
HETATM    9  C   UNL     1     -11.681  12.832  67.547  1.00  0.00    -0.422 C  
BRANCH   9  10
HETATM   10  C   UNL     1     -12.032  12.689  66.072  1.00  0.00    -0.417 C  
BRANCH  10  11
HETATM   11  N   UNL     1     -11.258  13.691  65.177  1.00  0.00    -0.302 N  
HETATM   12  C   UNL     1     -12.214  14.384  64.206  1.00  0.00    -0.423 C  
HETATM   13  C   UNL     1     -10.552  14.738  66.042  1.00  0.00    -0.312 C  
BRANCH  11  14
HETATM   14  C   UNL     1     -10.216  12.849  64.396  1.00  0.00    -0.318 C  
BRANCH  14  15
HETATM   15  C   UNL     1     -10.727  11.458  64.052  1.00  0.00    -0.450 C  
BRANCH  15  16
HETATM   16  C   UNL     1      -9.771  10.367  64.515  1.00  0.00    -0.393 C  
BRANCH  16  17
HETATM   17  C   UNL     1      -8.976  10.898  65.703  1.00  0.00    -0.209 C  
BRANCH  17  18
HETATM   18  C   UNL     1      -8.765   9.827  66.760  1.00  0.00    -0.140 C  
BRANCH  18  19
HETATM   19  C   UNL     1      -9.410   8.523  66.309  1.00  0.00    -0.287 C  
BRANCH  19  20
HETATM   20  C   UNL     1     -10.487   8.090  67.298  1.00  0.00    -0.384 C  
BRANCH  20  21
HETATM   21  C   UNL     1     -10.984   6.682  66.982  1.00  0.00    -0.463 C  
BRANCH  21  22
HETATM   22  C   UNL     1      -9.811   5.734  66.764  1.00  0.00    -0.188 C  
HETATM   23  C   UNL     1     -10.201   4.571  65.871  1.00  0.00    -0.289 C  
ENDBRANCH  21  22
ENDBRANCH  20  21
ENDBRANCH  19  20
ENDBRANCH  18  19
ENDBRANCH  17  18
ENDBRANCH  16  17
ENDBRANCH  15  16
ENDBRANCH  14  15
ENDBRANCH  11  14
ENDBRANCH  10  11
ENDBRANCH   9  10
ENDBRANCH   8   9
ENDBRANCH   7   8
ENDBRANCH   6   7
ENDBRANCH   5   6
ENDBRANCH   4   5
ENDBRANCH   3   4
ENDBRANCH   2   3
TORSDOF 18
ENDMDL
MODEL       65
REMARK 921   NORMALIZED FREE ENERGY PREDICTED BY IDOCK:   -3.69 KCAL/MOL
REMARK 922        TOTAL FREE ENERGY PREDICTED BY IDOCK:  -10.26 KCAL/MOL
REMARK 923 INTER-LIGAND FREE ENERGY PREDICTED BY IDOCK:   -7.76 KCAL/MOL
REMARK 924 INTRA-LIGAND FREE ENERGY PREDICTED BY IDOCK:   -2.51 KCAL/MOL
REMARK 927      BINDING AFFINITY PREDICTED BY RF-SCORE:    0.00 PKD
ROOT
HETATM    1  C   UNL     1     -10.944  15.982  70.166  1.00  0.00    -0.369 C  
HETATM    2  C   UNL     1     -11.656  15.986  71.506  1.00  0.00    -0.529 C  
ENDROOT
BRANCH   2   3
HETATM    3  C   UNL     1     -13.142  15.681  71.343  1.00  0.00    -0.559 C  
BRANCH   3   4
HETATM    4  C   UNL     1     -13.684  14.970  72.578  1.00  0.00    -0.572 C  
BRANCH   4   5
HETATM    5  C   UNL     1     -14.187  13.578  72.226  1.00  0.00    -0.463 C  
BRANCH   5   6
HETATM    6  C   UNL     1     -13.044  12.569  72.254  1.00  0.00    -0.335 C  
BRANCH   6   7
HETATM    7  C   UNL     1     -12.897  11.917  70.890  1.00  0.00    -0.220 C  
BRANCH   7   8
HETATM    8  C   UNL     1     -11.667  12.431  70.148  1.00  0.00    -0.266 C  
BRANCH   8   9
HETATM    9  C   UNL     1     -11.860  12.166  68.662  1.00  0.00    -0.358 C  
BRANCH   9  10
HETATM   10  C   UNL     1     -11.774  13.443  67.838  1.00  0.00    -0.361 C  
BRANCH  10  11
HETATM   11  N   UNL     1     -11.491  13.165  66.338  1.00  0.00    -0.320 N  
HETATM   12  C   UNL     1     -12.629  13.708  65.474  1.00  0.00    -0.496 C  
HETATM   13  C   UNL     1     -10.169  13.816  65.921  1.00  0.00    -0.313 C  
BRANCH  11  14
HETATM   14  C   UNL     1     -11.398  11.624  66.199  1.00  0.00    -0.209 C  
BRANCH  14  15
HETATM   15  C   UNL     1     -10.535  11.194  65.022  1.00  0.00    -0.357 C  
BRANCH  15  16
HETATM   16  C   UNL     1      -9.775   9.906  65.310  1.00  0.00    -0.383 C  
BRANCH  16  17
HETATM   17  C   UNL     1     -10.098   9.467  66.734  1.00  0.00    -0.325 C  
BRANCH  17  18
HETATM   18  C   UNL     1      -8.837   9.259  67.556  1.00  0.00    -0.123 C  
BRANCH  18  19
HETATM   19  C   UNL     1      -8.891  10.122  68.810  1.00  0.00    -0.146 C  
BRANCH  19  20
HETATM   20  C   UNL     1      -8.880   9.249  70.060  1.00  0.00    -0.212 C  
BRANCH  20  21
HETATM   21  C   UNL     1      -9.845   8.077  69.917  1.00  0.00    -0.186 C  
BRANCH  21  22
HETATM   22  C   UNL     1     -11.227   8.451  70.441  1.00  0.00    -0.220 C  
HETATM   23  C   UNL     1     -11.155   8.971  71.865  1.00  0.00    -0.433 C  
ENDBRANCH  21  22
ENDBRANCH  20  21
ENDBRANCH  19  20
ENDBRANCH  18  19
ENDBRANCH  17  18
ENDBRANCH  16  17
ENDBRANCH  15  16
ENDBRANCH  14  15
ENDBRANCH  11  14
ENDBRANCH  10  11
ENDBRANCH   9  10
ENDBRANCH   8   9
ENDBRANCH   7   8
ENDBRANCH   6   7
ENDBRANCH   5   6
ENDBRANCH   4   5
ENDBRANCH   3   4
ENDBRANCH   2   3
TORSDOF 18
ENDMDL
MODEL       66
REMARK 921   NORMALIZED FREE ENERGY PREDICTED BY IDOCK:   -3.68 KCAL/MOL
REMARK 922        TOTAL FREE ENERGY PREDICTED BY IDOCK:  -10.25 KCAL/MOL
REMARK 923 INTER-LIGAND FREE ENERGY PREDICTED BY IDOCK:   -7.31 KCAL/MOL
REMARK 924 INTRA-LIGAND FREE ENERGY PREDICTED BY IDOCK:   -2.94 KCAL/MOL
REMARK 927      BINDING AFFINITY PREDICTED BY RF-SCORE:    0.00 PKD
ROOT
HETATM    1  C   UNL     1     -12.731  15.868  73.457  1.00  0.00    -0.701 C  
HETATM    2  C   UNL     1     -14.077  15.880  72.757  1.00  0.00    -0.353 C  
ENDROOT
BRANCH   2   3
HETATM    3  C   UNL     1     -14.358  14.544  72.077  1.00  0.00    -0.639 C  
BRANCH   3   4
HETATM    4  C   UNL     1     -13.363  13.486  72.540  1.00  0.00    -0.617 C  
BRANCH   4   5
HETATM    5  C   UNL     1     -12.544  12.961  71.369  1.00  0.00    -0.319 C  
BRANCH   5   6
HETATM    6  C   UNL     1     -12.707  13.865  70.151  1.00  0.00    -0.182 C  
BRANCH   6   7
HETATM    7  C   UNL     1     -11.456  14.705  69.960  1.00  0.00    -0.313 C  
BRANCH   7   8
HETATM    8  C   UNL     1     -11.718  15.915  69.070  1.00  0.00    -0.377 C  
BRANCH   8   9
HETATM    9  C   UNL     1     -10.468  16.783  69.062  1.00  0.00    -0.336 C  
BRANCH   9  10
HETATM   10  C   UNL     1     -10.090  17.227  67.655  1.00  0.00    -0.313 C  
BRANCH  10  11
HETATM   11  N   UNL     1      -8.572  17.510  67.509  1.00  0.00    -0.219 N  
HETATM   12  C   UNL     1      -8.198  17.646  66.033  1.00  0.00    -0.091 C  
HETATM   13  C   UNL     1      -8.198  18.792  68.257  1.00  0.00    -0.325 C  
BRANCH  11  14
HETATM   14  C   UNL     1      -7.848  16.291  68.137  1.00  0.00    -0.155 C  
BRANCH  14  15
HETATM   15  C   UNL     1      -7.870  15.068  67.232  1.00  0.00    -0.241 C  
BRANCH  15  16
HETATM   16  C   UNL     1      -8.641  13.911  67.853  1.00  0.00    -0.180 C  
BRANCH  16  17
HETATM   17  C   UNL     1      -9.199  13.047  66.726  1.00  0.00    -0.229 C  
BRANCH  17  18
HETATM   18  C   UNL     1     -10.566  13.531  66.274  1.00  0.00    -0.288 C  
BRANCH  18  19
HETATM   19  C   UNL     1     -11.649  12.624  66.844  1.00  0.00    -0.438 C  
BRANCH  19  20
HETATM   20  C   UNL     1     -11.077  11.250  67.175  1.00  0.00    -0.364 C  
BRANCH  20  21
HETATM   21  C   UNL     1     -11.767  10.650  68.396  1.00  0.00    -0.168 C  
BRANCH  21  22
HETATM   22  C   UNL     1     -10.745  10.288  69.467  1.00  0.00    -0.280 C  
HETATM   23  C   UNL     1      -9.351  10.167  68.880  1.00  0.00    -0.179 C  
ENDBRANCH  21  22
ENDBRANCH  20  21
ENDBRANCH  19  20
ENDBRANCH  18  19
ENDBRANCH  17  18
ENDBRANCH  16  17
ENDBRANCH  15  16
ENDBRANCH  14  15
ENDBRANCH  11  14
ENDBRANCH  10  11
ENDBRANCH   9  10
ENDBRANCH   8   9
ENDBRANCH   7   8
ENDBRANCH   6   7
ENDBRANCH   5   6
ENDBRANCH   4   5
ENDBRANCH   3   4
ENDBRANCH   2   3
TORSDOF 18
ENDMDL
MODEL       67
REMARK 921   NORMALIZED FREE ENERGY PREDICTED BY IDOCK:   -3.65 KCAL/MOL
REMARK 922        TOTAL FREE ENERGY PREDICTED BY IDOCK:  -10.20 KCAL/MOL
REMARK 923 INTER-LIGAND FREE ENERGY PREDICTED BY IDOCK:   -8.89 KCAL/MOL
REMARK 924 INTRA-LIGAND FREE ENERGY PREDICTED BY IDOCK:   -1.31 KCAL/MOL
REMARK 927      BINDING AFFINITY PREDICTED BY RF-SCORE:    0.00 PKD
ROOT
HETATM    1  C   UNL     1      -8.628   9.697  64.584  1.00  0.00    -0.201 C  
HETATM    2  C   UNL     1      -9.991  10.351  64.453  1.00  0.00    -0.388 C  
ENDROOT
BRANCH   2   3
HETATM    3  C   UNL     1      -9.965  11.482  63.429  1.00  0.00    -0.445 C  
BRANCH   3   4
HETATM    4  C   UNL     1     -10.629  12.733  63.993  1.00  0.00    -0.446 C  
BRANCH   4   5
HETATM    5  C   UNL     1     -12.145  12.603  63.964  1.00  0.00    -0.542 C  
BRANCH   5   6
HETATM    6  C   UNL     1     -12.754  13.117  65.265  1.00  0.00    -0.457 C  
BRANCH   6   7
HETATM    7  C   UNL     1     -11.677  13.228  66.331  1.00  0.00    -0.418 C  
BRANCH   7   8
HETATM    8  C   UNL     1     -11.788  14.535  67.111  1.00  0.00    -0.412 C  
BRANCH   8   9
HETATM    9  C   UNL     1     -11.412  14.259  68.559  1.00  0.00    -0.329 C  
BRANCH   9  10
HETATM   10  C   UNL     1     -11.856  15.382  69.488  1.00  0.00    -0.349 C  
BRANCH  10  11
HETATM   11  N   UNL     1     -12.300  14.862  70.880  1.00  0.00    -0.303 N  
HETATM   12  C   UNL     1     -11.313  15.317  71.956  1.00  0.00    -0.343 C  
HETATM   13  C   UNL     1     -13.702  15.377  71.214  1.00  0.00    -0.475 C  
BRANCH  11  14
HETATM   14  C   UNL     1     -12.306  13.315  70.776  1.00  0.00    -0.344 C  
BRANCH  14  15
HETATM   15  C   UNL     1     -13.182  12.661  71.835  1.00  0.00    -0.504 C  
BRANCH  15  16
HETATM   16  C   UNL     1     -13.193  11.144  71.712  1.00  0.00    -0.486 C  
BRANCH  16  17
HETATM   17  C   UNL     1     -12.136  10.738  70.691  1.00  0.00    -0.467 C  
BRANCH  17  18
HETATM   18  C   UNL     1     -11.685   9.301  70.893  1.00  0.00    -0.360 C  
BRANCH  18  19
HETATM   19  C   UNL     1     -10.185   9.262  71.152  1.00  0.00    -0.387 C  
BRANCH  19  20
HETATM   20  C   UNL     1      -9.788   7.944  71.807  1.00  0.00    -0.223 C  
BRANCH  20  21
HETATM   21  C   UNL     1     -10.811   7.527  72.860  1.00  0.00    -0.425 C  
BRANCH  21  22
HETATM   22  C   UNL     1     -10.116   6.917  74.072  1.00  0.00    -0.383 C  
HETATM   23  C   UNL     1      -8.618   7.159  74.028  1.00  0.00    -0.205 C  
ENDBRANCH  21  22
ENDBRANCH  20  21
ENDBRANCH  19  20
ENDBRANCH  18  19
ENDBRANCH  17  18
ENDBRANCH  16  17
ENDBRANCH  15  16
ENDBRANCH  14  15
ENDBRANCH  11  14
ENDBRANCH  10  11
ENDBRANCH   9  10
ENDBRANCH   8   9
ENDBRANCH   7   8
ENDBRANCH   6   7
ENDBRANCH   5   6
ENDBRANCH   4   5
ENDBRANCH   3   4
ENDBRANCH   2   3
TORSDOF 18
ENDMDL
MODEL       68
REMARK 921   NORMALIZED FREE ENERGY PREDICTED BY IDOCK:   -3.65 KCAL/MOL
REMARK 922        TOTAL FREE ENERGY PREDICTED BY IDOCK:  -10.20 KCAL/MOL
REMARK 923 INTER-LIGAND FREE ENERGY PREDICTED BY IDOCK:   -7.86 KCAL/MOL
REMARK 924 INTRA-LIGAND FREE ENERGY PREDICTED BY IDOCK:   -2.33 KCAL/MOL
REMARK 927      BINDING AFFINITY PREDICTED BY RF-SCORE:    0.00 PKD
ROOT
HETATM    1  C   UNL     1     -12.879  10.565  70.880  1.00  0.00    -0.485 C  
HETATM    2  C   UNL     1     -13.427   9.680  71.983  1.00  0.00    -0.514 C  
ENDROOT
BRANCH   2   3
HETATM    3  C   UNL     1     -12.523   8.475  72.225  1.00  0.00    -0.448 C  
BRANCH   3   4
HETATM    4  C   UNL     1     -12.963   7.291  71.372  1.00  0.00    -0.420 C  
BRANCH   4   5
HETATM    5  C   UNL     1     -11.776   6.666  70.656  1.00  0.00    -0.452 C  
BRANCH   5   6
HETATM    6  C   UNL     1     -10.464   7.144  71.270  1.00  0.00    -0.219 C  
BRANCH   6   7
HETATM    7  C   UNL     1      -9.603   7.800  70.204  1.00  0.00    -0.168 C  
BRANCH   7   8
HETATM    8  C   UNL     1      -9.421   9.292  70.465  1.00  0.00    -0.317 C  
BRANCH   8   9
HETATM    9  C   UNL     1      -9.126   9.977  69.138  1.00  0.00    -0.188 C  
BRANCH   9  10
HETATM   10  C   UNL     1      -9.541   9.120  67.949  1.00  0.00    -0.146 C  
BRANCH  10  11
HETATM   11  N   UNL     1      -8.388   8.916  66.932  1.00  0.00    -0.111 N  
HETATM   12  C   UNL     1      -7.262   9.916  67.198  1.00  0.00    -0.086 C  
HETATM   13  C   UNL     1      -7.844   7.489  67.029  1.00  0.00    -0.116 C  
BRANCH  11  14
HETATM   14  C   UNL     1      -9.006   9.161  65.531  1.00  0.00    -0.205 C  
BRANCH  14  15
HETATM   15  C   UNL     1     -10.105  10.213  65.552  1.00  0.00    -0.338 C  
BRANCH  15  16
HETATM   16  C   UNL     1      -9.756  11.423  64.697  1.00  0.00    -0.275 C  
BRANCH  16  17
HETATM   17  C   UNL     1     -10.646  11.408  63.458  1.00  0.00    -0.468 C  
BRANCH  17  18
HETATM   18  C   UNL     1     -12.022  11.983  63.750  1.00  0.00    -0.588 C  
BRANCH  18  19
HETATM   19  C   UNL     1     -12.063  13.451  63.349  1.00  0.00    -0.437 C  
BRANCH  19  20
HETATM   20  C   UNL     1     -11.918  14.345  64.575  1.00  0.00    -0.487 C  
BRANCH  20  21
HETATM   21  C   UNL     1     -12.657  13.755  65.772  1.00  0.00    -0.525 C  
BRANCH  21  22
HETATM   22  C   UNL     1     -11.825  13.899  67.042  1.00  0.00    -0.447 C  
HETATM   23  C   UNL     1     -11.677  12.568  67.756  1.00  0.00    -0.419 C  
ENDBRANCH  21  22
ENDBRANCH  20  21
ENDBRANCH  19  20
ENDBRANCH  18  19
ENDBRANCH  17  18
ENDBRANCH  16  17
ENDBRANCH  15  16
ENDBRANCH  14  15
ENDBRANCH  11  14
ENDBRANCH  10  11
ENDBRANCH   9  10
ENDBRANCH   8   9
ENDBRANCH   7   8
ENDBRANCH   6   7
ENDBRANCH   5   6
ENDBRANCH   4   5
ENDBRANCH   3   4
ENDBRANCH   2   3
TORSDOF 18
ENDMDL
MODEL       69
REMARK 921   NORMALIZED FREE ENERGY PREDICTED BY IDOCK:   -3.65 KCAL/MOL
REMARK 922        TOTAL FREE ENERGY PREDICTED BY IDOCK:  -10.18 KCAL/MOL
REMARK 923 INTER-LIGAND FREE ENERGY PREDICTED BY IDOCK:   -7.52 KCAL/MOL
REMARK 924 INTRA-LIGAND FREE ENERGY PREDICTED BY IDOCK:   -2.66 KCAL/MOL
REMARK 927      BINDING AFFINITY PREDICTED BY RF-SCORE:    0.00 PKD
ROOT
HETATM    1  C   UNL     1      -9.529   6.766  69.161  1.00  0.00    -0.141 C  
HETATM    2  C   UNL     1     -10.419   7.393  70.218  1.00  0.00    -0.229 C  
ENDROOT
BRANCH   2   3
HETATM    3  C   UNL     1     -11.734   6.630  70.355  1.00  0.00    -0.446 C  
BRANCH   3   4
HETATM    4  C   UNL     1     -12.382   6.915  71.705  1.00  0.00    -0.401 C  
BRANCH   4   5
HETATM    5  C   UNL     1     -12.084   8.336  72.162  1.00  0.00    -0.425 C  
BRANCH   5   6
HETATM    6  C   UNL     1     -13.349   9.188  72.129  1.00  0.00    -0.525 C  
BRANCH   6   7
HETATM    7  C   UNL     1     -13.000  10.616  71.745  1.00  0.00    -0.577 C  
BRANCH   7   8
HETATM    8  C   UNL     1     -12.158  10.669  70.474  1.00  0.00    -0.448 C  
BRANCH   8   9
HETATM    9  C   UNL     1     -11.885  12.129  70.143  1.00  0.00    -0.368 C  
BRANCH   9  10
HETATM   10  C   UNL     1     -11.877  12.383  68.641  1.00  0.00    -0.302 C  
BRANCH  10  11
HETATM   11  N   UNL     1     -11.369  13.803  68.280  1.00  0.00    -0.268 N  
HETATM   12  C   UNL     1     -11.806  14.179  66.864  1.00  0.00    -0.431 C  
HETATM   13  C   UNL     1     -11.913  14.828  69.278  1.00  0.00    -0.294 C  
BRANCH  11  14
HETATM   14  C   UNL     1      -9.822  13.738  68.366  1.00  0.00    -0.227 C  
BRANCH  14  15
HETATM   15  C   UNL     1      -9.172  13.487  67.014  1.00  0.00    -0.248 C  
BRANCH  15  16
HETATM   16  C   UNL     1      -8.083  12.426  67.090  1.00  0.00    -0.167 C  
BRANCH  16  17
HETATM   17  C   UNL     1      -8.371  11.529  68.290  1.00  0.00    -0.154 C  
BRANCH  17  18
HETATM   18  C   UNL     1      -8.489  10.070  67.883  1.00  0.00    -0.118 C  
BRANCH  18  19
HETATM   19  C   UNL     1      -9.789   9.851  67.120  1.00  0.00    -0.235 C  
BRANCH  19  20
HETATM   20  C   UNL     1      -9.541   9.015  65.870  1.00  0.00    -0.317 C  
BRANCH  20  21
HETATM   21  C   UNL     1      -9.509   9.893  64.623  1.00  0.00    -0.343 C  
BRANCH  21  22
HETATM   22  C   UNL     1     -10.567  10.986  64.707  1.00  0.00    -0.350 C  
HETATM   23  C   UNL     1     -10.433  11.973  63.562  1.00  0.00    -0.505 C  
ENDBRANCH  21  22
ENDBRANCH  20  21
ENDBRANCH  19  20
ENDBRANCH  18  19
ENDBRANCH  17  18
ENDBRANCH  16  17
ENDBRANCH  15  16
ENDBRANCH  14  15
ENDBRANCH  11  14
ENDBRANCH  10  11
ENDBRANCH   9  10
ENDBRANCH   8   9
ENDBRANCH   7   8
ENDBRANCH   6   7
ENDBRANCH   5   6
ENDBRANCH   4   5
ENDBRANCH   3   4
ENDBRANCH   2   3
TORSDOF 18
ENDMDL
MODEL       70
REMARK 921   NORMALIZED FREE ENERGY PREDICTED BY IDOCK:   -3.63 KCAL/MOL
REMARK 922        TOTAL FREE ENERGY PREDICTED BY IDOCK:  -10.15 KCAL/MOL
REMARK 923 INTER-LIGAND FREE ENERGY PREDICTED BY IDOCK:   -7.20 KCAL/MOL
REMARK 924 INTRA-LIGAND FREE ENERGY PREDICTED BY IDOCK:   -2.95 KCAL/MOL
REMARK 927      BINDING AFFINITY PREDICTED BY RF-SCORE:    0.00 PKD
ROOT
HETATM    1  C   UNL     1     -10.330  14.306  66.861  1.00  0.00    -0.268 C  
HETATM    2  C   UNL     1     -11.813  14.483  66.596  1.00  0.00    -0.383 C  
ENDROOT
BRANCH   2   3
HETATM    3  C   UNL     1     -12.374  13.311  65.795  1.00  0.00    -0.505 C  
BRANCH   3   4
HETATM    4  C   UNL     1     -12.214  13.557  64.299  1.00  0.00    -0.450 C  
BRANCH   4   5
HETATM    5  C   UNL     1     -11.948  12.253  63.560  1.00  0.00    -0.625 C  
BRANCH   5   6
HETATM    6  C   UNL     1     -10.452  11.959  63.510  1.00  0.00    -0.505 C  
BRANCH   6   7
HETATM    7  C   UNL     1     -10.136  10.745  64.367  1.00  0.00    -0.419 C  
BRANCH   7   8
HETATM    8  C   UNL     1      -9.179  11.090  65.504  1.00  0.00    -0.235 C  
BRANCH   8   9
HETATM    9  C   UNL     1      -7.993  10.138  65.436  1.00  0.00    -0.144 C  
BRANCH   9  10
HETATM   10  C   UNL     1      -8.386   8.776  64.881  1.00  0.00    -0.170 C  
BRANCH  10  11
HETATM   11  N   UNL     1      -8.330   7.657  65.953  1.00  0.00    -0.132 N  
HETATM   12  C   UNL     1      -8.020   6.310  65.300  1.00  0.00    -0.117 C  
HETATM   13  C   UNL     1      -7.263   7.981  67.001  1.00  0.00    -0.087 C  
BRANCH  11  14
HETATM   14  C   UNL     1      -9.735   7.624  66.610  1.00  0.00    -0.213 C  
BRANCH  14  15
HETATM   15  C   UNL     1      -9.714   8.094  68.057  1.00  0.00    -0.186 C  
BRANCH  15  16
HETATM   16  C   UNL     1     -10.635   9.284  68.286  1.00  0.00    -0.237 C  
BRANCH  16  17
HETATM   17  C   UNL     1      -9.859  10.352  69.050  1.00  0.00    -0.222 C  
BRANCH  17  18
HETATM   18  C   UNL     1     -10.687  11.609  69.254  1.00  0.00    -0.144 C  
BRANCH  18  19
HETATM   19  C   UNL     1     -12.149  11.236  69.462  1.00  0.00    -0.386 C  
BRANCH  19  20
HETATM   20  C   UNL     1     -12.473  11.154  70.950  1.00  0.00    -0.509 C  
BRANCH  20  21
HETATM   21  C   UNL     1     -13.016   9.777  71.316  1.00  0.00    -0.470 C  
BRANCH  21  22
HETATM   22  C   UNL     1     -11.917   8.906  71.915  1.00  0.00    -0.441 C  
HETATM   23  C   UNL     1     -12.077   7.455  71.501  1.00  0.00    -0.357 C  
ENDBRANCH  21  22
ENDBRANCH  20  21
ENDBRANCH  19  20
ENDBRANCH  18  19
ENDBRANCH  17  18
ENDBRANCH  16  17
ENDBRANCH  15  16
ENDBRANCH  14  15
ENDBRANCH  11  14
ENDBRANCH  10  11
ENDBRANCH   9  10
ENDBRANCH   8   9
ENDBRANCH   7   8
ENDBRANCH   6   7
ENDBRANCH   5   6
ENDBRANCH   4   5
ENDBRANCH   3   4
ENDBRANCH   2   3
TORSDOF 18
ENDMDL
MODEL       71
REMARK 921   NORMALIZED FREE ENERGY PREDICTED BY IDOCK:   -3.63 KCAL/MOL
REMARK 922        TOTAL FREE ENERGY PREDICTED BY IDOCK:  -10.15 KCAL/MOL
REMARK 923 INTER-LIGAND FREE ENERGY PREDICTED BY IDOCK:   -8.24 KCAL/MOL
REMARK 924 INTRA-LIGAND FREE ENERGY PREDICTED BY IDOCK:   -1.91 KCAL/MOL
REMARK 927      BINDING AFFINITY PREDICTED BY RF-SCORE:    0.00 PKD
ROOT
HETATM    1  C   UNL     1     -12.547  15.487  73.939  1.00  0.00    -0.767 C  
HETATM    2  C   UNL     1     -13.655  16.007  73.042  1.00  0.00    -0.530 C  
ENDROOT
BRANCH   2   3
HETATM    3  C   UNL     1     -14.106  14.941  72.048  1.00  0.00    -0.613 C  
BRANCH   3   4
HETATM    4  C   UNL     1     -13.574  13.571  72.451  1.00  0.00    -0.709 C  
BRANCH   4   5
HETATM    5  C   UNL     1     -12.644  13.013  71.383  1.00  0.00    -0.329 C  
BRANCH   5   6
HETATM    6  C   UNL     1     -12.360  14.065  70.315  1.00  0.00    -0.425 C  
BRANCH   6   7
HETATM    7  C   UNL     1     -11.941  13.387  69.022  1.00  0.00    -0.357 C  
BRANCH   7   8
HETATM    8  C   UNL     1     -11.168  14.337  68.112  1.00  0.00    -0.295 C  
BRANCH   8   9
HETATM    9  C   UNL     1     -10.681  13.550  66.903  1.00  0.00    -0.274 C  
BRANCH   9  10
HETATM   10  C   UNL     1     -11.836  13.019  66.065  1.00  0.00    -0.417 C  
BRANCH  10  11
HETATM   11  N   UNL     1     -11.558  13.113  64.542  1.00  0.00    -0.346 N  
HETATM   12  C   UNL     1     -12.435  12.119  63.780  1.00  0.00    -0.514 C  
HETATM   13  C   UNL     1     -11.832  14.533  64.041  1.00  0.00    -0.152 C  
BRANCH  11  14
HETATM   14  C   UNL     1     -10.060  12.759  64.358  1.00  0.00    -0.249 C  
BRANCH  14  15
HETATM   15  C   UNL     1      -9.840  11.285  64.052  1.00  0.00    -0.334 C  
BRANCH  15  16
HETATM   16  C   UNL     1      -8.787  10.663  64.958  1.00  0.00    -0.212 C  
BRANCH  16  17
HETATM   17  C   UNL     1      -9.359   9.378  65.547  1.00  0.00    -0.315 C  
BRANCH  17  18
HETATM   18  C   UNL     1      -8.851   9.134  66.958  1.00  0.00    -0.135 C  
BRANCH  18  19
HETATM   19  C   UNL     1      -9.300  10.267  67.871  1.00  0.00    -0.147 C  
BRANCH  19  20
HETATM   20  C   UNL     1     -10.753  10.072  68.291  1.00  0.00    -0.280 C  
BRANCH  20  21
HETATM   21  C   UNL     1     -10.905  10.195  69.804  1.00  0.00    -0.320 C  
BRANCH  21  22
HETATM   22  C   UNL     1      -9.765   9.478  70.519  1.00  0.00    -0.325 C  
HETATM   23  C   UNL     1      -9.998   7.980  70.564  1.00  0.00    -0.193 C  
ENDBRANCH  21  22
ENDBRANCH  20  21
ENDBRANCH  19  20
ENDBRANCH  18  19
ENDBRANCH  17  18
ENDBRANCH  16  17
ENDBRANCH  15  16
ENDBRANCH  14  15
ENDBRANCH  11  14
ENDBRANCH  10  11
ENDBRANCH   9  10
ENDBRANCH   8   9
ENDBRANCH   7   8
ENDBRANCH   6   7
ENDBRANCH   5   6
ENDBRANCH   4   5
ENDBRANCH   3   4
ENDBRANCH   2   3
TORSDOF 18
ENDMDL
MODEL       72
REMARK 921   NORMALIZED FREE ENERGY PREDICTED BY IDOCK:   -3.63 KCAL/MOL
REMARK 922        TOTAL FREE ENERGY PREDICTED BY IDOCK:  -10.15 KCAL/MOL
REMARK 923 INTER-LIGAND FREE ENERGY PREDICTED BY IDOCK:   -7.48 KCAL/MOL
REMARK 924 INTRA-LIGAND FREE ENERGY PREDICTED BY IDOCK:   -2.67 KCAL/MOL
REMARK 927      BINDING AFFINITY PREDICTED BY RF-SCORE:    0.00 PKD
ROOT
HETATM    1  C   UNL     1     -13.988  15.121  71.578  1.00  0.00    -0.614 C  
HETATM    2  C   UNL     1     -13.836  13.813  72.332  1.00  0.00    -0.681 C  
ENDROOT
BRANCH   2   3
HETATM    3  C   UNL     1     -12.960  12.830  71.563  1.00  0.00    -0.388 C  
BRANCH   3   4
HETATM    4  C   UNL     1     -13.257  11.397  71.988  1.00  0.00    -0.432 C  
BRANCH   4   5
HETATM    5  C   UNL     1     -12.510  10.403  71.111  1.00  0.00    -0.509 C  
BRANCH   5   6
HETATM    6  C   UNL     1     -11.788  11.123  69.977  1.00  0.00    -0.441 C  
BRANCH   6   7
HETATM    7  C   UNL     1     -10.981  10.127  69.162  1.00  0.00    -0.270 C  
BRANCH   7   8
HETATM    8  C   UNL     1     -11.144  10.358  67.664  1.00  0.00    -0.361 C  
BRANCH   8   9
HETATM    9  C   UNL     1      -9.933   9.770  66.954  1.00  0.00    -0.270 C  
BRANCH   9  10
HETATM   10  C   UNL     1      -8.763   9.557  67.905  1.00  0.00    -0.119 C  
BRANCH  10  11
HETATM   11  N   UNL     1      -7.509  10.373  67.497  1.00  0.00    -0.092 N  
HETATM   12  C   UNL     1      -6.238   9.567  67.771  1.00  0.00    -0.053 C  
HETATM   13  C   UNL     1      -7.577  10.740  66.012  1.00  0.00    -0.130 C  
BRANCH  11  14
HETATM   14  C   UNL     1      -7.531  11.655  68.368  1.00  0.00    -0.107 C  
BRANCH  14  15
HETATM   15  C   UNL     1      -7.063  12.887  67.608  1.00  0.00    -0.151 C  
BRANCH  15  16
HETATM   16  C   UNL     1      -8.140  13.961  67.541  1.00  0.00    -0.191 C  
BRANCH  16  17
HETATM   17  C   UNL     1      -9.407  13.411  68.188  1.00  0.00    -0.217 C  
BRANCH  17  18
HETATM   18  C   UNL     1     -10.422  14.510  68.454  1.00  0.00    -0.246 C  
BRANCH  18  19
HETATM   19  C   UNL     1     -11.775  14.113  67.880  1.00  0.00    -0.402 C  
BRANCH  19  20
HETATM   20  C   UNL     1     -11.832  14.415  66.386  1.00  0.00    -0.402 C  
BRANCH  20  21
HETATM   21  C   UNL     1     -12.223  13.173  65.592  1.00  0.00    -0.521 C  
BRANCH  21  22
HETATM   22  C   UNL     1     -11.114  12.786  64.620  1.00  0.00    -0.349 C  
HETATM   23  C   UNL     1     -11.681  12.165  63.356  1.00  0.00    -0.533 C  
ENDBRANCH  21  22
ENDBRANCH  20  21
ENDBRANCH  19  20
ENDBRANCH  18  19
ENDBRANCH  17  18
ENDBRANCH  16  17
ENDBRANCH  15  16
ENDBRANCH  14  15
ENDBRANCH  11  14
ENDBRANCH  10  11
ENDBRANCH   9  10
ENDBRANCH   8   9
ENDBRANCH   7   8
ENDBRANCH   6   7
ENDBRANCH   5   6
ENDBRANCH   4   5
ENDBRANCH   3   4
ENDBRANCH   2   3
TORSDOF 18
ENDMDL
MODEL       73
REMARK 921   NORMALIZED FREE ENERGY PREDICTED BY IDOCK:   -3.63 KCAL/MOL
REMARK 922        TOTAL FREE ENERGY PREDICTED BY IDOCK:  -10.14 KCAL/MOL
REMARK 923 INTER-LIGAND FREE ENERGY PREDICTED BY IDOCK:   -7.40 KCAL/MOL
REMARK 924 INTRA-LIGAND FREE ENERGY PREDICTED BY IDOCK:   -2.74 KCAL/MOL
REMARK 927      BINDING AFFINITY PREDICTED BY RF-SCORE:    0.00 PKD
ROOT
HETATM    1  C   UNL     1      -6.969   9.663  68.425  1.00  0.00    -0.065 C  
HETATM    2  C   UNL     1      -7.735  10.327  69.555  1.00  0.00    -0.167 C  
ENDROOT
BRANCH   2   3
HETATM    3  C   UNL     1      -8.441   9.291  70.425  1.00  0.00    -0.234 C  
BRANCH   3   4
HETATM    4  C   UNL     1      -9.880   9.092  69.963  1.00  0.00    -0.203 C  
BRANCH   4   5
HETATM    5  C   UNL     1     -10.565  10.429  69.727  1.00  0.00    -0.302 C  
BRANCH   5   6
HETATM    6  C   UNL     1     -11.164  10.487  68.326  1.00  0.00    -0.354 C  
BRANCH   6   7
HETATM    7  C   UNL     1     -10.759   9.253  67.539  1.00  0.00    -0.272 C  
BRANCH   7   8
HETATM    8  C   UNL     1     -10.141   9.619  66.193  1.00  0.00    -0.328 C  
BRANCH   8   9
HETATM    9  C   UNL     1     -10.194  11.132  66.039  1.00  0.00    -0.300 C  
BRANCH   9  10
HETATM   10  C   UNL     1     -10.572  11.550  64.624  1.00  0.00    -0.311 C  
BRANCH  10  11
HETATM   11  N   UNL     1     -11.365  12.882  64.589  1.00  0.00    -0.309 N  
HETATM   12  C   UNL     1     -12.131  13.009  63.272  1.00  0.00    -0.422 C  
HETATM   13  C   UNL     1     -12.343  12.947  65.765  1.00  0.00    -0.375 C  
BRANCH  11  14
HETATM   14  C   UNL     1     -10.308  14.012  64.707  1.00  0.00    -0.380 C  
BRANCH  14  15
HETATM   15  C   UNL     1     -10.878  15.284  65.316  1.00  0.00    -0.417 C  
BRANCH  15  16
HETATM   16  C   UNL     1     -10.121  15.711  66.565  1.00  0.00    -0.293 C  
BRANCH  16  17
HETATM   17  C   UNL     1      -9.228  14.555  67.003  1.00  0.00    -0.253 C  
BRANCH  17  18
HETATM   18  C   UNL     1      -9.677  13.973  68.333  1.00  0.00    -0.223 C  
BRANCH  18  19
HETATM   19  C   UNL     1     -10.818  14.806  68.901  1.00  0.00    -0.259 C  
BRANCH  19  20
HETATM   20  C   UNL     1     -11.905  13.904  69.475  1.00  0.00    -0.383 C  
BRANCH  20  21
HETATM   21  C   UNL     1     -12.135  14.197  70.954  1.00  0.00    -0.416 C  
BRANCH  21  22
HETATM   22  C   UNL     1     -12.386  15.685  71.174  1.00  0.00    -0.482 C  
HETATM   23  C   UNL     1     -12.051  16.096  72.596  1.00  0.00    -0.652 C  
ENDBRANCH  21  22
ENDBRANCH  20  21
ENDBRANCH  19  20
ENDBRANCH  18  19
ENDBRANCH  17  18
ENDBRANCH  16  17
ENDBRANCH  15  16
ENDBRANCH  14  15
ENDBRANCH  11  14
ENDBRANCH  10  11
ENDBRANCH   9  10
ENDBRANCH   8   9
ENDBRANCH   7   8
ENDBRANCH   6   7
ENDBRANCH   5   6
ENDBRANCH   4   5
ENDBRANCH   3   4
ENDBRANCH   2   3
TORSDOF 18
ENDMDL
MODEL       74
REMARK 921   NORMALIZED FREE ENERGY PREDICTED BY IDOCK:   -3.63 KCAL/MOL
REMARK 922        TOTAL FREE ENERGY PREDICTED BY IDOCK:  -10.14 KCAL/MOL
REMARK 923 INTER-LIGAND FREE ENERGY PREDICTED BY IDOCK:   -7.66 KCAL/MOL
REMARK 924 INTRA-LIGAND FREE ENERGY PREDICTED BY IDOCK:   -2.48 KCAL/MOL
REMARK 927      BINDING AFFINITY PREDICTED BY RF-SCORE:    0.00 PKD
ROOT
HETATM    1  C   UNL     1      -9.916  10.467  64.424  1.00  0.00    -0.410 C  
HETATM    2  C   UNL     1      -9.465  11.137  65.709  1.00  0.00    -0.248 C  
ENDROOT
BRANCH   2   3
HETATM    3  C   UNL     1      -9.005  10.106  66.736  1.00  0.00    -0.147 C  
BRANCH   3   4
HETATM    4  C   UNL     1      -9.594   8.735  66.422  1.00  0.00    -0.316 C  
BRANCH   4   5
HETATM    5  C   UNL     1      -9.716   7.895  67.685  1.00  0.00    -0.196 C  
BRANCH   5   6
HETATM    6  C   UNL     1     -10.865   6.899  67.559  1.00  0.00    -0.363 C  
BRANCH   6   7
HETATM    7  C   UNL     1     -11.129   6.243  68.904  1.00  0.00    -0.434 C  
BRANCH   7   8
HETATM    8  C   UNL     1     -10.038   5.242  69.268  1.00  0.00    -0.300 C  
BRANCH   8   9
HETATM    9  C   UNL     1      -9.991   5.116  70.784  1.00  0.00    -0.285 C  
BRANCH   9  10
HETATM   10  C   UNL     1      -9.832   6.469  71.464  1.00  0.00    -0.168 C  
BRANCH  10  11
HETATM   11  N   UNL     1     -10.713   6.604  72.734  1.00  0.00    -0.230 N  
HETATM   12  C   UNL     1     -11.532   5.331  72.949  1.00  0.00    -0.270 C  
HETATM   13  C   UNL     1      -9.836   6.867  73.960  1.00  0.00    -0.320 C  
BRANCH  11  14
HETATM   14  C   UNL     1     -11.652   7.811  72.476  1.00  0.00    -0.367 C  
BRANCH  14  15
HETATM   15  C   UNL     1     -10.946   8.962  71.776  1.00  0.00    -0.431 C  
BRANCH  15  16
HETATM   16  C   UNL     1     -11.798   9.567  70.669  1.00  0.00    -0.301 C  
BRANCH  16  17
HETATM   17  C   UNL     1     -10.945  10.575  69.904  1.00  0.00    -0.359 C  
BRANCH  17  18
HETATM   18  C   UNL     1     -11.795  11.468  69.016  1.00  0.00    -0.408 C  
BRANCH  18  19
HETATM   19  C   UNL     1     -11.688  12.913  69.484  1.00  0.00    -0.387 C  
BRANCH  19  20
HETATM   20  C   UNL     1     -11.910  13.871  68.319  1.00  0.00    -0.412 C  
BRANCH  20  21
HETATM   21  C   UNL     1     -12.102  13.107  67.012  1.00  0.00    -0.366 C  
BRANCH  21  22
HETATM   22  C   UNL     1     -12.327  14.072  65.853  1.00  0.00    -0.515 C  
HETATM   23  C   UNL     1     -12.360  13.339  64.525  1.00  0.00    -0.428 C  
ENDBRANCH  21  22
ENDBRANCH  20  21
ENDBRANCH  19  20
ENDBRANCH  18  19
ENDBRANCH  17  18
ENDBRANCH  16  17
ENDBRANCH  15  16
ENDBRANCH  14  15
ENDBRANCH  11  14
ENDBRANCH  10  11
ENDBRANCH   9  10
ENDBRANCH   8   9
ENDBRANCH   7   8
ENDBRANCH   6   7
ENDBRANCH   5   6
ENDBRANCH   4   5
ENDBRANCH   3   4
ENDBRANCH   2   3
TORSDOF 18
ENDMDL
MODEL       75
REMARK 921   NORMALIZED FREE ENERGY PREDICTED BY IDOCK:   -3.63 KCAL/MOL
REMARK 922        TOTAL FREE ENERGY PREDICTED BY IDOCK:  -10.14 KCAL/MOL
REMARK 923 INTER-LIGAND FREE ENERGY PREDICTED BY IDOCK:   -8.65 KCAL/MOL
REMARK 924 INTRA-LIGAND FREE ENERGY PREDICTED BY IDOCK:   -1.49 KCAL/MOL
REMARK 927      BINDING AFFINITY PREDICTED BY RF-SCORE:    0.00 PKD
ROOT
HETATM    1  C   UNL     1     -14.384   7.338  71.650  1.00  0.00    -0.583 C  
HETATM    2  C   UNL     1     -12.886   7.374  71.408  1.00  0.00    -0.408 C  
ENDROOT
BRANCH   2   3
HETATM    3  C   UNL     1     -12.224   8.491  72.209  1.00  0.00    -0.454 C  
BRANCH   3   4
HETATM    4  C   UNL     1     -11.583   9.513  71.277  1.00  0.00    -0.445 C  
BRANCH   4   5
HETATM    5  C   UNL     1     -12.469  10.740  71.125  1.00  0.00    -0.519 C  
BRANCH   5   6
HETATM    6  C   UNL     1     -12.059  11.552  69.900  1.00  0.00    -0.389 C  
BRANCH   6   7
HETATM    7  C   UNL     1     -12.238  13.034  70.178  1.00  0.00    -0.342 C  
BRANCH   7   8
HETATM    8  C   UNL     1     -11.960  13.879  68.939  1.00  0.00    -0.393 C  
BRANCH   8   9
HETATM    9  C   UNL     1     -11.697  12.940  67.770  1.00  0.00    -0.412 C  
BRANCH   9  10
HETATM   10  C   UNL     1     -12.095  13.561  66.438  1.00  0.00    -0.417 C  
BRANCH  10  11
HETATM   11  N   UNL     1     -11.251  13.021  65.254  1.00  0.00    -0.285 N  
HETATM   12  C   UNL     1     -10.454  11.790  65.688  1.00  0.00    -0.265 C  
HETATM   13  C   UNL     1     -12.161  12.658  64.078  1.00  0.00    -0.463 C  
BRANCH  11  14
HETATM   14  C   UNL     1     -10.290  14.170  64.854  1.00  0.00    -0.408 C  
BRANCH  14  15
HETATM   15  C   UNL     1     -10.858  15.545  65.175  1.00  0.00    -0.452 C  
BRANCH  15  16
HETATM   16  C   UNL     1      -9.919  16.362  66.052  1.00  0.00    -0.369 C  
BRANCH  16  17
HETATM   17  C   UNL     1     -10.612  16.621  67.385  1.00  0.00    -0.295 C  
BRANCH  17  18
HETATM   18  C   UNL     1      -9.681  17.296  68.378  1.00  0.00    -0.293 C  
BRANCH  18  19
HETATM   19  C   UNL     1      -8.234  16.976  68.028  1.00  0.00    -0.206 C  
BRANCH  19  20
HETATM   20  C   UNL     1      -7.364  18.222  68.157  1.00  0.00    -0.266 C  
BRANCH  20  21
HETATM   21  C   UNL     1      -8.166  19.483  67.849  1.00  0.00    -0.345 C  
BRANCH  21  22
HETATM   22  C   UNL     1      -8.036  19.856  66.377  1.00  0.00    -0.357 C  
HETATM   23  C   UNL     1      -6.709  19.392  65.806  1.00  0.00    -0.282 C  
ENDBRANCH  21  22
ENDBRANCH  20  21
ENDBRANCH  19  20
ENDBRANCH  18  19
ENDBRANCH  17  18
ENDBRANCH  16  17
ENDBRANCH  15  16
ENDBRANCH  14  15
ENDBRANCH  11  14
ENDBRANCH  10  11
ENDBRANCH   9  10
ENDBRANCH   8   9
ENDBRANCH   7   8
ENDBRANCH   6   7
ENDBRANCH   5   6
ENDBRANCH   4   5
ENDBRANCH   3   4
ENDBRANCH   2   3
TORSDOF 18
ENDMDL
MODEL       76
REMARK 921   NORMALIZED FREE ENERGY PREDICTED BY IDOCK:   -3.62 KCAL/MOL
REMARK 922        TOTAL FREE ENERGY PREDICTED BY IDOCK:  -10.14 KCAL/MOL
REMARK 923 INTER-LIGAND FREE ENERGY PREDICTED BY IDOCK:   -8.05 KCAL/MOL
REMARK 924 INTRA-LIGAND FREE ENERGY PREDICTED BY IDOCK:   -2.09 KCAL/MOL
REMARK 927      BINDING AFFINITY PREDICTED BY RF-SCORE:    0.00 PKD
ROOT
HETATM    1  C   UNL     1     -12.989  10.447  71.631  1.00  0.00    -0.581 C  
HETATM    2  C   UNL     1     -11.646   9.820  71.307  1.00  0.00    -0.465 C  
ENDROOT
BRANCH   2   3
HETATM    3  C   UNL     1     -11.412   8.560  72.134  1.00  0.00    -0.446 C  
BRANCH   3   4
HETATM    4  C   UNL     1     -12.001   7.340  71.434  1.00  0.00    -0.354 C  
BRANCH   4   5
HETATM    5  C   UNL     1     -11.066   6.146  71.544  1.00  0.00    -0.342 C  
BRANCH   5   6
HETATM    6  C   UNL     1     -10.538   5.747  70.170  1.00  0.00    -0.377 C  
BRANCH   6   7
HETATM    7  C   UNL     1     -11.392   6.381  69.085  1.00  0.00    -0.366 C  
BRANCH   7   8
HETATM    8  C   UNL     1     -10.540   6.927  67.943  1.00  0.00    -0.286 C  
BRANCH   8   9
HETATM    9  C   UNL     1     -10.685   8.442  67.922  1.00  0.00    -0.141 C  
BRANCH   9  10
HETATM   10  C   UNL     1      -9.966   9.069  66.735  1.00  0.00    -0.263 C  
BRANCH  10  11
HETATM   11  N   UNL     1      -8.649   9.777  67.143  1.00  0.00    -0.128 N  
HETATM   12  C   UNL     1      -8.673  10.127  68.631  1.00  0.00    -0.128 C  
HETATM   13  C   UNL     1      -7.449   8.875  66.844  1.00  0.00    -0.083 C  
BRANCH  11  14
HETATM   14  C   UNL     1      -8.575  11.068  66.288  1.00  0.00    -0.167 C  
BRANCH  14  15
HETATM   15  C   UNL     1      -9.940  11.516  65.786  1.00  0.00    -0.271 C  
BRANCH  15  16
HETATM   16  C   UNL     1     -10.454  12.737  66.536  1.00  0.00    -0.276 C  
BRANCH  16  17
HETATM   17  C   UNL     1     -11.785  12.375  67.187  1.00  0.00    -0.415 C  
BRANCH  17  18
HETATM   18  C   UNL     1     -11.702  12.436  68.702  1.00  0.00    -0.372 C  
BRANCH  18  19
HETATM   19  C   UNL     1     -11.846  13.878  69.170  1.00  0.00    -0.401 C  
BRANCH  19  20
HETATM   20  C   UNL     1     -12.483  13.930  70.555  1.00  0.00    -0.422 C  
BRANCH  20  21
HETATM   21  C   UNL     1     -13.177  15.269  70.787  1.00  0.00    -0.442 C  
BRANCH  21  22
HETATM   22  C   UNL     1     -13.946  15.254  72.103  1.00  0.00    -0.650 C  
HETATM   23  C   UNL     1     -13.056  15.654  73.265  1.00  0.00    -0.675 C  
ENDBRANCH  21  22
ENDBRANCH  20  21
ENDBRANCH  19  20
ENDBRANCH  18  19
ENDBRANCH  17  18
ENDBRANCH  16  17
ENDBRANCH  15  16
ENDBRANCH  14  15
ENDBRANCH  11  14
ENDBRANCH  10  11
ENDBRANCH   9  10
ENDBRANCH   8   9
ENDBRANCH   7   8
ENDBRANCH   6   7
ENDBRANCH   5   6
ENDBRANCH   4   5
ENDBRANCH   3   4
ENDBRANCH   2   3
TORSDOF 18
ENDMDL
MODEL       77
REMARK 921   NORMALIZED FREE ENERGY PREDICTED BY IDOCK:   -3.61 KCAL/MOL
REMARK 922        TOTAL FREE ENERGY PREDICTED BY IDOCK:  -10.10 KCAL/MOL
REMARK 923 INTER-LIGAND FREE ENERGY PREDICTED BY IDOCK:   -8.23 KCAL/MOL
REMARK 924 INTRA-LIGAND FREE ENERGY PREDICTED BY IDOCK:   -1.87 KCAL/MOL
REMARK 927      BINDING AFFINITY PREDICTED BY RF-SCORE:    0.00 PKD
ROOT
HETATM    1  C   UNL     1      -8.296   7.963  71.211  1.00  0.00    -0.120 C  
HETATM    2  C   UNL     1      -9.293   8.936  71.812  1.00  0.00    -0.304 C  
ENDROOT
BRANCH   2   3
HETATM    3  C   UNL     1     -10.424   8.199  72.522  1.00  0.00    -0.409 C  
BRANCH   3   4
HETATM    4  C   UNL     1     -11.780   8.694  72.032  1.00  0.00    -0.439 C  
BRANCH   4   5
HETATM    5  C   UNL     1     -11.617   9.652  70.861  1.00  0.00    -0.420 C  
BRANCH   5   6
HETATM    6  C   UNL     1     -12.513  10.874  71.037  1.00  0.00    -0.514 C  
BRANCH   6   7
HETATM    7  C   UNL     1     -12.081  11.973  70.081  1.00  0.00    -0.377 C  
BRANCH   7   8
HETATM    8  C   UNL     1     -11.610  11.407  68.746  1.00  0.00    -0.378 C  
BRANCH   8   9
HETATM    9  C   UNL     1     -11.897  12.436  67.662  1.00  0.00    -0.363 C  
BRANCH   9  10
HETATM   10  C   UNL     1     -11.235  12.073  66.340  1.00  0.00    -0.337 C  
BRANCH  10  11
HETATM   11  N   UNL     1     -11.722  12.963  65.166  1.00  0.00    -0.331 N  
HETATM   12  C   UNL     1     -12.255  12.094  64.027  1.00  0.00    -0.446 C  
HETATM   13  C   UNL     1     -12.821  13.915  65.646  1.00  0.00    -0.424 C  
BRANCH  11  14
HETATM   14  C   UNL     1     -10.483  13.767  64.696  1.00  0.00    -0.412 C  
BRANCH  14  15
HETATM   15  C   UNL     1      -9.705  14.375  65.854  1.00  0.00    -0.305 C  
BRANCH  15  16
HETATM   16  C   UNL     1      -9.768  15.896  65.849  1.00  0.00    -0.386 C  
BRANCH  16  17
HETATM   17  C   UNL     1      -8.486  16.430  66.480  1.00  0.00    -0.336 C  
BRANCH  17  18
HETATM   18  C   UNL     1      -8.757  17.102  67.816  1.00  0.00    -0.220 C  
BRANCH  18  19
HETATM   19  C   UNL     1      -8.294  16.199  68.951  1.00  0.00    -0.233 C  
BRANCH  19  20
HETATM   20  C   UNL     1      -9.481  15.472  69.574  1.00  0.00    -0.269 C  
BRANCH  20  21
HETATM   21  C   UNL     1     -10.728  16.351  69.563  1.00  0.00    -0.325 C  
BRANCH  21  22
HETATM   22  C   UNL     1     -11.986  15.500  69.693  1.00  0.00    -0.380 C  
HETATM   23  C   UNL     1     -12.567  15.587  71.092  1.00  0.00    -0.509 C  
ENDBRANCH  21  22
ENDBRANCH  20  21
ENDBRANCH  19  20
ENDBRANCH  18  19
ENDBRANCH  17  18
ENDBRANCH  16  17
ENDBRANCH  15  16
ENDBRANCH  14  15
ENDBRANCH  11  14
ENDBRANCH  10  11
ENDBRANCH   9  10
ENDBRANCH   8   9
ENDBRANCH   7   8
ENDBRANCH   6   7
ENDBRANCH   5   6
ENDBRANCH   4   5
ENDBRANCH   3   4
ENDBRANCH   2   3
TORSDOF 18
ENDMDL
MODEL       78
REMARK 921   NORMALIZED FREE ENERGY PREDICTED BY IDOCK:   -3.60 KCAL/MOL
REMARK 922        TOTAL FREE ENERGY PREDICTED BY IDOCK:  -10.09 KCAL/MOL
REMARK 923 INTER-LIGAND FREE ENERGY PREDICTED BY IDOCK:   -7.55 KCAL/MOL
REMARK 924 INTRA-LIGAND FREE ENERGY PREDICTED BY IDOCK:   -2.54 KCAL/MOL
REMARK 927      BINDING AFFINITY PREDICTED BY RF-SCORE:    0.00 PKD
ROOT
HETATM    1  C   UNL     1     -11.622   6.030  72.319  1.00  0.00    -0.359 C  
HETATM    2  C   UNL     1     -12.464   7.120  71.684  1.00  0.00    -0.405 C  
ENDROOT
BRANCH   2   3
HETATM    3  C   UNL     1     -11.841   8.496  71.900  1.00  0.00    -0.407 C  
BRANCH   3   4
HETATM    4  C   UNL     1     -12.923   9.555  72.077  1.00  0.00    -0.514 C  
BRANCH   4   5
HETATM    5  C   UNL     1     -12.657  10.758  71.183  1.00  0.00    -0.532 C  
BRANCH   5   6
HETATM    6  C   UNL     1     -11.466  10.495  70.267  1.00  0.00    -0.416 C  
BRANCH   6   7
HETATM    7  C   UNL     1     -11.691  11.162  68.922  1.00  0.00    -0.406 C  
BRANCH   7   8
HETATM    8  C   UNL     1     -11.749  12.681  69.047  1.00  0.00    -0.367 C  
BRANCH   8   9
HETATM    9  C   UNL     1     -12.107  13.260  67.686  1.00  0.00    -0.295 C  
BRANCH   9  10
HETATM   10  C   UNL     1     -11.661  12.355  66.545  1.00  0.00    -0.387 C  
BRANCH  10  11
HETATM   11  N   UNL     1     -11.721  13.063  65.166  1.00  0.00    -0.327 N  
HETATM   12  C   UNL     1     -11.889  12.033  64.048  1.00  0.00    -0.408 C  
HETATM   13  C   UNL     1     -12.884  14.057  65.132  1.00  0.00    -0.334 C  
BRANCH  11  14
HETATM   14  C   UNL     1     -10.371  13.810  65.010  1.00  0.00    -0.382 C  
BRANCH  14  15
HETATM   15  C   UNL     1     -10.504  15.309  65.231  1.00  0.00    -0.436 C  
BRANCH  15  16
HETATM   16  C   UNL     1      -9.699  15.784  66.433  1.00  0.00    -0.305 C  
BRANCH  16  17
HETATM   17  C   UNL     1      -8.637  14.734  66.744  1.00  0.00    -0.226 C  
BRANCH  17  18
HETATM   18  C   UNL     1      -8.539  14.461  68.235  1.00  0.00    -0.170 C  
BRANCH  18  19
HETATM   19  C   UNL     1      -8.124  13.014  68.468  1.00  0.00    -0.082 C  
BRANCH  19  20
HETATM   20  C   UNL     1      -7.842  12.318  67.141  1.00  0.00    -0.149 C  
BRANCH  20  21
HETATM   21  C   UNL     1      -8.163  10.829  67.226  1.00  0.00    -0.121 C  
BRANCH  21  22
HETATM   22  C   UNL     1      -8.955  10.379  66.004  1.00  0.00    -0.178 C  
HETATM   23  C   UNL     1      -9.757   9.125  66.299  1.00  0.00    -0.344 C  
ENDBRANCH  21  22
ENDBRANCH  20  21
ENDBRANCH  19  20
ENDBRANCH  18  19
ENDBRANCH  17  18
ENDBRANCH  16  17
ENDBRANCH  15  16
ENDBRANCH  14  15
ENDBRANCH  11  14
ENDBRANCH  10  11
ENDBRANCH   9  10
ENDBRANCH   8   9
ENDBRANCH   7   8
ENDBRANCH   6   7
ENDBRANCH   5   6
ENDBRANCH   4   5
ENDBRANCH   3   4
ENDBRANCH   2   3
TORSDOF 18
ENDMDL
MODEL       79
REMARK 921   NORMALIZED FREE ENERGY PREDICTED BY IDOCK:   -3.60 KCAL/MOL
REMARK 922        TOTAL FREE ENERGY PREDICTED BY IDOCK:  -10.08 KCAL/MOL
REMARK 923 INTER-LIGAND FREE ENERGY PREDICTED BY IDOCK:   -6.95 KCAL/MOL
REMARK 924 INTRA-LIGAND FREE ENERGY PREDICTED BY IDOCK:   -3.13 KCAL/MOL
REMARK 927      BINDING AFFINITY PREDICTED BY RF-SCORE:    0.00 PKD
ROOT
HETATM    1  C   UNL     1     -11.961  11.771  63.703  1.00  0.00    -0.490 C  
HETATM    2  C   UNL     1     -10.572  11.209  63.467  1.00  0.00    -0.393 C  
ENDROOT
BRANCH   2   3
HETATM    3  C   UNL     1      -9.670  11.441  64.676  1.00  0.00    -0.275 C  
BRANCH   3   4
HETATM    4  C   UNL     1      -9.817  10.305  65.682  1.00  0.00    -0.332 C  
BRANCH   4   5
HETATM    5  C   UNL     1      -9.107  10.639  66.986  1.00  0.00    -0.155 C  
BRANCH   5   6
HETATM    6  C   UNL     1      -8.396  11.985  66.882  1.00  0.00    -0.159 C  
BRANCH   6   7
HETATM    7  C   UNL     1      -7.757  12.336  68.214  1.00  0.00    -0.143 C  
BRANCH   7   8
HETATM    8  C   UNL     1      -7.013  13.667  68.151  1.00  0.00    -0.119 C  
BRANCH   8   9
HETATM    9  C   UNL     1      -7.945  14.706  67.545  1.00  0.00    -0.208 C  
BRANCH   9  10
HETATM   10  C   UNL     1      -8.408  15.728  68.574  1.00  0.00    -0.175 C  
BRANCH  10  11
HETATM   11  N   UNL     1      -9.134  16.936  67.928  1.00  0.00    -0.229 N  
HETATM   12  C   UNL     1     -10.558  17.053  68.474  1.00  0.00    -0.370 C  
HETATM   13  C   UNL     1      -8.366  18.229  68.212  1.00  0.00    -0.302 C  
BRANCH  11  14
HETATM   14  C   UNL     1      -9.164  16.652  66.404  1.00  0.00    -0.287 C  
BRANCH  14  15
HETATM   15  C   UNL     1     -10.482  17.056  65.760  1.00  0.00    -0.261 C  
BRANCH  15  16
HETATM   16  C   UNL     1     -11.087  15.926  64.938  1.00  0.00    -0.400 C  
BRANCH  16  17
HETATM   17  C   UNL     1     -10.915  14.624  65.713  1.00  0.00    -0.330 C  
BRANCH  17  18
HETATM   18  C   UNL     1     -12.192  14.229  66.436  1.00  0.00    -0.426 C  
BRANCH  18  19
HETATM   19  C   UNL     1     -11.930  13.021  67.324  1.00  0.00    -0.379 C  
BRANCH  19  20
HETATM   20  C   UNL     1     -11.324  13.455  68.654  1.00  0.00    -0.322 C  
BRANCH  20  21
HETATM   21  C   UNL     1     -11.801  12.558  69.791  1.00  0.00    -0.380 C  
BRANCH  21  22
HETATM   22  C   UNL     1     -12.526  13.376  70.854  1.00  0.00    -0.439 C  
HETATM   23  C   UNL     1     -11.825  14.699  71.103  1.00  0.00    -0.378 C  
ENDBRANCH  21  22
ENDBRANCH  20  21
ENDBRANCH  19  20
ENDBRANCH  18  19
ENDBRANCH  17  18
ENDBRANCH  16  17
ENDBRANCH  15  16
ENDBRANCH  14  15
ENDBRANCH  11  14
ENDBRANCH  10  11
ENDBRANCH   9  10
ENDBRANCH   8   9
ENDBRANCH   7   8
ENDBRANCH   6   7
ENDBRANCH   5   6
ENDBRANCH   4   5
ENDBRANCH   3   4
ENDBRANCH   2   3
TORSDOF 18
ENDMDL
MODEL       80
REMARK 921   NORMALIZED FREE ENERGY PREDICTED BY IDOCK:   -3.59 KCAL/MOL
REMARK 922        TOTAL FREE ENERGY PREDICTED BY IDOCK:  -10.08 KCAL/MOL
REMARK 923 INTER-LIGAND FREE ENERGY PREDICTED BY IDOCK:   -8.84 KCAL/MOL
REMARK 924 INTRA-LIGAND FREE ENERGY PREDICTED BY IDOCK:   -1.24 KCAL/MOL
REMARK 927      BINDING AFFINITY PREDICTED BY RF-SCORE:    0.00 PKD
ROOT
HETATM    1  C   UNL     1     -14.146   7.743  71.527  1.00  0.00    -0.509 C  
HETATM    2  C   UNL     1     -13.060   8.624  72.116  1.00  0.00    -0.423 C  
ENDROOT
BRANCH   2   3
HETATM    3  C   UNL     1     -13.373  10.102  71.904  1.00  0.00    -0.505 C  
BRANCH   3   4
HETATM    4  C   UNL     1     -12.508  10.681  70.791  1.00  0.00    -0.480 C  
BRANCH   4   5
HETATM    5  C   UNL     1     -11.207   9.904  70.654  1.00  0.00    -0.416 C  
BRANCH   5   6
HETATM    6  C   UNL     1     -10.462  10.319  69.389  1.00  0.00    -0.259 C  
BRANCH   6   7
HETATM    7  C   UNL     1     -10.718   9.308  68.284  1.00  0.00    -0.195 C  
BRANCH   7   8
HETATM    8  C   UNL     1     -10.460   9.904  66.904  1.00  0.00    -0.284 C  
BRANCH   8   9
HETATM    9  C   UNL     1     -10.935  11.349  66.910  1.00  0.00    -0.355 C  
BRANCH   9  10
HETATM   10  C   UNL     1     -10.087  12.234  66.006  1.00  0.00    -0.248 C  
BRANCH  10  11
HETATM   11  N   UNL     1     -10.903  12.847  64.838  1.00  0.00    -0.295 N  
HETATM   12  C   UNL     1     -10.486  12.215  63.510  1.00  0.00    -0.454 C  
HETATM   13  C   UNL     1     -12.401  12.628  65.067  1.00  0.00    -0.497 C  
BRANCH  11  14
HETATM   14  C   UNL     1     -10.576  14.363  64.838  1.00  0.00    -0.434 C  
BRANCH  14  15
HETATM   15  C   UNL     1      -9.738  14.780  66.037  1.00  0.00    -0.350 C  
BRANCH  15  16
HETATM   16  C   UNL     1     -10.508  15.686  66.987  1.00  0.00    -0.303 C  
BRANCH  16  17
HETATM   17  C   UNL     1     -10.226  17.135  66.604  1.00  0.00    -0.319 C  
BRANCH  17  18
HETATM   18  C   UNL     1     -10.552  18.090  67.740  1.00  0.00    -0.409 C  
BRANCH  18  19
HETATM   19  C   UNL     1     -10.865  19.471  67.179  1.00  0.00    -0.555 C  
BRANCH  19  20
HETATM   20  C   UNL     1      -9.597  20.133  66.651  1.00  0.00    -0.547 C  
BRANCH  20  21
HETATM   21  C   UNL     1      -8.492  20.117  67.703  1.00  0.00    -0.357 C  
BRANCH  21  22
HETATM   22  C   UNL     1      -7.158  20.525  67.088  1.00  0.00    -0.359 C  
HETATM   23  C   UNL     1      -6.860  19.720  65.837  1.00  0.00    -0.288 C  
ENDBRANCH  21  22
ENDBRANCH  20  21
ENDBRANCH  19  20
ENDBRANCH  18  19
ENDBRANCH  17  18
ENDBRANCH  16  17
ENDBRANCH  15  16
ENDBRANCH  14  15
ENDBRANCH  11  14
ENDBRANCH  10  11
ENDBRANCH   9  10
ENDBRANCH   8   9
ENDBRANCH   7   8
ENDBRANCH   6   7
ENDBRANCH   5   6
ENDBRANCH   4   5
ENDBRANCH   3   4
ENDBRANCH   2   3
TORSDOF 18
ENDMDL
MODEL       81
REMARK 921   NORMALIZED FREE ENERGY PREDICTED BY IDOCK:   -3.59 KCAL/MOL
REMARK 922        TOTAL FREE ENERGY PREDICTED BY IDOCK:  -10.06 KCAL/MOL
REMARK 923 INTER-LIGAND FREE ENERGY PREDICTED BY IDOCK:   -7.46 KCAL/MOL
REMARK 924 INTRA-LIGAND FREE ENERGY PREDICTED BY IDOCK:   -2.60 KCAL/MOL
REMARK 927      BINDING AFFINITY PREDICTED BY RF-SCORE:    0.00 PKD
ROOT
HETATM    1  C   UNL     1     -13.917   8.853  72.043  1.00  0.00    -0.497 C  
HETATM    2  C   UNL     1     -12.685   8.283  71.364  1.00  0.00    -0.279 C  
ENDROOT
BRANCH   2   3
HETATM    3  C   UNL     1     -11.623   7.891  72.387  1.00  0.00    -0.436 C  
BRANCH   3   4
HETATM    4  C   UNL     1     -10.270   8.485  72.012  1.00  0.00    -0.391 C  
BRANCH   4   5
HETATM    5  C   UNL     1     -10.429   9.583  70.970  1.00  0.00    -0.377 C  
BRANCH   5   6
HETATM    6  C   UNL     1      -9.198   9.654  70.072  1.00  0.00    -0.275 C  
BRANCH   6   7
HETATM    7  C   UNL     1      -9.233   8.524  69.058  1.00  0.00    -0.146 C  
BRANCH   7   8
HETATM    8  C   UNL     1     -10.494   8.573  68.200  1.00  0.00    -0.236 C  
BRANCH   8   9
HETATM    9  C   UNL     1     -10.250   9.537  67.048  1.00  0.00    -0.321 C  
BRANCH   9  10
HETATM   10  C   UNL     1      -9.437   8.898  65.930  1.00  0.00    -0.234 C  
BRANCH  10  11
HETATM   11  N   UNL     1      -8.871   9.942  64.933  1.00  0.00    -0.176 N  
HETATM   12  C   UNL     1      -7.466  10.373  65.356  1.00  0.00    -0.127 C  
HETATM   13  C   UNL     1      -8.828   9.356  63.520  1.00  0.00    -0.172 C  
BRANCH  11  14
HETATM   14  C   UNL     1      -9.841  11.151  64.984  1.00  0.00    -0.266 C  
BRANCH  14  15
HETATM   15  C   UNL     1     -10.267  11.618  63.600  1.00  0.00    -0.451 C  
BRANCH  15  16
HETATM   16  C   UNL     1     -11.337  12.698  63.664  1.00  0.00    -0.544 C  
BRANCH  16  17
HETATM   17  C   UNL     1     -12.089  12.550  64.983  1.00  0.00    -0.504 C  
BRANCH  17  18
HETATM   18  C   UNL     1     -12.616  13.886  65.480  1.00  0.00    -0.560 C  
BRANCH  18  19
HETATM   19  C   UNL     1     -11.983  14.223  66.823  1.00  0.00    -0.462 C  
BRANCH  19  20
HETATM   20  C   UNL     1     -11.931  12.987  67.716  1.00  0.00    -0.344 C  
BRANCH  20  21
HETATM   21  C   UNL     1     -10.681  12.997  68.590  1.00  0.00    -0.273 C  
BRANCH  21  22
HETATM   22  C   UNL     1      -9.497  13.582  67.829  1.00  0.00    -0.216 C  
HETATM   23  C   UNL     1      -8.237  12.769  68.061  1.00  0.00    -0.168 C  
ENDBRANCH  21  22
ENDBRANCH  20  21
ENDBRANCH  19  20
ENDBRANCH  18  19
ENDBRANCH  17  18
ENDBRANCH  16  17
ENDBRANCH  15  16
ENDBRANCH  14  15
ENDBRANCH  11  14
ENDBRANCH  10  11
ENDBRANCH   9  10
ENDBRANCH   8   9
ENDBRANCH   7   8
ENDBRANCH   6   7
ENDBRANCH   5   6
ENDBRANCH   4   5
ENDBRANCH   3   4
ENDBRANCH   2   3
TORSDOF 18
ENDMDL
MODEL       82
REMARK 921   NORMALIZED FREE ENERGY PREDICTED BY IDOCK:   -3.58 KCAL/MOL
REMARK 922        TOTAL FREE ENERGY PREDICTED BY IDOCK:  -10.05 KCAL/MOL
REMARK 923 INTER-LIGAND FREE ENERGY PREDICTED BY IDOCK:   -8.02 KCAL/MOL
REMARK 924 INTRA-LIGAND FREE ENERGY PREDICTED BY IDOCK:   -2.03 KCAL/MOL
REMARK 927      BINDING AFFINITY PREDICTED BY RF-SCORE:    0.00 PKD
ROOT
HETATM    1  C   UNL     1      -6.425   9.643  64.506  1.00  0.00    -0.101 C  
HETATM    2  C   UNL     1      -7.912   9.851  64.284  1.00  0.00    -0.146 C  
ENDROOT
BRANCH   2   3
HETATM    3  C   UNL     1      -8.737   8.908  65.155  1.00  0.00    -0.213 C  
BRANCH   3   4
HETATM    4  C   UNL     1      -9.887   9.656  65.819  1.00  0.00    -0.373 C  
BRANCH   4   5
HETATM    5  C   UNL     1     -10.535   8.806  66.901  1.00  0.00    -0.319 C  
BRANCH   5   6
HETATM    6  C   UNL     1      -9.969   7.390  66.885  1.00  0.00    -0.307 C  
BRANCH   6   7
HETATM    7  C   UNL     1     -10.937   6.438  67.566  1.00  0.00    -0.454 C  
BRANCH   7   8
HETATM    8  C   UNL     1     -10.288   5.722  68.746  1.00  0.00    -0.289 C  
BRANCH   8   9
HETATM    9  C   UNL     1     -11.053   6.091  70.009  1.00  0.00    -0.451 C  
BRANCH   9  10
HETATM   10  C   UNL     1     -11.093   7.597  70.232  1.00  0.00    -0.244 C  
BRANCH  10  11
HETATM   11  N   UNL     1     -11.881   7.988  71.510  1.00  0.00    -0.283 N  
HETATM   12  C   UNL     1     -13.289   7.393  71.469  1.00  0.00    -0.372 C  
HETATM   13  C   UNL     1     -11.146   7.490  72.757  1.00  0.00    -0.366 C  
BRANCH  11  14
HETATM   14  C   UNL     1     -11.951   9.537  71.511  1.00  0.00    -0.399 C  
BRANCH  14  15
HETATM   15  C   UNL     1     -11.124  10.161  70.397  1.00  0.00    -0.393 C  
BRANCH  15  16
HETATM   16  C   UNL     1     -11.750  11.443  69.868  1.00  0.00    -0.424 C  
BRANCH  16  17
HETATM   17  C   UNL     1     -10.897  11.952  68.711  1.00  0.00    -0.270 C  
BRANCH  17  18
HETATM   18  C   UNL     1     -11.753  12.401  67.539  1.00  0.00    -0.425 C  
BRANCH  18  19
HETATM   19  C   UNL     1     -11.271  13.755  67.036  1.00  0.00    -0.326 C  
BRANCH  19  20
HETATM   20  C   UNL     1     -10.169  13.578  65.997  1.00  0.00    -0.308 C  
BRANCH  20  21
HETATM   21  C   UNL     1     -10.680  13.906  64.597  1.00  0.00    -0.422 C  
BRANCH  21  22
HETATM   22  C   UNL     1     -10.819  12.637  63.764  1.00  0.00    -0.466 C  
HETATM   23  C   UNL     1     -12.272  12.220  63.634  1.00  0.00    -0.665 C  
ENDBRANCH  21  22
ENDBRANCH  20  21
ENDBRANCH  19  20
ENDBRANCH  18  19
ENDBRANCH  17  18
ENDBRANCH  16  17
ENDBRANCH  15  16
ENDBRANCH  14  15
ENDBRANCH  11  14
ENDBRANCH  10  11
ENDBRANCH   9  10
ENDBRANCH   8   9
ENDBRANCH   7   8
ENDBRANCH   6   7
ENDBRANCH   5   6
ENDBRANCH   4   5
ENDBRANCH   3   4
ENDBRANCH   2   3
TORSDOF 18
ENDMDL
MODEL       83
REMARK 921   NORMALIZED FREE ENERGY PREDICTED BY IDOCK:   -3.58 KCAL/MOL
REMARK 922        TOTAL FREE ENERGY PREDICTED BY IDOCK:  -10.05 KCAL/MOL
REMARK 923 INTER-LIGAND FREE ENERGY PREDICTED BY IDOCK:   -6.33 KCAL/MOL
REMARK 924 INTRA-LIGAND FREE ENERGY PREDICTED BY IDOCK:   -3.72 KCAL/MOL
REMARK 927      BINDING AFFINITY PREDICTED BY RF-SCORE:    0.00 PKD
ROOT
HETATM    1  C   UNL     1     -10.775   6.767  67.054  1.00  0.00    -0.435 C  
HETATM    2  C   UNL     1     -10.141   6.683  68.430  1.00  0.00    -0.163 C  
ENDROOT
BRANCH   2   3
HETATM    3  C   UNL     1     -10.317   7.989  69.199  1.00  0.00    -0.226 C  
BRANCH   3   4
HETATM    4  C   UNL     1     -10.742   9.112  68.261  1.00  0.00    -0.173 C  
BRANCH   4   5
HETATM    5  C   UNL     1     -10.550  10.471  68.918  1.00  0.00    -0.243 C  
BRANCH   5   6
HETATM    6  C   UNL     1     -11.599  11.461  68.423  1.00  0.00    -0.385 C  
BRANCH   6   7
HETATM    7  C   UNL     1     -11.090  12.882  68.595  1.00  0.00    -0.307 C  
BRANCH   7   8
HETATM    8  C   UNL     1      -9.606  12.995  68.260  1.00  0.00    -0.213 C  
BRANCH   8   9
HETATM    9  C   UNL     1      -9.470  13.737  66.938  1.00  0.00    -0.265 C  
BRANCH   9  10
HETATM   10  C   UNL     1     -10.605  14.727  66.718  1.00  0.00    -0.302 C  
BRANCH  10  11
HETATM   11  N   UNL     1     -11.292  14.549  65.340  1.00  0.00    -0.331 N  
HETATM   12  C   UNL     1     -12.727  14.051  65.522  1.00  0.00    -0.486 C  
HETATM   13  C   UNL     1     -11.299  15.875  64.576  1.00  0.00    -0.309 C  
BRANCH  11  14
HETATM   14  C   UNL     1     -10.450  13.494  64.576  1.00  0.00    -0.407 C  
BRANCH  14  15
HETATM   15  C   UNL     1     -11.298  12.613  63.670  1.00  0.00    -0.544 C  
BRANCH  15  16
HETATM   16  C   UNL     1     -10.767  11.189  63.597  1.00  0.00    -0.381 C  
BRANCH  16  17
HETATM   17  C   UNL     1     -10.321  10.770  64.994  1.00  0.00    -0.357 C  
BRANCH  17  18
HETATM   18  C   UNL     1      -9.287   9.658  64.943  1.00  0.00    -0.306 C  
BRANCH  18  19
HETATM   19  C   UNL     1      -8.113  10.003  65.848  1.00  0.00    -0.126 C  
BRANCH  19  20
HETATM   20  C   UNL     1      -7.391   8.736  66.294  1.00  0.00    -0.087 C  
BRANCH  20  21
HETATM   21  C   UNL     1      -6.982   8.828  67.762  1.00  0.00    -0.075 C  
BRANCH  21  22
HETATM   22  C   UNL     1      -6.986  10.278  68.231  1.00  0.00    -0.073 C  
HETATM   23  C   UNL     1      -7.030  10.367  69.745  1.00  0.00    -0.138 C  
ENDBRANCH  21  22
ENDBRANCH  20  21
ENDBRANCH  19  20
ENDBRANCH  18  19
ENDBRANCH  17  18
ENDBRANCH  16  17
ENDBRANCH  15  16
ENDBRANCH  14  15
ENDBRANCH  11  14
ENDBRANCH  10  11
ENDBRANCH   9  10
ENDBRANCH   8   9
ENDBRANCH   7   8
ENDBRANCH   6   7
ENDBRANCH   5   6
ENDBRANCH   4   5
ENDBRANCH   3   4
ENDBRANCH   2   3
TORSDOF 18
ENDMDL
MODEL       84
REMARK 921   NORMALIZED FREE ENERGY PREDICTED BY IDOCK:   -3.58 KCAL/MOL
REMARK 922        TOTAL FREE ENERGY PREDICTED BY IDOCK:  -10.05 KCAL/MOL
REMARK 923 INTER-LIGAND FREE ENERGY PREDICTED BY IDOCK:   -7.82 KCAL/MOL
REMARK 924 INTRA-LIGAND FREE ENERGY PREDICTED BY IDOCK:   -2.22 KCAL/MOL
REMARK 927      BINDING AFFINITY PREDICTED BY RF-SCORE:    0.00 PKD
ROOT
HETATM    1  C   UNL     1      -8.875   8.785  71.775  1.00  0.00    -0.256 C  
HETATM    2  C   UNL     1     -10.370   9.034  71.714  1.00  0.00    -0.407 C  
ENDROOT
BRANCH   2   3
HETATM    3  C   UNL     1     -11.126   8.080  72.634  1.00  0.00    -0.453 C  
BRANCH   3   4
HETATM    4  C   UNL     1     -11.777   6.960  71.829  1.00  0.00    -0.338 C  
BRANCH   4   5
HETATM    5  C   UNL     1     -10.844   5.765  71.708  1.00  0.00    -0.311 C  
BRANCH   5   6
HETATM    6  C   UNL     1     -10.574   5.439  70.243  1.00  0.00    -0.329 C  
BRANCH   6   7
HETATM    7  C   UNL     1     -11.501   6.250  69.354  1.00  0.00    -0.348 C  
BRANCH   7   8
HETATM    8  C   UNL     1     -10.873   6.534  67.993  1.00  0.00    -0.372 C  
BRANCH   8   9
HETATM    9  C   UNL     1     -10.093   7.837  68.089  1.00  0.00    -0.220 C  
BRANCH   9  10
HETATM   10  C   UNL     1     -10.403   8.776  66.932  1.00  0.00    -0.274 C  
BRANCH  10  11
HETATM   11  N   UNL     1     -10.214  10.268  67.309  1.00  0.00    -0.206 N  
HETATM   12  C   UNL     1      -9.011  10.432  68.239  1.00  0.00    -0.135 C  
HETATM   13  C   UNL     1     -10.009  11.110  66.047  1.00  0.00    -0.236 C  
BRANCH  11  14
HETATM   14  C   UNL     1     -11.516  10.695  68.033  1.00  0.00    -0.212 C  
BRANCH  14  15
HETATM   15  C   UNL     1     -11.246  11.480  69.308  1.00  0.00    -0.336 C  
BRANCH  15  16
HETATM   16  C   UNL     1     -11.768  12.908  69.223  1.00  0.00    -0.378 C  
BRANCH  16  17
HETATM   17  C   UNL     1     -10.650  13.796  68.686  1.00  0.00    -0.263 C  
BRANCH  17  18
HETATM   18  C   UNL     1     -10.804  15.234  69.150  1.00  0.00    -0.250 C  
BRANCH  18  19
HETATM   19  C   UNL     1     -12.161  15.418  69.817  1.00  0.00    -0.373 C  
BRANCH  19  20
HETATM   20  C   UNL     1     -11.993  15.965  71.230  1.00  0.00    -0.493 C  
BRANCH  20  21
HETATM   21  C   UNL     1     -13.153  15.536  72.124  1.00  0.00    -0.521 C  
BRANCH  21  22
HETATM   22  C   UNL     1     -12.799  14.268  72.893  1.00  0.00    -0.482 C  
HETATM   23  C   UNL     1     -13.589  13.077  72.384  1.00  0.00    -0.628 C  
ENDBRANCH  21  22
ENDBRANCH  20  21
ENDBRANCH  19  20
ENDBRANCH  18  19
ENDBRANCH  17  18
ENDBRANCH  16  17
ENDBRANCH  15  16
ENDBRANCH  14  15
ENDBRANCH  11  14
ENDBRANCH  10  11
ENDBRANCH   9  10
ENDBRANCH   8   9
ENDBRANCH   7   8
ENDBRANCH   6   7
ENDBRANCH   5   6
ENDBRANCH   4   5
ENDBRANCH   3   4
ENDBRANCH   2   3
TORSDOF 18
ENDMDL
MODEL       85
REMARK 921   NORMALIZED FREE ENERGY PREDICTED BY IDOCK:   -3.58 KCAL/MOL
REMARK 922        TOTAL FREE ENERGY PREDICTED BY IDOCK:  -10.04 KCAL/MOL
REMARK 923 INTER-LIGAND FREE ENERGY PREDICTED BY IDOCK:   -7.55 KCAL/MOL
REMARK 924 INTRA-LIGAND FREE ENERGY PREDICTED BY IDOCK:   -2.49 KCAL/MOL
REMARK 927      BINDING AFFINITY PREDICTED BY RF-SCORE:    0.00 PKD
ROOT
HETATM    1  C   UNL     1     -14.317  15.198  72.201  1.00  0.00    -0.647 C  
HETATM    2  C   UNL     1     -12.922  15.142  72.795  1.00  0.00    -0.522 C  
ENDROOT
BRANCH   2   3
HETATM    3  C   UNL     1     -11.988  16.131  72.106  1.00  0.00    -0.623 C  
BRANCH   3   4
HETATM    4  C   UNL     1     -11.263  15.465  70.942  1.00  0.00    -0.397 C  
BRANCH   4   5
HETATM    5  C   UNL     1     -12.036  15.646  69.644  1.00  0.00    -0.329 C  
BRANCH   5   6
HETATM    6  C   UNL     1     -12.200  14.311  68.925  1.00  0.00    -0.240 C  
BRANCH   6   7
HETATM    7  C   UNL     1     -10.995  13.427  69.194  1.00  0.00    -0.213 C  
BRANCH   7   8
HETATM    8  C   UNL     1     -11.216  12.003  68.693  1.00  0.00    -0.309 C  
BRANCH   8   9
HETATM    9  C   UNL     1      -9.861  11.406  68.340  1.00  0.00    -0.205 C  
BRANCH   9  10
HETATM   10  C   UNL     1      -9.994  10.052  67.655  1.00  0.00    -0.176 C  
BRANCH  10  11
HETATM   11  N   UNL     1      -9.263  10.003  66.289  1.00  0.00    -0.156 N  
HETATM   12  C   UNL     1      -8.024  10.899  66.317  1.00  0.00    -0.161 C  
HETATM   13  C   UNL     1      -8.852   8.565  65.961  1.00  0.00    -0.173 C  
BRANCH  11  14
HETATM   14  C   UNL     1     -10.279  10.523  65.240  1.00  0.00    -0.282 C  
BRANCH  14  15
HETATM   15  C   UNL     1      -9.691  11.597  64.338  1.00  0.00    -0.199 C  
BRANCH  15  16
HETATM   16  C   UNL     1     -10.688  12.711  64.048  1.00  0.00    -0.457 C  
BRANCH  16  17
HETATM   17  C   UNL     1     -11.473  12.996  65.325  1.00  0.00    -0.340 C  
BRANCH  17  18
HETATM   18  C   UNL     1     -12.049  14.402  65.326  1.00  0.00    -0.380 C  
BRANCH  18  19
HETATM   19  C   UNL     1     -10.943  15.412  65.049  1.00  0.00    -0.450 C  
BRANCH  19  20
HETATM   20  C   UNL     1     -10.114  15.656  66.305  1.00  0.00    -0.316 C  
BRANCH  20  21
HETATM   21  C   UNL     1      -9.533  17.066  66.312  1.00  0.00    -0.281 C  
BRANCH  21  22
HETATM   22  C   UNL     1     -10.227  17.928  67.360  1.00  0.00    -0.363 C  
HETATM   23  C   UNL     1      -9.276  18.303  68.482  1.00  0.00    -0.335 C  
ENDBRANCH  21  22
ENDBRANCH  20  21
ENDBRANCH  19  20
ENDBRANCH  18  19
ENDBRANCH  17  18
ENDBRANCH  16  17
ENDBRANCH  15  16
ENDBRANCH  14  15
ENDBRANCH  11  14
ENDBRANCH  10  11
ENDBRANCH   9  10
ENDBRANCH   8   9
ENDBRANCH   7   8
ENDBRANCH   6   7
ENDBRANCH   5   6
ENDBRANCH   4   5
ENDBRANCH   3   4
ENDBRANCH   2   3
TORSDOF 18
ENDMDL
MODEL       86
REMARK 921   NORMALIZED FREE ENERGY PREDICTED BY IDOCK:   -3.57 KCAL/MOL
REMARK 922        TOTAL FREE ENERGY PREDICTED BY IDOCK:  -10.04 KCAL/MOL
REMARK 923 INTER-LIGAND FREE ENERGY PREDICTED BY IDOCK:   -7.77 KCAL/MOL
REMARK 924 INTRA-LIGAND FREE ENERGY PREDICTED BY IDOCK:   -2.26 KCAL/MOL
REMARK 927      BINDING AFFINITY PREDICTED BY RF-SCORE:    0.00 PKD
ROOT
HETATM    1  C   UNL     1     -10.707   7.259  66.877  1.00  0.00    -0.346 C  
HETATM    2  C   UNL     1      -9.569   8.116  66.354  1.00  0.00    -0.286 C  
ENDROOT
BRANCH   2   3
HETATM    3  C   UNL     1      -9.962   9.590  66.313  1.00  0.00    -0.344 C  
BRANCH   3   4
HETATM    4  C   UNL     1      -8.767  10.474  66.650  1.00  0.00    -0.138 C  
BRANCH   4   5
HETATM    5  C   UNL     1      -8.017   9.937  67.860  1.00  0.00    -0.104 C  
BRANCH   5   6
HETATM    6  C   UNL     1      -8.528  10.587  69.142  1.00  0.00    -0.152 C  
BRANCH   6   7
HETATM    7  C   UNL     1      -9.020   9.518  70.102  1.00  0.00    -0.269 C  
BRANCH   7   8
HETATM    8  C   UNL     1      -8.091   8.308  70.126  1.00  0.00    -0.112 C  
BRANCH   8   9
HETATM    9  C   UNL     1      -8.931   7.064  70.373  1.00  0.00    -0.155 C  
BRANCH   9  10
HETATM   10  C   UNL     1      -9.451   7.001  71.803  1.00  0.00    -0.152 C  
BRANCH  10  11
HETATM   11  N   UNL     1     -10.994   6.860  71.870  1.00  0.00    -0.230 N  
HETATM   12  C   UNL     1     -11.571   6.666  70.467  1.00  0.00    -0.390 C  
HETATM   13  C   UNL     1     -11.379   5.672  72.755  1.00  0.00    -0.299 C  
BRANCH  11  14
HETATM   14  C   UNL     1     -11.518   8.182  72.488  1.00  0.00    -0.404 C  
BRANCH  14  15
HETATM   15  C   UNL     1     -12.312   9.018  71.495  1.00  0.00    -0.397 C  
BRANCH  15  16
HETATM   16  C   UNL     1     -13.357   9.885  72.182  1.00  0.00    -0.498 C  
BRANCH  16  17
HETATM   17  C   UNL     1     -13.074  11.343  71.836  1.00  0.00    -0.505 C  
BRANCH  17  18
HETATM   18  C   UNL     1     -12.238  11.468  70.573  1.00  0.00    -0.469 C  
BRANCH  18  19
HETATM   19  C   UNL     1     -12.079  12.936  70.202  1.00  0.00    -0.373 C  
BRANCH  19  20
HETATM   20  C   UNL     1     -12.427  13.828  71.389  1.00  0.00    -0.404 C  
BRANCH  20  21
HETATM   21  C   UNL     1     -11.817  15.217  71.226  1.00  0.00    -0.403 C  
BRANCH  21  22
HETATM   22  C   UNL     1     -11.954  16.019  72.515  1.00  0.00    -0.649 C  
HETATM   23  C   UNL     1     -12.452  15.149  73.655  1.00  0.00    -0.692 C  
ENDBRANCH  21  22
ENDBRANCH  20  21
ENDBRANCH  19  20
ENDBRANCH  18  19
ENDBRANCH  17  18
ENDBRANCH  16  17
ENDBRANCH  15  16
ENDBRANCH  14  15
ENDBRANCH  11  14
ENDBRANCH  10  11
ENDBRANCH   9  10
ENDBRANCH   8   9
ENDBRANCH   7   8
ENDBRANCH   6   7
ENDBRANCH   5   6
ENDBRANCH   4   5
ENDBRANCH   3   4
ENDBRANCH   2   3
TORSDOF 18
ENDMDL
MODEL       87
REMARK 921   NORMALIZED FREE ENERGY PREDICTED BY IDOCK:   -3.57 KCAL/MOL
REMARK 922        TOTAL FREE ENERGY PREDICTED BY IDOCK:  -10.03 KCAL/MOL
REMARK 923 INTER-LIGAND FREE ENERGY PREDICTED BY IDOCK:   -7.86 KCAL/MOL
REMARK 924 INTRA-LIGAND FREE ENERGY PREDICTED BY IDOCK:   -2.17 KCAL/MOL
REMARK 927      BINDING AFFINITY PREDICTED BY RF-SCORE:    0.00 PKD
ROOT
HETATM    1  C   UNL     1     -14.089   7.379  71.591  1.00  0.00    -0.552 C  
HETATM    2  C   UNL     1     -12.586   7.229  71.445  1.00  0.00    -0.423 C  
ENDROOT
BRANCH   2   3
HETATM    3  C   UNL     1     -11.845   8.083  72.470  1.00  0.00    -0.419 C  
BRANCH   3   4
HETATM    4  C   UNL     1     -10.814   8.972  71.784  1.00  0.00    -0.437 C  
BRANCH   4   5
HETATM    5  C   UNL     1     -11.106   9.093  70.295  1.00  0.00    -0.272 C  
BRANCH   5   6
HETATM    6  C   UNL     1     -11.022  10.549  69.847  1.00  0.00    -0.359 C  
BRANCH   6   7
HETATM    7  C   UNL     1     -12.156  11.347  70.468  1.00  0.00    -0.487 C  
BRANCH   7   8
HETATM    8  C   UNL     1     -12.034  12.836  70.159  1.00  0.00    -0.371 C  
BRANCH   8   9
HETATM    9  C   UNL     1     -11.205  12.994  68.892  1.00  0.00    -0.326 C  
BRANCH   9  10
HETATM   10  C   UNL     1     -11.886  13.899  67.874  1.00  0.00    -0.378 C  
BRANCH  10  11
HETATM   11  N   UNL     1     -11.538  13.516  66.412  1.00  0.00    -0.335 N  
HETATM   12  C   UNL     1     -12.706  13.850  65.483  1.00  0.00    -0.499 C  
HETATM   13  C   UNL     1     -10.283  14.263  65.954  1.00  0.00    -0.324 C  
BRANCH  11  14
HETATM   14  C   UNL     1     -11.279  11.987  66.420  1.00  0.00    -0.337 C  
BRANCH  14  15
HETATM   15  C   UNL     1      -9.937  11.617  65.806  1.00  0.00    -0.270 C  
BRANCH  15  16
HETATM   16  C   UNL     1      -9.285  10.442  66.520  1.00  0.00    -0.184 C  
BRANCH  16  17
HETATM   17  C   UNL     1     -10.117   9.193  66.248  1.00  0.00    -0.319 C  
BRANCH  17  18
HETATM   18  C   UNL     1      -9.747   8.058  67.187  1.00  0.00    -0.255 C  
BRANCH  18  19
HETATM   19  C   UNL     1     -10.677   6.874  66.957  1.00  0.00    -0.432 C  
BRANCH  19  20
HETATM   20  C   UNL     1     -10.985   6.171  68.274  1.00  0.00    -0.397 C  
BRANCH  20  21
HETATM   21  C   UNL     1      -9.852   5.227  68.667  1.00  0.00    -0.216 C  
BRANCH  21  22
HETATM   22  C   UNL     1      -9.681   4.129  67.623  1.00  0.00    -0.176 C  
HETATM   23  C   UNL     1      -8.248   3.630  67.579  1.00  0.00    -0.090 C  
ENDBRANCH  21  22
ENDBRANCH  20  21
ENDBRANCH  19  20
ENDBRANCH  18  19
ENDBRANCH  17  18
ENDBRANCH  16  17
ENDBRANCH  15  16
ENDBRANCH  14  15
ENDBRANCH  11  14
ENDBRANCH  10  11
ENDBRANCH   9  10
ENDBRANCH   8   9
ENDBRANCH   7   8
ENDBRANCH   6   7
ENDBRANCH   5   6
ENDBRANCH   4   5
ENDBRANCH   3   4
ENDBRANCH   2   3
TORSDOF 18
ENDMDL
MODEL       88
REMARK 921   NORMALIZED FREE ENERGY PREDICTED BY IDOCK:   -3.57 KCAL/MOL
REMARK 922        TOTAL FREE ENERGY PREDICTED BY IDOCK:  -10.02 KCAL/MOL
REMARK 923 INTER-LIGAND FREE ENERGY PREDICTED BY IDOCK:   -7.42 KCAL/MOL
REMARK 924 INTRA-LIGAND FREE ENERGY PREDICTED BY IDOCK:   -2.60 KCAL/MOL
REMARK 927      BINDING AFFINITY PREDICTED BY RF-SCORE:    0.00 PKD
ROOT
HETATM    1  C   UNL     1     -12.339   7.991  72.126  1.00  0.00    -0.358 C  
HETATM    2  C   UNL     1     -13.487   8.970  71.968  1.00  0.00    -0.498 C  
ENDROOT
BRANCH   2   3
HETATM    3  C   UNL     1     -12.974  10.393  71.762  1.00  0.00    -0.580 C  
BRANCH   3   4
HETATM    4  C   UNL     1     -11.721  10.392  70.895  1.00  0.00    -0.455 C  
BRANCH   4   5
HETATM    5  C   UNL     1     -12.027  10.908  69.497  1.00  0.00    -0.401 C  
BRANCH   5   6
HETATM    6  C   UNL     1     -10.794  11.560  68.881  1.00  0.00    -0.263 C  
BRANCH   6   7
HETATM    7  C   UNL     1     -11.205  12.461  67.730  1.00  0.00    -0.327 C  
BRANCH   7   8
HETATM    8  C   UNL     1      -9.997  13.095  67.048  1.00  0.00    -0.244 C  
BRANCH   8   9
HETATM    9  C   UNL     1      -8.908  13.293  68.093  1.00  0.00    -0.187 C  
BRANCH   9  10
HETATM   10  C   UNL     1      -7.626  13.845  67.485  1.00  0.00    -0.176 C  
BRANCH  10  11
HETATM   11  N   UNL     1      -6.709  14.518  68.540  1.00  0.00    -0.090 N  
HETATM   12  C   UNL     1      -6.162  13.472  69.513  1.00  0.00    -0.115 C  
HETATM   13  C   UNL     1      -5.549  15.238  67.849  1.00  0.00    -0.129 C  
BRANCH  11  14
HETATM   14  C   UNL     1      -7.602  15.538  69.293  1.00  0.00    -0.221 C  
BRANCH  14  15
HETATM   15  C   UNL     1      -7.898  16.780  68.465  1.00  0.00    -0.229 C  
BRANCH  15  16
HETATM   16  C   UNL     1      -9.288  17.333  68.741  1.00  0.00    -0.239 C  
BRANCH  16  17
HETATM   17  C   UNL     1     -10.256  16.724  67.732  1.00  0.00    -0.303 C  
BRANCH  17  18
HETATM   18  C   UNL     1     -11.547  16.274  68.395  1.00  0.00    -0.154 C  
BRANCH  18  19
HETATM   19  C   UNL     1     -11.242  15.665  69.757  1.00  0.00    -0.322 C  
BRANCH  19  20
HETATM   20  C   UNL     1     -12.534  15.323  70.491  1.00  0.00    -0.454 C  
BRANCH  20  21
HETATM   21  C   UNL     1     -12.349  14.096  71.379  1.00  0.00    -0.425 C  
BRANCH  21  22
HETATM   22  C   UNL     1     -13.426  14.045  72.457  1.00  0.00    -0.661 C  
HETATM   23  C   UNL     1     -14.154  15.372  72.571  1.00  0.00    -0.593 C  
ENDBRANCH  21  22
ENDBRANCH  20  21
ENDBRANCH  19  20
ENDBRANCH  18  19
ENDBRANCH  17  18
ENDBRANCH  16  17
ENDBRANCH  15  16
ENDBRANCH  14  15
ENDBRANCH  11  14
ENDBRANCH  10  11
ENDBRANCH   9  10
ENDBRANCH   8   9
ENDBRANCH   7   8
ENDBRANCH   6   7
ENDBRANCH   5   6
ENDBRANCH   4   5
ENDBRANCH   3   4
ENDBRANCH   2   3
TORSDOF 18
ENDMDL
MODEL       89
REMARK 921   NORMALIZED FREE ENERGY PREDICTED BY IDOCK:   -3.57 KCAL/MOL
REMARK 922        TOTAL FREE ENERGY PREDICTED BY IDOCK:  -10.02 KCAL/MOL
REMARK 923 INTER-LIGAND FREE ENERGY PREDICTED BY IDOCK:   -7.81 KCAL/MOL
REMARK 924 INTRA-LIGAND FREE ENERGY PREDICTED BY IDOCK:   -2.21 KCAL/MOL
REMARK 927      BINDING AFFINITY PREDICTED BY RF-SCORE:    0.00 PKD
ROOT
HETATM    1  C   UNL     1     -12.308  14.057  65.647  1.00  0.00    -0.502 C  
HETATM    2  C   UNL     1     -12.758  12.858  64.834  1.00  0.00    -0.474 C  
ENDROOT
BRANCH   2   3
HETATM    3  C   UNL     1     -11.882  12.669  63.599  1.00  0.00    -0.606 C  
BRANCH   3   4
HETATM    4  C   UNL     1     -10.442  12.372  64.001  1.00  0.00    -0.443 C  
BRANCH   4   5
HETATM    5  C   UNL     1     -10.204  10.873  64.102  1.00  0.00    -0.424 C  
BRANCH   5   6
HETATM    6  C   UNL     1      -9.251  10.556  65.251  1.00  0.00    -0.238 C  
BRANCH   6   7
HETATM    7  C   UNL     1      -9.818  11.089  66.555  1.00  0.00    -0.241 C  
BRANCH   7   8
HETATM    8  C   UNL     1     -10.957  10.217  67.074  1.00  0.00    -0.162 C  
BRANCH   8   9
HETATM    9  C   UNL     1     -10.502   8.765  67.038  1.00  0.00    -0.338 C  
BRANCH   9  10
HETATM   10  C   UNL     1     -10.346   8.180  68.435  1.00  0.00    -0.199 C  
BRANCH  10  11
HETATM   11  N   UNL     1      -9.909   6.693  68.412  1.00  0.00    -0.136 N  
HETATM   12  C   UNL     1     -10.835   5.881  67.506  1.00  0.00    -0.242 C  
HETATM   13  C   UNL     1      -8.466   6.573  67.917  1.00  0.00    -0.118 C  
BRANCH  11  14
HETATM   14  C   UNL     1     -10.017   6.193  69.876  1.00  0.00    -0.172 C  
BRANCH  14  15
HETATM   15  C   UNL     1     -11.168   6.840  70.632  1.00  0.00    -0.361 C  
BRANCH  15  16
HETATM   16  C   UNL     1     -10.751   7.308  72.019  1.00  0.00    -0.241 C  
BRANCH  16  17
HETATM   17  C   UNL     1     -11.420   8.651  72.294  1.00  0.00    -0.423 C  
BRANCH  17  18
HETATM   18  C   UNL     1     -12.793   8.735  71.649  1.00  0.00    -0.392 C  
BRANCH  18  19
HETATM   19  C   UNL     1     -13.154  10.192  71.393  1.00  0.00    -0.512 C  
BRANCH  19  20
HETATM   20  C   UNL     1     -12.048  10.888  70.608  1.00  0.00    -0.468 C  
BRANCH  20  21
HETATM   21  C   UNL     1     -12.202  12.405  70.674  1.00  0.00    -0.368 C  
BRANCH  21  22
HETATM   22  C   UNL     1     -11.804  13.044  69.348  1.00  0.00    -0.380 C  
HETATM   23  C   UNL     1     -11.869  14.558  69.425  1.00  0.00    -0.367 C  
ENDBRANCH  21  22
ENDBRANCH  20  21
ENDBRANCH  19  20
ENDBRANCH  18  19
ENDBRANCH  17  18
ENDBRANCH  16  17
ENDBRANCH  15  16
ENDBRANCH  14  15
ENDBRANCH  11  14
ENDBRANCH  10  11
ENDBRANCH   9  10
ENDBRANCH   8   9
ENDBRANCH   7   8
ENDBRANCH   6   7
ENDBRANCH   5   6
ENDBRANCH   4   5
ENDBRANCH   3   4
ENDBRANCH   2   3
TORSDOF 18
ENDMDL
MODEL       90
REMARK 921   NORMALIZED FREE ENERGY PREDICTED BY IDOCK:   -3.56 KCAL/MOL
REMARK 922        TOTAL FREE ENERGY PREDICTED BY IDOCK:  -10.02 KCAL/MOL
REMARK 923 INTER-LIGAND FREE ENERGY PREDICTED BY IDOCK:   -8.69 KCAL/MOL
REMARK 924 INTRA-LIGAND FREE ENERGY PREDICTED BY IDOCK:   -1.33 KCAL/MOL
REMARK 927      BINDING AFFINITY PREDICTED BY RF-SCORE:    0.00 PKD
ROOT
HETATM    1  C   UNL     1     -11.852   6.780  70.383  1.00  0.00    -0.395 C  
HETATM    2  C   UNL     1     -11.979   6.964  71.883  1.00  0.00    -0.363 C  
ENDROOT
BRANCH   2   3
HETATM    3  C   UNL     1     -11.875   8.437  72.270  1.00  0.00    -0.456 C  
BRANCH   3   4
HETATM    4  C   UNL     1     -13.205   9.147  72.045  1.00  0.00    -0.505 C  
BRANCH   4   5
HETATM    5  C   UNL     1     -12.985  10.586  71.604  1.00  0.00    -0.581 C  
BRANCH   5   6
HETATM    6  C   UNL     1     -11.702  10.709  70.789  1.00  0.00    -0.435 C  
BRANCH   6   7
HETATM    7  C   UNL     1     -12.036  10.782  69.308  1.00  0.00    -0.334 C  
BRANCH   7   8
HETATM    8  C   UNL     1     -10.923  11.455  68.511  1.00  0.00    -0.267 C  
BRANCH   8   9
HETATM    9  C   UNL     1     -11.550  12.166  67.321  1.00  0.00    -0.404 C  
BRANCH   9  10
HETATM   10  C   UNL     1     -10.631  12.168  66.107  1.00  0.00    -0.255 C  
BRANCH  10  11
HETATM   11  N   UNL     1     -11.291  12.814  64.862  1.00  0.00    -0.297 N  
HETATM   12  C   UNL     1     -11.122  11.908  63.641  1.00  0.00    -0.440 C  
HETATM   13  C   UNL     1     -12.780  13.059  65.120  1.00  0.00    -0.397 C  
BRANCH  11  14
HETATM   14  C   UNL     1     -10.557  14.161  64.637  1.00  0.00    -0.368 C  
BRANCH  14  15
HETATM   15  C   UNL     1      -9.731  14.584  65.843  1.00  0.00    -0.324 C  
BRANCH  15  16
HETATM   16  C   UNL     1      -9.891  16.065  66.155  1.00  0.00    -0.351 C  
BRANCH  16  17
HETATM   17  C   UNL     1      -8.978  16.411  67.327  1.00  0.00    -0.208 C  
BRANCH  17  18
HETATM   18  C   UNL     1      -7.539  16.602  66.878  1.00  0.00    -0.262 C  
BRANCH  18  19
HETATM   19  C   UNL     1      -7.377  17.974  66.237  1.00  0.00    -0.317 C  
BRANCH  19  20
HETATM   20  C   UNL     1      -7.719  19.075  67.235  1.00  0.00    -0.254 C  
BRANCH  20  21
HETATM   21  C   UNL     1      -8.605  20.138  66.594  1.00  0.00    -0.352 C  
BRANCH  21  22
HETATM   22  C   UNL     1      -9.800  20.452  67.487  1.00  0.00    -0.564 C  
HETATM   23  C   UNL     1     -10.874  19.387  67.365  1.00  0.00    -0.555 C  
ENDBRANCH  21  22
ENDBRANCH  20  21
ENDBRANCH  19  20
ENDBRANCH  18  19
ENDBRANCH  17  18
ENDBRANCH  16  17
ENDBRANCH  15  16
ENDBRANCH  14  15
ENDBRANCH  11  14
ENDBRANCH  10  11
ENDBRANCH   9  10
ENDBRANCH   8   9
ENDBRANCH   7   8
ENDBRANCH   6   7
ENDBRANCH   5   6
ENDBRANCH   4   5
ENDBRANCH   3   4
ENDBRANCH   2   3
TORSDOF 18
ENDMDL
MODEL       91
REMARK 921   NORMALIZED FREE ENERGY PREDICTED BY IDOCK:   -3.56 KCAL/MOL
REMARK 922        TOTAL FREE ENERGY PREDICTED BY IDOCK:  -10.02 KCAL/MOL
REMARK 923 INTER-LIGAND FREE ENERGY PREDICTED BY IDOCK:   -7.97 KCAL/MOL
REMARK 924 INTRA-LIGAND FREE ENERGY PREDICTED BY IDOCK:   -2.04 KCAL/MOL
REMARK 927      BINDING AFFINITY PREDICTED BY RF-SCORE:    0.00 PKD
ROOT
HETATM    1  C   UNL     1      -9.780  10.355  63.709  1.00  0.00    -0.351 C  
HETATM    2  C   UNL     1     -10.349  11.663  63.191  1.00  0.00    -0.383 C  
ENDROOT
BRANCH   2   3
HETATM    3  C   UNL     1     -11.777  11.878  63.686  1.00  0.00    -0.572 C  
BRANCH   3   4
HETATM    4  C   UNL     1     -12.135  13.359  63.666  1.00  0.00    -0.513 C  
BRANCH   4   5
HETATM    5  C   UNL     1     -12.280  13.902  65.080  1.00  0.00    -0.444 C  
BRANCH   5   6
HETATM    6  C   UNL     1     -11.898  12.840  66.106  1.00  0.00    -0.484 C  
BRANCH   6   7
HETATM    7  C   UNL     1     -10.619  13.246  66.818  1.00  0.00    -0.276 C  
BRANCH   7   8
HETATM    8  C   UNL     1      -9.663  13.983  65.885  1.00  0.00    -0.250 C  
BRANCH   8   9
HETATM    9  C   UNL     1      -8.884  15.001  66.705  1.00  0.00    -0.307 C  
BRANCH   9  10
HETATM   10  C   UNL     1      -9.588  15.340  68.012  1.00  0.00    -0.203 C  
BRANCH  10  11
HETATM   11  N   UNL     1     -10.187  16.771  68.011  1.00  0.00    -0.286 N  
HETATM   12  C   UNL     1      -9.200  17.760  68.632  1.00  0.00    -0.263 C  
HETATM   13  C   UNL     1     -10.521  17.204  66.582  1.00  0.00    -0.259 C  
BRANCH  11  14
HETATM   14  C   UNL     1     -11.479  16.694  68.865  1.00  0.00    -0.023 C  
BRANCH  14  15
HETATM   15  C   UNL     1     -11.723  15.303  69.432  1.00  0.00    -0.361 C  
BRANCH  15  16
HETATM   16  C   UNL     1     -12.660  15.331  70.632  1.00  0.00    -0.471 C  
BRANCH  16  17
HETATM   17  C   UNL     1     -12.780  13.913  71.180  1.00  0.00    -0.441 C  
BRANCH  17  18
HETATM   18  C   UNL     1     -12.132  12.897  70.253  1.00  0.00    -0.377 C  
BRANCH  18  19
HETATM   19  C   UNL     1     -12.359  11.491  70.790  1.00  0.00    -0.472 C  
BRANCH  19  20
HETATM   20  C   UNL     1     -11.299  10.535  70.252  1.00  0.00    -0.407 C  
BRANCH  20  21
HETATM   21  C   UNL     1     -11.320  10.498  68.727  1.00  0.00    -0.310 C  
BRANCH  21  22
HETATM   22  C   UNL     1     -10.050   9.850  68.187  1.00  0.00    -0.193 C  
HETATM   23  C   UNL     1     -10.325   9.078  66.910  1.00  0.00    -0.324 C  
ENDBRANCH  21  22
ENDBRANCH  20  21
ENDBRANCH  19  20
ENDBRANCH  18  19
ENDBRANCH  17  18
ENDBRANCH  16  17
ENDBRANCH  15  16
ENDBRANCH  14  15
ENDBRANCH  11  14
ENDBRANCH  10  11
ENDBRANCH   9  10
ENDBRANCH   8   9
ENDBRANCH   7   8
ENDBRANCH   6   7
ENDBRANCH   5   6
ENDBRANCH   4   5
ENDBRANCH   3   4
ENDBRANCH   2   3
TORSDOF 18
ENDMDL
MODEL       92
REMARK 921   NORMALIZED FREE ENERGY PREDICTED BY IDOCK:   -3.56 KCAL/MOL
REMARK 922        TOTAL FREE ENERGY PREDICTED BY IDOCK:  -10.01 KCAL/MOL
REMARK 923 INTER-LIGAND FREE ENERGY PREDICTED BY IDOCK:   -7.64 KCAL/MOL
REMARK 924 INTRA-LIGAND FREE ENERGY PREDICTED BY IDOCK:   -2.37 KCAL/MOL
REMARK 927      BINDING AFFINITY PREDICTED BY RF-SCORE:    0.00 PKD
ROOT
HETATM    1  C   UNL     1     -12.116  15.980  71.775  1.00  0.00    -0.570 C  
HETATM    2  C   UNL     1     -11.862  14.486  71.699  1.00  0.00    -0.244 C  
ENDROOT
BRANCH   2   3
HETATM    3  C   UNL     1     -12.090  13.958  70.286  1.00  0.00    -0.423 C  
BRANCH   3   4
HETATM    4  C   UNL     1     -12.148  12.435  70.284  1.00  0.00    -0.377 C  
BRANCH   4   5
HETATM    5  C   UNL     1     -11.488  11.868  69.036  1.00  0.00    -0.355 C  
BRANCH   5   6
HETATM    6  C   UNL     1     -10.807  12.975  68.237  1.00  0.00    -0.267 C  
BRANCH   6   7
HETATM    7  C   UNL     1      -9.301  12.781  68.264  1.00  0.00    -0.194 C  
BRANCH   7   8
HETATM    8  C   UNL     1      -8.610  13.569  67.157  1.00  0.00    -0.203 C  
BRANCH   8   9
HETATM    9  C   UNL     1      -8.632  15.044  67.534  1.00  0.00    -0.192 C  
BRANCH   9  10
HETATM   10  C   UNL     1      -8.806  15.942  66.317  1.00  0.00    -0.351 C  
BRANCH  10  11
HETATM   11  N   UNL     1     -10.088  16.811  66.397  1.00  0.00    -0.304 N  
HETATM   12  C   UNL     1     -10.770  16.628  67.753  1.00  0.00    -0.327 C  
HETATM   13  C   UNL     1      -9.740  18.287  66.188  1.00  0.00    -0.224 C  
BRANCH  11  14
HETATM   14  C   UNL     1     -11.014  16.312  65.258  1.00  0.00    -0.236 C  
BRANCH  14  15
HETATM   15  C   UNL     1     -10.883  14.816  65.011  1.00  0.00    -0.440 C  
BRANCH  15  16
HETATM   16  C   UNL     1     -12.239  14.137  64.878  1.00  0.00    -0.451 C  
BRANCH  16  17
HETATM   17  C   UNL     1     -12.238  13.309  63.598  1.00  0.00    -0.522 C  
BRANCH  17  18
HETATM   18  C   UNL     1     -11.795  11.878  63.856  1.00  0.00    -0.509 C  
BRANCH  18  19
HETATM   19  C   UNL     1     -10.369  11.681  63.359  1.00  0.00    -0.482 C  
BRANCH  19  20
HETATM   20  C   UNL     1      -9.465  11.220  64.496  1.00  0.00    -0.211 C  
BRANCH  20  21
HETATM   21  C   UNL     1     -10.273  10.536  65.595  1.00  0.00    -0.315 C  
BRANCH  21  22
HETATM   22  C   UNL     1      -9.415   9.520  66.340  1.00  0.00    -0.251 C  
HETATM   23  C   UNL     1      -8.754   8.548  65.380  1.00  0.00    -0.194 C  
ENDBRANCH  21  22
ENDBRANCH  20  21
ENDBRANCH  19  20
ENDBRANCH  18  19
ENDBRANCH  17  18
ENDBRANCH  16  17
ENDBRANCH  15  16
ENDBRANCH  14  15
ENDBRANCH  11  14
ENDBRANCH  10  11
ENDBRANCH   9  10
ENDBRANCH   8   9
ENDBRANCH   7   8
ENDBRANCH   6   7
ENDBRANCH   5   6
ENDBRANCH   4   5
ENDBRANCH   3   4
ENDBRANCH   2   3
TORSDOF 18
ENDMDL
MODEL       93
REMARK 921   NORMALIZED FREE ENERGY PREDICTED BY IDOCK:   -3.56 KCAL/MOL
REMARK 922        TOTAL FREE ENERGY PREDICTED BY IDOCK:  -10.00 KCAL/MOL
REMARK 923 INTER-LIGAND FREE ENERGY PREDICTED BY IDOCK:   -8.57 KCAL/MOL
REMARK 924 INTRA-LIGAND FREE ENERGY PREDICTED BY IDOCK:   -1.43 KCAL/MOL
REMARK 927      BINDING AFFINITY PREDICTED BY RF-SCORE:    0.00 PKD
ROOT
HETATM    1  C   UNL     1      -9.806  19.868  68.301  1.00  0.00    -0.514 C  
HETATM    2  C   UNL     1     -10.358  19.829  66.888  1.00  0.00    -0.601 C  
ENDROOT
BRANCH   2   3
HETATM    3  C   UNL     1     -10.250  18.429  66.292  1.00  0.00    -0.427 C  
BRANCH   3   4
HETATM    4  C   UNL     1     -10.610  17.373  67.330  1.00  0.00    -0.284 C  
BRANCH   4   5
HETATM    5  C   UNL     1     -10.693  15.992  66.695  1.00  0.00    -0.247 C  
BRANCH   5   6
HETATM    6  C   UNL     1     -10.805  16.103  65.178  1.00  0.00    -0.376 C  
BRANCH   6   7
HETATM    7  C   UNL     1     -11.298  14.789  64.598  1.00  0.00    -0.370 C  
BRANCH   7   8
HETATM    8  C   UNL     1     -12.400  14.173  65.455  1.00  0.00    -0.475 C  
BRANCH   8   9
HETATM    9  C   UNL     1     -12.118  12.684  65.598  1.00  0.00    -0.502 C  
BRANCH   9  10
HETATM   10  C   UNL     1     -11.309  12.374  66.851  1.00  0.00    -0.333 C  
BRANCH  10  11
HETATM   11  N   UNL     1     -10.302  11.214  66.637  1.00  0.00    -0.232 N  
HETATM   12  C   UNL     1     -10.235  10.835  65.157  1.00  0.00    -0.298 C  
HETATM   13  C   UNL     1      -8.912  11.624  67.129  1.00  0.00    -0.173 C  
BRANCH  11  14
HETATM   14  C   UNL     1     -10.838  10.023  67.473  1.00  0.00    -0.265 C  
BRANCH  14  15
HETATM   15  C   UNL     1     -10.763  10.279  68.971  1.00  0.00    -0.257 C  
BRANCH  15  16
HETATM   16  C   UNL     1     -12.144  10.370  69.605  1.00  0.00    -0.167 C  
BRANCH  16  17
HETATM   17  C   UNL     1     -12.099  11.427  70.703  1.00  0.00    -0.469 C  
BRANCH  17  18
HETATM   18  C   UNL     1     -12.936  11.024  71.905  1.00  0.00    -0.485 C  
BRANCH  18  19
HETATM   19  C   UNL     1     -13.404   9.583  71.747  1.00  0.00    -0.501 C  
BRANCH  19  20
HETATM   20  C   UNL     1     -12.439   8.628  72.441  1.00  0.00    -0.428 C  
BRANCH  20  21
HETATM   21  C   UNL     1     -12.389   7.283  71.723  1.00  0.00    -0.375 C  
BRANCH  21  22
HETATM   22  C   UNL     1     -11.044   7.091  71.033  1.00  0.00    -0.295 C  
HETATM   23  C   UNL     1     -11.190   6.282  69.757  1.00  0.00    -0.499 C  
ENDBRANCH  21  22
ENDBRANCH  20  21
ENDBRANCH  19  20
ENDBRANCH  18  19
ENDBRANCH  17  18
ENDBRANCH  16  17
ENDBRANCH  15  16
ENDBRANCH  14  15
ENDBRANCH  11  14
ENDBRANCH  10  11
ENDBRANCH   9  10
ENDBRANCH   8   9
ENDBRANCH   7   8
ENDBRANCH   6   7
ENDBRANCH   5   6
ENDBRANCH   4   5
ENDBRANCH   3   4
ENDBRANCH   2   3
TORSDOF 18
ENDMDL
MODEL       94
REMARK 921   NORMALIZED FREE ENERGY PREDICTED BY IDOCK:   -3.56 KCAL/MOL
REMARK 922        TOTAL FREE ENERGY PREDICTED BY IDOCK:  -10.00 KCAL/MOL
REMARK 923 INTER-LIGAND FREE ENERGY PREDICTED BY IDOCK:   -7.24 KCAL/MOL
REMARK 924 INTRA-LIGAND FREE ENERGY PREDICTED BY IDOCK:   -2.76 KCAL/MOL
REMARK 927      BINDING AFFINITY PREDICTED BY RF-SCORE:    0.00 PKD
ROOT
HETATM    1  C   UNL     1      -9.928  11.638  63.351  1.00  0.00    -0.447 C  
HETATM    2  C   UNL     1     -11.350  11.726  63.874  1.00  0.00    -0.494 C  
ENDROOT
BRANCH   2   3
HETATM    3  C   UNL     1     -12.022  13.021  63.430  1.00  0.00    -0.592 C  
BRANCH   3   4
HETATM    4  C   UNL     1     -12.612  13.759  64.627  1.00  0.00    -0.288 C  
BRANCH   4   5
HETATM    5  C   UNL     1     -12.148  13.132  65.933  1.00  0.00    -0.501 C  
BRANCH   5   6
HETATM    6  C   UNL     1     -11.652  14.204  66.898  1.00  0.00    -0.410 C  
BRANCH   6   7
HETATM    7  C   UNL     1     -11.916  13.772  68.331  1.00  0.00    -0.395 C  
BRANCH   7   8
HETATM    8  C   UNL     1     -11.619  14.893  69.322  1.00  0.00    -0.330 C  
BRANCH   8   9
HETATM    9  C   UNL     1     -11.365  16.171  68.536  1.00  0.00    -0.359 C  
BRANCH   9  10
HETATM   10  C   UNL     1     -10.307  17.046  69.194  1.00  0.00    -0.313 C  
BRANCH  10  11
HETATM   11  N   UNL     1      -9.142  17.397  68.232  1.00  0.00    -0.264 N  
HETATM   12  C   UNL     1      -9.588  17.234  66.778  1.00  0.00    -0.272 C  
HETATM   13  C   UNL     1      -8.675  18.835  68.471  1.00  0.00    -0.346 C  
BRANCH  11  14
HETATM   14  C   UNL     1      -8.001  16.400  68.559  1.00  0.00    -0.203 C  
BRANCH  14  15
HETATM   15  C   UNL     1      -8.010  15.181  67.649  1.00  0.00    -0.177 C  
BRANCH  15  16
HETATM   16  C   UNL     1      -6.782  14.306  67.852  1.00  0.00    -0.177 C  
BRANCH  16  17
HETATM   17  C   UNL     1      -7.135  12.880  67.442  1.00  0.00    -0.130 C  
BRANCH  17  18
HETATM   18  C   UNL     1      -8.542  12.504  67.876  1.00  0.00    -0.179 C  
BRANCH  18  19
HETATM   19  C   UNL     1      -9.072  11.383  66.992  1.00  0.00    -0.169 C  
BRANCH  19  20
HETATM   20  C   UNL     1     -10.013  10.479  67.782  1.00  0.00    -0.198 C  
BRANCH  20  21
HETATM   21  C   UNL     1      -9.510  10.280  69.208  1.00  0.00    -0.230 C  
BRANCH  21  22
HETATM   22  C   UNL     1     -10.636   9.792  70.112  1.00  0.00    -0.337 C  
HETATM   23  C   UNL     1     -11.785  10.783  70.145  1.00  0.00    -0.425 C  
ENDBRANCH  21  22
ENDBRANCH  20  21
ENDBRANCH  19  20
ENDBRANCH  18  19
ENDBRANCH  17  18
ENDBRANCH  16  17
ENDBRANCH  15  16
ENDBRANCH  14  15
ENDBRANCH  11  14
ENDBRANCH  10  11
ENDBRANCH   9  10
ENDBRANCH   8   9
ENDBRANCH   7   8
ENDBRANCH   6   7
ENDBRANCH   5   6
ENDBRANCH   4   5
ENDBRANCH   3   4
ENDBRANCH   2   3
TORSDOF 18
ENDMDL
MODEL       95
REMARK 921   NORMALIZED FREE ENERGY PREDICTED BY IDOCK:   -3.55 KCAL/MOL
REMARK 922        TOTAL FREE ENERGY PREDICTED BY IDOCK:  -10.00 KCAL/MOL
REMARK 923 INTER-LIGAND FREE ENERGY PREDICTED BY IDOCK:   -7.08 KCAL/MOL
REMARK 924 INTRA-LIGAND FREE ENERGY PREDICTED BY IDOCK:   -2.91 KCAL/MOL
REMARK 927      BINDING AFFINITY PREDICTED BY RF-SCORE:    0.00 PKD
ROOT
HETATM    1  C   UNL     1     -10.698   6.792  67.308  1.00  0.00    -0.423 C  
HETATM    2  C   UNL     1      -9.694   7.602  66.509  1.00  0.00    -0.251 C  
ENDROOT
BRANCH   2   3
HETATM    3  C   UNL     1     -10.119   9.064  66.409  1.00  0.00    -0.351 C  
BRANCH   3   4
HETATM    4  C   UNL     1      -8.900   9.979  66.404  1.00  0.00    -0.158 C  
BRANCH   4   5
HETATM    5  C   UNL     1      -8.042   9.748  67.640  1.00  0.00    -0.113 C  
BRANCH   5   6
HETATM    6  C   UNL     1      -8.614  10.496  68.840  1.00  0.00    -0.153 C  
BRANCH   6   7
HETATM    7  C   UNL     1      -8.700   9.565  70.037  1.00  0.00    -0.242 C  
BRANCH   7   8
HETATM    8  C   UNL     1      -7.977   8.247  69.779  1.00  0.00    -0.106 C  
BRANCH   8   9
HETATM    9  C   UNL     1      -8.783   7.127  70.421  1.00  0.00    -0.150 C  
BRANCH   9  10
HETATM   10  C   UNL     1      -9.111   7.422  71.878  1.00  0.00    -0.129 C  
BRANCH  10  11
HETATM   11  N   UNL     1     -10.574   7.058  72.244  1.00  0.00    -0.208 N  
HETATM   12  C   UNL     1     -11.210   6.230  71.128  1.00  0.00    -0.305 C  
HETATM   13  C   UNL     1     -10.610   6.271  73.557  1.00  0.00    -0.269 C  
BRANCH  11  14
HETATM   14  C   UNL     1     -11.322   8.406  72.407  1.00  0.00    -0.378 C  
BRANCH  14  15
HETATM   15  C   UNL     1     -12.031   8.839  71.132  1.00  0.00    -0.331 C  
BRANCH  15  16
HETATM   16  C   UNL     1     -13.231   9.731  71.418  1.00  0.00    -0.482 C  
BRANCH  16  17
HETATM   17  C   UNL     1     -12.773  11.184  71.363  1.00  0.00    -0.524 C  
BRANCH  17  18
HETATM   18  C   UNL     1     -11.979  11.474  70.100  1.00  0.00    -0.452 C  
BRANCH  18  19
HETATM   19  C   UNL     1     -11.715  12.969  69.989  1.00  0.00    -0.285 C  
BRANCH  19  20
HETATM   20  C   UNL     1     -11.708  13.404  68.527  1.00  0.00    -0.392 C  
BRANCH  20  21
HETATM   21  C   UNL     1     -11.624  12.197  67.598  1.00  0.00    -0.413 C  
BRANCH  21  22
HETATM   22  C   UNL     1     -11.696  12.634  66.140  1.00  0.00    -0.461 C  
HETATM   23  C   UNL     1     -12.346  13.999  66.006  1.00  0.00    -0.504 C  
ENDBRANCH  21  22
ENDBRANCH  20  21
ENDBRANCH  19  20
ENDBRANCH  18  19
ENDBRANCH  17  18
ENDBRANCH  16  17
ENDBRANCH  15  16
ENDBRANCH  14  15
ENDBRANCH  11  14
ENDBRANCH  10  11
ENDBRANCH   9  10
ENDBRANCH   8   9
ENDBRANCH   7   8
ENDBRANCH   6   7
ENDBRANCH   5   6
ENDBRANCH   4   5
ENDBRANCH   3   4
ENDBRANCH   2   3
TORSDOF 18
ENDMDL
MODEL       96
REMARK 921   NORMALIZED FREE ENERGY PREDICTED BY IDOCK:   -3.55 KCAL/MOL
REMARK 922        TOTAL FREE ENERGY PREDICTED BY IDOCK:   -9.98 KCAL/MOL
REMARK 923 INTER-LIGAND FREE ENERGY PREDICTED BY IDOCK:   -8.27 KCAL/MOL
REMARK 924 INTRA-LIGAND FREE ENERGY PREDICTED BY IDOCK:   -1.71 KCAL/MOL
REMARK 927      BINDING AFFINITY PREDICTED BY RF-SCORE:    0.00 PKD
ROOT
HETATM    1  C   UNL     1     -11.315   6.295  69.427  1.00  0.00    -0.448 C  
HETATM    2  C   UNL     1     -11.153   6.338  70.935  1.00  0.00    -0.366 C  
ENDROOT
BRANCH   2   3
HETATM    3  C   UNL     1     -12.400   6.902  71.608  1.00  0.00    -0.413 C  
BRANCH   3   4
HETATM    4  C   UNL     1     -12.092   8.236  72.279  1.00  0.00    -0.439 C  
BRANCH   4   5
HETATM    5  C   UNL     1     -13.278   9.183  72.175  1.00  0.00    -0.524 C  
BRANCH   5   6
HETATM    6  C   UNL     1     -13.239   9.952  70.858  1.00  0.00    -0.309 C  
BRANCH   6   7
HETATM    7  C   UNL     1     -11.887  10.625  70.693  1.00  0.00    -0.463 C  
BRANCH   7   8
HETATM    8  C   UNL     1     -11.626  11.019  69.242  1.00  0.00    -0.384 C  
BRANCH   8   9
HETATM    9  C   UNL     1     -10.466  10.183  68.721  1.00  0.00    -0.223 C  
BRANCH   9  10
HETATM   10  C   UNL     1     -10.724   9.662  67.314  1.00  0.00    -0.214 C  
BRANCH  10  11
HETATM   11  N   UNL     1      -9.676  10.171  66.290  1.00  0.00    -0.206 N  
HETATM   12  C   UNL     1      -8.688  11.121  66.968  1.00  0.00    -0.148 C  
HETATM   13  C   UNL     1      -8.919   8.991  65.676  1.00  0.00    -0.202 C  
BRANCH  11  14
HETATM   14  C   UNL     1     -10.478  10.922  65.195  1.00  0.00    -0.246 C  
BRANCH  14  15
HETATM   15  C   UNL     1     -10.580  12.416  65.466  1.00  0.00    -0.307 C  
BRANCH  15  16
HETATM   16  C   UNL     1     -11.980  12.824  65.904  1.00  0.00    -0.506 C  
BRANCH  16  17
HETATM   17  C   UNL     1     -11.979  14.325  66.175  1.00  0.00    -0.422 C  
BRANCH  17  18
HETATM   18  C   UNL     1     -10.596  14.825  66.556  1.00  0.00    -0.299 C  
BRANCH  18  19
HETATM   19  C   UNL     1     -10.268  16.086  65.769  1.00  0.00    -0.401 C  
BRANCH  19  20
HETATM   20  C   UNL     1      -9.483  17.068  66.632  1.00  0.00    -0.279 C  
BRANCH  20  21
HETATM   21  C   UNL     1     -10.417  17.876  67.528  1.00  0.00    -0.398 C  
BRANCH  21  22
HETATM   22  C   UNL     1     -10.703  19.241  66.914  1.00  0.00    -0.543 C  
HETATM   23  C   UNL     1      -9.427  20.044  66.737  1.00  0.00    -0.530 C  
ENDBRANCH  21  22
ENDBRANCH  20  21
ENDBRANCH  19  20
ENDBRANCH  18  19
ENDBRANCH  17  18
ENDBRANCH  16  17
ENDBRANCH  15  16
ENDBRANCH  14  15
ENDBRANCH  11  14
ENDBRANCH  10  11
ENDBRANCH   9  10
ENDBRANCH   8   9
ENDBRANCH   7   8
ENDBRANCH   6   7
ENDBRANCH   5   6
ENDBRANCH   4   5
ENDBRANCH   3   4
ENDBRANCH   2   3
TORSDOF 18
ENDMDL
MODEL       97
REMARK 921   NORMALIZED FREE ENERGY PREDICTED BY IDOCK:   -3.54 KCAL/MOL
REMARK 922        TOTAL FREE ENERGY PREDICTED BY IDOCK:   -9.97 KCAL/MOL
REMARK 923 INTER-LIGAND FREE ENERGY PREDICTED BY IDOCK:   -8.19 KCAL/MOL
REMARK 924 INTRA-LIGAND FREE ENERGY PREDICTED BY IDOCK:   -1.78 KCAL/MOL
REMARK 927      BINDING AFFINITY PREDICTED BY RF-SCORE:    0.00 PKD
ROOT
HETATM    1  C   UNL     1     -12.932  14.968  73.243  1.00  0.00    -0.642 C  
HETATM    2  C   UNL     1     -13.614  15.553  72.021  1.00  0.00    -0.595 C  
ENDROOT
BRANCH   2   3
HETATM    3  C   UNL     1     -12.793  15.306  70.759  1.00  0.00    -0.494 C  
BRANCH   3   4
HETATM    4  C   UNL     1     -12.181  13.910  70.782  1.00  0.00    -0.441 C  
BRANCH   4   5
HETATM    5  C   UNL     1     -11.450  13.616  69.480  1.00  0.00    -0.324 C  
BRANCH   5   6
HETATM    6  C   UNL     1     -12.012  14.465  68.344  1.00  0.00    -0.328 C  
BRANCH   6   7
HETATM    7  C   UNL     1     -12.107  13.634  67.076  1.00  0.00    -0.423 C  
BRANCH   7   8
HETATM    8  C   UNL     1     -11.211  14.186  65.971  1.00  0.00    -0.319 C  
BRANCH   8   9
HETATM    9  C   UNL     1     -10.414  13.031  65.381  1.00  0.00    -0.308 C  
BRANCH   9  10
HETATM   10  C   UNL     1      -9.733  12.197  66.459  1.00  0.00    -0.223 C  
BRANCH  10  11
HETATM   11  N   UNL     1      -9.639  10.697  66.079  1.00  0.00    -0.189 N  
HETATM   12  C   UNL     1     -10.024  10.495  64.613  1.00  0.00    -0.347 C  
HETATM   13  C   UNL     1      -8.218  10.179  66.316  1.00  0.00    -0.127 C  
BRANCH  11  14
HETATM   14  C   UNL     1     -10.641   9.958  67.004  1.00  0.00    -0.203 C  
BRANCH  14  15
HETATM   15  C   UNL     1     -10.029   8.734  67.669  1.00  0.00    -0.247 C  
BRANCH  15  16
HETATM   16  C   UNL     1     -10.502   7.437  67.028  1.00  0.00    -0.404 C  
BRANCH  16  17
HETATM   17  C   UNL     1     -11.072   6.541  68.122  1.00  0.00    -0.332 C  
BRANCH  17  18
HETATM   18  C   UNL     1     -10.411   6.805  69.464  1.00  0.00    -0.248 C  
BRANCH  18  19
HETATM   19  C   UNL     1     -11.138   6.033  70.558  1.00  0.00    -0.385 C  
BRANCH  19  20
HETATM   20  C   UNL     1     -12.081   6.953  71.325  1.00  0.00    -0.419 C  
BRANCH  20  21
HETATM   21  C   UNL     1     -11.376   8.244  71.730  1.00  0.00    -0.350 C  
BRANCH  21  22
HETATM   22  C   UNL     1     -12.370   9.397  71.812  1.00  0.00    -0.471 C  
HETATM   23  C   UNL     1     -12.364  10.221  70.538  1.00  0.00    -0.371 C  
ENDBRANCH  21  22
ENDBRANCH  20  21
ENDBRANCH  19  20
ENDBRANCH  18  19
ENDBRANCH  17  18
ENDBRANCH  16  17
ENDBRANCH  15  16
ENDBRANCH  14  15
ENDBRANCH  11  14
ENDBRANCH  10  11
ENDBRANCH   9  10
ENDBRANCH   8   9
ENDBRANCH   7   8
ENDBRANCH   6   7
ENDBRANCH   5   6
ENDBRANCH   4   5
ENDBRANCH   3   4
ENDBRANCH   2   3
TORSDOF 18
ENDMDL
MODEL       98
REMARK 921   NORMALIZED FREE ENERGY PREDICTED BY IDOCK:   -3.54 KCAL/MOL
REMARK 922        TOTAL FREE ENERGY PREDICTED BY IDOCK:   -9.97 KCAL/MOL
REMARK 923 INTER-LIGAND FREE ENERGY PREDICTED BY IDOCK:   -8.30 KCAL/MOL
REMARK 924 INTRA-LIGAND FREE ENERGY PREDICTED BY IDOCK:   -1.67 KCAL/MOL
REMARK 927      BINDING AFFINITY PREDICTED BY RF-SCORE:    0.00 PKD
ROOT
HETATM    1  C   UNL     1     -14.117  15.419  72.314  1.00  0.00    -0.660 C  
HETATM    2  C   UNL     1     -13.229  14.323  72.874  1.00  0.00    -0.593 C  
ENDROOT
BRANCH   2   3
HETATM    3  C   UNL     1     -12.766  13.373  71.774  1.00  0.00    -0.321 C  
BRANCH   3   4
HETATM    4  C   UNL     1     -13.373  11.988  71.969  1.00  0.00    -0.447 C  
BRANCH   4   5
HETATM    5  C   UNL     1     -12.751  10.982  71.011  1.00  0.00    -0.485 C  
BRANCH   5   6
HETATM    6  C   UNL     1     -12.421   9.682  71.736  1.00  0.00    -0.487 C  
BRANCH   6   7
HETATM    7  C   UNL     1     -10.990   9.271  71.436  1.00  0.00    -0.429 C  
BRANCH   7   8
HETATM    8  C   UNL     1     -10.916   8.286  70.274  1.00  0.00    -0.233 C  
BRANCH   8   9
HETATM    9  C   UNL     1      -9.843   8.765  69.308  1.00  0.00    -0.180 C  
BRANCH   9  10
HETATM   10  C   UNL     1      -9.566  10.255  69.454  1.00  0.00    -0.218 C  
BRANCH  10  11
HETATM   11  N   UNL     1      -9.814  11.039  68.139  1.00  0.00    -0.170 N  
HETATM   12  C   UNL     1      -8.546  11.054  67.284  1.00  0.00    -0.130 C  
HETATM   13  C   UNL     1     -10.961  10.402  67.352  1.00  0.00    -0.270 C  
BRANCH  11  14
HETATM   14  C   UNL     1     -10.191  12.481  68.566  1.00  0.00    -0.203 C  
BRANCH  14  15
HETATM   15  C   UNL     1     -11.649  12.812  68.283  1.00  0.00    -0.375 C  
BRANCH  15  16
HETATM   16  C   UNL     1     -12.012  14.223  68.723  1.00  0.00    -0.346 C  
BRANCH  16  17
HETATM   17  C   UNL     1     -11.084  15.202  68.010  1.00  0.00    -0.310 C  
BRANCH  17  18
HETATM   18  C   UNL     1     -11.379  15.269  66.521  1.00  0.00    -0.168 C  
BRANCH  18  19
HETATM   19  C   UNL     1     -10.116  14.951  65.731  1.00  0.00    -0.367 C  
BRANCH  19  20
HETATM   20  C   UNL     1     -10.426  13.980  64.596  1.00  0.00    -0.398 C  
BRANCH  20  21
HETATM   21  C   UNL     1     -11.903  13.600  64.590  1.00  0.00    -0.427 C  
BRANCH  21  22
HETATM   22  C   UNL     1     -12.191  12.579  63.495  1.00  0.00    -0.652 C  
HETATM   23  C   UNL     1     -11.126  11.498  63.456  1.00  0.00    -0.434 C  
ENDBRANCH  21  22
ENDBRANCH  20  21
ENDBRANCH  19  20
ENDBRANCH  18  19
ENDBRANCH  17  18
ENDBRANCH  16  17
ENDBRANCH  15  16
ENDBRANCH  14  15
ENDBRANCH  11  14
ENDBRANCH  10  11
ENDBRANCH   9  10
ENDBRANCH   8   9
ENDBRANCH   7   8
ENDBRANCH   6   7
ENDBRANCH   5   6
ENDBRANCH   4   5
ENDBRANCH   3   4
ENDBRANCH   2   3
TORSDOF 18
ENDMDL
MODEL       99
REMARK 921   NORMALIZED FREE ENERGY PREDICTED BY IDOCK:   -3.54 KCAL/MOL
REMARK 922        TOTAL FREE ENERGY PREDICTED BY IDOCK:   -9.96 KCAL/MOL
REMARK 923 INTER-LIGAND FREE ENERGY PREDICTED BY IDOCK:   -7.98 KCAL/MOL
REMARK 924 INTRA-LIGAND FREE ENERGY PREDICTED BY IDOCK:   -1.98 KCAL/MOL
REMARK 927      BINDING AFFINITY PREDICTED BY RF-SCORE:    0.00 PKD
ROOT
HETATM    1  C   UNL     1     -12.533  11.764  63.350  1.00  0.00    -0.490 C  
HETATM    2  C   UNL     1     -12.408  13.105  64.048  1.00  0.00    -0.425 C  
ENDROOT
BRANCH   2   3
HETATM    3  C   UNL     1     -12.343  12.936  65.563  1.00  0.00    -0.517 C  
BRANCH   3   4
HETATM    4  C   UNL     1     -11.279  11.914  65.944  1.00  0.00    -0.373 C  
BRANCH   4   5
HETATM    5  C   UNL     1      -9.966  12.601  66.293  1.00  0.00    -0.266 C  
BRANCH   5   6
HETATM    6  C   UNL     1     -10.217  14.023  66.785  1.00  0.00    -0.264 C  
BRANCH   6   7
HETATM    7  C   UNL     1      -9.623  15.021  65.806  1.00  0.00    -0.327 C  
BRANCH   7   8
HETATM    8  C   UNL     1     -10.697  15.903  65.178  1.00  0.00    -0.449 C  
BRANCH   8   9
HETATM    9  C   UNL     1     -10.508  17.324  65.689  1.00  0.00    -0.191 C  
BRANCH   9  10
HETATM   10  C   UNL     1      -9.164  17.508  66.382  1.00  0.00    -0.245 C  
BRANCH  10  11
HETATM   11  N   UNL     1      -9.160  18.709  67.363  1.00  0.00    -0.277 N  
HETATM   12  C   UNL     1      -8.027  19.675  67.014  1.00  0.00    -0.281 C  
HETATM   13  C   UNL     1     -10.502  19.444  67.305  1.00  0.00    -0.467 C  
BRANCH  11  14
HETATM   14  C   UNL     1      -8.937  18.107  68.774  1.00  0.00    -0.216 C  
BRANCH  14  15
HETATM   15  C   UNL     1      -9.597  16.747  68.941  1.00  0.00    -0.249 C  
BRANCH  15  16
HETATM   16  C   UNL     1     -10.848  16.819  69.806  1.00  0.00    -0.156 C  
BRANCH  16  17
HETATM   17  C   UNL     1     -11.791  15.698  69.382  1.00  0.00    -0.391 C  
BRANCH  17  18
HETATM   18  C   UNL     1     -12.770  15.341  70.487  1.00  0.00    -0.440 C  
BRANCH  18  19
HETATM   19  C   UNL     1     -12.433  13.966  71.050  1.00  0.00    -0.452 C  
BRANCH  19  20
HETATM   20  C   UNL     1     -11.930  13.044  69.945  1.00  0.00    -0.381 C  
BRANCH  20  21
HETATM   21  C   UNL     1     -11.974  11.585  70.388  1.00  0.00    -0.459 C  
BRANCH  21  22
HETATM   22  C   UNL     1     -11.135  10.715  69.459  1.00  0.00    -0.328 C  
HETATM   23  C   UNL     1     -10.364   9.663  70.236  1.00  0.00    -0.336 C  
ENDBRANCH  21  22
ENDBRANCH  20  21
ENDBRANCH  19  20
ENDBRANCH  18  19
ENDBRANCH  17  18
ENDBRANCH  16  17
ENDBRANCH  15  16
ENDBRANCH  14  15
ENDBRANCH  11  14
ENDBRANCH  10  11
ENDBRANCH   9  10
ENDBRANCH   8   9
ENDBRANCH   7   8
ENDBRANCH   6   7
ENDBRANCH   5   6
ENDBRANCH   4   5
ENDBRANCH   3   4
ENDBRANCH   2   3
TORSDOF 18
ENDMDL
MODEL      100
REMARK 921   NORMALIZED FREE ENERGY PREDICTED BY IDOCK:   -3.53 KCAL/MOL
REMARK 922        TOTAL FREE ENERGY PREDICTED BY IDOCK:   -9.96 KCAL/MOL
REMARK 923 INTER-LIGAND FREE ENERGY PREDICTED BY IDOCK:   -8.22 KCAL/MOL
REMARK 924 INTRA-LIGAND FREE ENERGY PREDICTED BY IDOCK:   -1.73 KCAL/MOL
REMARK 927      BINDING AFFINITY PREDICTED BY RF-SCORE:    0.00 PKD
ROOT
HETATM    1  C   UNL     1     -10.713  19.480  66.730  1.00  0.00    -0.569 C  
HETATM    2  C   UNL     1      -9.431  20.218  67.067  1.00  0.00    -0.546 C  
ENDROOT
BRANCH   2   3
HETATM    3  C   UNL     1      -8.302  19.825  66.119  1.00  0.00    -0.368 C  
BRANCH   3   4
HETATM    4  C   UNL     1      -7.062  19.410  66.903  1.00  0.00    -0.216 C  
BRANCH   4   5
HETATM    5  C   UNL     1      -7.288  19.567  68.399  1.00  0.00    -0.352 C  
BRANCH   5   6
HETATM    6  C   UNL     1      -6.931  18.280  69.135  1.00  0.00    -0.230 C  
BRANCH   6   7
HETATM    7  C   UNL     1      -7.303  17.078  68.284  1.00  0.00    -0.203 C  
BRANCH   7   8
HETATM    8  C   UNL     1      -8.756  16.663  68.495  1.00  0.00    -0.242 C  
BRANCH   8   9
HETATM    9  C   UNL     1      -9.279  16.073  67.194  1.00  0.00    -0.221 C  
BRANCH   9  10
HETATM   10  C   UNL     1     -10.746  15.678  67.294  1.00  0.00    -0.305 C  
BRANCH  10  11
HETATM   11  N   UNL     1     -10.970  14.160  67.074  1.00  0.00    -0.295 N  
HETATM   12  C   UNL     1     -12.377  13.903  66.534  1.00  0.00    -0.404 C  
HETATM   13  C   UNL     1      -9.932  13.609  66.093  1.00  0.00    -0.306 C  
BRANCH  11  14
HETATM   14  C   UNL     1     -10.798  13.496  68.465  1.00  0.00    -0.264 C  
BRANCH  14  15
HETATM   15  C   UNL     1     -11.697  12.282  68.649  1.00  0.00    -0.377 C  
BRANCH  15  16
HETATM   16  C   UNL     1     -12.008  12.017  70.115  1.00  0.00    -0.401 C  
BRANCH  16  17
HETATM   17  C   UNL     1     -11.984  10.509  70.345  1.00  0.00    -0.425 C  
BRANCH  17  18
HETATM   18  C   UNL     1     -13.121  10.063  71.249  1.00  0.00    -0.493 C  
BRANCH  18  19
HETATM   19  C   UNL     1     -12.633   8.968  72.188  1.00  0.00    -0.461 C  
BRANCH  19  20
HETATM   20  C   UNL     1     -11.136   8.736  72.008  1.00  0.00    -0.441 C  
BRANCH  20  21
HETATM   21  C   UNL     1     -10.765   7.292  72.330  1.00  0.00    -0.283 C  
BRANCH  21  22
HETATM   22  C   UNL     1     -11.657   6.323  71.563  1.00  0.00    -0.345 C  
HETATM   23  C   UNL     1     -11.292   6.286  70.091  1.00  0.00    -0.476 C  
ENDBRANCH  21  22
ENDBRANCH  20  21
ENDBRANCH  19  20
ENDBRANCH  18  19
ENDBRANCH  17  18
ENDBRANCH  16  17
ENDBRANCH  15  16
ENDBRANCH  14  15
ENDBRANCH  11  14
ENDBRANCH  10  11
ENDBRANCH   9  10
ENDBRANCH   8   9
ENDBRANCH   7   8
ENDBRANCH   6   7
ENDBRANCH   5   6
ENDBRANCH   4   5
ENDBRANCH   3   4
ENDBRANCH   2   3
TORSDOF 18
ENDMDL
MODEL      101
REMARK 921   NORMALIZED FREE ENERGY PREDICTED BY IDOCK:   -3.52 KCAL/MOL
REMARK 922        TOTAL FREE ENERGY PREDICTED BY IDOCK:   -9.93 KCAL/MOL
REMARK 923 INTER-LIGAND FREE ENERGY PREDICTED BY IDOCK:   -8.16 KCAL/MOL
REMARK 924 INTRA-LIGAND FREE ENERGY PREDICTED BY IDOCK:   -1.77 KCAL/MOL
REMARK 927      BINDING AFFINITY PREDICTED BY RF-SCORE:    0.00 PKD
ROOT
HETATM    1  C   UNL     1     -12.479  10.172  71.023  1.00  0.00    -0.474 C  
HETATM    2  C   UNL     1     -12.780   9.062  72.013  1.00  0.00    -0.467 C  
ENDROOT
BRANCH   2   3
HETATM    3  C   UNL     1     -12.673   7.691  71.353  1.00  0.00    -0.357 C  
BRANCH   3   4
HETATM    4  C   UNL     1     -11.554   6.874  71.990  1.00  0.00    -0.322 C  
BRANCH   4   5
HETATM    5  C   UNL     1     -10.677   6.231  70.925  1.00  0.00    -0.314 C  
BRANCH   5   6
HETATM    6  C   UNL     1     -11.280   6.431  69.538  1.00  0.00    -0.477 C  
BRANCH   6   7
HETATM    7  C   UNL     1     -10.300   5.964  68.476  1.00  0.00    -0.268 C  
BRANCH   7   8
HETATM    8  C   UNL     1     -10.679   6.480  67.092  1.00  0.00    -0.438 C  
BRANCH   8   9
HETATM    9  C   UNL     1     -10.906   7.982  67.187  1.00  0.00    -0.150 C  
BRANCH   9  10
HETATM   10  C   UNL     1      -9.893   8.766  66.362  1.00  0.00    -0.282 C  
BRANCH  10  11
HETATM   11  N   UNL     1      -9.650  10.193  66.919  1.00  0.00    -0.172 N  
HETATM   12  C   UNL     1     -10.907  10.712  67.619  1.00  0.00    -0.292 C  
HETATM   13  C   UNL     1      -8.477  10.184  67.903  1.00  0.00    -0.118 C  
BRANCH  11  14
HETATM   14  C   UNL     1      -9.314  11.079  65.691  1.00  0.00    -0.214 C  
BRANCH  14  15
HETATM   15  C   UNL     1     -10.169  10.745  64.478  1.00  0.00    -0.428 C  
BRANCH  15  16
HETATM   16  C   UNL     1     -10.556  11.989  63.691  1.00  0.00    -0.503 C  
BRANCH  16  17
HETATM   17  C   UNL     1     -12.067  11.976  63.485  1.00  0.00    -0.628 C  
BRANCH  17  18
HETATM   18  C   UNL     1     -12.801  12.554  64.683  1.00  0.00    -0.325 C  
BRANCH  18  19
HETATM   19  C   UNL     1     -12.275  13.951  64.984  1.00  0.00    -0.444 C  
BRANCH  19  20
HETATM   20  C   UNL     1     -12.006  14.112  66.476  1.00  0.00    -0.466 C  
BRANCH  20  21
HETATM   21  C   UNL     1     -10.543  14.463  66.733  1.00  0.00    -0.282 C  
BRANCH  21  22
HETATM   22  C   UNL     1     -10.059  15.509  65.735  1.00  0.00    -0.388 C  
HETATM   23  C   UNL     1      -8.748  16.131  66.182  1.00  0.00    -0.358 C  
ENDBRANCH  21  22
ENDBRANCH  20  21
ENDBRANCH  19  20
ENDBRANCH  18  19
ENDBRANCH  17  18
ENDBRANCH  16  17
ENDBRANCH  15  16
ENDBRANCH  14  15
ENDBRANCH  11  14
ENDBRANCH  10  11
ENDBRANCH   9  10
ENDBRANCH   8   9
ENDBRANCH   7   8
ENDBRANCH   6   7
ENDBRANCH   5   6
ENDBRANCH   4   5
ENDBRANCH   3   4
ENDBRANCH   2   3
TORSDOF 18
ENDMDL
MODEL      102
REMARK 921   NORMALIZED FREE ENERGY PREDICTED BY IDOCK:   -3.51 KCAL/MOL
REMARK 922        TOTAL FREE ENERGY PREDICTED BY IDOCK:   -9.91 KCAL/MOL
REMARK 923 INTER-LIGAND FREE ENERGY PREDICTED BY IDOCK:   -7.58 KCAL/MOL
REMARK 924 INTRA-LIGAND FREE ENERGY PREDICTED BY IDOCK:   -2.34 KCAL/MOL
REMARK 927      BINDING AFFINITY PREDICTED BY RF-SCORE:    0.00 PKD
ROOT
HETATM    1  C   UNL     1     -11.786  12.790  66.390  1.00  0.00    -0.464 C  
HETATM    2  C   UNL     1     -11.592  12.342  67.826  1.00  0.00    -0.416 C  
ENDROOT
BRANCH   2   3
HETATM    3  C   UNL     1     -11.937  13.461  68.804  1.00  0.00    -0.359 C  
BRANCH   3   4
HETATM    4  C   UNL     1     -12.137  12.905  70.209  1.00  0.00    -0.377 C  
BRANCH   4   5
HETATM    5  C   UNL     1     -11.977  11.392  70.223  1.00  0.00    -0.460 C  
BRANCH   5   6
HETATM    6  C   UNL     1     -12.778  10.776  71.365  1.00  0.00    -0.544 C  
BRANCH   6   7
HETATM    7  C   UNL     1     -12.152   9.456  71.782  1.00  0.00    -0.454 C  
BRANCH   7   8
HETATM    8  C   UNL     1     -10.753   9.284  71.197  1.00  0.00    -0.403 C  
BRANCH   8   9
HETATM    9  C   UNL     1      -9.888   8.573  72.228  1.00  0.00    -0.383 C  
BRANCH   9  10
HETATM   10  C   UNL     1     -10.681   7.554  73.034  1.00  0.00    -0.384 C  
BRANCH  10  11
HETATM   11  N   UNL     1     -10.099   6.121  72.918  1.00  0.00    -0.178 N  
HETATM   12  C   UNL     1      -8.961   5.928  73.921  1.00  0.00    -0.126 C  
HETATM   13  C   UNL     1     -11.195   5.083  73.174  1.00  0.00    -0.335 C  
BRANCH  11  14
HETATM   14  C   UNL     1      -9.565   5.992  71.468  1.00  0.00    -0.156 C  
BRANCH  14  15
HETATM   15  C   UNL     1     -10.510   5.214  70.564  1.00  0.00    -0.278 C  
BRANCH  15  16
HETATM   16  C   UNL     1     -11.182   6.109  69.532  1.00  0.00    -0.482 C  
BRANCH  16  17
HETATM   17  C   UNL     1     -10.501   5.884  68.186  1.00  0.00    -0.291 C  
BRANCH  17  18
HETATM   18  C   UNL     1     -10.952   6.903  67.153  1.00  0.00    -0.427 C  
BRANCH  18  19
HETATM   19  C   UNL     1     -10.505   8.297  67.575  1.00  0.00    -0.325 C  
BRANCH  19  20
HETATM   20  C   UNL     1     -10.194   9.152  66.352  1.00  0.00    -0.300 C  
BRANCH  20  21
HETATM   21  C   UNL     1      -8.697   9.423  66.240  1.00  0.00    -0.157 C  
BRANCH  21  22
HETATM   22  C   UNL     1      -8.408  10.913  66.385  1.00  0.00    -0.162 C  
HETATM   23  C   UNL     1      -8.057  11.269  67.818  1.00  0.00    -0.119 C  
ENDBRANCH  21  22
ENDBRANCH  20  21
ENDBRANCH  19  20
ENDBRANCH  18  19
ENDBRANCH  17  18
ENDBRANCH  16  17
ENDBRANCH  15  16
ENDBRANCH  14  15
ENDBRANCH  11  14
ENDBRANCH  10  11
ENDBRANCH   9  10
ENDBRANCH   8   9
ENDBRANCH   7   8
ENDBRANCH   6   7
ENDBRANCH   5   6
ENDBRANCH   4   5
ENDBRANCH   3   4
ENDBRANCH   2   3
TORSDOF 18
ENDMDL
MODEL      103
REMARK 921   NORMALIZED FREE ENERGY PREDICTED BY IDOCK:   -3.49 KCAL/MOL
REMARK 922        TOTAL FREE ENERGY PREDICTED BY IDOCK:   -9.87 KCAL/MOL
REMARK 923 INTER-LIGAND FREE ENERGY PREDICTED BY IDOCK:   -8.10 KCAL/MOL
REMARK 924 INTRA-LIGAND FREE ENERGY PREDICTED BY IDOCK:   -1.78 KCAL/MOL
REMARK 927      BINDING AFFINITY PREDICTED BY RF-SCORE:    0.00 PKD
ROOT
HETATM    1  C   UNL     1     -10.412  17.059  68.750  1.00  0.00    -0.347 C  
HETATM    2  C   UNL     1     -10.627  15.917  69.726  1.00  0.00    -0.322 C  
ENDROOT
BRANCH   2   3
HETATM    3  C   UNL     1     -12.069  15.419  69.682  1.00  0.00    -0.354 C  
BRANCH   3   4
HETATM    4  C   UNL     1     -12.188  14.057  70.357  1.00  0.00    -0.433 C  
BRANCH   4   5
HETATM    5  C   UNL     1     -13.137  14.120  71.544  1.00  0.00    -0.424 C  
BRANCH   5   6
HETATM    6  C   UNL     1     -13.356  12.730  72.132  1.00  0.00    -0.593 C  
BRANCH   6   7
HETATM    7  C   UNL     1     -12.672  11.687  71.264  1.00  0.00    -0.444 C  
BRANCH   7   8
HETATM    8  C   UNL     1     -12.950  10.271  71.758  1.00  0.00    -0.574 C  
BRANCH   8   9
HETATM    9  C   UNL     1     -11.699   9.433  71.535  1.00  0.00    -0.465 C  
BRANCH   9  10
HETATM   10  C   UNL     1     -12.031   7.974  71.253  1.00  0.00    -0.296 C  
BRANCH  10  11
HETATM   11  N   UNL     1     -10.806   7.172  70.744  1.00  0.00    -0.239 N  
HETATM   12  C   UNL     1     -10.032   6.580  71.922  1.00  0.00    -0.177 C  
HETATM   13  C   UNL     1     -11.260   6.050  69.807  1.00  0.00    -0.369 C  
BRANCH  11  14
HETATM   14  C   UNL     1      -9.920   8.187  69.975  1.00  0.00    -0.192 C  
BRANCH  14  15
HETATM   15  C   UNL     1      -9.836   7.881  68.487  1.00  0.00    -0.186 C  
BRANCH  15  16
HETATM   16  C   UNL     1     -10.380   9.020  67.636  1.00  0.00    -0.317 C  
BRANCH  16  17
HETATM   17  C   UNL     1      -9.838   8.861  66.219  1.00  0.00    -0.355 C  
BRANCH  17  18
HETATM   18  C   UNL     1     -10.066  10.113  65.389  1.00  0.00    -0.342 C  
BRANCH  18  19
HETATM   19  C   UNL     1     -10.421  11.280  66.301  1.00  0.00    -0.308 C  
BRANCH  19  20
HETATM   20  C   UNL     1     -10.148  12.607  65.603  1.00  0.00    -0.285 C  
BRANCH  20  21
HETATM   21  C   UNL     1     -10.380  13.781  66.550  1.00  0.00    -0.286 C  
BRANCH  21  22
HETATM   22  C   UNL     1     -11.406  14.747  65.968  1.00  0.00    -0.332 C  
HETATM   23  C   UNL     1     -10.737  15.821  65.131  1.00  0.00    -0.455 C  
ENDBRANCH  21  22
ENDBRANCH  20  21
ENDBRANCH  19  20
ENDBRANCH  18  19
ENDBRANCH  17  18
ENDBRANCH  16  17
ENDBRANCH  15  16
ENDBRANCH  14  15
ENDBRANCH  11  14
ENDBRANCH  10  11
ENDBRANCH   9  10
ENDBRANCH   8   9
ENDBRANCH   7   8
ENDBRANCH   6   7
ENDBRANCH   5   6
ENDBRANCH   4   5
ENDBRANCH   3   4
ENDBRANCH   2   3
TORSDOF 18
ENDMDL
MODEL      104
REMARK 921   NORMALIZED FREE ENERGY PREDICTED BY IDOCK:   -3.49 KCAL/MOL
REMARK 922        TOTAL FREE ENERGY PREDICTED BY IDOCK:   -9.86 KCAL/MOL
REMARK 923 INTER-LIGAND FREE ENERGY PREDICTED BY IDOCK:   -6.99 KCAL/MOL
REMARK 924 INTRA-LIGAND FREE ENERGY PREDICTED BY IDOCK:   -2.86 KCAL/MOL
REMARK 927      BINDING AFFINITY PREDICTED BY RF-SCORE:    0.00 PKD
ROOT
HETATM    1  C   UNL     1     -12.588  11.496  71.422  1.00  0.00    -0.419 C  
HETATM    2  C   UNL     1     -13.129  10.152  70.971  1.00  0.00    -0.458 C  
ENDROOT
BRANCH   2   3
HETATM    3  C   UNL     1     -13.387   9.233  72.162  1.00  0.00    -0.537 C  
BRANCH   3   4
HETATM    4  C   UNL     1     -13.442   7.777  71.715  1.00  0.00    -0.373 C  
BRANCH   4   5
HETATM    5  C   UNL     1     -12.064   7.135  71.784  1.00  0.00    -0.363 C  
BRANCH   5   6
HETATM    6  C   UNL     1     -11.190   7.846  72.812  1.00  0.00    -0.466 C  
BRANCH   6   7
HETATM    7  C   UNL     1      -9.934   8.377  72.143  1.00  0.00    -0.376 C  
BRANCH   7   8
HETATM    8  C   UNL     1      -9.922   8.079  70.647  1.00  0.00    -0.198 C  
BRANCH   8   9
HETATM    9  C   UNL     1      -9.712   9.388  69.900  1.00  0.00    -0.236 C  
BRANCH   9  10
HETATM   10  C   UNL     1      -9.021   9.177  68.560  1.00  0.00    -0.133 C  
BRANCH  10  11
HETATM   11  N   UNL     1      -7.558   9.692  68.557  1.00  0.00    -0.080 N  
HETATM   12  C   UNL     1      -7.306  10.583  69.774  1.00  0.00    -0.134 C  
HETATM   13  C   UNL     1      -6.582   8.513  68.570  1.00  0.00    -0.059 C  
BRANCH  11  14
HETATM   14  C   UNL     1      -7.395  10.509  67.250  1.00  0.00    -0.091 C  
BRANCH  14  15
HETATM   15  C   UNL     1      -8.692  11.173  66.809  1.00  0.00    -0.157 C  
BRANCH  15  16
HETATM   16  C   UNL     1      -8.653  12.684  66.994  1.00  0.00    -0.181 C  
BRANCH  16  17
HETATM   17  C   UNL     1      -9.654  13.060  68.081  1.00  0.00    -0.227 C  
BRANCH  17  18
HETATM   18  C   UNL     1     -10.977  12.335  67.899  1.00  0.00    -0.265 C  
BRANCH  18  19
HETATM   19  C   UNL     1     -12.094  13.348  67.680  1.00  0.00    -0.311 C  
BRANCH  19  20
HETATM   20  C   UNL     1     -12.084  13.852  66.242  1.00  0.00    -0.484 C  
BRANCH  20  21
HETATM   21  C   UNL     1     -12.052  12.689  65.255  1.00  0.00    -0.519 C  
BRANCH  21  22
HETATM   22  C   UNL     1     -11.022  12.942  64.160  1.00  0.00    -0.442 C  
HETATM   23  C   UNL     1     -10.479  11.638  63.603  1.00  0.00    -0.483 C  
ENDBRANCH  21  22
ENDBRANCH  20  21
ENDBRANCH  19  20
ENDBRANCH  18  19
ENDBRANCH  17  18
ENDBRANCH  16  17
ENDBRANCH  15  16
ENDBRANCH  14  15
ENDBRANCH  11  14
ENDBRANCH  10  11
ENDBRANCH   9  10
ENDBRANCH   8   9
ENDBRANCH   7   8
ENDBRANCH   6   7
ENDBRANCH   5   6
ENDBRANCH   4   5
ENDBRANCH   3   4
ENDBRANCH   2   3
TORSDOF 18
ENDMDL
MODEL      105
REMARK 921   NORMALIZED FREE ENERGY PREDICTED BY IDOCK:   -3.48 KCAL/MOL
REMARK 922        TOTAL FREE ENERGY PREDICTED BY IDOCK:   -9.85 KCAL/MOL
REMARK 923 INTER-LIGAND FREE ENERGY PREDICTED BY IDOCK:   -7.49 KCAL/MOL
REMARK 924 INTRA-LIGAND FREE ENERGY PREDICTED BY IDOCK:   -2.36 KCAL/MOL
REMARK 927      BINDING AFFINITY PREDICTED BY RF-SCORE:    0.00 PKD
ROOT
HETATM    1  C   UNL     1     -12.357  13.531  65.864  1.00  0.00    -0.507 C  
HETATM    2  C   UNL     1     -12.158  14.085  64.466  1.00  0.00    -0.484 C  
ENDROOT
BRANCH   2   3
HETATM    3  C   UNL     1     -12.241  12.980  63.417  1.00  0.00    -0.552 C  
BRANCH   3   4
HETATM    4  C   UNL     1     -11.772  11.651  63.997  1.00  0.00    -0.339 C  
BRANCH   4   5
HETATM    5  C   UNL     1     -10.307  11.403  63.670  1.00  0.00    -0.463 C  
BRANCH   5   6
HETATM    6  C   UNL     1      -9.500  11.182  64.945  1.00  0.00    -0.251 C  
BRANCH   6   7
HETATM    7  C   UNL     1      -9.270   9.696  65.160  1.00  0.00    -0.305 C  
BRANCH   7   8
HETATM    8  C   UNL     1     -10.259   9.110  66.163  1.00  0.00    -0.189 C  
BRANCH   8   9
HETATM    9  C   UNL     1      -9.779   7.719  66.551  1.00  0.00    -0.265 C  
BRANCH   9  10
HETATM   10  C   UNL     1     -10.834   6.948  67.332  1.00  0.00    -0.326 C  
BRANCH  10  11
HETATM   11  N   UNL     1     -10.268   6.305  68.624  1.00  0.00    -0.163 N  
HETATM   12  C   UNL     1     -11.379   6.125  69.659  1.00  0.00    -0.372 C  
HETATM   13  C   UNL     1      -9.633   4.949  68.306  1.00  0.00    -0.145 C  
BRANCH  11  14
HETATM   14  C   UNL     1      -9.193   7.289  69.155  1.00  0.00    -0.139 C  
BRANCH  14  15
HETATM   15  C   UNL     1      -9.414   7.666  70.613  1.00  0.00    -0.163 C  
BRANCH  15  16
HETATM   16  C   UNL     1      -9.568   9.168  70.799  1.00  0.00    -0.338 C  
BRANCH  16  17
HETATM   17  C   UNL     1      -9.017   9.864  69.559  1.00  0.00    -0.224 C  
BRANCH  17  18
HETATM   18  C   UNL     1      -9.884  11.041  69.145  1.00  0.00    -0.117 C  
BRANCH  18  19
HETATM   19  C   UNL     1     -11.355  10.669  69.277  1.00  0.00    -0.346 C  
BRANCH  19  20
HETATM   20  C   UNL     1     -12.121  11.767  70.006  1.00  0.00    -0.387 C  
BRANCH  20  21
HETATM   21  C   UNL     1     -12.723  11.242  71.307  1.00  0.00    -0.510 C  
BRANCH  21  22
HETATM   22  C   UNL     1     -13.194   9.802  71.138  1.00  0.00    -0.404 C  
HETATM   23  C   UNL     1     -13.599   9.196  72.469  1.00  0.00    -0.497 C  
ENDBRANCH  21  22
ENDBRANCH  20  21
ENDBRANCH  19  20
ENDBRANCH  18  19
ENDBRANCH  17  18
ENDBRANCH  16  17
ENDBRANCH  15  16
ENDBRANCH  14  15
ENDBRANCH  11  14
ENDBRANCH  10  11
ENDBRANCH   9  10
ENDBRANCH   8   9
ENDBRANCH   7   8
ENDBRANCH   6   7
ENDBRANCH   5   6
ENDBRANCH   4   5
ENDBRANCH   3   4
ENDBRANCH   2   3
TORSDOF 18
ENDMDL
MODEL      106
REMARK 921   NORMALIZED FREE ENERGY PREDICTED BY IDOCK:   -3.48 KCAL/MOL
REMARK 922        TOTAL FREE ENERGY PREDICTED BY IDOCK:   -9.84 KCAL/MOL
REMARK 923 INTER-LIGAND FREE ENERGY PREDICTED BY IDOCK:   -7.68 KCAL/MOL
REMARK 924 INTRA-LIGAND FREE ENERGY PREDICTED BY IDOCK:   -2.16 KCAL/MOL
REMARK 927      BINDING AFFINITY PREDICTED BY RF-SCORE:    0.00 PKD
ROOT
HETATM    1  C   UNL     1     -11.680   6.857  71.580  1.00  0.00    -0.343 C  
HETATM    2  C   UNL     1     -11.681   8.274  71.038  1.00  0.00    -0.293 C  
ENDROOT
BRANCH   2   3
HETATM    3  C   UNL     1     -12.481   9.209  71.939  1.00  0.00    -0.459 C  
BRANCH   3   4
HETATM    4  C   UNL     1     -12.580  10.599  71.320  1.00  0.00    -0.533 C  
BRANCH   4   5
HETATM    5  C   UNL     1     -11.493  10.807  70.276  1.00  0.00    -0.406 C  
BRANCH   5   6
HETATM    6  C   UNL     1     -11.993  11.707  69.150  1.00  0.00    -0.378 C  
BRANCH   6   7
HETATM    7  C   UNL     1     -11.151  11.491  67.904  1.00  0.00    -0.317 C  
BRANCH   7   8
HETATM    8  C   UNL     1      -9.705  11.926  68.118  1.00  0.00    -0.194 C  
BRANCH   8   9
HETATM    9  C   UNL     1      -9.673  13.443  68.229  1.00  0.00    -0.226 C  
BRANCH   9  10
HETATM   10  C   UNL     1      -9.794  14.118  66.869  1.00  0.00    -0.265 C  
BRANCH  10  11
HETATM   11  N   UNL     1     -10.888  15.218  66.847  1.00  0.00    -0.315 N  
HETATM   12  C   UNL     1     -11.179  15.707  68.266  1.00  0.00    -0.353 C  
HETATM   13  C   UNL     1     -10.437  16.395  65.978  1.00  0.00    -0.323 C  
BRANCH  11  14
HETATM   14  C   UNL     1     -12.149  14.554  66.237  1.00  0.00    -0.294 C  
BRANCH  14  15
HETATM   15  C   UNL     1     -11.936  14.101  64.800  1.00  0.00    -0.441 C  
BRANCH  15  16
HETATM   16  C   UNL     1     -12.454  12.690  64.562  1.00  0.00    -0.525 C  
BRANCH  16  17
HETATM   17  C   UNL     1     -11.585  12.034  63.493  1.00  0.00    -0.553 C  
BRANCH  17  18
HETATM   18  C   UNL     1     -10.165  11.812  63.985  1.00  0.00    -0.387 C  
BRANCH  18  19
HETATM   19  C   UNL     1      -9.758  10.363  63.749  1.00  0.00    -0.351 C  
BRANCH  19  20
HETATM   20  C   UNL     1      -9.441   9.675  65.072  1.00  0.00    -0.312 C  
BRANCH  20  21
HETATM   21  C   UNL     1      -8.048   9.054  65.046  1.00  0.00    -0.137 C  
BRANCH  21  22
HETATM   22  C   UNL     1      -6.983  10.114  65.304  1.00  0.00    -0.137 C  
HETATM   23  C   UNL     1      -6.006  10.207  64.146  1.00  0.00    -0.140 C  
ENDBRANCH  21  22
ENDBRANCH  20  21
ENDBRANCH  19  20
ENDBRANCH  18  19
ENDBRANCH  17  18
ENDBRANCH  16  17
ENDBRANCH  15  16
ENDBRANCH  14  15
ENDBRANCH  11  14
ENDBRANCH  10  11
ENDBRANCH   9  10
ENDBRANCH   8   9
ENDBRANCH   7   8
ENDBRANCH   6   7
ENDBRANCH   5   6
ENDBRANCH   4   5
ENDBRANCH   3   4
ENDBRANCH   2   3
TORSDOF 18
ENDMDL
MODEL      107
REMARK 921   NORMALIZED FREE ENERGY PREDICTED BY IDOCK:   -3.48 KCAL/MOL
REMARK 922        TOTAL FREE ENERGY PREDICTED BY IDOCK:   -9.84 KCAL/MOL
REMARK 923 INTER-LIGAND FREE ENERGY PREDICTED BY IDOCK:   -7.61 KCAL/MOL
REMARK 924 INTRA-LIGAND FREE ENERGY PREDICTED BY IDOCK:   -2.23 KCAL/MOL
REMARK 927      BINDING AFFINITY PREDICTED BY RF-SCORE:    0.00 PKD
ROOT
HETATM    1  C   UNL     1     -11.382   7.761  71.698  1.00  0.00    -0.291 C  
HETATM    2  C   UNL     1     -10.372   8.884  71.845  1.00  0.00    -0.407 C  
ENDROOT
BRANCH   2   3
HETATM    3  C   UNL     1      -9.789   9.283  70.493  1.00  0.00    -0.310 C  
BRANCH   3   4
HETATM    4  C   UNL     1      -9.508   8.049  69.644  1.00  0.00    -0.163 C  
BRANCH   4   5
HETATM    5  C   UNL     1     -10.043   8.228  68.231  1.00  0.00    -0.231 C  
BRANCH   5   6
HETATM    6  C   UNL     1      -9.235   9.282  67.479  1.00  0.00    -0.140 C  
BRANCH   6   7
HETATM    7  C   UNL     1     -10.048   9.823  66.316  1.00  0.00    -0.313 C  
BRANCH   7   8
HETATM    8  C   UNL     1      -9.169  10.550  65.303  1.00  0.00    -0.238 C  
BRANCH   8   9
HETATM    9  C   UNL     1      -9.997  11.650  64.655  1.00  0.00    -0.291 C  
BRANCH   9  10
HETATM   10  C   UNL     1     -11.265  11.950  65.442  1.00  0.00    -0.295 C  
BRANCH  10  11
HETATM   11  N   UNL     1     -11.425  13.459  65.762  1.00  0.00    -0.314 N  
HETATM   12  C   UNL     1     -10.287  14.260  65.127  1.00  0.00    -0.415 C  
HETATM   13  C   UNL     1     -12.770  13.971  65.241  1.00  0.00    -0.439 C  
BRANCH  11  14
HETATM   14  C   UNL     1     -11.368  13.577  67.307  1.00  0.00    -0.315 C  
BRANCH  14  15
HETATM   15  C   UNL     1     -11.882  12.328  68.008  1.00  0.00    -0.368 C  
BRANCH  15  16
HETATM   16  C   UNL     1     -11.572  12.340  69.499  1.00  0.00    -0.366 C  
BRANCH  16  17
HETATM   17  C   UNL     1     -12.880  12.162  70.263  1.00  0.00     0.257 C  
BRANCH  17  18
HETATM   18  C   UNL     1     -12.673  12.283  71.763  1.00  0.00    -0.257 C  
BRANCH  18  19
HETATM   19  C   UNL     1     -13.828  13.060  72.382  1.00  0.00    -0.526 C  
BRANCH  19  20
HETATM   20  C   UNL     1     -14.032  14.384  71.654  1.00  0.00    -0.506 C  
BRANCH  20  21
HETATM   21  C   UNL     1     -13.661  15.563  72.550  1.00  0.00    -0.668 C  
BRANCH  21  22
HETATM   22  C   UNL     1     -12.255  16.058  72.231  1.00  0.00    -0.604 C  
HETATM   23  C   UNL     1     -11.942  15.913  70.753  1.00  0.00    -0.413 C  
ENDBRANCH  21  22
ENDBRANCH  20  21
ENDBRANCH  19  20
ENDBRANCH  18  19
ENDBRANCH  17  18
ENDBRANCH  16  17
ENDBRANCH  15  16
ENDBRANCH  14  15
ENDBRANCH  11  14
ENDBRANCH  10  11
ENDBRANCH   9  10
ENDBRANCH   8   9
ENDBRANCH   7   8
ENDBRANCH   6   7
ENDBRANCH   5   6
ENDBRANCH   4   5
ENDBRANCH   3   4
ENDBRANCH   2   3
TORSDOF 18
ENDMDL
MODEL      108
REMARK 921   NORMALIZED FREE ENERGY PREDICTED BY IDOCK:   -3.48 KCAL/MOL
REMARK 922        TOTAL FREE ENERGY PREDICTED BY IDOCK:   -9.84 KCAL/MOL
REMARK 923 INTER-LIGAND FREE ENERGY PREDICTED BY IDOCK:   -6.81 KCAL/MOL
REMARK 924 INTRA-LIGAND FREE ENERGY PREDICTED BY IDOCK:   -3.02 KCAL/MOL
REMARK 927      BINDING AFFINITY PREDICTED BY RF-SCORE:    0.00 PKD
ROOT
HETATM    1  C   UNL     1      -7.832   9.306  64.217  1.00  0.00    -0.125 C  
HETATM    2  C   UNL     1      -9.244   9.859  64.246  1.00  0.00    -0.317 C  
ENDROOT
BRANCH   2   3
HETATM    3  C   UNL     1      -9.471  10.851  63.109  1.00  0.00    -0.361 C  
BRANCH   3   4
HETATM    4  C   UNL     1     -10.584  11.830  63.465  1.00  0.00    -0.499 C  
BRANCH   4   5
HETATM    5  C   UNL     1     -11.213  11.475  64.804  1.00  0.00    -0.258 C  
BRANCH   5   6
HETATM    6  C   UNL     1     -11.272  12.699  65.712  1.00  0.00    -0.347 C  
BRANCH   6   7
HETATM    7  C   UNL     1     -12.488  13.542  65.367  1.00  0.00    -0.540 C  
BRANCH   7   8
HETATM    8  C   UNL     1     -12.107  14.779  64.561  1.00  0.00    -0.460 C  
BRANCH   8   9
HETATM    9  C   UNL     1     -10.690  15.183  64.945  1.00  0.00    -0.421 C  
BRANCH   9  10
HETATM   10  C   UNL     1     -10.657  16.507  65.696  1.00  0.00    -0.304 C  
BRANCH  10  11
HETATM   11  N   UNL     1     -10.061  16.368  67.121  1.00  0.00    -0.265 N  
HETATM   12  C   UNL     1      -8.961  15.305  67.135  1.00  0.00    -0.209 C  
HETATM   13  C   UNL     1      -9.489  17.709  67.588  1.00  0.00    -0.258 C  
BRANCH  11  14
HETATM   14  C   UNL     1     -11.236  15.938  68.036  1.00  0.00    -0.319 C  
BRANCH  14  15
HETATM   15  C   UNL     1     -10.914  14.698  68.857  1.00  0.00    -0.264 C  
BRANCH  15  16
HETATM   16  C   UNL     1     -12.147  13.841  69.108  1.00  0.00    -0.374 C  
BRANCH  16  17
HETATM   17  C   UNL     1     -11.710  12.568  69.824  1.00  0.00    -0.355 C  
BRANCH  17  18
HETATM   18  C   UNL     1     -12.091  11.324  69.039  1.00  0.00    -0.325 C  
BRANCH  18  19
HETATM   19  C   UNL     1     -10.914  10.359  68.998  1.00  0.00    -0.282 C  
BRANCH  19  20
HETATM   20  C   UNL     1      -9.665  11.060  68.472  1.00  0.00    -0.189 C  
BRANCH  20  21
HETATM   21  C   UNL     1      -8.753  10.077  67.744  1.00  0.00    -0.125 C  
BRANCH  21  22
HETATM   22  C   UNL     1      -7.314  10.579  67.744  1.00  0.00    -0.086 C  
HETATM   23  C   UNL     1      -7.215  11.971  67.148  1.00  0.00    -0.131 C  
ENDBRANCH  21  22
ENDBRANCH  20  21
ENDBRANCH  19  20
ENDBRANCH  18  19
ENDBRANCH  17  18
ENDBRANCH  16  17
ENDBRANCH  15  16
ENDBRANCH  14  15
ENDBRANCH  11  14
ENDBRANCH  10  11
ENDBRANCH   9  10
ENDBRANCH   8   9
ENDBRANCH   7   8
ENDBRANCH   6   7
ENDBRANCH   5   6
ENDBRANCH   4   5
ENDBRANCH   3   4
ENDBRANCH   2   3
TORSDOF 18
ENDMDL
MODEL      109
REMARK 921   NORMALIZED FREE ENERGY PREDICTED BY IDOCK:   -3.47 KCAL/MOL
REMARK 922        TOTAL FREE ENERGY PREDICTED BY IDOCK:   -9.83 KCAL/MOL
REMARK 923 INTER-LIGAND FREE ENERGY PREDICTED BY IDOCK:   -7.69 KCAL/MOL
REMARK 924 INTRA-LIGAND FREE ENERGY PREDICTED BY IDOCK:   -2.14 KCAL/MOL
REMARK 927      BINDING AFFINITY PREDICTED BY RF-SCORE:    0.00 PKD
ROOT
HETATM    1  C   UNL     1     -13.419  12.176  72.136  1.00  0.00    -0.383 C  
HETATM    2  C   UNL     1     -13.171  10.708  71.842  1.00  0.00    -0.528 C  
ENDROOT
BRANCH   2   3
HETATM    3  C   UNL     1     -12.278  10.534  70.617  1.00  0.00    -0.446 C  
BRANCH   3   4
HETATM    4  C   UNL     1     -11.088   9.639  70.941  1.00  0.00    -0.422 C  
BRANCH   4   5
HETATM    5  C   UNL     1     -10.330   9.263  69.676  1.00  0.00    -0.227 C  
BRANCH   5   6
HETATM    6  C   UNL     1      -9.189  10.243  69.421  1.00  0.00    -0.206 C  
BRANCH   6   7
HETATM    7  C   UNL     1      -9.514  11.111  68.217  1.00  0.00    -0.182 C  
BRANCH   7   8
HETATM    8  C   UNL     1     -10.600  10.487  67.347  1.00  0.00    -0.313 C  
BRANCH   8   9
HETATM    9  C   UNL     1     -11.410  11.609  66.714  1.00  0.00    -0.354 C  
BRANCH   9  10
HETATM   10  C   UNL     1     -10.705  12.212  65.507  1.00  0.00    -0.283 C  
BRANCH  10  11
HETATM   11  N   UNL     1     -11.537  13.331  64.829  1.00  0.00    -0.320 N  
HETATM   12  C   UNL     1     -11.979  12.893  63.432  1.00  0.00    -0.537 C  
HETATM   13  C   UNL     1     -12.766  13.665  65.679  1.00  0.00    -0.454 C  
BRANCH  11  14
HETATM   14  C   UNL     1     -10.600  14.563  64.734  1.00  0.00    -0.377 C  
BRANCH  14  15
HETATM   15  C   UNL     1      -9.719  14.725  65.964  1.00  0.00    -0.350 C  
BRANCH  15  16
HETATM   16  C   UNL     1      -9.125  16.122  66.064  1.00  0.00    -0.354 C  
BRANCH  16  17
HETATM   17  C   UNL     1     -10.230  17.135  65.780  1.00  0.00    -0.234 C  
BRANCH  17  18
HETATM   18  C   UNL     1     -10.465  18.054  66.966  1.00  0.00    -0.361 C  
BRANCH  18  19
HETATM   19  C   UNL     1      -9.453  17.752  68.062  1.00  0.00    -0.281 C  
BRANCH  19  20
HETATM   20  C   UNL     1     -10.161  17.321  69.342  1.00  0.00    -0.139 C  
BRANCH  20  21
HETATM   21  C   UNL     1     -11.299  16.352  69.036  1.00  0.00    -0.253 C  
BRANCH  21  22
HETATM   22  C   UNL     1     -11.356  15.243  70.082  1.00  0.00    -0.313 C  
HETATM   23  C   UNL     1     -11.738  13.915  69.455  1.00  0.00    -0.369 C  
ENDBRANCH  21  22
ENDBRANCH  20  21
ENDBRANCH  19  20
ENDBRANCH  18  19
ENDBRANCH  17  18
ENDBRANCH  16  17
ENDBRANCH  15  16
ENDBRANCH  14  15
ENDBRANCH  11  14
ENDBRANCH  10  11
ENDBRANCH   9  10
ENDBRANCH   8   9
ENDBRANCH   7   8
ENDBRANCH   6   7
ENDBRANCH   5   6
ENDBRANCH   4   5
ENDBRANCH   3   4
ENDBRANCH   2   3
TORSDOF 18
ENDMDL
MODEL      110
REMARK 921   NORMALIZED FREE ENERGY PREDICTED BY IDOCK:   -3.46 KCAL/MOL
REMARK 922        TOTAL FREE ENERGY PREDICTED BY IDOCK:   -9.80 KCAL/MOL
REMARK 923 INTER-LIGAND FREE ENERGY PREDICTED BY IDOCK:   -7.83 KCAL/MOL
REMARK 924 INTRA-LIGAND FREE ENERGY PREDICTED BY IDOCK:   -1.97 KCAL/MOL
REMARK 927      BINDING AFFINITY PREDICTED BY RF-SCORE:    0.00 PKD
ROOT
HETATM    1  C   UNL     1     -11.644   6.417  72.100  1.00  0.00    -0.357 C  
HETATM    2  C   UNL     1     -11.021   7.639  72.748  1.00  0.00    -0.432 C  
ENDROOT
BRANCH   2   3
HETATM    3  C   UNL     1     -11.254   8.889  71.904  1.00  0.00    -0.447 C  
BRANCH   3   4
HETATM    4  C   UNL     1     -12.717   9.314  71.965  1.00  0.00    -0.479 C  
BRANCH   4   5
HETATM    5  C   UNL     1     -12.987  10.470  71.013  1.00  0.00    -0.475 C  
BRANCH   5   6
HETATM    6  C   UNL     1     -11.726  10.833  70.236  1.00  0.00    -0.442 C  
BRANCH   6   7
HETATM    7  C   UNL     1     -12.032  11.942  69.243  1.00  0.00    -0.342 C  
BRANCH   7   8
HETATM    8  C   UNL     1     -11.963  13.319  69.896  1.00  0.00    -0.400 C  
BRANCH   8   9
HETATM    9  C   UNL     1     -11.881  14.366  68.795  1.00  0.00    -0.360 C  
BRANCH   9  10
HETATM   10  C   UNL     1     -11.184  15.636  69.264  1.00  0.00    -0.320 C  
BRANCH  10  11
HETATM   11  N   UNL     1     -10.050  16.081  68.303  1.00  0.00    -0.226 N  
HETATM   12  C   UNL     1     -10.573  16.168  66.869  1.00  0.00    -0.283 C  
HETATM   13  C   UNL     1      -9.497  17.442  68.734  1.00  0.00    -0.256 C  
BRANCH  11  14
HETATM   14  C   UNL     1      -8.949  14.995  68.409  1.00  0.00    -0.179 C  
BRANCH  14  15
HETATM   15  C   UNL     1      -8.806  14.180  67.132  1.00  0.00    -0.241 C  
BRANCH  15  16
HETATM   16  C   UNL     1      -8.021  12.896  67.358  1.00  0.00    -0.178 C  
BRANCH  16  17
HETATM   17  C   UNL     1      -9.011  11.773  67.651  1.00  0.00    -0.169 C  
BRANCH  17  18
HETATM   18  C   UNL     1      -9.018  10.731  66.546  1.00  0.00    -0.168 C  
BRANCH  18  19
HETATM   19  C   UNL     1     -10.335  10.796  65.783  1.00  0.00    -0.295 C  
BRANCH  19  20
HETATM   20  C   UNL     1     -10.080  10.982  64.291  1.00  0.00    -0.398 C  
BRANCH  20  21
HETATM   21  C   UNL     1     -10.922  12.125  63.732  1.00  0.00    -0.494 C  
BRANCH  21  22
HETATM   22  C   UNL     1     -12.263  12.208  64.452  1.00  0.00    -0.435 C  
HETATM   23  C   UNL     1     -12.517  13.607  64.984  1.00  0.00    -0.454 C  
ENDBRANCH  21  22
ENDBRANCH  20  21
ENDBRANCH  19  20
ENDBRANCH  18  19
ENDBRANCH  17  18
ENDBRANCH  16  17
ENDBRANCH  15  16
ENDBRANCH  14  15
ENDBRANCH  11  14
ENDBRANCH  10  11
ENDBRANCH   9  10
ENDBRANCH   8   9
ENDBRANCH   7   8
ENDBRANCH   6   7
ENDBRANCH   5   6
ENDBRANCH   4   5
ENDBRANCH   3   4
ENDBRANCH   2   3
TORSDOF 18
ENDMDL
MODEL      111
REMARK 921   NORMALIZED FREE ENERGY PREDICTED BY IDOCK:   -3.43 KCAL/MOL
REMARK 922        TOTAL FREE ENERGY PREDICTED BY IDOCK:   -9.74 KCAL/MOL
REMARK 923 INTER-LIGAND FREE ENERGY PREDICTED BY IDOCK:   -7.36 KCAL/MOL
REMARK 924 INTRA-LIGAND FREE ENERGY PREDICTED BY IDOCK:   -2.38 KCAL/MOL
REMARK 927      BINDING AFFINITY PREDICTED BY RF-SCORE:    0.00 PKD
ROOT
HETATM    1  C   UNL     1     -11.656  11.877  67.063  1.00  0.00    -0.365 C  
HETATM    2  C   UNL     1     -12.054  12.596  65.787  1.00  0.00    -0.484 C  
ENDROOT
BRANCH   2   3
HETATM    3  C   UNL     1     -12.152  14.102  66.010  1.00  0.00    -0.449 C  
BRANCH   3   4
HETATM    4  C   UNL     1     -11.826  14.454  67.456  1.00  0.00    -0.418 C  
BRANCH   4   5
HETATM    5  C   UNL     1     -10.822  15.595  67.525  1.00  0.00    -0.316 C  
BRANCH   5   6
HETATM    6  C   UNL     1      -9.667  15.355  66.557  1.00  0.00    -0.292 C  
BRANCH   6   7
HETATM    7  C   UNL     1      -8.481  14.768  67.303  1.00  0.00    -0.234 C  
BRANCH   7   8
HETATM    8  C   UNL     1      -8.276  13.294  66.967  1.00  0.00    -0.058 C  
BRANCH   8   9
HETATM    9  C   UNL     1      -8.196  12.514  68.271  1.00  0.00    -0.168 C  
BRANCH   9  10
HETATM   10  C   UNL     1      -7.112  11.445  68.231  1.00  0.00    -0.078 C  
BRANCH  10  11
HETATM   11  N   UNL     1      -7.575  10.105  68.859  1.00  0.00    -0.084 N  
HETATM   12  C   UNL     1      -7.135   8.929  67.986  1.00  0.00    -0.079 C  
HETATM   13  C   UNL     1      -6.990   9.951  70.266  1.00  0.00    -0.146 C  
BRANCH  11  14
HETATM   14  C   UNL     1      -9.122  10.176  68.926  1.00  0.00    -0.165 C  
BRANCH  14  15
HETATM   15  C   UNL     1      -9.670   9.743  70.278  1.00  0.00    -0.279 C  
BRANCH  15  16
HETATM   16  C   UNL     1     -11.118   9.283  70.188  1.00  0.00    -0.260 C  
BRANCH  16  17
HETATM   17  C   UNL     1     -11.899   9.929  71.328  1.00  0.00    -0.479 C  
BRANCH  17  18
HETATM   18  C   UNL     1     -12.379  11.323  70.958  1.00  0.00    -0.472 C  
BRANCH  18  19
HETATM   19  C   UNL     1     -13.362  11.825  72.007  1.00  0.00    -0.417 C  
BRANCH  19  20
HETATM   20  C   UNL     1     -13.529  13.337  71.905  1.00  0.00    -0.525 C  
BRANCH  20  21
HETATM   21  C   UNL     1     -12.353  13.967  71.164  1.00  0.00    -0.443 C  
BRANCH  21  22
HETATM   22  C   UNL     1     -12.546  15.474  71.032  1.00  0.00    -0.513 C  
HETATM   23  C   UNL     1     -12.035  16.204  72.260  1.00  0.00    -0.637 C  
ENDBRANCH  21  22
ENDBRANCH  20  21
ENDBRANCH  19  20
ENDBRANCH  18  19
ENDBRANCH  17  18
ENDBRANCH  16  17
ENDBRANCH  15  16
ENDBRANCH  14  15
ENDBRANCH  11  14
ENDBRANCH  10  11
ENDBRANCH   9  10
ENDBRANCH   8   9
ENDBRANCH   7   8
ENDBRANCH   6   7
ENDBRANCH   5   6
ENDBRANCH   4   5
ENDBRANCH   3   4
ENDBRANCH   2   3
TORSDOF 18
ENDMDL
MODEL      112
REMARK 921   NORMALIZED FREE ENERGY PREDICTED BY IDOCK:   -3.43 KCAL/MOL
REMARK 922        TOTAL FREE ENERGY PREDICTED BY IDOCK:   -9.74 KCAL/MOL
REMARK 923 INTER-LIGAND FREE ENERGY PREDICTED BY IDOCK:   -6.98 KCAL/MOL
REMARK 924 INTRA-LIGAND FREE ENERGY PREDICTED BY IDOCK:   -2.76 KCAL/MOL
REMARK 927      BINDING AFFINITY PREDICTED BY RF-SCORE:    0.00 PKD
ROOT
HETATM    1  C   UNL     1     -11.083  12.552  63.655  1.00  0.00    -0.523 C  
HETATM    2  C   UNL     1     -12.502  12.546  64.193  1.00  0.00    -0.518 C  
ENDROOT
BRANCH   2   3
HETATM    3  C   UNL     1     -12.611  13.370  65.472  1.00  0.00    -0.520 C  
BRANCH   3   4
HETATM    4  C   UNL     1     -11.597  12.893  66.506  1.00  0.00    -0.425 C  
BRANCH   4   5
HETATM    5  C   UNL     1     -11.797  13.609  67.834  1.00  0.00    -0.402 C  
BRANCH   5   6
HETATM    6  C   UNL     1     -11.200  12.797  68.978  1.00  0.00    -0.317 C  
BRANCH   6   7
HETATM    7  C   UNL     1     -11.901  11.454  69.080  1.00  0.00    -0.415 C  
BRANCH   7   8
HETATM    8  C   UNL     1     -11.954  10.951  70.519  1.00  0.00    -0.466 C  
BRANCH   8   9
HETATM    9  C   UNL     1     -11.636   9.463  70.518  1.00  0.00    -0.291 C  
BRANCH   9  10
HETATM   10  C   UNL     1     -11.157   8.980  71.881  1.00  0.00    -0.363 C  
BRANCH  10  11
HETATM   11  N   UNL     1     -10.799   7.472  71.885  1.00  0.00    -0.223 N  
HETATM   12  C   UNL     1     -10.852   6.917  73.309  1.00  0.00    -0.290 C  
HETATM   13  C   UNL     1     -11.769   6.695  70.992  1.00  0.00    -0.360 C  
BRANCH  11  14
HETATM   14  C   UNL     1      -9.357   7.373  71.323  1.00  0.00    -0.153 C  
BRANCH  14  15
HETATM   15  C   UNL     1      -8.411   8.382  71.959  1.00  0.00    -0.245 C  
BRANCH  15  16
HETATM   16  C   UNL     1      -7.409   8.938  70.957  1.00  0.00    -0.114 C  
BRANCH  16  17
HETATM   17  C   UNL     1      -8.098   9.050  69.602  1.00  0.00    -0.103 C  
BRANCH  17  18
HETATM   18  C   UNL     1      -8.281  10.500  69.185  1.00  0.00    -0.152 C  
BRANCH  18  19
HETATM   19  C   UNL     1      -8.561  10.576  67.690  1.00  0.00    -0.118 C  
BRANCH  19  20
HETATM   20  C   UNL     1      -9.552   9.494  67.276  1.00  0.00    -0.192 C  
BRANCH  20  21
HETATM   21  C   UNL     1      -9.957   9.653  65.813  1.00  0.00    -0.342 C  
BRANCH  21  22
HETATM   22  C   UNL     1      -8.802  10.222  64.996  1.00  0.00    -0.209 C  
HETATM   23  C   UNL     1      -8.737   9.587  63.619  1.00  0.00    -0.239 C  
ENDBRANCH  21  22
ENDBRANCH  20  21
ENDBRANCH  19  20
ENDBRANCH  18  19
ENDBRANCH  17  18
ENDBRANCH  16  17
ENDBRANCH  15  16
ENDBRANCH  14  15
ENDBRANCH  11  14
ENDBRANCH  10  11
ENDBRANCH   9  10
ENDBRANCH   8   9
ENDBRANCH   7   8
ENDBRANCH   6   7
ENDBRANCH   5   6
ENDBRANCH   4   5
ENDBRANCH   3   4
ENDBRANCH   2   3
TORSDOF 18
ENDMDL
MODEL      113
REMARK 921   NORMALIZED FREE ENERGY PREDICTED BY IDOCK:   -3.42 KCAL/MOL
REMARK 922        TOTAL FREE ENERGY PREDICTED BY IDOCK:   -9.72 KCAL/MOL
REMARK 923 INTER-LIGAND FREE ENERGY PREDICTED BY IDOCK:   -8.52 KCAL/MOL
REMARK 924 INTRA-LIGAND FREE ENERGY PREDICTED BY IDOCK:   -1.20 KCAL/MOL
REMARK 927      BINDING AFFINITY PREDICTED BY RF-SCORE:    0.00 PKD
ROOT
HETATM    1  C   UNL     1      -9.891  10.832  63.588  1.00  0.00    -0.406 C  
HETATM    2  C   UNL     1     -11.011  11.523  64.343  1.00  0.00    -0.390 C  
ENDROOT
BRANCH   2   3
HETATM    3  C   UNL     1     -10.957  13.035  64.149  1.00  0.00    -0.438 C  
BRANCH   3   4
HETATM    4  C   UNL     1     -10.788  13.743  65.488  1.00  0.00    -0.299 C  
BRANCH   4   5
HETATM    5  C   UNL     1     -12.123  13.872  66.207  1.00  0.00    -0.484 C  
BRANCH   5   6
HETATM    6  C   UNL     1     -12.012  13.369  67.642  1.00  0.00    -0.362 C  
BRANCH   6   7
HETATM    7  C   UNL     1     -10.710  13.850  68.260  1.00  0.00    -0.261 C  
BRANCH   7   8
HETATM    8  C   UNL     1     -10.886  15.181  68.984  1.00  0.00    -0.242 C  
BRANCH   8   9
HETATM    9  C   UNL     1     -12.155  15.105  69.821  1.00  0.00    -0.354 C  
BRANCH   9  10
HETATM   10  C   UNL     1     -11.969  14.247  71.065  1.00  0.00    -0.303 C  
BRANCH  10  11
HETATM   11  N   UNL     1     -13.196  14.297  72.012  1.00  0.00    -0.357 N  
HETATM   12  C   UNL     1     -12.778  14.791  73.397  1.00  0.00    -0.466 C  
HETATM   13  C   UNL     1     -14.271  15.223  71.436  1.00  0.00    -0.485 C  
BRANCH  11  14
HETATM   14  C   UNL     1     -13.730  12.844  72.098  1.00  0.00    -0.414 C  
BRANCH  14  15
HETATM   15  C   UNL     1     -12.852  11.853  71.348  1.00  0.00    -0.411 C  
BRANCH  15  16
HETATM   16  C   UNL     1     -13.373  10.427  71.460  1.00  0.00    -0.405 C  
BRANCH  16  17
HETATM   17  C   UNL     1     -12.239   9.540  71.961  1.00  0.00    -0.370 C  
BRANCH  17  18
HETATM   18  C   UNL     1     -12.613   8.068  71.907  1.00  0.00    -0.359 C  
BRANCH  18  19
HETATM   19  C   UNL     1     -11.365   7.226  71.681  1.00  0.00    -0.285 C  
BRANCH  19  20
HETATM   20  C   UNL     1     -10.868   7.379  70.248  1.00  0.00    -0.260 C  
BRANCH  20  21
HETATM   21  C   UNL     1     -11.402   6.257  69.362  1.00  0.00    -0.448 C  
BRANCH  21  22
HETATM   22  C   UNL     1     -10.432   5.962  68.224  1.00  0.00    -0.293 C  
HETATM   23  C   UNL     1     -10.901   6.589  66.924  1.00  0.00    -0.427 C  
ENDBRANCH  21  22
ENDBRANCH  20  21
ENDBRANCH  19  20
ENDBRANCH  18  19
ENDBRANCH  17  18
ENDBRANCH  16  17
ENDBRANCH  15  16
ENDBRANCH  14  15
ENDBRANCH  11  14
ENDBRANCH  10  11
ENDBRANCH   9  10
ENDBRANCH   8   9
ENDBRANCH   7   8
ENDBRANCH   6   7
ENDBRANCH   5   6
ENDBRANCH   4   5
ENDBRANCH   3   4
ENDBRANCH   2   3
TORSDOF 18
ENDMDL
MODEL      114
REMARK 921   NORMALIZED FREE ENERGY PREDICTED BY IDOCK:   -3.42 KCAL/MOL
REMARK 922        TOTAL FREE ENERGY PREDICTED BY IDOCK:   -9.72 KCAL/MOL
REMARK 923 INTER-LIGAND FREE ENERGY PREDICTED BY IDOCK:   -6.23 KCAL/MOL
REMARK 924 INTRA-LIGAND FREE ENERGY PREDICTED BY IDOCK:   -3.49 KCAL/MOL
REMARK 927      BINDING AFFINITY PREDICTED BY RF-SCORE:    0.00 PKD
ROOT
HETATM    1  C   UNL     1      -7.445  11.066  68.049  1.00  0.00    -0.090 C  
HETATM    2  C   UNL     1      -8.241  10.503  69.212  1.00  0.00    -0.151 C  
ENDROOT
BRANCH   2   3
HETATM    3  C   UNL     1      -8.670   9.064  68.942  1.00  0.00    -0.136 C  
BRANCH   3   4
HETATM    4  C   UNL     1      -8.440   8.699  67.480  1.00  0.00    -0.124 C  
BRANCH   4   5
HETATM    5  C   UNL     1      -9.106   7.374  67.140  1.00  0.00    -0.146 C  
BRANCH   5   6
HETATM    6  C   UNL     1     -10.622   7.485  67.270  1.00  0.00    -0.394 C  
BRANCH   6   7
HETATM    7  C   UNL     1     -11.139   6.408  68.208  1.00  0.00    -0.359 C  
BRANCH   7   8
HETATM    8  C   UNL     1     -10.000   5.610  68.836  1.00  0.00    -0.222 C  
BRANCH   8   9
HETATM    9  C   UNL     1     -10.370   5.306  70.280  1.00  0.00    -0.350 C  
BRANCH   9  10
HETATM   10  C   UNL     1      -9.664   6.235  71.258  1.00  0.00    -0.174 C  
BRANCH  10  11
HETATM   11  N   UNL     1     -10.619   6.791  72.346  1.00  0.00    -0.208 N  
HETATM   12  C   UNL     1     -12.035   6.252  72.135  1.00  0.00    -0.287 C  
HETATM   13  C   UNL     1     -10.120   6.401  73.739  1.00  0.00    -0.266 C  
BRANCH  11  14
HETATM   14  C   UNL     1     -10.601   8.333  72.182  1.00  0.00    -0.310 C  
BRANCH  14  15
HETATM   15  C   UNL     1     -11.569   8.819  71.114  1.00  0.00    -0.344 C  
BRANCH  15  16
HETATM   16  C   UNL     1     -11.606  10.338  71.022  1.00  0.00    -0.430 C  
BRANCH  16  17
HETATM   17  C   UNL     1     -12.392  10.725  69.774  1.00  0.00    -0.305 C  
BRANCH  17  18
HETATM   18  C   UNL     1     -11.763  11.910  69.060  1.00  0.00    -0.391 C  
BRANCH  18  19
HETATM   19  C   UNL     1     -11.376  11.511  67.642  1.00  0.00    -0.358 C  
BRANCH  19  20
HETATM   20  C   UNL     1     -10.673  12.665  66.935  1.00  0.00    -0.264 C  
BRANCH  20  21
HETATM   21  C   UNL     1      -9.993  12.188  65.656  1.00  0.00    -0.271 C  
BRANCH  21  22
HETATM   22  C   UNL     1     -10.365  10.740  65.356  1.00  0.00    -0.315 C  
HETATM   23  C   UNL     1      -9.554  10.192  64.196  1.00  0.00    -0.336 C  
ENDBRANCH  21  22
ENDBRANCH  20  21
ENDBRANCH  19  20
ENDBRANCH  18  19
ENDBRANCH  17  18
ENDBRANCH  16  17
ENDBRANCH  15  16
ENDBRANCH  14  15
ENDBRANCH  11  14
ENDBRANCH  10  11
ENDBRANCH   9  10
ENDBRANCH   8   9
ENDBRANCH   7   8
ENDBRANCH   6   7
ENDBRANCH   5   6
ENDBRANCH   4   5
ENDBRANCH   3   4
ENDBRANCH   2   3
TORSDOF 18
ENDMDL
MODEL      115
REMARK 921   NORMALIZED FREE ENERGY PREDICTED BY IDOCK:   -3.41 KCAL/MOL
REMARK 922        TOTAL FREE ENERGY PREDICTED BY IDOCK:   -9.71 KCAL/MOL
REMARK 923 INTER-LIGAND FREE ENERGY PREDICTED BY IDOCK:   -7.28 KCAL/MOL
REMARK 924 INTRA-LIGAND FREE ENERGY PREDICTED BY IDOCK:   -2.43 KCAL/MOL
REMARK 927      BINDING AFFINITY PREDICTED BY RF-SCORE:    0.00 PKD
ROOT
HETATM    1  C   UNL     1     -14.374   8.366  71.789  1.00  0.00    -0.558 C  
HETATM    2  C   UNL     1     -13.650   9.454  71.018  1.00  0.00    -0.120 C  
ENDROOT
BRANCH   2   3
HETATM    3  C   UNL     1     -12.434   9.960  71.788  1.00  0.00    -0.487 C  
BRANCH   3   4
HETATM    4  C   UNL     1     -11.151   9.367  71.217  1.00  0.00    -0.446 C  
BRANCH   4   5
HETATM    5  C   UNL     1     -10.496   8.425  72.216  1.00  0.00    -0.407 C  
BRANCH   5   6
HETATM    6  C   UNL     1     -10.081   7.124  71.536  1.00  0.00    -0.197 C  
BRANCH   6   7
HETATM    7  C   UNL     1     -11.275   6.507  70.828  1.00  0.00    -0.377 C  
BRANCH   7   8
HETATM    8  C   UNL     1     -10.896   5.952  69.459  1.00  0.00    -0.442 C  
BRANCH   8   9
HETATM    9  C   UNL     1      -9.437   6.293  69.193  1.00  0.00    -0.139 C  
BRANCH   9  10
HETATM   10  C   UNL     1      -9.180   6.601  67.724  1.00  0.00    -0.111 C  
BRANCH  10  11
HETATM   11  N   UNL     1      -8.890   8.103  67.472  1.00  0.00    -0.134 N  
HETATM   12  C   UNL     1      -8.263   8.738  68.714  1.00  0.00    -0.116 C  
HETATM   13  C   UNL     1      -7.948   8.267  66.277  1.00  0.00    -0.100 C  
BRANCH  11  14
HETATM   14  C   UNL     1     -10.262   8.759  67.168  1.00  0.00    -0.276 C  
BRANCH  14  15
HETATM   15  C   UNL     1     -10.164  10.268  66.997  1.00  0.00    -0.282 C  
BRANCH  15  16
HETATM   16  C   UNL     1     -11.270  11.001  67.742  1.00  0.00    -0.374 C  
BRANCH  16  17
HETATM   17  C   UNL     1     -10.692  12.294  68.309  1.00  0.00    -0.244 C  
BRANCH  17  18
HETATM   18  C   UNL     1     -11.708  13.422  68.280  1.00  0.00    -0.391 C  
BRANCH  18  19
HETATM   19  C   UNL     1     -11.913  13.896  66.847  1.00  0.00    -0.467 C  
BRANCH  19  20
HETATM   20  C   UNL     1     -10.642  14.549  66.313  1.00  0.00    -0.304 C  
BRANCH  20  21
HETATM   21  C   UNL     1     -10.548  14.402  64.797  1.00  0.00    -0.417 C  
BRANCH  21  22
HETATM   22  C   UNL     1     -10.217  12.963  64.416  1.00  0.00    -0.342 C  
HETATM   23  C   UNL     1     -11.332  12.341  63.596  1.00  0.00    -0.547 C  
ENDBRANCH  21  22
ENDBRANCH  20  21
ENDBRANCH  19  20
ENDBRANCH  18  19
ENDBRANCH  17  18
ENDBRANCH  16  17
ENDBRANCH  15  16
ENDBRANCH  14  15
ENDBRANCH  11  14
ENDBRANCH  10  11
ENDBRANCH   9  10
ENDBRANCH   8   9
ENDBRANCH   7   8
ENDBRANCH   6   7
ENDBRANCH   5   6
ENDBRANCH   4   5
ENDBRANCH   3   4
ENDBRANCH   2   3
TORSDOF 18
ENDMDL
MODEL      116
REMARK 921   NORMALIZED FREE ENERGY PREDICTED BY IDOCK:   -3.40 KCAL/MOL
REMARK 922        TOTAL FREE ENERGY PREDICTED BY IDOCK:   -9.68 KCAL/MOL
REMARK 923 INTER-LIGAND FREE ENERGY PREDICTED BY IDOCK:   -7.00 KCAL/MOL
REMARK 924 INTRA-LIGAND FREE ENERGY PREDICTED BY IDOCK:   -2.68 KCAL/MOL
REMARK 927      BINDING AFFINITY PREDICTED BY RF-SCORE:    0.00 PKD
ROOT
HETATM    1  C   UNL     1     -12.678  12.630  64.740  1.00  0.00    -0.460 C  
HETATM    2  C   UNL     1     -11.801  12.801  63.514  1.00  0.00    -0.618 C  
ENDROOT
BRANCH   2   3
HETATM    3  C   UNL     1     -10.496  12.024  63.657  1.00  0.00    -0.494 C  
BRANCH   3   4
HETATM    4  C   UNL     1     -10.518  11.162  64.914  1.00  0.00    -0.372 C  
BRANCH   4   5
HETATM    5  C   UNL     1      -9.384  11.542  65.854  1.00  0.00    -0.242 C  
BRANCH   5   6
HETATM    6  C   UNL     1      -9.933  12.000  67.202  1.00  0.00    -0.208 C  
BRANCH   6   7
HETATM    7  C   UNL     1     -10.673  10.856  67.874  1.00  0.00    -0.274 C  
BRANCH   7   8
HETATM    8  C   UNL     1     -10.027  10.468  69.201  1.00  0.00    -0.236 C  
BRANCH   8   9
HETATM    9  C   UNL     1     -11.116   9.947  70.128  1.00  0.00    -0.353 C  
BRANCH   9  10
HETATM   10  C   UNL     1     -10.539   9.298  71.379  1.00  0.00    -0.347 C  
BRANCH  10  11
HETATM   11  N   UNL     1     -11.468   8.203  71.963  1.00  0.00    -0.296 N  
HETATM   12  C   UNL     1     -10.782   7.493  73.131  1.00  0.00    -0.398 C  
HETATM   13  C   UNL     1     -12.784   8.824  72.438  1.00  0.00    -0.368 C  
BRANCH  11  14
HETATM   14  C   UNL     1     -11.732   7.205  70.807  1.00  0.00    -0.323 C  
BRANCH  14  15
HETATM   15  C   UNL     1     -10.816   5.991  70.861  1.00  0.00    -0.349 C  
BRANCH  15  16
HETATM   16  C   UNL     1     -10.385   5.537  69.474  1.00  0.00    -0.357 C  
BRANCH  16  17
HETATM   17  C   UNL     1     -11.016   6.470  68.446  1.00  0.00    -0.358 C  
BRANCH  17  18
HETATM   18  C   UNL     1     -10.339   6.350  67.091  1.00  0.00    -0.293 C  
BRANCH  18  19
HETATM   19  C   UNL     1     -10.034   7.738  66.543  1.00  0.00    -0.244 C  
BRANCH  19  20
HETATM   20  C   UNL     1      -8.681   7.750  65.838  1.00  0.00    -0.175 C  
BRANCH  20  21
HETATM   21  C   UNL     1      -7.668   8.584  66.616  1.00  0.00    -0.090 C  
BRANCH  21  22
HETATM   22  C   UNL     1      -6.665   7.684  67.330  1.00  0.00    -0.068 C  
HETATM   23  C   UNL     1      -6.978   7.579  68.812  1.00  0.00    -0.078 C  
ENDBRANCH  21  22
ENDBRANCH  20  21
ENDBRANCH  19  20
ENDBRANCH  18  19
ENDBRANCH  17  18
ENDBRANCH  16  17
ENDBRANCH  15  16
ENDBRANCH  14  15
ENDBRANCH  11  14
ENDBRANCH  10  11
ENDBRANCH   9  10
ENDBRANCH   8   9
ENDBRANCH   7   8
ENDBRANCH   6   7
ENDBRANCH   5   6
ENDBRANCH   4   5
ENDBRANCH   3   4
ENDBRANCH   2   3
TORSDOF 18
ENDMDL
MODEL      117
REMARK 921   NORMALIZED FREE ENERGY PREDICTED BY IDOCK:   -3.39 KCAL/MOL
REMARK 922        TOTAL FREE ENERGY PREDICTED BY IDOCK:   -9.67 KCAL/MOL
REMARK 923 INTER-LIGAND FREE ENERGY PREDICTED BY IDOCK:   -6.86 KCAL/MOL
REMARK 924 INTRA-LIGAND FREE ENERGY PREDICTED BY IDOCK:   -2.81 KCAL/MOL
REMARK 927      BINDING AFFINITY PREDICTED BY RF-SCORE:    0.00 PKD
ROOT
HETATM    1  C   UNL     1      -8.130   5.619  65.573  1.00  0.00    -0.123 C  
HETATM    2  C   UNL     1      -9.462   4.895  65.653  1.00  0.00    -0.168 C  
ENDROOT
BRANCH   2   3
HETATM    3  C   UNL     1      -9.630   4.196  66.998  1.00  0.00    -0.228 C  
BRANCH   3   4
HETATM    4  C   UNL     1      -8.892   4.955  68.095  1.00  0.00    -0.113 C  
BRANCH   4   5
HETATM    5  C   UNL     1      -9.838   5.331  69.226  1.00  0.00    -0.256 C  
BRANCH   5   6
HETATM    6  C   UNL     1     -10.961   6.228  68.713  1.00  0.00    -0.424 C  
BRANCH   6   7
HETATM    7  C   UNL     1     -10.450   7.647  68.539  1.00  0.00    -0.206 C  
BRANCH   7   8
HETATM    8  C   UNL     1     -10.601   8.130  67.099  1.00  0.00    -0.355 C  
BRANCH   8   9
HETATM    9  C   UNL     1      -9.707   9.346  66.907  1.00  0.00    -0.242 C  
BRANCH   9  10
HETATM   10  C   UNL     1     -10.511  10.605  66.609  1.00  0.00    -0.237 C  
BRANCH  10  11
HETATM   11  N   UNL     1     -10.196  11.759  67.596  1.00  0.00    -0.197 N  
HETATM   12  C   UNL     1      -9.248  11.275  68.694  1.00  0.00    -0.161 C  
HETATM   13  C   UNL     1      -9.563  12.935  66.849  1.00  0.00    -0.240 C  
BRANCH  11  14
HETATM   14  C   UNL     1     -11.556  12.181  68.209  1.00  0.00    -0.325 C  
BRANCH  14  15
HETATM   15  C   UNL     1     -11.937  11.343  69.420  1.00  0.00    -0.407 C  
BRANCH  15  16
HETATM   16  C   UNL     1     -12.291  12.205  70.624  1.00  0.00    -0.385 C  
BRANCH  16  17
HETATM   17  C   UNL     1     -12.979  11.323  71.661  1.00  0.00    -0.537 C  
BRANCH  17  18
HETATM   18  C   UNL     1     -13.260   9.933  71.116  1.00  0.00    -0.424 C  
BRANCH  18  19
HETATM   19  C   UNL     1     -13.203   8.915  72.246  1.00  0.00    -0.498 C  
BRANCH  19  20
HETATM   20  C   UNL     1     -12.292   7.750  71.872  1.00  0.00    -0.342 C  
BRANCH  20  21
HETATM   21  C   UNL     1     -11.062   7.707  72.774  1.00  0.00    -0.437 C  
BRANCH  21  22
HETATM   22  C   UNL     1      -9.939   8.558  72.192  1.00  0.00    -0.387 C  
HETATM   23  C   UNL     1      -8.666   7.750  72.023  1.00  0.00    -0.162 C  
ENDBRANCH  21  22
ENDBRANCH  20  21
ENDBRANCH  19  20
ENDBRANCH  18  19
ENDBRANCH  17  18
ENDBRANCH  16  17
ENDBRANCH  15  16
ENDBRANCH  14  15
ENDBRANCH  11  14
ENDBRANCH  10  11
ENDBRANCH   9  10
ENDBRANCH   8   9
ENDBRANCH   7   8
ENDBRANCH   6   7
ENDBRANCH   5   6
ENDBRANCH   4   5
ENDBRANCH   3   4
ENDBRANCH   2   3
TORSDOF 18
ENDMDL
MODEL      118
REMARK 921   NORMALIZED FREE ENERGY PREDICTED BY IDOCK:   -3.39 KCAL/MOL
REMARK 922        TOTAL FREE ENERGY PREDICTED BY IDOCK:   -9.65 KCAL/MOL
REMARK 923 INTER-LIGAND FREE ENERGY PREDICTED BY IDOCK:   -7.53 KCAL/MOL
REMARK 924 INTRA-LIGAND FREE ENERGY PREDICTED BY IDOCK:   -2.12 KCAL/MOL
REMARK 927      BINDING AFFINITY PREDICTED BY RF-SCORE:    0.00 PKD
ROOT
HETATM    1  C   UNL     1     -11.701  12.824  63.430  1.00  0.00    -0.556 C  
HETATM    2  C   UNL     1     -12.308  12.666  64.812  1.00  0.00    -0.556 C  
ENDROOT
BRANCH   2   3
HETATM    3  C   UNL     1     -12.356  14.001  65.549  1.00  0.00    -0.503 C  
BRANCH   3   4
HETATM    4  C   UNL     1     -12.115  13.801  67.041  1.00  0.00    -0.436 C  
BRANCH   4   5
HETATM    5  C   UNL     1     -10.630  13.658  67.337  1.00  0.00    -0.260 C  
BRANCH   5   6
HETATM    6  C   UNL     1     -10.380  12.488  68.283  1.00  0.00    -0.241 C  
BRANCH   6   7
HETATM    7  C   UNL     1     -11.655  12.153  69.039  1.00  0.00    -0.374 C  
BRANCH   7   8
HETATM    8  C   UNL     1     -11.815  10.649  69.238  1.00  0.00    -0.309 C  
BRANCH   8   9
HETATM    9  C   UNL     1     -11.360  10.302  70.648  1.00  0.00    -0.431 C  
BRANCH   9  10
HETATM   10  C   UNL     1     -10.555   9.010  70.687  1.00  0.00    -0.236 C  
BRANCH  10  11
HETATM   11  N   UNL     1     -11.129   7.981  71.695  1.00  0.00    -0.244 N  
HETATM   12  C   UNL     1     -10.206   7.853  72.907  1.00  0.00    -0.330 C  
HETATM   13  C   UNL     1     -12.525   8.411  72.152  1.00  0.00    -0.370 C  
BRANCH  11  14
HETATM   14  C   UNL     1     -11.206   6.633  70.932  1.00  0.00    -0.302 C  
BRANCH  14  15
HETATM   15  C   UNL     1     -11.616   6.807  69.477  1.00  0.00    -0.183 C  
BRANCH  15  16
HETATM   16  C   UNL     1     -10.871   5.852  68.555  1.00  0.00    -0.323 C  
BRANCH  16  17
HETATM   17  C   UNL     1     -10.868   6.446  67.150  1.00  0.00    -0.467 C  
BRANCH  17  18
HETATM   18  C   UNL     1     -10.414   7.896  67.157  1.00  0.00    -0.414 C  
BRANCH  18  19
HETATM   19  C   UNL     1      -8.898   7.962  67.289  1.00  0.00    -0.131 C  
BRANCH  19  20
HETATM   20  C   UNL     1      -8.275   8.543  66.025  1.00  0.00    -0.118 C  
BRANCH  20  21
HETATM   21  C   UNL     1      -9.127   9.680  65.469  1.00  0.00    -0.252 C  
BRANCH  21  22
HETATM   22  C   UNL     1      -8.461  10.302  64.246  1.00  0.00    -0.181 C  
HETATM   23  C   UNL     1      -9.258  10.025  62.985  1.00  0.00    -0.313 C  
ENDBRANCH  21  22
ENDBRANCH  20  21
ENDBRANCH  19  20
ENDBRANCH  18  19
ENDBRANCH  17  18
ENDBRANCH  16  17
ENDBRANCH  15  16
ENDBRANCH  14  15
ENDBRANCH  11  14
ENDBRANCH  10  11
ENDBRANCH   9  10
ENDBRANCH   8   9
ENDBRANCH   7   8
ENDBRANCH   6   7
ENDBRANCH   5   6
ENDBRANCH   4   5
ENDBRANCH   3   4
ENDBRANCH   2   3
TORSDOF 18
ENDMDL
MODEL      119
REMARK 921   NORMALIZED FREE ENERGY PREDICTED BY IDOCK:   -3.38 KCAL/MOL
REMARK 922        TOTAL FREE ENERGY PREDICTED BY IDOCK:   -9.65 KCAL/MOL
REMARK 923 INTER-LIGAND FREE ENERGY PREDICTED BY IDOCK:   -7.20 KCAL/MOL
REMARK 924 INTRA-LIGAND FREE ENERGY PREDICTED BY IDOCK:   -2.45 KCAL/MOL
REMARK 927      BINDING AFFINITY PREDICTED BY RF-SCORE:    0.00 PKD
ROOT
HETATM    1  C   UNL     1     -12.386  11.333  71.237  1.00  0.00    -0.375 C  
HETATM    2  C   UNL     1     -13.146  10.122  70.730  1.00  0.00    -0.351 C  
ENDROOT
BRANCH   2   3
HETATM    3  C   UNL     1     -13.430   9.136  71.859  1.00  0.00    -0.492 C  
BRANCH   3   4
HETATM    4  C   UNL     1     -13.325   7.700  71.358  1.00  0.00    -0.340 C  
BRANCH   4   5
HETATM    5  C   UNL     1     -11.916   7.158  71.550  1.00  0.00    -0.361 C  
BRANCH   5   6
HETATM    6  C   UNL     1     -11.252   7.804  72.762  1.00  0.00    -0.456 C  
BRANCH   6   7
HETATM    7  C   UNL     1      -9.920   8.412  72.360  1.00  0.00    -0.380 C  
BRANCH   7   8
HETATM    8  C   UNL     1      -9.623   8.191  70.880  1.00  0.00    -0.187 C  
BRANCH   8   9
HETATM    9  C   UNL     1      -9.314   9.540  70.248  1.00  0.00    -0.305 C  
BRANCH   9  10
HETATM   10  C   UNL     1      -9.496   9.518  68.736  1.00  0.00    -0.147 C  
BRANCH  10  11
HETATM   11  N   UNL     1      -8.269  10.091  67.981  1.00  0.00    -0.115 N  
HETATM   12  C   UNL     1      -7.473  11.026  68.892  1.00  0.00    -0.123 C  
HETATM   13  C   UNL     1      -7.368   8.953  67.495  1.00  0.00    -0.081 C  
BRANCH  11  14
HETATM   14  C   UNL     1      -8.840  10.877  66.772  1.00  0.00    -0.145 C  
BRANCH  14  15
HETATM   15  C   UNL     1     -10.361  10.911  66.762  1.00  0.00    -0.289 C  
BRANCH  15  16
HETATM   16  C   UNL     1     -10.901  12.332  66.672  1.00  0.00    -0.296 C  
BRANCH  16  17
HETATM   17  C   UNL     1     -11.738  12.607  67.917  1.00  0.00    -0.412 C  
BRANCH  17  18
HETATM   18  C   UNL     1     -11.054  13.596  68.845  1.00  0.00    -0.292 C  
BRANCH  18  19
HETATM   19  C   UNL     1     -11.285  15.016  68.345  1.00  0.00    -0.303 C  
BRANCH  19  20
HETATM   20  C   UNL     1     -11.502  15.968  69.516  1.00  0.00    -0.326 C  
BRANCH  20  21
HETATM   21  C   UNL     1     -11.514  15.210  70.841  1.00  0.00    -0.363 C  
BRANCH  21  22
HETATM   22  C   UNL     1     -12.931  15.119  71.395  1.00  0.00    -0.476 C  
HETATM   23  C   UNL     1     -12.923  14.798  72.879  1.00  0.00    -0.583 C  
ENDBRANCH  21  22
ENDBRANCH  20  21
ENDBRANCH  19  20
ENDBRANCH  18  19
ENDBRANCH  17  18
ENDBRANCH  16  17
ENDBRANCH  15  16
ENDBRANCH  14  15
ENDBRANCH  11  14
ENDBRANCH  10  11
ENDBRANCH   9  10
ENDBRANCH   8   9
ENDBRANCH   7   8
ENDBRANCH   6   7
ENDBRANCH   5   6
ENDBRANCH   4   5
ENDBRANCH   3   4
ENDBRANCH   2   3
TORSDOF 18
ENDMDL
MODEL      120
REMARK 921   NORMALIZED FREE ENERGY PREDICTED BY IDOCK:   -3.38 KCAL/MOL
REMARK 922        TOTAL FREE ENERGY PREDICTED BY IDOCK:   -9.63 KCAL/MOL
REMARK 923 INTER-LIGAND FREE ENERGY PREDICTED BY IDOCK:   -6.72 KCAL/MOL
REMARK 924 INTRA-LIGAND FREE ENERGY PREDICTED BY IDOCK:   -2.92 KCAL/MOL
REMARK 927      BINDING AFFINITY PREDICTED BY RF-SCORE:    0.00 PKD
ROOT
HETATM    1  C   UNL     1     -11.867  15.882  71.421  1.00  0.00    -0.524 C  
HETATM    2  C   UNL     1     -12.014  14.373  71.363  1.00  0.00    -0.337 C  
ENDROOT
BRANCH   2   3
HETATM    3  C   UNL     1     -11.865  13.858  69.934  1.00  0.00    -0.394 C  
BRANCH   3   4
HETATM    4  C   UNL     1     -12.157  12.364  69.867  1.00  0.00    -0.317 C  
BRANCH   4   5
HETATM    5  C   UNL     1     -11.195  11.664  68.919  1.00  0.00    -0.306 C  
BRANCH   5   6
HETATM    6  C   UNL     1     -10.271  12.674  68.247  1.00  0.00    -0.240 C  
BRANCH   6   7
HETATM    7  C   UNL     1      -8.852  12.132  68.210  1.00  0.00    -0.182 C  
BRANCH   7   8
HETATM    8  C   UNL     1      -7.985  12.888  67.208  1.00  0.00    -0.151 C  
BRANCH   8   9
HETATM    9  C   UNL     1      -7.149  13.905  67.972  1.00  0.00    -0.145 C  
BRANCH   9  10
HETATM   10  C   UNL     1      -7.381  15.325  67.475  1.00  0.00    -0.196 C  
BRANCH  10  11
HETATM   11  N   UNL     1      -8.018  16.237  68.555  1.00  0.00    -0.174 N  
HETATM   12  C   UNL     1      -8.402  15.415  69.786  1.00  0.00    -0.006 C  
HETATM   13  C   UNL     1      -7.038  17.343  68.958  1.00  0.00    -0.233 C  
BRANCH  11  14
HETATM   14  C   UNL     1      -9.283  16.853  67.904  1.00  0.00    -0.234 C  
BRANCH  14  15
HETATM   15  C   UNL     1      -9.679  16.147  66.615  1.00  0.00    -0.260 C  
BRANCH  15  16
HETATM   16  C   UNL     1     -11.074  15.545  66.697  1.00  0.00    -0.193 C  
BRANCH  16  17
HETATM   17  C   UNL     1     -11.340  14.771  65.410  1.00  0.00    -0.356 C  
BRANCH  17  18
HETATM   18  C   UNL     1     -12.448  13.748  65.590  1.00  0.00    -0.541 C  
BRANCH  18  19
HETATM   19  C   UNL     1     -12.215  12.565  64.659  1.00  0.00    -0.524 C  
BRANCH  19  20
HETATM   20  C   UNL     1     -10.818  12.630  64.051  1.00  0.00    -0.452 C  
BRANCH  20  21
HETATM   21  C   UNL     1     -10.255  11.231  63.823  1.00  0.00    -0.431 C  
BRANCH  21  22
HETATM   22  C   UNL     1     -10.235  10.441  65.127  1.00  0.00    -0.326 C  
HETATM   23  C   UNL     1      -8.836   9.947  65.450  1.00  0.00    -0.196 C  
ENDBRANCH  21  22
ENDBRANCH  20  21
ENDBRANCH  19  20
ENDBRANCH  18  19
ENDBRANCH  17  18
ENDBRANCH  16  17
ENDBRANCH  15  16
ENDBRANCH  14  15
ENDBRANCH  11  14
ENDBRANCH  10  11
ENDBRANCH   9  10
ENDBRANCH   8   9
ENDBRANCH   7   8
ENDBRANCH   6   7
ENDBRANCH   5   6
ENDBRANCH   4   5
ENDBRANCH   3   4
ENDBRANCH   2   3
TORSDOF 18
ENDMDL
MODEL      121
REMARK 921   NORMALIZED FREE ENERGY PREDICTED BY IDOCK:   -3.37 KCAL/MOL
REMARK 922        TOTAL FREE ENERGY PREDICTED BY IDOCK:   -9.61 KCAL/MOL
REMARK 923 INTER-LIGAND FREE ENERGY PREDICTED BY IDOCK:   -7.61 KCAL/MOL
REMARK 924 INTRA-LIGAND FREE ENERGY PREDICTED BY IDOCK:   -2.00 KCAL/MOL
REMARK 927      BINDING AFFINITY PREDICTED BY RF-SCORE:    0.00 PKD
ROOT
HETATM    1  C   UNL     1     -12.523  12.464  71.017  1.00  0.00    -0.353 C  
HETATM    2  C   UNL     1     -13.313  11.480  71.860  1.00  0.00    -0.408 C  
ENDROOT
BRANCH   2   3
HETATM    3  C   UNL     1     -12.964  10.039  71.499  1.00  0.00    -0.535 C  
BRANCH   3   4
HETATM    4  C   UNL     1     -13.895   9.066  72.212  1.00  0.00    -0.547 C  
BRANCH   4   5
HETATM    5  C   UNL     1     -13.625   7.634  71.772  1.00  0.00    -0.392 C  
BRANCH   5   6
HETATM    6  C   UNL     1     -12.125   7.357  71.732  1.00  0.00    -0.345 C  
BRANCH   6   7
HETATM    7  C   UNL     1     -11.786   6.525  70.507  1.00  0.00    -0.438 C  
BRANCH   7   8
HETATM    8  C   UNL     1     -10.443   5.817  70.660  1.00  0.00    -0.331 C  
BRANCH   8   9
HETATM    9  C   UNL     1      -9.860   5.594  69.272  1.00  0.00    -0.230 C  
BRANCH   9  10
HETATM   10  C   UNL     1      -9.205   6.852  68.718  1.00  0.00    -0.131 C  
BRANCH  10  11
HETATM   11  N   UNL     1      -9.784   7.267  67.341  1.00  0.00    -0.143 N  
HETATM   12  C   UNL     1      -8.699   7.194  66.265  1.00  0.00    -0.146 C  
HETATM   13  C   UNL     1     -10.951   6.353  66.960  1.00  0.00    -0.389 C  
BRANCH  11  14
HETATM   14  C   UNL     1     -10.278   8.727  67.507  1.00  0.00    -0.246 C  
BRANCH  14  15
HETATM   15  C   UNL     1      -9.957   9.301  68.879  1.00  0.00    -0.190 C  
BRANCH  15  16
HETATM   16  C   UNL     1      -8.958  10.447  68.801  1.00  0.00    -0.157 C  
BRANCH  16  17
HETATM   17  C   UNL     1      -9.394  11.388  67.683  1.00  0.00    -0.159 C  
BRANCH  17  18
HETATM   18  C   UNL     1     -10.386  12.427  68.179  1.00  0.00    -0.231 C  
BRANCH  18  19
HETATM   19  C   UNL     1     -11.645  12.388  67.324  1.00  0.00    -0.435 C  
BRANCH  19  20
HETATM   20  C   UNL     1     -11.312  11.958  65.900  1.00  0.00    -0.365 C  
BRANCH  20  21
HETATM   21  C   UNL     1     -12.350  12.484  64.913  1.00  0.00    -0.539 C  
BRANCH  21  22
HETATM   22  C   UNL     1     -12.763  13.906  65.274  1.00  0.00    -0.485 C  
HETATM   23  C   UNL     1     -11.966  14.929  64.485  1.00  0.00    -0.420 C  
ENDBRANCH  21  22
ENDBRANCH  20  21
ENDBRANCH  19  20
ENDBRANCH  18  19
ENDBRANCH  17  18
ENDBRANCH  16  17
ENDBRANCH  15  16
ENDBRANCH  14  15
ENDBRANCH  11  14
ENDBRANCH  10  11
ENDBRANCH   9  10
ENDBRANCH   8   9
ENDBRANCH   7   8
ENDBRANCH   6   7
ENDBRANCH   5   6
ENDBRANCH   4   5
ENDBRANCH   3   4
ENDBRANCH   2   3
TORSDOF 18
ENDMDL
MODEL      122
REMARK 921   NORMALIZED FREE ENERGY PREDICTED BY IDOCK:   -3.37 KCAL/MOL
REMARK 922        TOTAL FREE ENERGY PREDICTED BY IDOCK:   -9.61 KCAL/MOL
REMARK 923 INTER-LIGAND FREE ENERGY PREDICTED BY IDOCK:   -7.80 KCAL/MOL
REMARK 924 INTRA-LIGAND FREE ENERGY PREDICTED BY IDOCK:   -1.81 KCAL/MOL
REMARK 927      BINDING AFFINITY PREDICTED BY RF-SCORE:    0.00 PKD
ROOT
HETATM    1  C   UNL     1      -6.369  19.653  69.725  1.00  0.00    -0.366 C  
HETATM    2  C   UNL     1      -6.890  18.827  68.564  1.00  0.00    -0.285 C  
ENDROOT
BRANCH   2   3
HETATM    3  C   UNL     1      -8.410  18.914  68.463  1.00  0.00    -0.384 C  
BRANCH   3   4
HETATM    4  C   UNL     1      -9.007  17.548  68.147  1.00  0.00    -0.266 C  
BRANCH   4   5
HETATM    5  C   UNL     1     -10.522  17.571  68.289  1.00  0.00    -0.383 C  
BRANCH   5   6
HETATM    6  C   UNL     1     -11.015  16.310  68.993  1.00  0.00    -0.325 C  
BRANCH   6   7
HETATM    7  C   UNL     1     -10.332  15.088  68.403  1.00  0.00    -0.231 C  
BRANCH   7   8
HETATM    8  C   UNL     1     -11.059  14.578  67.163  1.00  0.00    -0.325 C  
BRANCH   8   9
HETATM    9  C   UNL     1     -10.120  13.651  66.405  1.00  0.00    -0.295 C  
BRANCH   9  10
HETATM   10  C   UNL     1     -10.400  13.652  64.909  1.00  0.00    -0.388 C  
BRANCH  10  11
HETATM   11  N   UNL     1     -10.899  12.276  64.396  1.00  0.00    -0.307 N  
HETATM   12  C   UNL     1     -12.373  12.359  64.000  1.00  0.00    -0.488 C  
HETATM   13  C   UNL     1     -10.066  11.827  63.193  1.00  0.00    -0.354 C  
BRANCH  11  14
HETATM   14  C   UNL     1     -10.714  11.288  65.576  1.00  0.00    -0.220 C  
BRANCH  14  15
HETATM   15  C   UNL     1     -10.009  10.005  65.160  1.00  0.00    -0.350 C  
BRANCH  15  16
HETATM   16  C   UNL     1      -9.835   9.043  66.327  1.00  0.00    -0.361 C  
BRANCH  16  17
HETATM   17  C   UNL     1     -10.754   9.490  67.459  1.00  0.00    -0.311 C  
BRANCH  17  18
HETATM   18  C   UNL     1     -10.263   8.994  68.808  1.00  0.00    -0.226 C  
BRANCH  18  19
HETATM   19  C   UNL     1     -10.098  10.170  69.761  1.00  0.00    -0.269 C  
BRANCH  19  20
HETATM   20  C   UNL     1     -11.013  11.321  69.355  1.00  0.00    -0.282 C  
BRANCH  20  21
HETATM   21  C   UNL     1     -12.100  11.549  70.401  1.00  0.00    -0.471 C  
BRANCH  21  22
HETATM   22  C   UNL     1     -12.320  13.040  70.631  1.00  0.00    -0.391 C  
HETATM   23  C   UNL     1     -13.200  13.287  71.842  1.00  0.00    -0.523 C  
ENDBRANCH  21  22
ENDBRANCH  20  21
ENDBRANCH  19  20
ENDBRANCH  18  19
ENDBRANCH  17  18
ENDBRANCH  16  17
ENDBRANCH  15  16
ENDBRANCH  14  15
ENDBRANCH  11  14
ENDBRANCH  10  11
ENDBRANCH   9  10
ENDBRANCH   8   9
ENDBRANCH   7   8
ENDBRANCH   6   7
ENDBRANCH   5   6
ENDBRANCH   4   5
ENDBRANCH   3   4
ENDBRANCH   2   3
TORSDOF 18
ENDMDL
MODEL      123
REMARK 921   NORMALIZED FREE ENERGY PREDICTED BY IDOCK:   -3.36 KCAL/MOL
REMARK 922        TOTAL FREE ENERGY PREDICTED BY IDOCK:   -9.60 KCAL/MOL
REMARK 923 INTER-LIGAND FREE ENERGY PREDICTED BY IDOCK:   -7.18 KCAL/MOL
REMARK 924 INTRA-LIGAND FREE ENERGY PREDICTED BY IDOCK:   -2.42 KCAL/MOL
REMARK 927      BINDING AFFINITY PREDICTED BY RF-SCORE:    0.00 PKD
ROOT
HETATM    1  C   UNL     1     -11.572  12.216  67.668  1.00  0.00    -0.413 C  
HETATM    2  C   UNL     1     -11.816  12.571  66.213  1.00  0.00    -0.453 C  
ENDROOT
BRANCH   2   3
HETATM    3  C   UNL     1     -10.675  12.080  65.327  1.00  0.00    -0.331 C  
BRANCH   3   4
HETATM    4  C   UNL     1      -9.386  11.951  66.131  1.00  0.00    -0.228 C  
BRANCH   4   5
HETATM    5  C   UNL     1      -8.632  10.686  65.749  1.00  0.00    -0.186 C  
BRANCH   5   6
HETATM    6  C   UNL     1      -9.603   9.585  65.335  1.00  0.00    -0.342 C  
BRANCH   6   7
HETATM    7  C   UNL     1      -9.441   8.383  66.249  1.00  0.00    -0.292 C  
BRANCH   7   8
HETATM    8  C   UNL     1     -10.569   8.296  67.273  1.00  0.00    -0.335 C  
BRANCH   8   9
HETATM    9  C   UNL     1      -9.991   8.602  68.647  1.00  0.00    -0.197 C  
BRANCH   9  10
HETATM   10  C   UNL     1     -10.328   7.519  69.663  1.00  0.00    -0.225 C  
BRANCH  10  11
HETATM   11  N   UNL     1     -11.035   8.084  70.923  1.00  0.00    -0.239 N  
HETATM   12  C   UNL     1     -11.960   7.029  71.530  1.00  0.00    -0.334 C  
HETATM   13  C   UNL     1      -9.998   8.520  71.960  1.00  0.00    -0.313 C  
BRANCH  11  14
HETATM   14  C   UNL     1     -11.858   9.306  70.439  1.00  0.00    -0.054 C  
BRANCH  14  15
HETATM   15  C   UNL     1     -11.857  10.447  71.446  1.00  0.00    -0.312 C  
BRANCH  15  16
HETATM   16  C   UNL     1     -13.265  10.933  71.761  1.00  0.00    -0.513 C  
BRANCH  16  17
HETATM   17  C   UNL     1     -13.232  12.454  71.877  1.00  0.00    -0.486 C  
BRANCH  17  18
HETATM   18  C   UNL     1     -12.310  13.075  70.842  1.00  0.00    -0.376 C  
BRANCH  18  19
HETATM   19  C   UNL     1     -12.512  14.584  70.811  1.00  0.00    -0.420 C  
BRANCH  19  20
HETATM   20  C   UNL     1     -11.362  15.263  70.075  1.00  0.00    -0.311 C  
BRANCH  20  21
HETATM   21  C   UNL     1     -11.830  15.835  68.740  1.00  0.00    -0.321 C  
BRANCH  21  22
HETATM   22  C   UNL     1     -10.647  16.045  67.801  1.00  0.00    -0.309 C  
HETATM   23  C   UNL     1      -9.384  15.412  68.356  1.00  0.00    -0.193 C  
ENDBRANCH  21  22
ENDBRANCH  20  21
ENDBRANCH  19  20
ENDBRANCH  18  19
ENDBRANCH  17  18
ENDBRANCH  16  17
ENDBRANCH  15  16
ENDBRANCH  14  15
ENDBRANCH  11  14
ENDBRANCH  10  11
ENDBRANCH   9  10
ENDBRANCH   8   9
ENDBRANCH   7   8
ENDBRANCH   6   7
ENDBRANCH   5   6
ENDBRANCH   4   5
ENDBRANCH   3   4
ENDBRANCH   2   3
TORSDOF 18
ENDMDL
MODEL      124
REMARK 921   NORMALIZED FREE ENERGY PREDICTED BY IDOCK:   -3.36 KCAL/MOL
REMARK 922        TOTAL FREE ENERGY PREDICTED BY IDOCK:   -9.60 KCAL/MOL
REMARK 923 INTER-LIGAND FREE ENERGY PREDICTED BY IDOCK:   -7.71 KCAL/MOL
REMARK 924 INTRA-LIGAND FREE ENERGY PREDICTED BY IDOCK:   -1.88 KCAL/MOL
REMARK 927      BINDING AFFINITY PREDICTED BY RF-SCORE:    0.00 PKD
ROOT
HETATM    1  C   UNL     1     -14.391  15.070  71.546  1.00  0.00    -0.651 C  
HETATM    2  C   UNL     1     -13.751  14.005  72.416  1.00  0.00    -0.669 C  
ENDROOT
BRANCH   2   3
HETATM    3  C   UNL     1     -12.986  12.989  71.573  1.00  0.00    -0.398 C  
BRANCH   3   4
HETATM    4  C   UNL     1     -13.242  11.572  72.074  1.00  0.00    -0.443 C  
BRANCH   4   5
HETATM    5  C   UNL     1     -12.894  10.547  71.005  1.00  0.00    -0.502 C  
BRANCH   5   6
HETATM    6  C   UNL     1     -11.490  10.792  70.461  1.00  0.00    -0.367 C  
BRANCH   6   7
HETATM    7  C   UNL     1     -11.429  10.399  68.995  1.00  0.00    -0.258 C  
BRANCH   7   8
HETATM    8  C   UNL     1     -10.883  11.530  68.129  1.00  0.00    -0.259 C  
BRANCH   8   9
HETATM    9  C   UNL     1     -10.842  11.050  66.685  1.00  0.00    -0.284 C  
BRANCH   9  10
HETATM   10  C   UNL     1     -10.012  11.970  65.801  1.00  0.00    -0.241 C  
BRANCH  10  11
HETATM   11  N   UNL     1     -10.868  12.699  64.732  1.00  0.00    -0.289 N  
HETATM   12  C   UNL     1     -10.538  12.170  63.336  1.00  0.00    -0.410 C  
HETATM   13  C   UNL     1     -12.358  12.500  65.022  1.00  0.00    -0.453 C  
BRANCH  11  14
HETATM   14  C   UNL     1     -10.497  14.201  64.839  1.00  0.00    -0.438 C  
BRANCH  14  15
HETATM   15  C   UNL     1     -11.356  14.945  65.851  1.00  0.00    -0.306 C  
BRANCH  15  16
HETATM   16  C   UNL     1     -10.625  15.171  67.167  1.00  0.00    -0.295 C  
BRANCH  16  17
HETATM   17  C   UNL     1     -10.247  16.645  67.259  1.00  0.00    -0.290 C  
BRANCH  17  18
HETATM   18  C   UNL     1      -9.334  16.917  68.443  1.00  0.00    -0.255 C  
BRANCH  18  19
HETATM   19  C   UNL     1      -9.008  15.610  69.154  1.00  0.00    -0.257 C  
BRANCH  19  20
HETATM   20  C   UNL     1      -7.507  15.489  69.390  1.00  0.00    -0.219 C  
BRANCH  20  21
HETATM   21  C   UNL     1      -6.797  14.974  68.141  1.00  0.00    -0.137 C  
BRANCH  21  22
HETATM   22  C   UNL     1      -7.528  13.766  67.566  1.00  0.00    -0.182 C  
HETATM   23  C   UNL     1      -7.211  12.506  68.350  1.00  0.00    -0.111 C  
ENDBRANCH  21  22
ENDBRANCH  20  21
ENDBRANCH  19  20
ENDBRANCH  18  19
ENDBRANCH  17  18
ENDBRANCH  16  17
ENDBRANCH  15  16
ENDBRANCH  14  15
ENDBRANCH  11  14
ENDBRANCH  10  11
ENDBRANCH   9  10
ENDBRANCH   8   9
ENDBRANCH   7   8
ENDBRANCH   6   7
ENDBRANCH   5   6
ENDBRANCH   4   5
ENDBRANCH   3   4
ENDBRANCH   2   3
TORSDOF 18
ENDMDL
MODEL      125
REMARK 921   NORMALIZED FREE ENERGY PREDICTED BY IDOCK:   -3.35 KCAL/MOL
REMARK 922        TOTAL FREE ENERGY PREDICTED BY IDOCK:   -9.57 KCAL/MOL
REMARK 923 INTER-LIGAND FREE ENERGY PREDICTED BY IDOCK:   -7.50 KCAL/MOL
REMARK 924 INTRA-LIGAND FREE ENERGY PREDICTED BY IDOCK:   -2.08 KCAL/MOL
REMARK 927      BINDING AFFINITY PREDICTED BY RF-SCORE:    0.00 PKD
ROOT
HETATM    1  C   UNL     1     -13.026  12.608  71.894  1.00  0.00    -0.402 C  
HETATM    2  C   UNL     1     -13.229  11.115  71.715  1.00  0.00    -0.486 C  
ENDROOT
BRANCH   2   3
HETATM    3  C   UNL     1     -12.593  10.623  70.419  1.00  0.00    -0.395 C  
BRANCH   3   4
HETATM    4  C   UNL     1     -11.161  10.160  70.663  1.00  0.00    -0.418 C  
BRANCH   4   5
HETATM    5  C   UNL     1     -11.108   9.123  71.775  1.00  0.00    -0.437 C  
BRANCH   5   6
HETATM    6  C   UNL     1      -9.686   8.604  71.960  1.00  0.00    -0.391 C  
BRANCH   6   7
HETATM    7  C   UNL     1      -9.713   7.116  72.263  1.00  0.00    -0.173 C  
BRANCH   7   8
HETATM    8  C   UNL     1     -10.973   6.452  71.715  1.00  0.00    -0.298 C  
BRANCH   8   9
HETATM    9  C   UNL     1     -10.598   5.677  70.460  1.00  0.00    -0.354 C  
BRANCH   9  10
HETATM   10  C   UNL     1     -11.204   6.293  69.206  1.00  0.00    -0.389 C  
BRANCH  10  11
HETATM   11  N   UNL     1     -10.198   6.353  68.027  1.00  0.00    -0.148 N  
HETATM   12  C   UNL     1      -8.823   6.801  68.525  1.00  0.00    -0.123 C  
HETATM   13  C   UNL     1     -10.084   4.981  67.359  1.00  0.00    -0.168 C  
BRANCH  11  14
HETATM   14  C   UNL     1     -10.772   7.391  67.028  1.00  0.00    -0.319 C  
BRANCH  14  15
HETATM   15  C   UNL     1     -10.247   8.796  67.278  1.00  0.00    -0.332 C  
BRANCH  15  16
HETATM   16  C   UNL     1      -9.696   9.435  66.011  1.00  0.00    -0.345 C  
BRANCH  16  17
HETATM   17  C   UNL     1     -10.523  10.679  65.702  1.00  0.00    -0.235 C  
BRANCH  17  18
HETATM   18  C   UNL     1     -10.935  11.407  66.970  1.00  0.00    -0.347 C  
BRANCH  18  19
HETATM   19  C   UNL     1     -10.794  12.910  66.771  1.00  0.00    -0.288 C  
BRANCH  19  20
HETATM   20  C   UNL     1     -11.869  13.657  67.554  1.00  0.00    -0.416 C  
BRANCH  20  21
HETATM   21  C   UNL     1     -11.349  14.085  68.923  1.00  0.00    -0.314 C  
BRANCH  21  22
HETATM   22  C   UNL     1     -11.774  15.515  69.236  1.00  0.00    -0.380 C  
HETATM   23  C   UNL     1     -10.729  16.514  68.774  1.00  0.00    -0.339 C  
ENDBRANCH  21  22
ENDBRANCH  20  21
ENDBRANCH  19  20
ENDBRANCH  18  19
ENDBRANCH  17  18
ENDBRANCH  16  17
ENDBRANCH  15  16
ENDBRANCH  14  15
ENDBRANCH  11  14
ENDBRANCH  10  11
ENDBRANCH   9  10
ENDBRANCH   8   9
ENDBRANCH   7   8
ENDBRANCH   6   7
ENDBRANCH   5   6
ENDBRANCH   4   5
ENDBRANCH   3   4
ENDBRANCH   2   3
TORSDOF 18
ENDMDL
MODEL      126
REMARK 921   NORMALIZED FREE ENERGY PREDICTED BY IDOCK:   -3.34 KCAL/MOL
REMARK 922        TOTAL FREE ENERGY PREDICTED BY IDOCK:   -9.56 KCAL/MOL
REMARK 923 INTER-LIGAND FREE ENERGY PREDICTED BY IDOCK:   -8.03 KCAL/MOL
REMARK 924 INTRA-LIGAND FREE ENERGY PREDICTED BY IDOCK:   -1.54 KCAL/MOL
REMARK 927      BINDING AFFINITY PREDICTED BY RF-SCORE:    0.00 PKD
ROOT
HETATM    1  C   UNL     1     -10.790   6.119  67.857  1.00  0.00    -0.406 C  
HETATM    2  C   UNL     1     -11.286   6.403  69.263  1.00  0.00    -0.405 C  
ENDROOT
BRANCH   2   3
HETATM    3  C   UNL     1     -10.484   5.622  70.299  1.00  0.00    -0.363 C  
BRANCH   3   4
HETATM    4  C   UNL     1     -10.528   6.322  71.653  1.00  0.00    -0.258 C  
BRANCH   4   5
HETATM    5  C   UNL     1     -11.452   7.530  71.610  1.00  0.00    -0.292 C  
BRANCH   5   6
HETATM    6  C   UNL     1     -10.671   8.815  71.865  1.00  0.00    -0.429 C  
BRANCH   6   7
HETATM    7  C   UNL     1      -9.196   8.496  72.044  1.00  0.00    -0.326 C  
BRANCH   7   8
HETATM    8  C   UNL     1      -8.356   9.050  70.897  1.00  0.00    -0.238 C  
BRANCH   8   9
HETATM    9  C   UNL     1      -9.285   9.763  69.925  1.00  0.00    -0.263 C  
BRANCH   9  10
HETATM   10  C   UNL     1      -8.835   9.598  68.480  1.00  0.00    -0.124 C  
BRANCH  10  11
HETATM   11  N   UNL     1      -9.850  10.193  67.469  1.00  0.00    -0.172 N  
HETATM   12  C   UNL     1      -9.941   9.309  66.225  1.00  0.00    -0.286 C  
HETATM   13  C   UNL     1     -11.231  10.317  68.117  1.00  0.00    -0.229 C  
BRANCH  11  14
HETATM   14  C   UNL     1      -9.306  11.596  67.093  1.00  0.00    -0.174 C  
BRANCH  14  15
HETATM   15  C   UNL     1     -10.213  12.334  66.120  1.00  0.00    -0.263 C  
BRANCH  15  16
HETATM   16  C   UNL     1     -10.511  13.754  66.579  1.00  0.00    -0.282 C  
BRANCH  16  17
HETATM   17  C   UNL     1     -11.624  13.699  67.620  1.00  0.00    -0.381 C  
BRANCH  17  18
HETATM   18  C   UNL     1     -11.112  14.045  69.008  1.00  0.00    -0.296 C  
BRANCH  18  19
HETATM   19  C   UNL     1     -12.252  13.965  70.014  1.00  0.00    -0.408 C  
BRANCH  19  20
HETATM   20  C   UNL     1     -12.577  15.348  70.565  1.00  0.00    -0.471 C  
BRANCH  20  21
HETATM   21  C   UNL     1     -13.730  15.282  71.562  1.00  0.00    -0.610 C  
BRANCH  21  22
HETATM   22  C   UNL     1     -13.324  14.496  72.803  1.00  0.00    -0.600 C  
HETATM   23  C   UNL     1     -12.519  15.355  73.761  1.00  0.00    -0.751 C  
ENDBRANCH  21  22
ENDBRANCH  20  21
ENDBRANCH  19  20
ENDBRANCH  18  19
ENDBRANCH  17  18
ENDBRANCH  16  17
ENDBRANCH  15  16
ENDBRANCH  14  15
ENDBRANCH  11  14
ENDBRANCH  10  11
ENDBRANCH   9  10
ENDBRANCH   8   9
ENDBRANCH   7   8
ENDBRANCH   6   7
ENDBRANCH   5   6
ENDBRANCH   4   5
ENDBRANCH   3   4
ENDBRANCH   2   3
TORSDOF 18
ENDMDL
MODEL      127
REMARK 921   NORMALIZED FREE ENERGY PREDICTED BY IDOCK:   -3.34 KCAL/MOL
REMARK 922        TOTAL FREE ENERGY PREDICTED BY IDOCK:   -9.56 KCAL/MOL
REMARK 923 INTER-LIGAND FREE ENERGY PREDICTED BY IDOCK:   -7.21 KCAL/MOL
REMARK 924 INTRA-LIGAND FREE ENERGY PREDICTED BY IDOCK:   -2.35 KCAL/MOL
REMARK 927      BINDING AFFINITY PREDICTED BY RF-SCORE:    0.00 PKD
ROOT
HETATM    1  C   UNL     1     -13.726  15.315  71.818  1.00  0.00    -0.605 C  
HETATM    2  C   UNL     1     -13.605  13.950  72.469  1.00  0.00    -0.680 C  
ENDROOT
BRANCH   2   3
HETATM    3  C   UNL     1     -12.931  12.950  71.533  1.00  0.00    -0.388 C  
BRANCH   3   4
HETATM    4  C   UNL     1     -13.280  11.521  71.932  1.00  0.00    -0.479 C  
BRANCH   4   5
HETATM    5  C   UNL     1     -12.786  10.530  70.889  1.00  0.00    -0.495 C  
BRANCH   5   6
HETATM    6  C   UNL     1     -11.541  11.063  70.187  1.00  0.00    -0.421 C  
BRANCH   6   7
HETATM    7  C   UNL     1     -10.446  10.011  70.206  1.00  0.00    -0.331 C  
BRANCH   7   8
HETATM    8  C   UNL     1     -10.197   9.430  68.817  1.00  0.00    -0.221 C  
BRANCH   8   9
HETATM    9  C   UNL     1      -8.699   9.226  68.646  1.00  0.00    -0.132 C  
BRANCH   9  10
HETATM   10  C   UNL     1      -7.893  10.032  69.657  1.00  0.00    -0.167 C  
BRANCH  10  11
HETATM   11  N   UNL     1      -6.774  10.873  68.990  1.00  0.00    -0.063 N  
HETATM   12  C   UNL     1      -5.504  10.838  69.843  1.00  0.00    -0.045 C  
HETATM   13  C   UNL     1      -6.471  10.335  67.590  1.00  0.00    -0.058 C  
BRANCH  11  14
HETATM   14  C   UNL     1      -7.321  12.321  68.902  1.00  0.00    -0.041 C  
BRANCH  14  15
HETATM   15  C   UNL     1      -7.867  12.657  67.522  1.00  0.00    -0.175 C  
BRANCH  15  16
HETATM   16  C   UNL     1      -9.354  12.979  67.557  1.00  0.00    -0.200 C  
BRANCH  16  17
HETATM   17  C   UNL     1     -10.038  12.214  66.428  1.00  0.00    -0.242 C  
BRANCH  17  18
HETATM   18  C   UNL     1     -11.542  12.146  66.628  1.00  0.00    -0.416 C  
BRANCH  18  19
HETATM   19  C   UNL     1     -12.252  12.547  65.342  1.00  0.00    -0.475 C  
BRANCH  19  20
HETATM   20  C   UNL     1     -12.681  14.009  65.401  1.00  0.00    -0.499 C  
BRANCH  20  21
HETATM   21  C   UNL     1     -12.139  14.786  64.205  1.00  0.00    -0.415 C  
BRANCH  21  22
HETATM   22  C   UNL     1     -11.490  16.088  64.659  1.00  0.00    -0.252 C  
HETATM   23  C   UNL     1     -10.357  15.828  65.635  1.00  0.00    -0.411 C  
ENDBRANCH  21  22
ENDBRANCH  20  21
ENDBRANCH  19  20
ENDBRANCH  18  19
ENDBRANCH  17  18
ENDBRANCH  16  17
ENDBRANCH  15  16
ENDBRANCH  14  15
ENDBRANCH  11  14
ENDBRANCH  10  11
ENDBRANCH   9  10
ENDBRANCH   8   9
ENDBRANCH   7   8
ENDBRANCH   6   7
ENDBRANCH   5   6
ENDBRANCH   4   5
ENDBRANCH   3   4
ENDBRANCH   2   3
TORSDOF 18
ENDMDL
MODEL      128
REMARK 921   NORMALIZED FREE ENERGY PREDICTED BY IDOCK:   -3.33 KCAL/MOL
REMARK 922        TOTAL FREE ENERGY PREDICTED BY IDOCK:   -9.54 KCAL/MOL
REMARK 923 INTER-LIGAND FREE ENERGY PREDICTED BY IDOCK:   -7.26 KCAL/MOL
REMARK 924 INTRA-LIGAND FREE ENERGY PREDICTED BY IDOCK:   -2.28 KCAL/MOL
REMARK 927      BINDING AFFINITY PREDICTED BY RF-SCORE:    0.00 PKD
ROOT
HETATM    1  C   UNL     1      -9.604  14.060  66.607  1.00  0.00    -0.299 C  
HETATM    2  C   UNL     1     -11.036  14.556  66.545  1.00  0.00    -0.332 C  
ENDROOT
BRANCH   2   3
HETATM    3  C   UNL     1     -11.949  13.717  67.434  1.00  0.00    -0.423 C  
BRANCH   3   4
HETATM    4  C   UNL     1     -11.863  14.182  68.883  1.00  0.00    -0.382 C  
BRANCH   4   5
HETATM    5  C   UNL     1     -11.852  12.995  69.835  1.00  0.00    -0.377 C  
BRANCH   5   6
HETATM    6  C   UNL     1     -12.566  13.343  71.138  1.00  0.00    -0.430 C  
BRANCH   6   7
HETATM    7  C   UNL     1     -13.082  12.076  71.798  1.00  0.00    -0.460 C  
BRANCH   7   8
HETATM    8  C   UNL     1     -12.778  10.838  70.960  1.00  0.00    -0.513 C  
BRANCH   8   9
HETATM    9  C   UNL     1     -12.414   9.700  71.903  1.00  0.00    -0.459 C  
BRANCH   9  10
HETATM   10  C   UNL     1     -12.277   8.373  71.170  1.00  0.00    -0.226 C  
BRANCH  10  11
HETATM   11  N   UNL     1     -10.975   7.618  71.544  1.00  0.00    -0.231 N  
HETATM   12  C   UNL     1      -9.999   8.561  72.250  1.00  0.00    -0.315 C  
HETATM   13  C   UNL     1     -11.294   6.429  72.453  1.00  0.00    -0.287 C  
BRANCH  11  14
HETATM   14  C   UNL     1     -10.369   7.122  70.205  1.00  0.00    -0.201 C  
BRANCH  14  15
HETATM   15  C   UNL     1     -11.387   6.400  69.335  1.00  0.00    -0.443 C  
BRANCH  15  16
HETATM   16  C   UNL     1     -10.943   6.321  67.881  1.00  0.00    -0.421 C  
BRANCH  16  17
HETATM   17  C   UNL     1      -9.456   6.653  67.814  1.00  0.00    -0.121 C  
BRANCH  17  18
HETATM   18  C   UNL     1      -9.025   7.012  66.402  1.00  0.00    -0.175 C  
BRANCH  18  19
HETATM   19  C   UNL     1      -7.849   7.979  66.451  1.00  0.00    -0.097 C  
BRANCH  19  20
HETATM   20  C   UNL     1      -8.344   9.421  66.497  1.00  0.00    -0.119 C  
BRANCH  20  21
HETATM   21  C   UNL     1      -9.690   9.559  65.793  1.00  0.00    -0.357 C  
BRANCH  21  22
HETATM   22  C   UNL     1     -10.556  10.602  66.490  1.00  0.00    -0.257 C  
HETATM   23  C   UNL     1     -10.938  10.155  67.889  1.00  0.00    -0.335 C  
ENDBRANCH  21  22
ENDBRANCH  20  21
ENDBRANCH  19  20
ENDBRANCH  18  19
ENDBRANCH  17  18
ENDBRANCH  16  17
ENDBRANCH  15  16
ENDBRANCH  14  15
ENDBRANCH  11  14
ENDBRANCH  10  11
ENDBRANCH   9  10
ENDBRANCH   8   9
ENDBRANCH   7   8
ENDBRANCH   6   7
ENDBRANCH   5   6
ENDBRANCH   4   5
ENDBRANCH   3   4
ENDBRANCH   2   3
TORSDOF 18
ENDMDL
MODEL      129
REMARK 921   NORMALIZED FREE ENERGY PREDICTED BY IDOCK:   -3.32 KCAL/MOL
REMARK 922        TOTAL FREE ENERGY PREDICTED BY IDOCK:   -9.52 KCAL/MOL
REMARK 923 INTER-LIGAND FREE ENERGY PREDICTED BY IDOCK:   -7.40 KCAL/MOL
REMARK 924 INTRA-LIGAND FREE ENERGY PREDICTED BY IDOCK:   -2.12 KCAL/MOL
REMARK 927      BINDING AFFINITY PREDICTED BY RF-SCORE:    0.00 PKD
ROOT
HETATM    1  C   UNL     1     -10.731  19.274  67.239  1.00  0.00    -0.594 C  
HETATM    2  C   UNL     1      -9.372  19.323  66.566  1.00  0.00    -0.396 C  
ENDROOT
BRANCH   2   3
HETATM    3  C   UNL     1      -8.562  20.525  67.043  1.00  0.00    -0.326 C  
BRANCH   3   4
HETATM    4  C   UNL     1      -7.238  20.075  67.649  1.00  0.00    -0.316 C  
BRANCH   4   5
HETATM    5  C   UNL     1      -7.454  19.433  69.011  1.00  0.00    -0.385 C  
BRANCH   5   6
HETATM    6  C   UNL     1      -6.722  18.098  69.099  1.00  0.00    -0.252 C  
BRANCH   6   7
HETATM    7  C   UNL     1      -7.701  16.957  68.881  1.00  0.00    -0.237 C  
BRANCH   7   8
HETATM    8  C   UNL     1      -7.470  16.262  67.543  1.00  0.00    -0.172 C  
BRANCH   8   9
HETATM    9  C   UNL     1      -8.762  15.567  67.136  1.00  0.00    -0.234 C  
BRANCH   9  10
HETATM   10  C   UNL     1      -9.425  14.861  68.311  1.00  0.00    -0.210 C  
BRANCH  10  11
HETATM   11  N   UNL     1     -10.973  14.908  68.237  1.00  0.00    -0.255 N  
HETATM   12  C   UNL     1     -11.561  13.530  68.543  1.00  0.00    -0.333 C  
HETATM   13  C   UNL     1     -11.520  15.936  69.230  1.00  0.00    -0.374 C  
BRANCH  11  14
HETATM   14  C   UNL     1     -11.319  15.328  66.785  1.00  0.00    -0.183 C  
BRANCH  14  15
HETATM   15  C   UNL     1     -11.934  14.195  65.978  1.00  0.00    -0.427 C  
BRANCH  15  16
HETATM   16  C   UNL     1     -11.146  13.902  64.709  1.00  0.00    -0.386 C  
BRANCH  16  17
HETATM   17  C   UNL     1     -12.073  13.203  63.719  1.00  0.00    -0.563 C  
BRANCH  17  18
HETATM   18  C   UNL     1     -11.822  11.705  63.679  1.00  0.00    -0.390 C  
BRANCH  18  19
HETATM   19  C   UNL     1     -10.324  11.433  63.662  1.00  0.00    -0.463 C  
BRANCH  19  20
HETATM   20  C   UNL     1      -9.933  10.517  64.817  1.00  0.00    -0.412 C  
BRANCH  20  21
HETATM   21  C   UNL     1      -8.445  10.183  64.770  1.00  0.00    -0.180 C  
BRANCH  21  22
HETATM   22  C   UNL     1      -7.757  10.609  66.062  1.00  0.00    -0.151 C  
HETATM   23  C   UNL     1      -8.635  11.547  66.869  1.00  0.00    -0.163 C  
ENDBRANCH  21  22
ENDBRANCH  20  21
ENDBRANCH  19  20
ENDBRANCH  18  19
ENDBRANCH  17  18
ENDBRANCH  16  17
ENDBRANCH  15  16
ENDBRANCH  14  15
ENDBRANCH  11  14
ENDBRANCH  10  11
ENDBRANCH   9  10
ENDBRANCH   8   9
ENDBRANCH   7   8
ENDBRANCH   6   7
ENDBRANCH   5   6
ENDBRANCH   4   5
ENDBRANCH   3   4
ENDBRANCH   2   3
TORSDOF 18
ENDMDL
MODEL      130
REMARK 921   NORMALIZED FREE ENERGY PREDICTED BY IDOCK:   -3.30 KCAL/MOL
REMARK 922        TOTAL FREE ENERGY PREDICTED BY IDOCK:   -9.47 KCAL/MOL
REMARK 923 INTER-LIGAND FREE ENERGY PREDICTED BY IDOCK:   -6.27 KCAL/MOL
REMARK 924 INTRA-LIGAND FREE ENERGY PREDICTED BY IDOCK:   -3.20 KCAL/MOL
REMARK 927      BINDING AFFINITY PREDICTED BY RF-SCORE:    0.00 PKD
ROOT
HETATM    1  C   UNL     1     -13.091  10.575  71.499  1.00  0.00    -0.532 C  
HETATM    2  C   UNL     1     -13.531   9.283  72.162  1.00  0.00    -0.539 C  
ENDROOT
BRANCH   2   3
HETATM    3  C   UNL     1     -12.373   8.295  72.268  1.00  0.00    -0.410 C  
BRANCH   3   4
HETATM    4  C   UNL     1     -12.697   7.006  71.521  1.00  0.00    -0.425 C  
BRANCH   4   5
HETATM    5  C   UNL     1     -11.874   6.895  70.246  1.00  0.00    -0.311 C  
BRANCH   5   6
HETATM    6  C   UNL     1     -10.782   5.841  70.400  1.00  0.00    -0.372 C  
BRANCH   6   7
HETATM    7  C   UNL     1     -10.229   5.468  69.035  1.00  0.00    -0.298 C  
BRANCH   7   8
HETATM    8  C   UNL     1     -11.013   6.130  67.907  1.00  0.00    -0.399 C  
BRANCH   8   9
HETATM    9  C   UNL     1     -10.058   6.394  66.752  1.00  0.00    -0.239 C  
BRANCH   9  10
HETATM   10  C   UNL     1      -8.623   6.574  67.227  1.00  0.00    -0.111 C  
BRANCH  10  11
HETATM   11  N   UNL     1      -8.116   8.029  67.051  1.00  0.00    -0.114 N  
HETATM   12  C   UNL     1      -6.718   8.033  66.432  1.00  0.00    -0.058 C  
HETATM   13  C   UNL     1      -9.078   8.820  66.160  1.00  0.00    -0.202 C  
BRANCH  11  14
HETATM   14  C   UNL     1      -8.076   8.643  68.474  1.00  0.00    -0.117 C  
BRANCH  14  15
HETATM   15  C   UNL     1      -9.372   9.348  68.844  1.00  0.00    -0.154 C  
BRANCH  15  16
HETATM   16  C   UNL     1      -9.545   9.476  70.351  1.00  0.00    -0.326 C  
BRANCH  16  17
HETATM   17  C   UNL     1      -8.508   8.586  71.030  1.00  0.00    -0.185 C  
BRANCH  17  18
HETATM   18  C   UNL     1      -8.820   8.386  72.503  1.00  0.00    -0.296 C  
BRANCH  18  19
HETATM   19  C   UNL     1      -7.690   7.612  73.169  1.00  0.00    -0.135 C  
BRANCH  19  20
HETATM   20  C   UNL     1      -8.236   6.387  73.895  1.00  0.00    -0.111 C  
BRANCH  20  21
HETATM   21  C   UNL     1      -9.760   6.425  73.960  1.00  0.00    -0.246 C  
BRANCH  21  22
HETATM   22  C   UNL     1     -10.305   5.131  74.555  1.00  0.00    -0.301 C  
HETATM   23  C   UNL     1     -11.143   4.370  73.544  1.00  0.00    -0.388 C  
ENDBRANCH  21  22
ENDBRANCH  20  21
ENDBRANCH  19  20
ENDBRANCH  18  19
ENDBRANCH  17  18
ENDBRANCH  16  17
ENDBRANCH  15  16
ENDBRANCH  14  15
ENDBRANCH  11  14
ENDBRANCH  10  11
ENDBRANCH   9  10
ENDBRANCH   8   9
ENDBRANCH   7   8
ENDBRANCH   6   7
ENDBRANCH   5   6
ENDBRANCH   4   5
ENDBRANCH   3   4
ENDBRANCH   2   3
TORSDOF 18
ENDMDL
MODEL      131
REMARK 921   NORMALIZED FREE ENERGY PREDICTED BY IDOCK:   -3.30 KCAL/MOL
REMARK 922        TOTAL FREE ENERGY PREDICTED BY IDOCK:   -9.47 KCAL/MOL
REMARK 923 INTER-LIGAND FREE ENERGY PREDICTED BY IDOCK:   -7.12 KCAL/MOL
REMARK 924 INTRA-LIGAND FREE ENERGY PREDICTED BY IDOCK:   -2.36 KCAL/MOL
REMARK 927      BINDING AFFINITY PREDICTED BY RF-SCORE:    0.00 PKD
ROOT
HETATM    1  C   UNL     1      -8.952   9.626  62.655  1.00  0.00    -0.274 C  
HETATM    2  C   UNL     1      -9.289  11.105  62.658  1.00  0.00    -0.336 C  
ENDROOT
BRANCH   2   3
HETATM    3  C   UNL     1     -10.505  11.392  63.534  1.00  0.00    -0.477 C  
BRANCH   3   4
HETATM    4  C   UNL     1     -10.073  11.936  64.891  1.00  0.00    -0.296 C  
BRANCH   4   5
HETATM    5  C   UNL     1     -10.461  10.978  66.008  1.00  0.00    -0.304 C  
BRANCH   5   6
HETATM    6  C   UNL     1      -9.268  10.123  66.423  1.00  0.00    -0.190 C  
BRANCH   6   7
HETATM    7  C   UNL     1      -9.627   8.651  66.320  1.00  0.00    -0.322 C  
BRANCH   7   8
HETATM    8  C   UNL     1     -10.677   8.252  67.353  1.00  0.00    -0.236 C  
BRANCH   8   9
HETATM    9  C   UNL     1     -10.669   6.736  67.482  1.00  0.00    -0.381 C  
BRANCH   9  10
HETATM   10  C   UNL     1     -10.995   6.281  68.898  1.00  0.00    -0.368 C  
BRANCH  10  11
HETATM   11  N   UNL     1      -9.735   5.842  69.688  1.00  0.00    -0.153 N  
HETATM   12  C   UNL     1      -9.908   4.417  70.215  1.00  0.00    -0.214 C  
HETATM   13  C   UNL     1      -8.497   5.914  68.791  1.00  0.00    -0.111 C  
BRANCH  11  14
HETATM   14  C   UNL     1      -9.602   6.839  70.868  1.00  0.00    -0.168 C  
BRANCH  14  15
HETATM   15  C   UNL     1     -10.942   7.170  71.509  1.00  0.00    -0.261 C  
BRANCH  15  16
HETATM   16  C   UNL     1     -11.012   8.617  71.974  1.00  0.00    -0.432 C  
BRANCH  16  17
HETATM   17  C   UNL     1     -11.897   9.391  71.002  1.00  0.00    -0.396 C  
BRANCH  17  18
HETATM   18  C   UNL     1     -11.097  10.404  70.201  1.00  0.00    -0.383 C  
BRANCH  18  19
HETATM   19  C   UNL     1     -12.032  11.215  69.314  1.00  0.00    -0.421 C  
BRANCH  19  20
HETATM   20  C   UNL     1     -11.959  12.695  69.673  1.00  0.00    -0.352 C  
BRANCH  20  21
HETATM   21  C   UNL     1     -11.023  13.441  68.727  1.00  0.00    -0.290 C  
BRANCH  21  22
HETATM   22  C   UNL     1     -11.809  14.092  67.595  1.00  0.00    -0.427 C  
HETATM   23  C   UNL     1     -11.011  15.205  66.939  1.00  0.00    -0.323 C  
ENDBRANCH  21  22
ENDBRANCH  20  21
ENDBRANCH  19  20
ENDBRANCH  18  19
ENDBRANCH  17  18
ENDBRANCH  16  17
ENDBRANCH  15  16
ENDBRANCH  14  15
ENDBRANCH  11  14
ENDBRANCH  10  11
ENDBRANCH   9  10
ENDBRANCH   8   9
ENDBRANCH   7   8
ENDBRANCH   6   7
ENDBRANCH   5   6
ENDBRANCH   4   5
ENDBRANCH   3   4
ENDBRANCH   2   3
TORSDOF 18
ENDMDL
MODEL      132
REMARK 921   NORMALIZED FREE ENERGY PREDICTED BY IDOCK:   -3.29 KCAL/MOL
REMARK 922        TOTAL FREE ENERGY PREDICTED BY IDOCK:   -9.46 KCAL/MOL
REMARK 923 INTER-LIGAND FREE ENERGY PREDICTED BY IDOCK:   -6.90 KCAL/MOL
REMARK 924 INTRA-LIGAND FREE ENERGY PREDICTED BY IDOCK:   -2.56 KCAL/MOL
REMARK 927      BINDING AFFINITY PREDICTED BY RF-SCORE:    0.00 PKD
ROOT
HETATM    1  C   UNL     1     -11.885   9.748  71.229  1.00  0.00    -0.481 C  
HETATM    2  C   UNL     1     -10.435   9.320  71.352  1.00  0.00    -0.408 C  
ENDROOT
BRANCH   2   3
HETATM    3  C   UNL     1     -10.281   8.174  72.348  1.00  0.00    -0.368 C  
BRANCH   3   4
HETATM    4  C   UNL     1     -11.143   6.986  71.939  1.00  0.00    -0.274 C  
BRANCH   4   5
HETATM    5  C   UNL     1     -10.285   5.760  71.667  1.00  0.00    -0.253 C  
BRANCH   5   6
HETATM    6  C   UNL     1     -10.429   5.313  70.215  1.00  0.00    -0.332 C  
BRANCH   6   7
HETATM    7  C   UNL     1     -11.379   6.244  69.480  1.00  0.00    -0.475 C  
BRANCH   7   8
HETATM    8  C   UNL     1     -10.920   6.503  68.049  1.00  0.00    -0.368 C  
BRANCH   8   9
HETATM    9  C   UNL     1     -10.409   7.934  67.963  1.00  0.00    -0.264 C  
BRANCH   9  10
HETATM   10  C   UNL     1     -10.268   8.406  66.522  1.00  0.00    -0.207 C  
BRANCH  10  11
HETATM   11  N   UNL     1      -8.797   8.707  66.135  1.00  0.00    -0.160 N  
HETATM   12  C   UNL     1      -7.956   8.943  67.390  1.00  0.00    -0.101 C  
HETATM   13  C   UNL     1      -8.212   7.542  65.333  1.00  0.00    -0.135 C  
BRANCH  11  14
HETATM   14  C   UNL     1      -8.838   9.991  65.266  1.00  0.00    -0.178 C  
BRANCH  14  15
HETATM   15  C   UNL     1     -10.239  10.572  65.147  1.00  0.00    -0.358 C  
BRANCH  15  16
HETATM   16  C   UNL     1     -10.318  11.992  65.689  1.00  0.00    -0.288 C  
BRANCH  16  17
HETATM   17  C   UNL     1     -11.659  12.161  66.397  1.00  0.00    -0.429 C  
BRANCH  17  18
HETATM   18  C   UNL     1     -11.566  11.791  67.867  1.00  0.00    -0.377 C  
BRANCH  18  19
HETATM   19  C   UNL     1     -10.425  12.558  68.522  1.00  0.00    -0.246 C  
BRANCH  19  20
HETATM   20  C   UNL     1     -10.884  13.953  68.933  1.00  0.00    -0.278 C  
BRANCH  20  21
HETATM   21  C   UNL     1      -9.973  15.024  68.341  1.00  0.00    -0.225 C  
BRANCH  21  22
HETATM   22  C   UNL     1     -10.672  15.755  67.201  1.00  0.00    -0.312 C  
HETATM   23  C   UNL     1      -9.858  15.690  65.923  1.00  0.00    -0.382 C  
ENDBRANCH  21  22
ENDBRANCH  20  21
ENDBRANCH  19  20
ENDBRANCH  18  19
ENDBRANCH  17  18
ENDBRANCH  16  17
ENDBRANCH  15  16
ENDBRANCH  14  15
ENDBRANCH  11  14
ENDBRANCH  10  11
ENDBRANCH   9  10
ENDBRANCH   8   9
ENDBRANCH   7   8
ENDBRANCH   6   7
ENDBRANCH   5   6
ENDBRANCH   4   5
ENDBRANCH   3   4
ENDBRANCH   2   3
TORSDOF 18
ENDMDL
MODEL      133
REMARK 921   NORMALIZED FREE ENERGY PREDICTED BY IDOCK:   -3.28 KCAL/MOL
REMARK 922        TOTAL FREE ENERGY PREDICTED BY IDOCK:   -9.44 KCAL/MOL
REMARK 923 INTER-LIGAND FREE ENERGY PREDICTED BY IDOCK:   -7.61 KCAL/MOL
REMARK 924 INTRA-LIGAND FREE ENERGY PREDICTED BY IDOCK:   -1.83 KCAL/MOL
REMARK 927      BINDING AFFINITY PREDICTED BY RF-SCORE:    0.00 PKD
ROOT
HETATM    1  C   UNL     1      -8.078   8.623  62.527  1.00  0.00    -0.169 C  
HETATM    2  C   UNL     1      -8.061  10.034  63.085  1.00  0.00    -0.156 C  
ENDROOT
BRANCH   2   3
HETATM    3  C   UNL     1      -9.067  10.925  62.363  1.00  0.00    -0.336 C  
BRANCH   3   4
HETATM    4  C   UNL     1      -9.929  11.685  63.365  1.00  0.00    -0.447 C  
BRANCH   4   5
HETATM    5  C   UNL     1     -10.461  10.751  64.442  1.00  0.00    -0.344 C  
BRANCH   5   6
HETATM    6  C   UNL     1     -10.149  11.298  65.832  1.00  0.00    -0.291 C  
BRANCH   6   7
HETATM    7  C   UNL     1      -9.945  10.151  66.806  1.00  0.00    -0.266 C  
BRANCH   7   8
HETATM    8  C   UNL     1      -9.631   8.845  66.082  1.00  0.00    -0.335 C  
BRANCH   8   9
HETATM    9  C   UNL     1      -9.309   7.786  67.126  1.00  0.00    -0.185 C  
BRANCH   9  10
HETATM   10  C   UNL     1     -10.557   7.299  67.850  1.00  0.00    -0.202 C  
BRANCH  10  11
HETATM   11  N   UNL     1     -10.228   6.575  69.182  1.00  0.00    -0.170 N  
HETATM   12  C   UNL     1     -11.505   6.347  69.991  1.00  0.00    -0.428 C  
HETATM   13  C   UNL     1      -9.548   5.233  68.900  1.00  0.00    -0.137 C  
BRANCH  11  14
HETATM   14  C   UNL     1      -9.265   7.514  69.952  1.00  0.00    -0.147 C  
BRANCH  14  15
HETATM   15  C   UNL     1      -9.976   8.338  71.016  1.00  0.00    -0.226 C  
BRANCH  15  16
HETATM   16  C   UNL     1     -10.134   9.794  70.602  1.00  0.00    -0.252 C  
BRANCH  16  17
HETATM   17  C   UNL     1     -11.590  10.197  70.807  1.00  0.00    -0.445 C  
BRANCH  17  18
HETATM   18  C   UNL     1     -12.029  11.248  69.802  1.00  0.00    -0.431 C  
BRANCH  18  19
HETATM   19  C   UNL     1     -12.269  12.573  70.512  1.00  0.00    -0.382 C  
BRANCH  19  20
HETATM   20  C   UNL     1     -13.070  12.357  71.791  1.00  0.00    -0.446 C  
BRANCH  20  21
HETATM   21  C   UNL     1     -13.787  13.637  72.210  1.00  0.00    -0.689 C  
BRANCH  21  22
HETATM   22  C   UNL     1     -12.814  14.810  72.250  1.00  0.00    -0.414 C  
HETATM   23  C   UNL     1     -12.523  15.235  73.678  1.00  0.00    -0.716 C  
ENDBRANCH  21  22
ENDBRANCH  20  21
ENDBRANCH  19  20
ENDBRANCH  18  19
ENDBRANCH  17  18
ENDBRANCH  16  17
ENDBRANCH  15  16
ENDBRANCH  14  15
ENDBRANCH  11  14
ENDBRANCH  10  11
ENDBRANCH   9  10
ENDBRANCH   8   9
ENDBRANCH   7   8
ENDBRANCH   6   7
ENDBRANCH   5   6
ENDBRANCH   4   5
ENDBRANCH   3   4
ENDBRANCH   2   3
TORSDOF 18
ENDMDL
MODEL      134
REMARK 921   NORMALIZED FREE ENERGY PREDICTED BY IDOCK:   -3.27 KCAL/MOL
REMARK 922        TOTAL FREE ENERGY PREDICTED BY IDOCK:   -9.42 KCAL/MOL
REMARK 923 INTER-LIGAND FREE ENERGY PREDICTED BY IDOCK:   -7.28 KCAL/MOL
REMARK 924 INTRA-LIGAND FREE ENERGY PREDICTED BY IDOCK:   -2.15 KCAL/MOL
REMARK 927      BINDING AFFINITY PREDICTED BY RF-SCORE:    0.00 PKD
ROOT
HETATM    1  C   UNL     1     -14.395  15.195  71.926  1.00  0.00    -0.693 C  
HETATM    2  C   UNL     1     -13.385  14.318  72.641  1.00  0.00    -0.619 C  
ENDROOT
BRANCH   2   3
HETATM    3  C   UNL     1     -12.805  13.265  71.701  1.00  0.00    -0.397 C  
BRANCH   3   4
HETATM    4  C   UNL     1     -13.329  11.879  72.056  1.00  0.00    -0.425 C  
BRANCH   4   5
HETATM    5  C   UNL     1     -12.449  10.794  71.453  1.00  0.00    -0.478 C  
BRANCH   5   6
HETATM    6  C   UNL     1     -13.120   9.429  71.572  1.00  0.00    -0.451 C  
BRANCH   6   7
HETATM    7  C   UNL     1     -12.092   8.381  71.965  1.00  0.00    -0.417 C  
BRANCH   7   8
HETATM    8  C   UNL     1     -12.572   6.970  71.640  1.00  0.00    -0.419 C  
BRANCH   8   9
HETATM    9  C   UNL     1     -11.553   5.981  72.185  1.00  0.00    -0.348 C  
BRANCH   9  10
HETATM   10  C   UNL     1     -10.146   6.563  72.204  1.00  0.00    -0.179 C  
BRANCH  10  11
HETATM   11  N   UNL     1      -9.142   5.719  71.375  1.00  0.00    -0.140 N  
HETATM   12  C   UNL     1      -7.773   5.704  72.055  1.00  0.00    -0.102 C  
HETATM   13  C   UNL     1      -9.658   4.287  71.219  1.00  0.00    -0.172 C  
BRANCH  11  14
HETATM   14  C   UNL     1      -9.047   6.409  69.990  1.00  0.00    -0.150 C  
BRANCH  14  15
HETATM   15  C   UNL     1      -9.859   5.692  68.922  1.00  0.00    -0.197 C  
BRANCH  15  16
HETATM   16  C   UNL     1     -11.016   6.541  68.415  1.00  0.00    -0.358 C  
BRANCH  16  17
HETATM   17  C   UNL     1     -10.613   7.152  67.077  1.00  0.00    -0.413 C  
BRANCH  17  18
HETATM   18  C   UNL     1     -10.169   8.597  67.232  1.00  0.00    -0.337 C  
BRANCH  18  19
HETATM   19  C   UNL     1     -10.895   9.237  68.408  1.00  0.00    -0.125 C  
BRANCH  19  20
HETATM   20  C   UNL     1      -9.982  10.222  69.129  1.00  0.00    -0.235 C  
BRANCH  20  21
HETATM   21  C   UNL     1      -9.069  10.944  68.143  1.00  0.00    -0.155 C  
BRANCH  21  22
HETATM   22  C   UNL     1      -9.698  12.257  67.692  1.00  0.00    -0.194 C  
HETATM   23  C   UNL     1     -10.736  12.742  68.687  1.00  0.00    -0.273 C  
ENDBRANCH  21  22
ENDBRANCH  20  21
ENDBRANCH  19  20
ENDBRANCH  18  19
ENDBRANCH  17  18
ENDBRANCH  16  17
ENDBRANCH  15  16
ENDBRANCH  14  15
ENDBRANCH  11  14
ENDBRANCH  10  11
ENDBRANCH   9  10
ENDBRANCH   8   9
ENDBRANCH   7   8
ENDBRANCH   6   7
ENDBRANCH   5   6
ENDBRANCH   4   5
ENDBRANCH   3   4
ENDBRANCH   2   3
TORSDOF 18
ENDMDL
MODEL      135
REMARK 921   NORMALIZED FREE ENERGY PREDICTED BY IDOCK:   -3.27 KCAL/MOL
REMARK 922        TOTAL FREE ENERGY PREDICTED BY IDOCK:   -9.42 KCAL/MOL
REMARK 923 INTER-LIGAND FREE ENERGY PREDICTED BY IDOCK:   -7.88 KCAL/MOL
REMARK 924 INTRA-LIGAND FREE ENERGY PREDICTED BY IDOCK:   -1.54 KCAL/MOL
REMARK 927      BINDING AFFINITY PREDICTED BY RF-SCORE:    0.00 PKD
ROOT
HETATM    1  C   UNL     1     -10.222   6.627  72.146  1.00  0.00    -0.209 C  
HETATM    2  C   UNL     1     -10.563   7.239  70.800  1.00  0.00    -0.237 C  
ENDROOT
BRANCH   2   3
HETATM    3  C   UNL     1     -11.531   6.354  70.020  1.00  0.00    -0.496 C  
BRANCH   3   4
HETATM    4  C   UNL     1     -11.157   6.319  68.543  1.00  0.00    -0.397 C  
BRANCH   4   5
HETATM    5  C   UNL     1     -10.163   7.422  68.208  1.00  0.00    -0.213 C  
BRANCH   5   6
HETATM    6  C   UNL     1     -10.521   8.085  66.883  1.00  0.00    -0.387 C  
BRANCH   6   7
HETATM    7  C   UNL     1      -9.566   9.233  66.604  1.00  0.00    -0.263 C  
BRANCH   7   8
HETATM    8  C   UNL     1      -9.850   9.890  65.257  1.00  0.00    -0.373 C  
BRANCH   8   9
HETATM    9  C   UNL     1      -9.631  11.389  65.401  1.00  0.00    -0.255 C  
BRANCH   9  10
HETATM   10  C   UNL     1     -10.858  12.189  64.987  1.00  0.00    -0.300 C  
BRANCH  10  11
HETATM   11  N   UNL     1     -11.499  12.954  66.174  1.00  0.00    -0.330 N  
HETATM   12  C   UNL     1     -12.737  13.720  65.706  1.00  0.00    -0.446 C  
HETATM   13  C   UNL     1     -11.888  11.975  67.285  1.00  0.00    -0.187 C  
BRANCH  11  14
HETATM   14  C   UNL     1     -10.416  13.940  66.682  1.00  0.00    -0.272 C  
BRANCH  14  15
HETATM   15  C   UNL     1     -11.002  15.269  67.137  1.00  0.00    -0.331 C  
BRANCH  15  16
HETATM   16  C   UNL     1     -10.426  15.721  68.471  1.00  0.00    -0.236 C  
BRANCH  16  17
HETATM   17  C   UNL     1     -10.974  14.810  69.565  1.00  0.00    -0.287 C  
BRANCH  17  18
HETATM   18  C   UNL     1     -12.288  15.332  70.122  1.00  0.00    -0.392 C  
BRANCH  18  19
HETATM   19  C   UNL     1     -12.893  14.301  71.065  1.00  0.00    -0.427 C  
BRANCH  19  20
HETATM   20  C   UNL     1     -12.362  12.907  70.748  1.00  0.00    -0.385 C  
BRANCH  20  21
HETATM   21  C   UNL     1     -13.027  11.854  71.628  1.00  0.00    -0.447 C  
BRANCH  21  22
HETATM   22  C   UNL     1     -12.437  10.475  71.357  1.00  0.00    -0.516 C  
HETATM   23  C   UNL     1     -13.390   9.374  71.787  1.00  0.00    -0.489 C  
ENDBRANCH  21  22
ENDBRANCH  20  21
ENDBRANCH  19  20
ENDBRANCH  18  19
ENDBRANCH  17  18
ENDBRANCH  16  17
ENDBRANCH  15  16
ENDBRANCH  14  15
ENDBRANCH  11  14
ENDBRANCH  10  11
ENDBRANCH   9  10
ENDBRANCH   8   9
ENDBRANCH   7   8
ENDBRANCH   6   7
ENDBRANCH   5   6
ENDBRANCH   4   5
ENDBRANCH   3   4
ENDBRANCH   2   3
TORSDOF 18
ENDMDL
MODEL      136
REMARK 921   NORMALIZED FREE ENERGY PREDICTED BY IDOCK:   -3.27 KCAL/MOL
REMARK 922        TOTAL FREE ENERGY PREDICTED BY IDOCK:   -9.42 KCAL/MOL
REMARK 923 INTER-LIGAND FREE ENERGY PREDICTED BY IDOCK:   -8.18 KCAL/MOL
REMARK 924 INTRA-LIGAND FREE ENERGY PREDICTED BY IDOCK:   -1.24 KCAL/MOL
REMARK 927      BINDING AFFINITY PREDICTED BY RF-SCORE:    0.00 PKD
ROOT
HETATM    1  C   UNL     1      -6.127  20.973  66.539  1.00  0.00    -0.331 C  
HETATM    2  C   UNL     1      -7.341  20.799  67.433  1.00  0.00    -0.390 C  
ENDROOT
BRANCH   2   3
HETATM    3  C   UNL     1      -8.419  19.968  66.744  1.00  0.00    -0.380 C  
BRANCH   3   4
HETATM    4  C   UNL     1      -9.802  20.351  67.257  1.00  0.00    -0.597 C  
BRANCH   4   5
HETATM    5  C   UNL     1     -10.753  19.165  67.192  1.00  0.00    -0.567 C  
BRANCH   5   6
HETATM    6  C   UNL     1     -10.353  18.097  68.206  1.00  0.00    -0.377 C  
BRANCH   6   7
HETATM    7  C   UNL     1     -10.460  16.720  67.576  1.00  0.00    -0.319 C  
BRANCH   7   8
HETATM    8  C   UNL     1      -9.926  16.709  66.147  1.00  0.00    -0.356 C  
BRANCH   8   9
HETATM    9  C   UNL     1     -10.405  15.435  65.466  1.00  0.00    -0.412 C  
BRANCH   9  10
HETATM   10  C   UNL     1     -10.061  14.192  66.275  1.00  0.00    -0.300 C  
BRANCH  10  11
HETATM   11  N   UNL     1     -11.282  13.258  66.481  1.00  0.00    -0.298 N  
HETATM   12  C   UNL     1     -11.777  13.342  67.925  1.00  0.00    -0.361 C  
HETATM   13  C   UNL     1     -12.412  13.647  65.524  1.00  0.00    -0.503 C  
BRANCH  11  14
HETATM   14  C   UNL     1     -10.782  11.825  66.166  1.00  0.00    -0.277 C  
BRANCH  14  15
HETATM   15  C   UNL     1     -10.540  11.001  67.422  1.00  0.00    -0.276 C  
BRANCH  15  16
HETATM   16  C   UNL     1     -10.724   9.511  67.174  1.00  0.00    -0.252 C  
BRANCH  16  17
HETATM   17  C   UNL     1     -10.361   8.763  68.453  1.00  0.00    -0.242 C  
BRANCH  17  18
HETATM   18  C   UNL     1      -9.720   7.418  68.153  1.00  0.00    -0.163 C  
BRANCH  18  19
HETATM   19  C   UNL     1     -10.723   6.301  68.408  1.00  0.00    -0.356 C  
BRANCH  19  20
HETATM   20  C   UNL     1     -11.516   6.573  69.682  1.00  0.00    -0.417 C  
BRANCH  20  21
HETATM   21  C   UNL     1     -10.819   5.971  70.898  1.00  0.00    -0.349 C  
BRANCH  21  22
HETATM   22  C   UNL     1     -11.226   6.707  72.170  1.00  0.00    -0.299 C  
HETATM   23  C   UNL     1     -12.002   7.971  71.850  1.00  0.00    -0.359 C  
ENDBRANCH  21  22
ENDBRANCH  20  21
ENDBRANCH  19  20
ENDBRANCH  18  19
ENDBRANCH  17  18
ENDBRANCH  16  17
ENDBRANCH  15  16
ENDBRANCH  14  15
ENDBRANCH  11  14
ENDBRANCH  10  11
ENDBRANCH   9  10
ENDBRANCH   8   9
ENDBRANCH   7   8
ENDBRANCH   6   7
ENDBRANCH   5   6
ENDBRANCH   4   5
ENDBRANCH   3   4
ENDBRANCH   2   3
TORSDOF 18
ENDMDL
MODEL      137
REMARK 921   NORMALIZED FREE ENERGY PREDICTED BY IDOCK:   -3.27 KCAL/MOL
REMARK 922        TOTAL FREE ENERGY PREDICTED BY IDOCK:   -9.41 KCAL/MOL
REMARK 923 INTER-LIGAND FREE ENERGY PREDICTED BY IDOCK:   -6.70 KCAL/MOL
REMARK 924 INTRA-LIGAND FREE ENERGY PREDICTED BY IDOCK:   -2.71 KCAL/MOL
REMARK 927      BINDING AFFINITY PREDICTED BY RF-SCORE:    0.00 PKD
ROOT
HETATM    1  C   UNL     1      -7.899  10.497  65.938  1.00  0.00    -0.151 C  
HETATM    2  C   UNL     1      -9.071  10.402  66.896  1.00  0.00    -0.159 C  
ENDROOT
BRANCH   2   3
HETATM    3  C   UNL     1     -10.401  10.473  66.151  1.00  0.00    -0.276 C  
BRANCH   3   4
HETATM    4  C   UNL     1     -10.560  11.824  65.463  1.00  0.00    -0.323 C  
BRANCH   4   5
HETATM    5  C   UNL     1     -12.024  12.111  65.161  1.00  0.00    -0.324 C  
BRANCH   5   6
HETATM    6  C   UNL     1     -12.153  13.261  64.168  1.00  0.00    -0.494 C  
BRANCH   6   7
HETATM    7  C   UNL     1     -12.156  14.587  64.910  1.00  0.00    -0.421 C  
BRANCH   7   8
HETATM    8  C   UNL     1     -10.959  15.452  64.526  1.00  0.00    -0.223 C  
BRANCH   8   9
HETATM    9  C   UNL     1     -10.678  16.413  65.672  1.00  0.00    -0.280 C  
BRANCH   9  10
HETATM   10  C   UNL     1      -9.212  16.394  66.086  1.00  0.00    -0.330 C  
BRANCH  10  11
HETATM   11  N   UNL     1      -8.977  17.053  67.470  1.00  0.00    -0.217 N  
HETATM   12  C   UNL     1      -7.768  17.988  67.415  1.00  0.00    -0.208 C  
HETATM   13  C   UNL     1     -10.218  17.838  67.900  1.00  0.00    -0.361 C  
BRANCH  11  14
HETATM   14  C   UNL     1      -8.710  15.887  68.458  1.00  0.00    -0.194 C  
BRANCH  14  15
HETATM   15  C   UNL     1      -8.557  14.547  67.754  1.00  0.00    -0.176 C  
BRANCH  15  16
HETATM   16  C   UNL     1      -9.488  13.489  68.327  1.00  0.00    -0.212 C  
BRANCH  16  17
HETATM   17  C   UNL     1     -10.827  14.148  68.643  1.00  0.00    -0.268 C  
BRANCH  17  18
HETATM   18  C   UNL     1     -11.940  13.122  68.772  1.00  0.00    -0.316 C  
BRANCH  18  19
HETATM   19  C   UNL     1     -12.141  12.761  70.238  1.00  0.00    -0.373 C  
BRANCH  19  20
HETATM   20  C   UNL     1     -12.233  11.249  70.408  1.00  0.00    -0.453 C  
BRANCH  20  21
HETATM   21  C   UNL     1     -10.942  10.569  69.961  1.00  0.00    -0.351 C  
BRANCH  21  22
HETATM   22  C   UNL     1     -11.000   9.071  70.239  1.00  0.00    -0.274 C  
HETATM   23  C   UNL     1      -9.969   8.663  71.275  1.00  0.00    -0.315 C  
ENDBRANCH  21  22
ENDBRANCH  20  21
ENDBRANCH  19  20
ENDBRANCH  18  19
ENDBRANCH  17  18
ENDBRANCH  16  17
ENDBRANCH  15  16
ENDBRANCH  14  15
ENDBRANCH  11  14
ENDBRANCH  10  11
ENDBRANCH   9  10
ENDBRANCH   8   9
ENDBRANCH   7   8
ENDBRANCH   6   7
ENDBRANCH   5   6
ENDBRANCH   4   5
ENDBRANCH   3   4
ENDBRANCH   2   3
TORSDOF 18
ENDMDL
MODEL      138
REMARK 921   NORMALIZED FREE ENERGY PREDICTED BY IDOCK:   -3.27 KCAL/MOL
REMARK 922        TOTAL FREE ENERGY PREDICTED BY IDOCK:   -9.40 KCAL/MOL
REMARK 923 INTER-LIGAND FREE ENERGY PREDICTED BY IDOCK:   -5.92 KCAL/MOL
REMARK 924 INTRA-LIGAND FREE ENERGY PREDICTED BY IDOCK:   -3.48 KCAL/MOL
REMARK 927      BINDING AFFINITY PREDICTED BY RF-SCORE:    0.00 PKD
ROOT
HETATM    1  C   UNL     1     -12.676  10.694  71.080  1.00  0.00    -0.512 C  
HETATM    2  C   UNL     1     -13.291   9.543  71.854  1.00  0.00    -0.518 C  
ENDROOT
BRANCH   2   3
HETATM    3  C   UNL     1     -12.223   8.563  72.329  1.00  0.00    -0.454 C  
BRANCH   3   4
HETATM    4  C   UNL     1     -12.535   7.151  71.847  1.00  0.00    -0.341 C  
BRANCH   4   5
HETATM    5  C   UNL     1     -11.892   6.884  70.494  1.00  0.00    -0.385 C  
BRANCH   5   6
HETATM    6  C   UNL     1     -10.903   5.726  70.588  1.00  0.00    -0.337 C  
BRANCH   6   7
HETATM    7  C   UNL     1     -10.308   5.442  69.220  1.00  0.00    -0.322 C  
BRANCH   7   8
HETATM    8  C   UNL     1     -10.997   6.251  68.126  1.00  0.00    -0.412 C  
BRANCH   8   9
HETATM    9  C   UNL     1     -10.581   5.682  66.777  1.00  0.00    -0.372 C  
BRANCH   9  10
HETATM   10  C   UNL     1      -9.439   4.684  66.906  1.00  0.00    -0.163 C  
BRANCH  10  11
HETATM   11  N   UNL     1      -8.112   5.217  66.305  1.00  0.00    -0.108 N  
HETATM   12  C   UNL     1      -7.213   5.770  67.411  1.00  0.00    -0.076 C  
HETATM   13  C   UNL     1      -7.383   4.097  65.558  1.00  0.00    -0.076 C  
BRANCH  11  14
HETATM   14  C   UNL     1      -8.512   6.347  65.321  1.00  0.00    -0.098 C  
BRANCH  14  15
HETATM   15  C   UNL     1      -7.987   7.709  65.750  1.00  0.00    -0.116 C  
BRANCH  15  16
HETATM   16  C   UNL     1      -8.881   8.844  65.271  1.00  0.00    -0.227 C  
BRANCH  16  17
HETATM   17  C   UNL     1      -9.737   9.308  66.445  1.00  0.00    -0.325 C  
BRANCH  17  18
HETATM   18  C   UNL     1      -8.967   9.257  67.754  1.00  0.00    -0.131 C  
BRANCH  18  19
HETATM   19  C   UNL     1      -9.869   9.696  68.900  1.00  0.00    -0.179 C  
BRANCH  19  20
HETATM   20  C   UNL     1      -9.231   9.359  70.243  1.00  0.00    -0.285 C  
BRANCH  20  21
HETATM   21  C   UNL     1      -8.153   8.291  70.083  1.00  0.00    -0.112 C  
BRANCH  21  22
HETATM   22  C   UNL     1      -7.849   7.629  71.422  1.00  0.00    -0.089 C  
HETATM   23  C   UNL     1      -8.691   8.224  72.535  1.00  0.00    -0.284 C  
ENDBRANCH  21  22
ENDBRANCH  20  21
ENDBRANCH  19  20
ENDBRANCH  18  19
ENDBRANCH  17  18
ENDBRANCH  16  17
ENDBRANCH  15  16
ENDBRANCH  14  15
ENDBRANCH  11  14
ENDBRANCH  10  11
ENDBRANCH   9  10
ENDBRANCH   8   9
ENDBRANCH   7   8
ENDBRANCH   6   7
ENDBRANCH   5   6
ENDBRANCH   4   5
ENDBRANCH   3   4
ENDBRANCH   2   3
TORSDOF 18
ENDMDL
MODEL      139
REMARK 921   NORMALIZED FREE ENERGY PREDICTED BY IDOCK:   -3.26 KCAL/MOL
REMARK 922        TOTAL FREE ENERGY PREDICTED BY IDOCK:   -9.40 KCAL/MOL
REMARK 923 INTER-LIGAND FREE ENERGY PREDICTED BY IDOCK:   -7.48 KCAL/MOL
REMARK 924 INTRA-LIGAND FREE ENERGY PREDICTED BY IDOCK:   -1.92 KCAL/MOL
REMARK 927      BINDING AFFINITY PREDICTED BY RF-SCORE:    0.00 PKD
ROOT
HETATM    1  C   UNL     1      -9.147   7.818  71.194  1.00  0.00    -0.152 C  
HETATM    2  C   UNL     1     -10.076   8.877  71.757  1.00  0.00    -0.407 C  
ENDROOT
BRANCH   2   3
HETATM    3  C   UNL     1     -11.351   8.252  72.315  1.00  0.00    -0.446 C  
BRANCH   3   4
HETATM    4  C   UNL     1     -12.567   9.098  71.957  1.00  0.00    -0.463 C  
BRANCH   4   5
HETATM    5  C   UNL     1     -12.280   9.977  70.748  1.00  0.00    -0.408 C  
BRANCH   5   6
HETATM    6  C   UNL     1     -12.641  11.430  71.041  1.00  0.00    -0.487 C  
BRANCH   6   7
HETATM    7  C   UNL     1     -11.917  12.348  70.072  1.00  0.00    -0.372 C  
BRANCH   7   8
HETATM    8  C   UNL     1     -11.659  11.665  68.732  1.00  0.00    -0.374 C  
BRANCH   8   9
HETATM    9  C   UNL     1     -11.812  12.703  67.629  1.00  0.00    -0.390 C  
BRANCH   9  10
HETATM   10  C   UNL     1     -11.268  12.205  66.297  1.00  0.00    -0.334 C  
BRANCH  10  11
HETATM   11  N   UNL     1     -11.841  12.991  65.089  1.00  0.00    -0.347 N  
HETATM   12  C   UNL     1     -12.302  12.024  63.998  1.00  0.00    -0.401 C  
HETATM   13  C   UNL     1     -13.017  13.864  65.536  1.00  0.00    -0.332 C  
BRANCH  11  14
HETATM   14  C   UNL     1     -10.682  13.878  64.567  1.00  0.00    -0.366 C  
BRANCH  14  15
HETATM   15  C   UNL     1     -10.078  14.752  65.656  1.00  0.00    -0.393 C  
BRANCH  15  16
HETATM   16  C   UNL     1     -10.502  16.208  65.524  1.00  0.00    -0.407 C  
BRANCH  16  17
HETATM   17  C   UNL     1     -10.045  16.957  66.771  1.00  0.00    -0.294 C  
BRANCH  17  18
HETATM   18  C   UNL     1     -11.017  16.769  67.924  1.00  0.00    -0.260 C  
BRANCH  18  19
HETATM   19  C   UNL     1     -10.259  16.329  69.170  1.00  0.00    -0.266 C  
BRANCH  19  20
HETATM   20  C   UNL     1      -8.771  16.185  68.869  1.00  0.00    -0.248 C  
BRANCH  20  21
HETATM   21  C   UNL     1      -8.214  14.899  69.471  1.00  0.00    -0.033 C  
BRANCH  21  22
HETATM   22  C   UNL     1      -8.097  13.813  68.407  1.00  0.00    -0.148 C  
HETATM   23  C   UNL     1      -6.880  14.034  67.527  1.00  0.00    -0.150 C  
ENDBRANCH  21  22
ENDBRANCH  20  21
ENDBRANCH  19  20
ENDBRANCH  18  19
ENDBRANCH  17  18
ENDBRANCH  16  17
ENDBRANCH  15  16
ENDBRANCH  14  15
ENDBRANCH  11  14
ENDBRANCH  10  11
ENDBRANCH   9  10
ENDBRANCH   8   9
ENDBRANCH   7   8
ENDBRANCH   6   7
ENDBRANCH   5   6
ENDBRANCH   4   5
ENDBRANCH   3   4
ENDBRANCH   2   3
TORSDOF 18
ENDMDL
MODEL      140
REMARK 921   NORMALIZED FREE ENERGY PREDICTED BY IDOCK:   -3.26 KCAL/MOL
REMARK 922        TOTAL FREE ENERGY PREDICTED BY IDOCK:   -9.40 KCAL/MOL
REMARK 923 INTER-LIGAND FREE ENERGY PREDICTED BY IDOCK:   -6.07 KCAL/MOL
REMARK 924 INTRA-LIGAND FREE ENERGY PREDICTED BY IDOCK:   -3.33 KCAL/MOL
REMARK 927      BINDING AFFINITY PREDICTED BY RF-SCORE:    0.00 PKD
ROOT
HETATM    1  C   UNL     1      -9.865  16.102  67.481  1.00  0.00    -0.237 C  
HETATM    2  C   UNL     1      -9.014  15.034  66.821  1.00  0.00    -0.293 C  
ENDROOT
BRANCH   2   3
HETATM    3  C   UNL     1      -8.539  14.001  67.838  1.00  0.00    -0.181 C  
BRANCH   3   4
HETATM    4  C   UNL     1      -7.832  12.844  67.140  1.00  0.00    -0.084 C  
BRANCH   4   5
HETATM    5  C   UNL     1      -8.287  11.508  67.708  1.00  0.00    -0.136 C  
BRANCH   5   6
HETATM    6  C   UNL     1      -8.000  10.379  66.723  1.00  0.00    -0.117 C  
BRANCH   6   7
HETATM    7  C   UNL     1      -9.214  10.141  65.842  1.00  0.00    -0.203 C  
BRANCH   7   8
HETATM    8  C   UNL     1     -10.268   9.295  66.550  1.00  0.00    -0.316 C  
BRANCH   8   9
HETATM    9  C   UNL     1      -9.768   7.858  66.607  1.00  0.00    -0.305 C  
BRANCH   9  10
HETATM   10  C   UNL     1     -10.666   6.975  67.464  1.00  0.00    -0.281 C  
BRANCH  10  11
HETATM   11  N   UNL     1     -10.001   6.577  68.807  1.00  0.00    -0.139 N  
HETATM   12  C   UNL     1     -10.233   5.093  69.095  1.00  0.00    -0.189 C  
HETATM   13  C   UNL     1      -8.498   6.865  68.760  1.00  0.00    -0.121 C  
BRANCH  11  14
HETATM   14  C   UNL     1     -10.680   7.448  69.895  1.00  0.00    -0.243 C  
BRANCH  14  15
HETATM   15  C   UNL     1      -9.745   8.502  70.469  1.00  0.00    -0.202 C  
BRANCH  15  16
HETATM   16  C   UNL     1     -10.227   9.916  70.178  1.00  0.00    -0.326 C  
BRANCH  16  17
HETATM   17  C   UNL     1     -11.720   9.986  70.483  1.00  0.00    -0.400 C  
BRANCH  17  18
HETATM   18  C   UNL     1     -12.397  11.108  69.714  1.00  0.00    -0.315 C  
BRANCH  18  19
HETATM   19  C   UNL     1     -11.444  12.288  69.577  1.00  0.00    -0.318 C  
BRANCH  19  20
HETATM   20  C   UNL     1     -11.907  13.225  68.467  1.00  0.00    -0.384 C  
BRANCH  20  21
HETATM   21  C   UNL     1     -11.764  12.564  67.099  1.00  0.00    -0.425 C  
BRANCH  21  22
HETATM   22  C   UNL     1     -12.269  13.491  65.999  1.00  0.00    -0.493 C  
HETATM   23  C   UNL     1     -11.374  13.431  64.775  1.00  0.00    -0.356 C  
ENDBRANCH  21  22
ENDBRANCH  20  21
ENDBRANCH  19  20
ENDBRANCH  18  19
ENDBRANCH  17  18
ENDBRANCH  16  17
ENDBRANCH  15  16
ENDBRANCH  14  15
ENDBRANCH  11  14
ENDBRANCH  10  11
ENDBRANCH   9  10
ENDBRANCH   8   9
ENDBRANCH   7   8
ENDBRANCH   6   7
ENDBRANCH   5   6
ENDBRANCH   4   5
ENDBRANCH   3   4
ENDBRANCH   2   3
TORSDOF 18
ENDMDL
MODEL      141
REMARK 921   NORMALIZED FREE ENERGY PREDICTED BY IDOCK:   -3.26 KCAL/MOL
REMARK 922        TOTAL FREE ENERGY PREDICTED BY IDOCK:   -9.40 KCAL/MOL
REMARK 923 INTER-LIGAND FREE ENERGY PREDICTED BY IDOCK:   -7.17 KCAL/MOL
REMARK 924 INTRA-LIGAND FREE ENERGY PREDICTED BY IDOCK:   -2.22 KCAL/MOL
REMARK 927      BINDING AFFINITY PREDICTED BY RF-SCORE:    0.00 PKD
ROOT
HETATM    1  C   UNL     1     -14.227   8.438  71.738  1.00  0.00    -0.536 C  
HETATM    2  C   UNL     1     -13.162   9.470  72.061  1.00  0.00    -0.539 C  
ENDROOT
BRANCH   2   3
HETATM    3  C   UNL     1     -12.116   9.549  70.954  1.00  0.00    -0.357 C  
BRANCH   3   4
HETATM    4  C   UNL     1     -10.728   9.236  71.501  1.00  0.00    -0.425 C  
BRANCH   4   5
HETATM    5  C   UNL     1     -10.716   7.890  72.212  1.00  0.00    -0.344 C  
BRANCH   5   6
HETATM    6  C   UNL     1     -10.110   6.814  71.317  1.00  0.00    -0.203 C  
BRANCH   6   7
HETATM    7  C   UNL     1     -11.209   6.107  70.543  1.00  0.00    -0.403 C  
BRANCH   7   8
HETATM    8  C   UNL     1     -10.771   5.770  69.121  1.00  0.00    -0.370 C  
BRANCH   8   9
HETATM    9  C   UNL     1      -9.884   6.897  68.615  1.00  0.00    -0.145 C  
BRANCH   9  10
HETATM   10  C   UNL     1     -10.556   7.703  67.512  1.00  0.00    -0.252 C  
BRANCH  10  11
HETATM   11  N   UNL     1      -9.885   9.083  67.289  1.00  0.00    -0.181 N  
HETATM   12  C   UNL     1      -8.739   9.282  68.281  1.00  0.00    -0.129 C  
HETATM   13  C   UNL     1      -9.352   9.186  65.857  1.00  0.00    -0.243 C  
BRANCH  11  14
HETATM   14  C   UNL     1     -10.992  10.141  67.527  1.00  0.00    -0.255 C  
BRANCH  14  15
HETATM   15  C   UNL     1     -10.450  11.432  68.124  1.00  0.00    -0.212 C  
BRANCH  15  16
HETATM   16  C   UNL     1     -10.184  12.487  67.060  1.00  0.00    -0.231 C  
BRANCH  16  17
HETATM   17  C   UNL     1     -11.465  12.694  66.258  1.00  0.00    -0.415 C  
BRANCH  17  18
HETATM   18  C   UNL     1     -11.950  14.131  66.337  1.00  0.00    -0.457 C  
BRANCH  18  19
HETATM   19  C   UNL     1     -10.757  15.079  66.334  1.00  0.00    -0.322 C  
BRANCH  19  20
HETATM   20  C   UNL     1     -10.856  16.067  67.490  1.00  0.00    -0.292 C  
BRANCH  20  21
HETATM   21  C   UNL     1     -11.752  15.523  68.599  1.00  0.00    -0.363 C  
BRANCH  21  22
HETATM   22  C   UNL     1     -10.913  14.916  69.718  1.00  0.00    -0.280 C  
HETATM   23  C   UNL     1      -9.464  15.357  69.622  1.00  0.00    -0.220 C  
ENDBRANCH  21  22
ENDBRANCH  20  21
ENDBRANCH  19  20
ENDBRANCH  18  19
ENDBRANCH  17  18
ENDBRANCH  16  17
ENDBRANCH  15  16
ENDBRANCH  14  15
ENDBRANCH  11  14
ENDBRANCH  10  11
ENDBRANCH   9  10
ENDBRANCH   8   9
ENDBRANCH   7   8
ENDBRANCH   6   7
ENDBRANCH   5   6
ENDBRANCH   4   5
ENDBRANCH   3   4
ENDBRANCH   2   3
TORSDOF 18
ENDMDL
MODEL      142
REMARK 921   NORMALIZED FREE ENERGY PREDICTED BY IDOCK:   -3.26 KCAL/MOL
REMARK 922        TOTAL FREE ENERGY PREDICTED BY IDOCK:   -9.39 KCAL/MOL
REMARK 923 INTER-LIGAND FREE ENERGY PREDICTED BY IDOCK:   -6.38 KCAL/MOL
REMARK 924 INTRA-LIGAND FREE ENERGY PREDICTED BY IDOCK:   -3.01 KCAL/MOL
REMARK 927      BINDING AFFINITY PREDICTED BY RF-SCORE:    0.00 PKD
ROOT
HETATM    1  C   UNL     1     -10.276  10.806  64.823  1.00  0.00    -0.403 C  
HETATM    2  C   UNL     1     -10.262  12.080  63.998  1.00  0.00    -0.391 C  
ENDROOT
BRANCH   2   3
HETATM    3  C   UNL     1     -10.682  13.284  64.836  1.00  0.00    -0.365 C  
BRANCH   3   4
HETATM    4  C   UNL     1     -11.993  13.004  65.561  1.00  0.00    -0.470 C  
BRANCH   4   5
HETATM    5  C   UNL     1     -12.157  13.925  66.762  1.00  0.00    -0.476 C  
BRANCH   5   6
HETATM    6  C   UNL     1     -11.534  13.302  68.007  1.00  0.00    -0.344 C  
BRANCH   6   7
HETATM    7  C   UNL     1     -11.877  11.823  68.072  1.00  0.00    -0.304 C  
BRANCH   7   8
HETATM    8  C   UNL     1     -12.034  11.343  69.511  1.00  0.00    -0.409 C  
BRANCH   8   9
HETATM    9  C   UNL     1     -11.275  10.032  69.663  1.00  0.00    -0.285 C  
BRANCH   9  10
HETATM   10  C   UNL     1      -9.769  10.247  69.718  1.00  0.00    -0.144 C  
BRANCH  10  11
HETATM   11  N   UNL     1      -8.998   9.305  68.756  1.00  0.00    -0.132 N  
HETATM   12  C   UNL     1      -8.097   8.358  69.550  1.00  0.00    -0.113 C  
HETATM   13  C   UNL     1      -9.982   8.493  67.910  1.00  0.00    -0.181 C  
BRANCH  11  14
HETATM   14  C   UNL     1      -8.143  10.227  67.849  1.00  0.00    -0.102 C  
BRANCH  14  15
HETATM   15  C   UNL     1      -8.087  11.660  68.358  1.00  0.00    -0.153 C  
BRANCH  15  16
HETATM   16  C   UNL     1      -7.885  12.661  67.230  1.00  0.00    -0.155 C  
BRANCH  16  17
HETATM   17  C   UNL     1      -7.854  14.062  67.831  1.00  0.00    -0.161 C  
BRANCH  17  18
HETATM   18  C   UNL     1      -8.334  15.108  66.839  1.00  0.00    -0.267 C  
BRANCH  18  19
HETATM   19  C   UNL     1      -9.297  16.067  67.525  1.00  0.00    -0.217 C  
BRANCH  19  20
HETATM   20  C   UNL     1      -9.985  16.961  66.499  1.00  0.00    -0.309 C  
BRANCH  20  21
HETATM   21  C   UNL     1      -9.325  18.335  66.442  1.00  0.00    -0.280 C  
BRANCH  21  22
HETATM   22  C   UNL     1      -9.423  19.036  67.792  1.00  0.00    -0.353 C  
HETATM   23  C   UNL     1      -8.059  19.491  68.277  1.00  0.00    -0.369 C  
ENDBRANCH  21  22
ENDBRANCH  20  21
ENDBRANCH  19  20
ENDBRANCH  18  19
ENDBRANCH  17  18
ENDBRANCH  16  17
ENDBRANCH  15  16
ENDBRANCH  14  15
ENDBRANCH  11  14
ENDBRANCH  10  11
ENDBRANCH   9  10
ENDBRANCH   8   9
ENDBRANCH   7   8
ENDBRANCH   6   7
ENDBRANCH   5   6
ENDBRANCH   4   5
ENDBRANCH   3   4
ENDBRANCH   2   3
TORSDOF 18
ENDMDL
MODEL      143
REMARK 921   NORMALIZED FREE ENERGY PREDICTED BY IDOCK:   -3.25 KCAL/MOL
REMARK 922        TOTAL FREE ENERGY PREDICTED BY IDOCK:   -9.38 KCAL/MOL
REMARK 923 INTER-LIGAND FREE ENERGY PREDICTED BY IDOCK:   -6.97 KCAL/MOL
REMARK 924 INTRA-LIGAND FREE ENERGY PREDICTED BY IDOCK:   -2.41 KCAL/MOL
REMARK 927      BINDING AFFINITY PREDICTED BY RF-SCORE:    0.00 PKD
ROOT
HETATM    1  C   UNL     1     -10.881  12.075  63.429  1.00  0.00    -0.471 C  
HETATM    2  C   UNL     1      -9.940  10.912  63.177  1.00  0.00    -0.368 C  
ENDROOT
BRANCH   2   3
HETATM    3  C   UNL     1      -9.117  10.588  64.420  1.00  0.00    -0.254 C  
BRANCH   3   4
HETATM    4  C   UNL     1     -10.008  10.036  65.526  1.00  0.00    -0.367 C  
BRANCH   4   5
HETATM    5  C   UNL     1      -9.404   8.779  66.134  1.00  0.00    -0.297 C  
BRANCH   5   6
HETATM    6  C   UNL     1     -10.464   7.985  66.891  1.00  0.00    -0.387 C  
BRANCH   6   7
HETATM    7  C   UNL     1      -9.804   6.876  67.694  1.00  0.00    -0.164 C  
BRANCH   7   8
HETATM    8  C   UNL     1     -10.820   5.847  68.178  1.00  0.00    -0.323 C  
BRANCH   8   9
HETATM    9  C   UNL     1     -10.801   5.836  69.700  1.00  0.00    -0.418 C  
BRANCH   9  10
HETATM   10  C   UNL     1     -11.785   6.836  70.291  1.00  0.00    -0.341 C  
BRANCH  10  11
HETATM   11  N   UNL     1     -11.099   7.858  71.235  1.00  0.00    -0.246 N  
HETATM   12  C   UNL     1     -11.835   7.920  72.574  1.00  0.00    -0.335 C  
HETATM   13  C   UNL     1      -9.638   7.466  71.467  1.00  0.00    -0.151 C  
BRANCH  11  14
HETATM   14  C   UNL     1     -11.180   9.228  70.513  1.00  0.00    -0.265 C  
BRANCH  14  15
HETATM   15  C   UNL     1      -9.821   9.721  70.040  1.00  0.00    -0.295 C  
BRANCH  15  16
HETATM   16  C   UNL     1      -9.931  10.985  69.199  1.00  0.00    -0.142 C  
BRANCH  16  17
HETATM   17  C   UNL     1     -11.409  11.330  69.044  1.00  0.00    -0.344 C  
BRANCH  17  18
HETATM   18  C   UNL     1     -11.651  12.226  67.840  1.00  0.00    -0.416 C  
BRANCH  18  19
HETATM   19  C   UNL     1     -10.465  13.160  67.645  1.00  0.00    -0.225 C  
BRANCH  19  20
HETATM   20  C   UNL     1     -10.645  13.997  66.384  1.00  0.00    -0.280 C  
BRANCH  20  21
HETATM   21  C   UNL     1      -9.726  15.215  66.400  1.00  0.00    -0.300 C  
BRANCH  21  22
HETATM   22  C   UNL     1      -9.718  15.864  67.780  1.00  0.00    -0.220 C  
HETATM   23  C   UNL     1     -10.513  17.157  67.786  1.00  0.00    -0.362 C  
ENDBRANCH  21  22
ENDBRANCH  20  21
ENDBRANCH  19  20
ENDBRANCH  18  19
ENDBRANCH  17  18
ENDBRANCH  16  17
ENDBRANCH  15  16
ENDBRANCH  14  15
ENDBRANCH  11  14
ENDBRANCH  10  11
ENDBRANCH   9  10
ENDBRANCH   8   9
ENDBRANCH   7   8
ENDBRANCH   6   7
ENDBRANCH   5   6
ENDBRANCH   4   5
ENDBRANCH   3   4
ENDBRANCH   2   3
TORSDOF 18
ENDMDL
MODEL      144
REMARK 921   NORMALIZED FREE ENERGY PREDICTED BY IDOCK:   -3.24 KCAL/MOL
REMARK 922        TOTAL FREE ENERGY PREDICTED BY IDOCK:   -9.36 KCAL/MOL
REMARK 923 INTER-LIGAND FREE ENERGY PREDICTED BY IDOCK:   -6.45 KCAL/MOL
REMARK 924 INTRA-LIGAND FREE ENERGY PREDICTED BY IDOCK:   -2.91 KCAL/MOL
REMARK 927      BINDING AFFINITY PREDICTED BY RF-SCORE:    0.00 PKD
ROOT
HETATM    1  C   UNL     1      -8.981  16.801  66.148  1.00  0.00    -0.295 C  
HETATM    2  C   UNL     1     -10.413  16.476  65.765  1.00  0.00    -0.343 C  
ENDROOT
BRANCH   2   3
HETATM    3  C   UNL     1     -10.509  15.108  65.096  1.00  0.00    -0.437 C  
BRANCH   3   4
HETATM    4  C   UNL     1     -11.850  14.948  64.390  1.00  0.00    -0.372 C  
BRANCH   4   5
HETATM    5  C   UNL     1     -12.752  13.985  65.148  1.00  0.00    -0.419 C  
BRANCH   5   6
HETATM    6  C   UNL     1     -12.269  12.548  64.978  1.00  0.00    -0.519 C  
BRANCH   6   7
HETATM    7  C   UNL     1     -12.045  12.249  63.505  1.00  0.00    -0.649 C  
BRANCH   7   8
HETATM    8  C   UNL     1     -10.621  11.772  63.237  1.00  0.00    -0.427 C  
BRANCH   8   9
HETATM    9  C   UNL     1     -10.267  10.716  64.273  1.00  0.00    -0.391 C  
BRANCH   9  10
HETATM   10  C   UNL     1      -8.867  10.156  64.064  1.00  0.00    -0.228 C  
BRANCH  10  11
HETATM   11  N   UNL     1      -8.325   9.423  65.319  1.00  0.00    -0.134 N  
HETATM   12  C   UNL     1      -7.574   8.156  64.911  1.00  0.00    -0.098 C  
HETATM   13  C   UNL     1      -7.392  10.345  66.109  1.00  0.00    -0.131 C  
BRANCH  11  14
HETATM   14  C   UNL     1      -9.569   9.060  66.172  1.00  0.00    -0.272 C  
BRANCH  14  15
HETATM   15  C   UNL     1      -9.551   9.721  67.543  1.00  0.00    -0.178 C  
BRANCH  15  16
HETATM   16  C   UNL     1     -10.914  10.281  67.926  1.00  0.00    -0.350 C  
BRANCH  16  17
HETATM   17  C   UNL     1     -10.732  11.732  68.358  1.00  0.00    -0.249 C  
BRANCH  17  18
HETATM   18  C   UNL     1      -9.910  12.518  67.351  1.00  0.00    -0.201 C  
BRANCH  18  19
HETATM   19  C   UNL     1      -8.984  13.482  68.080  1.00  0.00    -0.187 C  
BRANCH  19  20
HETATM   20  C   UNL     1      -9.671  14.049  69.318  1.00  0.00     0.275 C  
BRANCH  20  21
HETATM   21  C   UNL     1      -9.706  15.574  69.273  1.00  0.00    -0.272 C  
BRANCH  21  22
HETATM   22  C   UNL     1     -11.123  16.085  69.507  1.00  0.00    -0.333 C  
HETATM   23  C   UNL     1     -12.157  15.078  69.037  1.00  0.00    -0.243 C  
ENDBRANCH  21  22
ENDBRANCH  20  21
ENDBRANCH  19  20
ENDBRANCH  18  19
ENDBRANCH  17  18
ENDBRANCH  16  17
ENDBRANCH  15  16
ENDBRANCH  14  15
ENDBRANCH  11  14
ENDBRANCH  10  11
ENDBRANCH   9  10
ENDBRANCH   8   9
ENDBRANCH   7   8
ENDBRANCH   6   7
ENDBRANCH   5   6
ENDBRANCH   4   5
ENDBRANCH   3   4
ENDBRANCH   2   3
TORSDOF 18
ENDMDL
MODEL      145
REMARK 921   NORMALIZED FREE ENERGY PREDICTED BY IDOCK:   -3.24 KCAL/MOL
REMARK 922        TOTAL FREE ENERGY PREDICTED BY IDOCK:   -9.35 KCAL/MOL
REMARK 923 INTER-LIGAND FREE ENERGY PREDICTED BY IDOCK:   -7.51 KCAL/MOL
REMARK 924 INTRA-LIGAND FREE ENERGY PREDICTED BY IDOCK:   -1.83 KCAL/MOL
REMARK 927      BINDING AFFINITY PREDICTED BY RF-SCORE:    0.00 PKD
ROOT
HETATM    1  C   UNL     1     -10.187  17.738  66.160  1.00  0.00    -0.339 C  
HETATM    2  C   UNL     1     -10.532  16.260  66.191  1.00  0.00    -0.330 C  
ENDROOT
BRANCH   2   3
HETATM    3  C   UNL     1     -10.896  15.750  64.800  1.00  0.00    -0.365 C  
BRANCH   3   4
HETATM    4  C   UNL     1     -10.726  14.237  64.721  1.00  0.00    -0.435 C  
BRANCH   4   5
HETATM    5  C   UNL     1     -11.949  13.585  64.092  1.00  0.00    -0.498 C  
BRANCH   5   6
HETATM    6  C   UNL     1     -11.583  12.239  63.474  1.00  0.00    -0.570 C  
BRANCH   6   7
HETATM    7  C   UNL     1     -10.090  11.995  63.614  1.00  0.00    -0.439 C  
BRANCH   7   8
HETATM    8  C   UNL     1      -9.750  10.511  63.522  1.00  0.00    -0.374 C  
BRANCH   8   9
HETATM    9  C   UNL     1      -9.666   9.951  64.935  1.00  0.00    -0.332 C  
BRANCH   9  10
HETATM   10  C   UNL     1      -8.568   8.906  65.071  1.00  0.00    -0.176 C  
BRANCH  10  11
HETATM   11  N   UNL     1      -8.772   7.985  66.302  1.00  0.00    -0.145 N  
HETATM   12  C   UNL     1      -8.752   6.516  65.875  1.00  0.00    -0.141 C  
HETATM   13  C   UNL     1      -7.674   8.236  67.339  1.00  0.00    -0.102 C  
BRANCH  11  14
HETATM   14  C   UNL     1     -10.159   8.356  66.888  1.00  0.00    -0.294 C  
BRANCH  14  15
HETATM   15  C   UNL     1     -10.081   8.793  68.343  1.00  0.00    -0.217 C  
BRANCH  15  16
HETATM   16  C   UNL     1     -11.109   9.866  68.675  1.00  0.00    -0.182 C  
BRANCH  16  17
HETATM   17  C   UNL     1     -10.488  11.229  68.391  1.00  0.00    -0.219 C  
BRANCH  17  18
HETATM   18  C   UNL     1     -11.471  12.161  67.703  1.00  0.00    -0.399 C  
BRANCH  18  19
HETATM   19  C   UNL     1     -11.719  13.385  68.574  1.00  0.00    -0.392 C  
BRANCH  19  20
HETATM   20  C   UNL     1     -11.903  12.976  70.031  1.00  0.00    -0.355 C  
BRANCH  20  21
HETATM   21  C   UNL     1     -12.923  13.873  70.726  1.00  0.00    -0.265 C  
BRANCH  21  22
HETATM   22  C   UNL     1     -12.281  14.610  71.896  1.00  0.00    -0.390 C  
HETATM   23  C   UNL     1     -11.815  15.995  71.485  1.00  0.00    -0.554 C  
ENDBRANCH  21  22
ENDBRANCH  20  21
ENDBRANCH  19  20
ENDBRANCH  18  19
ENDBRANCH  17  18
ENDBRANCH  16  17
ENDBRANCH  15  16
ENDBRANCH  14  15
ENDBRANCH  11  14
ENDBRANCH  10  11
ENDBRANCH   9  10
ENDBRANCH   8   9
ENDBRANCH   7   8
ENDBRANCH   6   7
ENDBRANCH   5   6
ENDBRANCH   4   5
ENDBRANCH   3   4
ENDBRANCH   2   3
TORSDOF 18
ENDMDL
MODEL      146
REMARK 921   NORMALIZED FREE ENERGY PREDICTED BY IDOCK:   -3.24 KCAL/MOL
REMARK 922        TOTAL FREE ENERGY PREDICTED BY IDOCK:   -9.35 KCAL/MOL
REMARK 923 INTER-LIGAND FREE ENERGY PREDICTED BY IDOCK:   -6.94 KCAL/MOL
REMARK 924 INTRA-LIGAND FREE ENERGY PREDICTED BY IDOCK:   -2.41 KCAL/MOL
REMARK 927      BINDING AFFINITY PREDICTED BY RF-SCORE:    0.00 PKD
ROOT
HETATM    1  C   UNL     1      -7.049  14.296  68.670  1.00  0.00    -0.111 C  
HETATM    2  C   UNL     1      -8.515  13.916  68.577  1.00  0.00    -0.127 C  
ENDROOT
BRANCH   2   3
HETATM    3  C   UNL     1      -9.309  14.963  67.803  1.00  0.00    -0.194 C  
BRANCH   3   4
HETATM    4  C   UNL     1     -10.698  15.141  68.406  1.00  0.00    -0.248 C  
BRANCH   4   5
HETATM    5  C   UNL     1     -11.772  15.045  67.333  1.00  0.00    -0.255 C  
BRANCH   5   6
HETATM    6  C   UNL     1     -12.021  13.590  66.949  1.00  0.00    -0.447 C  
BRANCH   6   7
HETATM    7  C   UNL     1     -12.730  13.523  65.607  1.00  0.00    -0.478 C  
BRANCH   7   8
HETATM    8  C   UNL     1     -12.018  12.584  64.638  1.00  0.00    -0.468 C  
BRANCH   8   9
HETATM    9  C   UNL     1     -11.161  11.622  65.448  1.00  0.00    -0.299 C  
BRANCH   9  10
HETATM   10  C   UNL     1      -9.748  11.508  64.892  1.00  0.00    -0.234 C  
BRANCH  10  11
HETATM   11  N   UNL     1      -8.924  10.391  65.583  1.00  0.00    -0.168 N  
HETATM   12  C   UNL     1      -8.765   9.192  64.647  1.00  0.00    -0.166 C  
HETATM   13  C   UNL     1      -7.545  10.921  65.983  1.00  0.00    -0.094 C  
BRANCH  11  14
HETATM   14  C   UNL     1      -9.729   9.984  66.844  1.00  0.00    -0.189 C  
BRANCH  14  15
HETATM   15  C   UNL     1      -8.845   9.798  68.068  1.00  0.00    -0.119 C  
BRANCH  15  16
HETATM   16  C   UNL     1      -9.425  10.475  69.302  1.00  0.00    -0.191 C  
BRANCH  16  17
HETATM   17  C   UNL     1     -10.914  10.704  69.068  1.00  0.00    -0.295 C  
BRANCH  17  18
HETATM   18  C   UNL     1     -11.678  10.811  70.377  1.00  0.00    -0.445 C  
BRANCH  18  19
HETATM   19  C   UNL     1     -12.242  12.217  70.532  1.00  0.00    -0.392 C  
BRANCH  19  20
HETATM   20  C   UNL     1     -13.190  12.285  71.724  1.00  0.00    -0.428 C  
BRANCH  20  21
HETATM   21  C   UNL     1     -13.411  13.729  72.165  1.00  0.00    -0.596 C  
BRANCH  21  22
HETATM   22  C   UNL     1     -12.650  14.690  71.258  1.00  0.00    -0.403 C  
HETATM   23  C   UNL     1     -12.085  15.858  72.045  1.00  0.00    -0.591 C  
ENDBRANCH  21  22
ENDBRANCH  20  21
ENDBRANCH  19  20
ENDBRANCH  18  19
ENDBRANCH  17  18
ENDBRANCH  16  17
ENDBRANCH  15  16
ENDBRANCH  14  15
ENDBRANCH  11  14
ENDBRANCH  10  11
ENDBRANCH   9  10
ENDBRANCH   8   9
ENDBRANCH   7   8
ENDBRANCH   6   7
ENDBRANCH   5   6
ENDBRANCH   4   5
ENDBRANCH   3   4
ENDBRANCH   2   3
TORSDOF 18
ENDMDL
MODEL      147
REMARK 921   NORMALIZED FREE ENERGY PREDICTED BY IDOCK:   -3.22 KCAL/MOL
REMARK 922        TOTAL FREE ENERGY PREDICTED BY IDOCK:   -9.32 KCAL/MOL
REMARK 923 INTER-LIGAND FREE ENERGY PREDICTED BY IDOCK:   -6.50 KCAL/MOL
REMARK 924 INTRA-LIGAND FREE ENERGY PREDICTED BY IDOCK:   -2.82 KCAL/MOL
REMARK 927      BINDING AFFINITY PREDICTED BY RF-SCORE:    0.00 PKD
ROOT
HETATM    1  C   UNL     1      -9.917   5.862  69.457  1.00  0.00    -0.238 C  
HETATM    2  C   UNL     1     -10.580   7.032  70.159  1.00  0.00    -0.249 C  
ENDROOT
BRANCH   2   3
HETATM    3  C   UNL     1     -12.036   6.722  70.496  1.00  0.00    -0.385 C  
BRANCH   3   4
HETATM    4  C   UNL     1     -12.436   7.378  71.812  1.00  0.00    -0.367 C  
BRANCH   4   5
HETATM    5  C   UNL     1     -11.900   8.800  71.894  1.00  0.00    -0.437 C  
BRANCH   5   6
HETATM    6  C   UNL     1     -13.033   9.812  71.761  1.00  0.00    -0.536 C  
BRANCH   6   7
HETATM    7  C   UNL     1     -12.495  11.122  71.213  1.00  0.00    -0.466 C  
BRANCH   7   8
HETATM    8  C   UNL     1     -11.793  10.928  69.873  1.00  0.00    -0.427 C  
BRANCH   8   9
HETATM    9  C   UNL     1     -11.593  12.296  69.236  1.00  0.00    -0.383 C  
BRANCH   9  10
HETATM   10  C   UNL     1     -11.828  12.265  67.732  1.00  0.00    -0.273 C  
BRANCH  10  11
HETATM   11  N   UNL     1     -11.487  13.615  67.049  1.00  0.00    -0.327 N  
HETATM   12  C   UNL     1     -12.417  13.858  65.860  1.00  0.00    -0.481 C  
HETATM   13  C   UNL     1     -11.620  14.764  68.052  1.00  0.00    -0.343 C  
BRANCH  11  14
HETATM   14  C   UNL     1     -10.019  13.492  66.566  1.00  0.00    -0.287 C  
BRANCH  14  15
HETATM   15  C   UNL     1      -9.696  12.108  66.023  1.00  0.00    -0.258 C  
BRANCH  15  16
HETATM   16  C   UNL     1      -8.359  11.589  66.534  1.00  0.00    -0.147 C  
BRANCH  16  17
HETATM   17  C   UNL     1      -8.105  12.194  67.911  1.00  0.00    -0.153 C  
BRANCH  17  18
HETATM   18  C   UNL     1      -7.562  11.163  68.885  1.00  0.00    -0.133 C  
BRANCH  18  19
HETATM   19  C   UNL     1      -8.424   9.908  68.840  1.00  0.00    -0.127 C  
BRANCH  19  20
HETATM   20  C   UNL     1      -7.553   8.658  68.891  1.00  0.00    -0.092 C  
BRANCH  20  21
HETATM   21  C   UNL     1      -7.346   8.079  67.495  1.00  0.00    -0.089 C  
BRANCH  21  22
HETATM   22  C   UNL     1      -8.678   7.946  66.765  1.00  0.00    -0.143 C  
HETATM   23  C   UNL     1      -8.518   8.192  65.276  1.00  0.00    -0.157 C  
ENDBRANCH  21  22
ENDBRANCH  20  21
ENDBRANCH  19  20
ENDBRANCH  18  19
ENDBRANCH  17  18
ENDBRANCH  16  17
ENDBRANCH  15  16
ENDBRANCH  14  15
ENDBRANCH  11  14
ENDBRANCH  10  11
ENDBRANCH   9  10
ENDBRANCH   8   9
ENDBRANCH   7   8
ENDBRANCH   6   7
ENDBRANCH   5   6
ENDBRANCH   4   5
ENDBRANCH   3   4
ENDBRANCH   2   3
TORSDOF 18
ENDMDL
MODEL      148
REMARK 921   NORMALIZED FREE ENERGY PREDICTED BY IDOCK:   -3.22 KCAL/MOL
REMARK 922        TOTAL FREE ENERGY PREDICTED BY IDOCK:   -9.31 KCAL/MOL
REMARK 923 INTER-LIGAND FREE ENERGY PREDICTED BY IDOCK:   -7.01 KCAL/MOL
REMARK 924 INTRA-LIGAND FREE ENERGY PREDICTED BY IDOCK:   -2.30 KCAL/MOL
REMARK 927      BINDING AFFINITY PREDICTED BY RF-SCORE:    0.00 PKD
ROOT
HETATM    1  C   UNL     1     -12.788  11.164  71.653  1.00  0.00    -0.524 C  
HETATM    2  C   UNL     1     -13.316   9.811  71.214  1.00  0.00    -0.413 C  
ENDROOT
BRANCH   2   3
HETATM    3  C   UNL     1     -12.688   8.684  72.028  1.00  0.00    -0.427 C  
BRANCH   3   4
HETATM    4  C   UNL     1     -13.098   7.325  71.471  1.00  0.00    -0.434 C  
BRANCH   4   5
HETATM    5  C   UNL     1     -11.880   6.533  71.019  1.00  0.00    -0.390 C  
BRANCH   5   6
HETATM    6  C   UNL     1     -11.408   5.594  72.124  1.00  0.00    -0.277 C  
BRANCH   6   7
HETATM    7  C   UNL     1     -10.103   4.932  71.717  1.00  0.00    -0.267 C  
BRANCH   7   8
HETATM    8  C   UNL     1      -9.687   5.324  70.303  1.00  0.00    -0.261 C  
BRANCH   8   9
HETATM    9  C   UNL     1      -8.337   6.022  70.377  1.00  0.00    -0.124 C  
BRANCH   9  10
HETATM   10  C   UNL     1      -7.931   6.329  71.812  1.00  0.00    -0.102 C  
BRANCH  10  11
HETATM   11  N   UNL     1      -7.940   7.849  72.120  1.00  0.00    -0.110 N  
HETATM   12  C   UNL     1      -9.075   8.188  73.087  1.00  0.00    -0.265 C  
HETATM   13  C   UNL     1      -6.600   8.274  72.727  1.00  0.00    -0.091 C  
BRANCH  11  14
HETATM   14  C   UNL     1      -8.162   8.560  70.760  1.00  0.00    -0.130 C  
BRANCH  14  15
HETATM   15  C   UNL     1      -9.522   9.236  70.668  1.00  0.00    -0.333 C  
BRANCH  15  16
HETATM   16  C   UNL     1      -9.618  10.168  69.469  1.00  0.00    -0.243 C  
BRANCH  16  17
HETATM   17  C   UNL     1     -10.712   9.646  68.542  1.00  0.00    -0.239 C  
BRANCH  17  18
HETATM   18  C   UNL     1     -11.070  10.662  67.471  1.00  0.00    -0.367 C  
BRANCH  18  19
HETATM   19  C   UNL     1     -11.783  11.849  68.104  1.00  0.00    -0.388 C  
BRANCH  19  20
HETATM   20  C   UNL     1     -11.900  12.997  67.107  1.00  0.00    -0.431 C  
BRANCH  20  21
HETATM   21  C   UNL     1     -11.700  12.503  65.678  1.00  0.00    -0.473 C  
BRANCH  21  22
HETATM   22  C   UNL     1     -11.116  13.607  64.804  1.00  0.00    -0.375 C  
HETATM   23  C   UNL     1     -10.845  14.863  65.611  1.00  0.00    -0.347 C  
ENDBRANCH  21  22
ENDBRANCH  20  21
ENDBRANCH  19  20
ENDBRANCH  18  19
ENDBRANCH  17  18
ENDBRANCH  16  17
ENDBRANCH  15  16
ENDBRANCH  14  15
ENDBRANCH  11  14
ENDBRANCH  10  11
ENDBRANCH   9  10
ENDBRANCH   8   9
ENDBRANCH   7   8
ENDBRANCH   6   7
ENDBRANCH   5   6
ENDBRANCH   4   5
ENDBRANCH   3   4
ENDBRANCH   2   3
TORSDOF 18
ENDMDL
MODEL      149
REMARK 921   NORMALIZED FREE ENERGY PREDICTED BY IDOCK:   -3.21 KCAL/MOL
REMARK 922        TOTAL FREE ENERGY PREDICTED BY IDOCK:   -9.29 KCAL/MOL
REMARK 923 INTER-LIGAND FREE ENERGY PREDICTED BY IDOCK:   -6.32 KCAL/MOL
REMARK 924 INTRA-LIGAND FREE ENERGY PREDICTED BY IDOCK:   -2.97 KCAL/MOL
REMARK 927      BINDING AFFINITY PREDICTED BY RF-SCORE:    0.00 PKD
ROOT
HETATM    1  C   UNL     1     -10.932   6.319  68.691  1.00  0.00    -0.423 C  
HETATM    2  C   UNL     1      -9.642   6.966  69.159  1.00  0.00    -0.144 C  
ENDROOT
BRANCH   2   3
HETATM    3  C   UNL     1      -9.457   8.344  68.531  1.00  0.00    -0.149 C  
BRANCH   3   4
HETATM    4  C   UNL     1     -10.545   8.615  67.498  1.00  0.00    -0.292 C  
BRANCH   4   5
HETATM    5  C   UNL     1      -9.951   9.193  66.222  1.00  0.00    -0.352 C  
BRANCH   5   6
HETATM    6  C   UNL     1      -8.428   9.196  66.291  1.00  0.00    -0.131 C  
BRANCH   6   7
HETATM    7  C   UNL     1      -7.896  10.570  65.919  1.00  0.00    -0.151 C  
BRANCH   7   8
HETATM    8  C   UNL     1      -7.894  11.517  67.114  1.00  0.00    -0.160 C  
BRANCH   8   9
HETATM    9  C   UNL     1      -8.939  12.596  66.870  1.00  0.00    -0.213 C  
BRANCH   9  10
HETATM   10  C   UNL     1      -9.640  13.014  68.156  1.00  0.00    -0.227 C  
BRANCH  10  11
HETATM   11  N   UNL     1     -11.123  13.405  67.925  1.00  0.00    -0.256 N  
HETATM   12  C   UNL     1     -11.255  14.921  67.772  1.00  0.00    -0.321 C  
HETATM   13  C   UNL     1     -11.665  12.710  66.673  1.00  0.00    -0.398 C  
BRANCH  11  14
HETATM   14  C   UNL     1     -11.893  12.923  69.182  1.00  0.00    -0.303 C  
BRANCH  14  15
HETATM   15  C   UNL     1     -11.421  11.562  69.671  1.00  0.00    -0.373 C  
BRANCH  15  16
HETATM   16  C   UNL     1     -12.545  10.765  70.318  1.00  0.00    -0.350 C  
BRANCH  16  17
HETATM   17  C   UNL     1     -11.924   9.644  71.145  1.00  0.00    -0.452 C  
BRANCH  17  18
HETATM   18  C   UNL     1     -12.884   8.480  71.321  1.00  0.00    -0.202 C  
BRANCH  18  19
HETATM   19  C   UNL     1     -12.169   7.321  72.003  1.00  0.00    -0.312 C  
BRANCH  19  20
HETATM   20  C   UNL     1     -11.201   7.837  73.061  1.00  0.00    -0.380 C  
BRANCH  20  21
HETATM   21  C   UNL     1     -10.277   6.724  73.548  1.00  0.00    -0.320 C  
BRANCH  21  22
HETATM   22  C   UNL     1      -8.918   6.815  72.862  1.00  0.00    -0.141 C  
HETATM   23  C   UNL     1      -8.553   8.256  72.553  1.00  0.00    -0.273 C  
ENDBRANCH  21  22
ENDBRANCH  20  21
ENDBRANCH  19  20
ENDBRANCH  18  19
ENDBRANCH  17  18
ENDBRANCH  16  17
ENDBRANCH  15  16
ENDBRANCH  14  15
ENDBRANCH  11  14
ENDBRANCH  10  11
ENDBRANCH   9  10
ENDBRANCH   8   9
ENDBRANCH   7   8
ENDBRANCH   6   7
ENDBRANCH   5   6
ENDBRANCH   4   5
ENDBRANCH   3   4
ENDBRANCH   2   3
TORSDOF 18
ENDMDL
MODEL      150
REMARK 921   NORMALIZED FREE ENERGY PREDICTED BY IDOCK:   -3.21 KCAL/MOL
REMARK 922        TOTAL FREE ENERGY PREDICTED BY IDOCK:   -9.28 KCAL/MOL
REMARK 923 INTER-LIGAND FREE ENERGY PREDICTED BY IDOCK:   -7.36 KCAL/MOL
REMARK 924 INTRA-LIGAND FREE ENERGY PREDICTED BY IDOCK:   -1.92 KCAL/MOL
REMARK 927      BINDING AFFINITY PREDICTED BY RF-SCORE:    0.00 PKD
ROOT
HETATM    1  C   UNL     1     -10.908  19.381  67.456  1.00  0.00    -0.521 C  
HETATM    2  C   UNL     1      -9.791  20.355  67.132  1.00  0.00    -0.601 C  
ENDROOT
BRANCH   2   3
HETATM    3  C   UNL     1      -8.952  19.863  65.956  1.00  0.00    -0.301 C  
BRANCH   3   4
HETATM    4  C   UNL     1      -7.480  19.778  66.343  1.00  0.00    -0.297 C  
BRANCH   4   5
HETATM    5  C   UNL     1      -7.231  20.453  67.684  1.00  0.00    -0.346 C  
BRANCH   5   6
HETATM    6  C   UNL     1      -6.547  19.493  68.651  1.00  0.00    -0.318 C  
BRANCH   6   7
HETATM    7  C   UNL     1      -6.576  18.083  68.087  1.00  0.00    -0.199 C  
BRANCH   7   8
HETATM    8  C   UNL     1      -7.337  17.125  68.999  1.00  0.00    -0.217 C  
BRANCH   8   9
HETATM    9  C   UNL     1      -8.587  16.660  68.266  1.00  0.00    -0.212 C  
BRANCH   9  10
HETATM   10  C   UNL     1      -9.356  15.610  69.057  1.00  0.00    -0.243 C  
BRANCH  10  11
HETATM   11  N   UNL     1     -10.675  15.188  68.360  1.00  0.00    -0.242 N  
HETATM   12  C   UNL     1     -11.879  15.752  69.117  1.00  0.00    -0.354 C  
HETATM   13  C   UNL     1     -10.694  15.690  66.914  1.00  0.00    -0.307 C  
BRANCH  11  14
HETATM   14  C   UNL     1     -10.699  13.638  68.391  1.00  0.00    -0.258 C  
BRANCH  14  15
HETATM   15  C   UNL     1     -10.199  13.020  67.094  1.00  0.00    -0.243 C  
BRANCH  15  16
HETATM   16  C   UNL     1     -11.167  11.982  66.544  1.00  0.00    -0.387 C  
BRANCH  16  17
HETATM   17  C   UNL     1     -10.356  10.857  65.909  1.00  0.00    -0.310 C  
BRANCH  17  18
HETATM   18  C   UNL     1      -9.623  10.035  66.955  1.00  0.00    -0.212 C  
BRANCH  18  19
HETATM   19  C   UNL     1     -10.629   9.294  67.826  1.00  0.00    -0.307 C  
BRANCH  19  20
HETATM   20  C   UNL     1     -10.314   9.502  69.303  1.00  0.00    -0.219 C  
BRANCH  20  21
HETATM   21  C   UNL     1     -11.380  10.364  69.973  1.00  0.00    -0.384 C  
BRANCH  21  22
HETATM   22  C   UNL     1     -11.768   9.783  71.328  1.00  0.00    -0.472 C  
HETATM   23  C   UNL     1     -10.737   8.780  71.813  1.00  0.00    -0.413 C  
ENDBRANCH  21  22
ENDBRANCH  20  21
ENDBRANCH  19  20
ENDBRANCH  18  19
ENDBRANCH  17  18
ENDBRANCH  16  17
ENDBRANCH  15  16
ENDBRANCH  14  15
ENDBRANCH  11  14
ENDBRANCH  10  11
ENDBRANCH   9  10
ENDBRANCH   8   9
ENDBRANCH   7   8
ENDBRANCH   6   7
ENDBRANCH   5   6
ENDBRANCH   4   5
ENDBRANCH   3   4
ENDBRANCH   2   3
TORSDOF 18
ENDMDL
MODEL      151
REMARK 921   NORMALIZED FREE ENERGY PREDICTED BY IDOCK:   -3.21 KCAL/MOL
REMARK 922        TOTAL FREE ENERGY PREDICTED BY IDOCK:   -9.28 KCAL/MOL
REMARK 923 INTER-LIGAND FREE ENERGY PREDICTED BY IDOCK:   -7.56 KCAL/MOL
REMARK 924 INTRA-LIGAND FREE ENERGY PREDICTED BY IDOCK:   -1.72 KCAL/MOL
REMARK 927      BINDING AFFINITY PREDICTED BY RF-SCORE:    0.00 PKD
ROOT
HETATM    1  C   UNL     1     -13.718   9.060  72.226  1.00  0.00    -0.550 C  
HETATM    2  C   UNL     1     -13.797   7.713  71.533  1.00  0.00    -0.466 C  
ENDROOT
BRANCH   2   3
HETATM    3  C   UNL     1     -12.478   6.955  71.647  1.00  0.00    -0.418 C  
BRANCH   3   4
HETATM    4  C   UNL     1     -11.906   6.659  70.266  1.00  0.00    -0.378 C  
BRANCH   4   5
HETATM    5  C   UNL     1     -10.682   5.761  70.365  1.00  0.00    -0.372 C  
BRANCH   5   6
HETATM    6  C   UNL     1     -10.043   5.568  68.994  1.00  0.00    -0.275 C  
BRANCH   6   7
HETATM    7  C   UNL     1     -10.809   6.363  67.950  1.00  0.00    -0.404 C  
BRANCH   7   8
HETATM    8  C   UNL     1      -9.876   6.981  66.914  1.00  0.00    -0.259 C  
BRANCH   8   9
HETATM    9  C   UNL     1      -9.330   8.284  67.480  1.00  0.00    -0.166 C  
BRANCH   9  10
HETATM   10  C   UNL     1     -10.433   9.169  68.043  1.00  0.00    -0.224 C  
BRANCH  10  11
HETATM   11  N   UNL     1      -9.959  10.011  69.256  1.00  0.00    -0.201 N  
HETATM   12  C   UNL     1     -11.143  10.350  70.163  1.00  0.00    -0.314 C  
HETATM   13  C   UNL     1      -8.902   9.243  70.053  1.00  0.00    -0.197 C  
BRANCH  11  14
HETATM   14  C   UNL     1      -9.347  11.307  68.664  1.00  0.00    -0.164 C  
BRANCH  14  15
HETATM   15  C   UNL     1     -10.299  12.492  68.743  1.00  0.00    -0.138 C  
BRANCH  15  16
HETATM   16  C   UNL     1     -10.803  12.915  67.371  1.00  0.00    -0.272 C  
BRANCH  16  17
HETATM   17  C   UNL     1     -11.887  13.970  67.561  1.00  0.00    -0.442 C  
BRANCH  17  18
HETATM   18  C   UNL     1     -11.300  15.370  67.634  1.00  0.00    -0.292 C  
BRANCH  18  19
HETATM   19  C   UNL     1     -11.703  16.031  68.945  1.00  0.00    -0.322 C  
BRANCH  19  20
HETATM   20  C   UNL     1     -10.687  15.718  70.037  1.00  0.00    -0.347 C  
BRANCH  20  21
HETATM   21  C   UNL     1     -11.355  15.031  71.224  1.00  0.00    -0.315 C  
BRANCH  21  22
HETATM   22  C   UNL     1     -12.691  15.691  71.545  1.00  0.00    -0.522 C  
HETATM   23  C   UNL     1     -13.712  14.669  72.011  1.00  0.00    -0.527 C  
ENDBRANCH  21  22
ENDBRANCH  20  21
ENDBRANCH  19  20
ENDBRANCH  18  19
ENDBRANCH  17  18
ENDBRANCH  16  17
ENDBRANCH  15  16
ENDBRANCH  14  15
ENDBRANCH  11  14
ENDBRANCH  10  11
ENDBRANCH   9  10
ENDBRANCH   8   9
ENDBRANCH   7   8
ENDBRANCH   6   7
ENDBRANCH   5   6
ENDBRANCH   4   5
ENDBRANCH   3   4
ENDBRANCH   2   3
TORSDOF 18
ENDMDL
MODEL      152
REMARK 921   NORMALIZED FREE ENERGY PREDICTED BY IDOCK:   -3.20 KCAL/MOL
REMARK 922        TOTAL FREE ENERGY PREDICTED BY IDOCK:   -9.27 KCAL/MOL
REMARK 923 INTER-LIGAND FREE ENERGY PREDICTED BY IDOCK:   -6.49 KCAL/MOL
REMARK 924 INTRA-LIGAND FREE ENERGY PREDICTED BY IDOCK:   -2.77 KCAL/MOL
REMARK 927      BINDING AFFINITY PREDICTED BY RF-SCORE:    0.00 PKD
ROOT
HETATM    1  C   UNL     1      -7.320  10.820  69.555  1.00  0.00    -0.125 C  
HETATM    2  C   UNL     1      -7.551  11.229  68.112  1.00  0.00    -0.105 C  
ENDROOT
BRANCH   2   3
HETATM    3  C   UNL     1      -7.673  10.008  67.205  1.00  0.00    -0.092 C  
BRANCH   3   4
HETATM    4  C   UNL     1      -8.714   9.037  67.748  1.00  0.00    -0.125 C  
BRANCH   4   5
HETATM    5  C   UNL     1      -9.739   8.685  66.680  1.00  0.00    -0.315 C  
BRANCH   5   6
HETATM    6  C   UNL     1      -9.497   9.500  65.413  1.00  0.00    -0.336 C  
BRANCH   6   7
HETATM    7  C   UNL     1     -10.487  10.650  65.341  1.00  0.00    -0.254 C  
BRANCH   7   8
HETATM    8  C   UNL     1     -10.237  11.535  64.124  1.00  0.00    -0.374 C  
BRANCH   8   9
HETATM    9  C   UNL     1     -10.473  12.982  64.529  1.00  0.00    -0.413 C  
BRANCH   9  10
HETATM   10  C   UNL     1     -10.344  13.183  66.033  1.00  0.00    -0.287 C  
BRANCH  10  11
HETATM   11  N   UNL     1     -11.537  13.971  66.633  1.00  0.00    -0.363 N  
HETATM   12  C   UNL     1     -11.067  15.327  67.160  1.00  0.00    -0.323 C  
HETATM   13  C   UNL     1     -12.622  14.178  65.572  1.00  0.00    -0.479 C  
BRANCH  11  14
HETATM   14  C   UNL     1     -12.082  13.102  67.796  1.00  0.00    -0.215 C  
BRANCH  14  15
HETATM   15  C   UNL     1     -10.973  12.472  68.624  1.00  0.00    -0.291 C  
BRANCH  15  16
HETATM   16  C   UNL     1     -11.373  11.110  69.175  1.00  0.00    -0.340 C  
BRANCH  16  17
HETATM   17  C   UNL     1     -12.073  11.321  70.514  1.00  0.00    -0.481 C  
BRANCH  17  18
HETATM   18  C   UNL     1     -12.097  10.046  71.340  1.00  0.00    -0.498 C  
BRANCH  18  19
HETATM   19  C   UNL     1     -11.178   9.007  70.711  1.00  0.00    -0.329 C  
BRANCH  19  20
HETATM   20  C   UNL     1     -10.147   8.521  71.725  1.00  0.00    -0.351 C  
BRANCH  20  21
HETATM   21  C   UNL     1      -9.894   7.024  71.572  1.00  0.00    -0.176 C  
BRANCH  21  22
HETATM   22  C   UNL     1      -8.650   6.773  70.728  1.00  0.00    -0.141 C  
HETATM   23  C   UNL     1      -7.478   7.606  71.213  1.00  0.00    -0.079 C  
ENDBRANCH  21  22
ENDBRANCH  20  21
ENDBRANCH  19  20
ENDBRANCH  18  19
ENDBRANCH  17  18
ENDBRANCH  16  17
ENDBRANCH  15  16
ENDBRANCH  14  15
ENDBRANCH  11  14
ENDBRANCH  10  11
ENDBRANCH   9  10
ENDBRANCH   8   9
ENDBRANCH   7   8
ENDBRANCH   6   7
ENDBRANCH   5   6
ENDBRANCH   4   5
ENDBRANCH   3   4
ENDBRANCH   2   3
TORSDOF 18
ENDMDL
MODEL      153
REMARK 921   NORMALIZED FREE ENERGY PREDICTED BY IDOCK:   -3.19 KCAL/MOL
REMARK 922        TOTAL FREE ENERGY PREDICTED BY IDOCK:   -9.25 KCAL/MOL
REMARK 923 INTER-LIGAND FREE ENERGY PREDICTED BY IDOCK:   -7.48 KCAL/MOL
REMARK 924 INTRA-LIGAND FREE ENERGY PREDICTED BY IDOCK:   -1.77 KCAL/MOL
REMARK 927      BINDING AFFINITY PREDICTED BY RF-SCORE:    0.00 PKD
ROOT
HETATM    1  C   UNL     1     -13.983   8.488  71.507  1.00  0.00    -0.410 C  
HETATM    2  C   UNL     1     -12.815   9.226  72.134  1.00  0.00    -0.485 C  
ENDROOT
BRANCH   2   3
HETATM    3  C   UNL     1     -12.522  10.527  71.392  1.00  0.00    -0.516 C  
BRANCH   3   4
HETATM    4  C   UNL     1     -11.319  10.361  70.471  1.00  0.00    -0.424 C  
BRANCH   4   5
HETATM    5  C   UNL     1     -10.385   9.276  70.986  1.00  0.00    -0.388 C  
BRANCH   5   6
HETATM    6  C   UNL     1      -9.661   8.595  69.829  1.00  0.00    -0.176 C  
BRANCH   6   7
HETATM    7  C   UNL     1     -10.585   7.591  69.161  1.00  0.00    -0.204 C  
BRANCH   7   8
HETATM    8  C   UNL     1     -10.597   7.757  67.644  1.00  0.00    -0.283 C  
BRANCH   8   9
HETATM    9  C   UNL     1      -9.879   9.053  67.300  1.00  0.00    -0.252 C  
BRANCH   9  10
HETATM   10  C   UNL     1     -10.825  10.092  66.713  1.00  0.00    -0.059 C  
BRANCH  10  11
HETATM   11  N   UNL     1     -10.092  11.129  65.822  1.00  0.00    -0.239 N  
HETATM   12  C   UNL     1      -8.654  11.321  66.304  1.00  0.00    -0.172 C  
HETATM   13  C   UNL     1     -10.090  10.664  64.364  1.00  0.00    -0.349 C  
BRANCH  11  14
HETATM   14  C   UNL     1     -10.888  12.452  65.963  1.00  0.00    -0.273 C  
BRANCH  14  15
HETATM   15  C   UNL     1     -10.501  13.238  67.207  1.00  0.00    -0.247 C  
BRANCH  15  16
HETATM   16  C   UNL     1     -11.719  13.720  67.982  1.00  0.00    -0.390 C  
BRANCH  16  17
HETATM   17  C   UNL     1     -11.238  14.385  69.267  1.00  0.00    -0.308 C  
BRANCH  17  18
HETATM   18  C   UNL     1     -11.769  15.803  69.396  1.00  0.00    -0.379 C  
BRANCH  18  19
HETATM   19  C   UNL     1     -11.053  16.714  68.409  1.00  0.00    -0.305 C  
BRANCH  19  20
HETATM   20  C   UNL     1      -9.567  16.801  68.741  1.00  0.00    -0.260 C  
BRANCH  20  21
HETATM   21  C   UNL     1      -8.942  18.051  68.128  1.00  0.00    -0.287 C  
BRANCH  21  22
HETATM   22  C   UNL     1      -9.865  19.253  68.299  1.00  0.00    -0.482 C  
HETATM   23  C   UNL     1     -10.043  20.001  66.991  1.00  0.00    -0.594 C  
ENDBRANCH  21  22
ENDBRANCH  20  21
ENDBRANCH  19  20
ENDBRANCH  18  19
ENDBRANCH  17  18
ENDBRANCH  16  17
ENDBRANCH  15  16
ENDBRANCH  14  15
ENDBRANCH  11  14
ENDBRANCH  10  11
ENDBRANCH   9  10
ENDBRANCH   8   9
ENDBRANCH   7   8
ENDBRANCH   6   7
ENDBRANCH   5   6
ENDBRANCH   4   5
ENDBRANCH   3   4
ENDBRANCH   2   3
TORSDOF 18
ENDMDL
MODEL      154
REMARK 921   NORMALIZED FREE ENERGY PREDICTED BY IDOCK:   -3.19 KCAL/MOL
REMARK 922        TOTAL FREE ENERGY PREDICTED BY IDOCK:   -9.24 KCAL/MOL
REMARK 923 INTER-LIGAND FREE ENERGY PREDICTED BY IDOCK:   -6.87 KCAL/MOL
REMARK 924 INTRA-LIGAND FREE ENERGY PREDICTED BY IDOCK:   -2.38 KCAL/MOL
REMARK 927      BINDING AFFINITY PREDICTED BY RF-SCORE:    0.00 PKD
ROOT
HETATM    1  C   UNL     1      -7.807   7.269  64.086  1.00  0.00    -0.118 C  
HETATM    2  C   UNL     1      -8.107   8.562  64.821  1.00  0.00    -0.151 C  
ENDROOT
BRANCH   2   3
HETATM    3  C   UNL     1      -8.945   9.503  63.961  1.00  0.00    -0.228 C  
BRANCH   3   4
HETATM    4  C   UNL     1      -9.683  10.513  64.833  1.00  0.00    -0.360 C  
BRANCH   4   5
HETATM    5  C   UNL     1      -9.973   9.934  66.209  1.00  0.00    -0.322 C  
BRANCH   5   6
HETATM    6  C   UNL     1      -9.413  10.839  67.303  1.00  0.00    -0.177 C  
BRANCH   6   7
HETATM    7  C   UNL     1      -9.184  10.035  68.571  1.00  0.00    -0.141 C  
BRANCH   7   8
HETATM    8  C   UNL     1      -9.794   8.640  68.474  1.00  0.00    -0.183 C  
BRANCH   8   9
HETATM    9  C   UNL     1      -9.866   8.051  69.875  1.00  0.00    -0.186 C  
BRANCH   9  10
HETATM   10  C   UNL     1     -11.270   7.576  70.224  1.00  0.00    -0.236 C  
BRANCH  10  11
HETATM   11  N   UNL     1     -11.792   8.185  71.551  1.00  0.00    -0.283 N  
HETATM   12  C   UNL     1     -13.278   7.869  71.732  1.00  0.00    -0.329 C  
HETATM   13  C   UNL     1     -10.998   7.630  72.736  1.00  0.00    -0.377 C  
BRANCH  11  14
HETATM   14  C   UNL     1     -11.579   9.716  71.432  1.00  0.00    -0.400 C  
BRANCH  14  15
HETATM   15  C   UNL     1     -12.671  10.398  70.620  1.00  0.00    -0.417 C  
BRANCH  15  16
HETATM   16  C   UNL     1     -12.129  11.549  69.785  1.00  0.00    -0.374 C  
BRANCH  16  17
HETATM   17  C   UNL     1     -12.290  12.838  70.583  1.00  0.00    -0.381 C  
BRANCH  17  18
HETATM   18  C   UNL     1     -11.802  14.046  69.801  1.00  0.00    -0.385 C  
BRANCH  18  19
HETATM   19  C   UNL     1     -11.983  13.802  68.309  1.00  0.00    -0.392 C  
BRANCH  19  20
HETATM   20  C   UNL     1     -10.901  14.523  67.513  1.00  0.00    -0.289 C  
BRANCH  20  21
HETATM   21  C   UNL     1     -10.660  13.837  66.172  1.00  0.00    -0.291 C  
BRANCH  21  22
HETATM   22  C   UNL     1     -11.969  13.311  65.594  1.00  0.00    -0.455 C  
HETATM   23  C   UNL     1     -12.336  14.037  64.313  1.00  0.00    -0.393 C  
ENDBRANCH  21  22
ENDBRANCH  20  21
ENDBRANCH  19  20
ENDBRANCH  18  19
ENDBRANCH  17  18
ENDBRANCH  16  17
ENDBRANCH  15  16
ENDBRANCH  14  15
ENDBRANCH  11  14
ENDBRANCH  10  11
ENDBRANCH   9  10
ENDBRANCH   8   9
ENDBRANCH   7   8
ENDBRANCH   6   7
ENDBRANCH   5   6
ENDBRANCH   4   5
ENDBRANCH   3   4
ENDBRANCH   2   3
TORSDOF 18
ENDMDL
MODEL      155
REMARK 921   NORMALIZED FREE ENERGY PREDICTED BY IDOCK:   -3.19 KCAL/MOL
REMARK 922        TOTAL FREE ENERGY PREDICTED BY IDOCK:   -9.24 KCAL/MOL
REMARK 923 INTER-LIGAND FREE ENERGY PREDICTED BY IDOCK:   -7.36 KCAL/MOL
REMARK 924 INTRA-LIGAND FREE ENERGY PREDICTED BY IDOCK:   -1.88 KCAL/MOL
REMARK 927      BINDING AFFINITY PREDICTED BY RF-SCORE:    0.00 PKD
ROOT
HETATM    1  C   UNL     1     -12.161  12.959  63.334  1.00  0.00    -0.574 C  
HETATM    2  C   UNL     1     -10.811  12.726  63.985  1.00  0.00    -0.458 C  
ENDROOT
BRANCH   2   3
HETATM    3  C   UNL     1     -10.910  11.699  65.109  1.00  0.00    -0.346 C  
BRANCH   3   4
HETATM    4  C   UNL     1      -9.587  11.595  65.860  1.00  0.00    -0.250 C  
BRANCH   4   5
HETATM    5  C   UNL     1      -9.816  11.584  67.364  1.00  0.00    -0.202 C  
BRANCH   5   6
HETATM    6  C   UNL     1     -10.996  10.687  67.723  1.00  0.00    -0.364 C  
BRANCH   6   7
HETATM    7  C   UNL     1     -10.507   9.472  68.493  1.00  0.00    -0.247 C  
BRANCH   7   8
HETATM    8  C   UNL     1      -9.393   9.834  69.470  1.00  0.00    -0.226 C  
BRANCH   8   9
HETATM    9  C   UNL     1      -8.781   8.544  69.996  1.00  0.00    -0.136 C  
BRANCH   9  10
HETATM   10  C   UNL     1      -9.329   7.318  69.279  1.00  0.00    -0.154 C  
BRANCH  10  11
HETATM   11  N   UNL     1      -9.971   6.296  70.253  1.00  0.00    -0.171 N  
HETATM   12  C   UNL     1      -9.661   4.867  69.803  1.00  0.00    -0.192 C  
HETATM   13  C   UNL     1      -9.444   6.516  71.673  1.00  0.00    -0.156 C  
BRANCH  11  14
HETATM   14  C   UNL     1     -11.498   6.557  70.200  1.00  0.00    -0.415 C  
BRANCH  14  15
HETATM   15  C   UNL     1     -12.083   6.884  71.567  1.00  0.00    -0.401 C  
BRANCH  15  16
HETATM   16  C   UNL     1     -13.105   8.009  71.497  1.00  0.00    -0.322 C  
BRANCH  16  17
HETATM   17  C   UNL     1     -12.360   9.322  71.279  1.00  0.00    -0.403 C  
BRANCH  17  18
HETATM   18  C   UNL     1     -13.150  10.509  71.802  1.00  0.00    -0.570 C  
BRANCH  18  19
HETATM   19  C   UNL     1     -12.580  11.801  71.232  1.00  0.00    -0.401 C  
BRANCH  19  20
HETATM   20  C   UNL     1     -12.928  12.983  72.130  1.00  0.00    -0.366 C  
BRANCH  20  21
HETATM   21  C   UNL     1     -12.267  14.263  71.629  1.00  0.00    -0.351 C  
BRANCH  21  22
HETATM   22  C   UNL     1     -12.348  14.351  70.109  1.00  0.00    -0.406 C  
HETATM   23  C   UNL     1     -10.968  14.473  69.490  1.00  0.00    -0.253 C  
ENDBRANCH  21  22
ENDBRANCH  20  21
ENDBRANCH  19  20
ENDBRANCH  18  19
ENDBRANCH  17  18
ENDBRANCH  16  17
ENDBRANCH  15  16
ENDBRANCH  14  15
ENDBRANCH  11  14
ENDBRANCH  10  11
ENDBRANCH   9  10
ENDBRANCH   8   9
ENDBRANCH   7   8
ENDBRANCH   6   7
ENDBRANCH   5   6
ENDBRANCH   4   5
ENDBRANCH   3   4
ENDBRANCH   2   3
TORSDOF 18
ENDMDL
MODEL      156
REMARK 921   NORMALIZED FREE ENERGY PREDICTED BY IDOCK:   -3.19 KCAL/MOL
REMARK 922        TOTAL FREE ENERGY PREDICTED BY IDOCK:   -9.24 KCAL/MOL
REMARK 923 INTER-LIGAND FREE ENERGY PREDICTED BY IDOCK:   -6.59 KCAL/MOL
REMARK 924 INTRA-LIGAND FREE ENERGY PREDICTED BY IDOCK:   -2.65 KCAL/MOL
REMARK 927      BINDING AFFINITY PREDICTED BY RF-SCORE:    0.00 PKD
ROOT
HETATM    1  C   UNL     1     -10.386  10.885  64.285  1.00  0.00    -0.436 C  
HETATM    2  C   UNL     1     -10.506  12.165  63.478  1.00  0.00    -0.490 C  
ENDROOT
BRANCH   2   3
HETATM    3  C   UNL     1     -11.034  13.311  64.337  1.00  0.00    -0.413 C  
BRANCH   3   4
HETATM    4  C   UNL     1     -12.163  12.830  65.241  1.00  0.00    -0.535 C  
BRANCH   4   5
HETATM    5  C   UNL     1     -12.485  13.867  66.306  1.00  0.00    -0.454 C  
BRANCH   5   6
HETATM    6  C   UNL     1     -12.183  13.320  67.698  1.00  0.00    -0.181 C  
BRANCH   6   7
HETATM    7  C   UNL     1     -11.768  11.862  67.602  1.00  0.00    -0.346 C  
BRANCH   7   8
HETATM    8  C   UNL     1     -11.732  11.193  68.972  1.00  0.00    -0.408 C  
BRANCH   8   9
HETATM    9  C   UNL     1     -10.636  10.137  68.960  1.00  0.00    -0.245 C  
BRANCH   9  10
HETATM   10  C   UNL     1      -9.262  10.736  69.228  1.00  0.00    -0.049 C  
BRANCH  10  11
HETATM   11  N   UNL     1      -8.226  10.361  68.137  1.00  0.00    -0.113 N  
HETATM   12  C   UNL     1      -6.899   9.959  68.781  1.00  0.00    -0.054 C  
HETATM   13  C   UNL     1      -8.755   9.208  67.280  1.00  0.00    -0.117 C  
BRANCH  11  14
HETATM   14  C   UNL     1      -8.039  11.633  67.270  1.00  0.00    -0.160 C  
BRANCH  14  15
HETATM   15  C   UNL     1      -8.104  12.914  68.089  1.00  0.00    -0.158 C  
BRANCH  15  16
HETATM   16  C   UNL     1      -8.512  14.113  67.244  1.00  0.00    -0.228 C  
BRANCH  16  17
HETATM   17  C   UNL     1      -8.499  15.352  68.133  1.00  0.00    -0.147 C  
BRANCH  17  18
HETATM   18  C   UNL     1      -9.703  16.242  67.873  1.00  0.00    -0.233 C  
BRANCH  18  19
HETATM   19  C   UNL     1     -10.404  16.558  69.187  1.00  0.00    -0.316 C  
BRANCH  19  20
HETATM   20  C   UNL     1     -11.072  15.310  69.751  1.00  0.00    -0.293 C  
BRANCH  20  21
HETATM   21  C   UNL     1     -12.118  15.676  70.800  1.00  0.00    -0.454 C  
BRANCH  21  22
HETATM   22  C   UNL     1     -12.062  14.708  71.977  1.00  0.00    -0.346 C  
HETATM   23  C   UNL     1     -12.835  13.437  71.681  1.00  0.00    -0.414 C  
ENDBRANCH  21  22
ENDBRANCH  20  21
ENDBRANCH  19  20
ENDBRANCH  18  19
ENDBRANCH  17  18
ENDBRANCH  16  17
ENDBRANCH  15  16
ENDBRANCH  14  15
ENDBRANCH  11  14
ENDBRANCH  10  11
ENDBRANCH   9  10
ENDBRANCH   8   9
ENDBRANCH   7   8
ENDBRANCH   6   7
ENDBRANCH   5   6
ENDBRANCH   4   5
ENDBRANCH   3   4
ENDBRANCH   2   3
TORSDOF 18
ENDMDL
MODEL      157
REMARK 921   NORMALIZED FREE ENERGY PREDICTED BY IDOCK:   -3.18 KCAL/MOL
REMARK 922        TOTAL FREE ENERGY PREDICTED BY IDOCK:   -9.24 KCAL/MOL
REMARK 923 INTER-LIGAND FREE ENERGY PREDICTED BY IDOCK:   -7.54 KCAL/MOL
REMARK 924 INTRA-LIGAND FREE ENERGY PREDICTED BY IDOCK:   -1.70 KCAL/MOL
REMARK 927      BINDING AFFINITY PREDICTED BY RF-SCORE:    0.00 PKD
ROOT
HETATM    1  C   UNL     1     -12.775  15.712  73.997  1.00  0.00    -0.710 C  
HETATM    2  C   UNL     1     -12.111  15.935  72.652  1.00  0.00    -0.615 C  
ENDROOT
BRANCH   2   3
HETATM    3  C   UNL     1     -13.030  15.522  71.507  1.00  0.00    -0.545 C  
BRANCH   3   4
HETATM    4  C   UNL     1     -12.761  14.079  71.095  1.00  0.00    -0.436 C  
BRANCH   4   5
HETATM    5  C   UNL     1     -13.507  13.108  71.998  1.00  0.00    -0.598 C  
BRANCH   5   6
HETATM    6  C   UNL     1     -13.027  11.679  71.766  1.00  0.00    -0.483 C  
BRANCH   6   7
HETATM    7  C   UNL     1     -12.270  11.595  70.452  1.00  0.00    -0.434 C  
BRANCH   7   8
HETATM    8  C   UNL     1     -11.581  10.245  70.282  1.00  0.00    -0.396 C  
BRANCH   8   9
HETATM    9  C   UNL     1     -11.947   9.369  71.471  1.00  0.00    -0.456 C  
BRANCH   9  10
HETATM   10  C   UNL     1     -10.776   8.510  71.929  1.00  0.00    -0.324 C  
BRANCH  10  11
HETATM   11  N   UNL     1     -11.139   7.004  72.011  1.00  0.00    -0.236 N  
HETATM   12  C   UNL     1     -10.612   6.401  73.314  1.00  0.00    -0.268 C  
HETATM   13  C   UNL     1     -12.657   6.821  71.934  1.00  0.00    -0.285 C  
BRANCH  11  14
HETATM   14  C   UNL     1     -10.455   6.333  70.793  1.00  0.00    -0.222 C  
BRANCH  14  15
HETATM   15  C   UNL     1     -11.293   6.426  69.526  1.00  0.00    -0.460 C  
BRANCH  15  16
HETATM   16  C   UNL     1     -10.465   6.853  68.322  1.00  0.00    -0.240 C  
BRANCH  16  17
HETATM   17  C   UNL     1      -9.010   6.980  68.761  1.00  0.00    -0.131 C  
BRANCH  17  18
HETATM   18  C   UNL     1      -8.526   8.418  68.686  1.00  0.00    -0.128 C  
BRANCH  18  19
HETATM   19  C   UNL     1      -7.819   8.793  69.981  1.00  0.00    -0.094 C  
BRANCH  19  20
HETATM   20  C   UNL     1      -7.396  10.258  69.956  1.00  0.00    -0.157 C  
BRANCH  20  21
HETATM   21  C   UNL     1      -7.705  10.893  68.604  1.00  0.00    -0.122 C  
BRANCH  21  22
HETATM   22  C   UNL     1      -7.105  12.291  68.517  1.00  0.00    -0.099 C  
HETATM   23  C   UNL     1      -5.798  12.283  67.747  1.00  0.00    -0.098 C  
ENDBRANCH  21  22
ENDBRANCH  20  21
ENDBRANCH  19  20
ENDBRANCH  18  19
ENDBRANCH  17  18
ENDBRANCH  16  17
ENDBRANCH  15  16
ENDBRANCH  14  15
ENDBRANCH  11  14
ENDBRANCH  10  11
ENDBRANCH   9  10
ENDBRANCH   8   9
ENDBRANCH   7   8
ENDBRANCH   6   7
ENDBRANCH   5   6
ENDBRANCH   4   5
ENDBRANCH   3   4
ENDBRANCH   2   3
TORSDOF 18
ENDMDL
MODEL      158
REMARK 921   NORMALIZED FREE ENERGY PREDICTED BY IDOCK:   -3.18 KCAL/MOL
REMARK 922        TOTAL FREE ENERGY PREDICTED BY IDOCK:   -9.23 KCAL/MOL
REMARK 923 INTER-LIGAND FREE ENERGY PREDICTED BY IDOCK:   -6.54 KCAL/MOL
REMARK 924 INTRA-LIGAND FREE ENERGY PREDICTED BY IDOCK:   -2.70 KCAL/MOL
REMARK 927      BINDING AFFINITY PREDICTED BY RF-SCORE:    0.00 PKD
ROOT
HETATM    1  C   UNL     1     -10.729  19.377  67.436  1.00  0.00    -0.594 C  
HETATM    2  C   UNL     1     -10.643  17.866  67.329  1.00  0.00    -0.341 C  
ENDROOT
BRANCH   2   3
HETATM    3  C   UNL     1     -10.292  17.432  65.909  1.00  0.00    -0.276 C  
BRANCH   3   4
HETATM    4  C   UNL     1     -10.173  15.915  65.824  1.00  0.00    -0.389 C  
BRANCH   4   5
HETATM    5  C   UNL     1     -11.113  15.240  66.812  1.00  0.00    -0.278 C  
BRANCH   5   6
HETATM    6  C   UNL     1     -11.982  14.203  66.106  1.00  0.00    -0.437 C  
BRANCH   6   7
HETATM    7  C   UNL     1     -11.679  14.203  64.618  1.00  0.00    -0.427 C  
BRANCH   7   8
HETATM    8  C   UNL     1     -11.192  12.838  64.141  1.00  0.00    -0.435 C  
BRANCH   8   9
HETATM    9  C   UNL     1     -11.137  11.904  65.342  1.00  0.00    -0.360 C  
BRANCH   9  10
HETATM   10  C   UNL     1      -9.706  11.590  65.757  1.00  0.00    -0.235 C  
BRANCH  10  11
HETATM   11  N   UNL     1      -9.626  10.896  67.141  1.00  0.00    -0.164 N  
HETATM   12  C   UNL     1     -11.028  10.541  67.638  1.00  0.00    -0.314 C  
HETATM   13  C   UNL     1      -8.774   9.628  67.049  1.00  0.00    -0.128 C  
BRANCH  11  14
HETATM   14  C   UNL     1      -8.961  11.921  68.095  1.00  0.00    -0.185 C  
BRANCH  14  15
HETATM   15  C   UNL     1      -8.230  13.027  67.349  1.00  0.00    -0.183 C  
BRANCH  15  16
HETATM   16  C   UNL     1      -6.719  12.914  67.493  1.00  0.00    -0.156 C  
BRANCH  16  17
HETATM   17  C   UNL     1      -6.177  14.266  67.944  1.00  0.00    -0.167 C  
BRANCH  17  18
HETATM   18  C   UNL     1      -7.079  15.406  67.503  1.00  0.00    -0.221 C  
BRANCH  18  19
HETATM   19  C   UNL     1      -6.420  16.740  67.827  1.00  0.00    -0.162 C  
BRANCH  19  20
HETATM   20  C   UNL     1      -7.363  17.619  68.641  1.00  0.00    -0.257 C  
BRANCH  20  21
HETATM   21  C   UNL     1      -7.146  19.096  68.323  1.00  0.00    -0.305 C  
BRANCH  21  22
HETATM   22  C   UNL     1      -6.456  19.259  66.973  1.00  0.00    -0.195 C  
HETATM   23  C   UNL     1      -7.337  20.011  65.992  1.00  0.00    -0.325 C  
ENDBRANCH  21  22
ENDBRANCH  20  21
ENDBRANCH  19  20
ENDBRANCH  18  19
ENDBRANCH  17  18
ENDBRANCH  16  17
ENDBRANCH  15  16
ENDBRANCH  14  15
ENDBRANCH  11  14
ENDBRANCH  10  11
ENDBRANCH   9  10
ENDBRANCH   8   9
ENDBRANCH   7   8
ENDBRANCH   6   7
ENDBRANCH   5   6
ENDBRANCH   4   5
ENDBRANCH   3   4
ENDBRANCH   2   3
TORSDOF 18
ENDMDL
MODEL      159
REMARK 921   NORMALIZED FREE ENERGY PREDICTED BY IDOCK:   -3.18 KCAL/MOL
REMARK 922        TOTAL FREE ENERGY PREDICTED BY IDOCK:   -9.22 KCAL/MOL
REMARK 923 INTER-LIGAND FREE ENERGY PREDICTED BY IDOCK:   -7.49 KCAL/MOL
REMARK 924 INTRA-LIGAND FREE ENERGY PREDICTED BY IDOCK:   -1.73 KCAL/MOL
REMARK 927      BINDING AFFINITY PREDICTED BY RF-SCORE:    0.00 PKD
ROOT
HETATM    1  C   UNL     1      -7.039  16.543  66.875  1.00  0.00    -0.262 C  
HETATM    2  C   UNL     1      -8.406  16.799  66.268  1.00  0.00    -0.353 C  
ENDROOT
BRANCH   2   3
HETATM    3  C   UNL     1      -9.178  15.497  66.077  1.00  0.00    -0.361 C  
BRANCH   3   4
HETATM    4  C   UNL     1     -10.490  15.752  65.344  1.00  0.00    -0.438 C  
BRANCH   4   5
HETATM    5  C   UNL     1     -11.651  15.075  66.058  1.00  0.00    -0.158 C  
BRANCH   5   6
HETATM    6  C   UNL     1     -11.395  13.578  66.201  1.00  0.00    -0.325 C  
BRANCH   6   7
HETATM    7  C   UNL     1     -12.356  12.803  65.316  1.00  0.00    -0.546 C  
BRANCH   7   8
HETATM    8  C   UNL     1     -11.838  12.687  63.886  1.00  0.00    -0.544 C  
BRANCH   8   9
HETATM    9  C   UNL     1     -11.080  11.374  63.757  1.00  0.00    -0.417 C  
BRANCH   9  10
HETATM   10  C   UNL     1      -9.591  11.544  64.029  1.00  0.00    -0.168 C  
BRANCH  10  11
HETATM   11  N   UNL     1      -8.987  10.347  64.807  1.00  0.00    -0.189 N  
HETATM   12  C   UNL     1      -8.559   9.245  63.837  1.00  0.00    -0.192 C  
HETATM   13  C   UNL     1      -7.782  10.806  65.632  1.00  0.00    -0.057 C  
BRANCH  11  14
HETATM   14  C   UNL     1     -10.113   9.833  65.742  1.00  0.00    -0.238 C  
BRANCH  14  15
HETATM   15  C   UNL     1      -9.574   9.054  66.933  1.00  0.00    -0.242 C  
BRANCH  15  16
HETATM   16  C   UNL     1     -10.408   9.276  68.187  1.00  0.00    -0.261 C  
BRANCH  16  17
HETATM   17  C   UNL     1     -10.343  10.756  68.551  1.00  0.00    -0.202 C  
BRANCH  17  18
HETATM   18  C   UNL     1     -11.714  11.307  68.905  1.00  0.00    -0.409 C  
BRANCH  18  19
HETATM   19  C   UNL     1     -11.951  11.175  70.404  1.00  0.00    -0.469 C  
BRANCH  19  20
HETATM   20  C   UNL     1     -12.650  12.416  70.946  1.00  0.00    -0.337 C  
BRANCH  20  21
HETATM   21  C   UNL     1     -11.916  13.686  70.526  1.00  0.00    -0.353 C  
BRANCH  21  22
HETATM   22  C   UNL     1     -12.684  14.924  70.973  1.00  0.00    -0.412 C  
HETATM   23  C   UNL     1     -13.931  14.548  71.752  1.00  0.00    -0.556 C  
ENDBRANCH  21  22
ENDBRANCH  20  21
ENDBRANCH  19  20
ENDBRANCH  18  19
ENDBRANCH  17  18
ENDBRANCH  16  17
ENDBRANCH  15  16
ENDBRANCH  14  15
ENDBRANCH  11  14
ENDBRANCH  10  11
ENDBRANCH   9  10
ENDBRANCH   8   9
ENDBRANCH   7   8
ENDBRANCH   6   7
ENDBRANCH   5   6
ENDBRANCH   4   5
ENDBRANCH   3   4
ENDBRANCH   2   3
TORSDOF 18
ENDMDL
MODEL      160
REMARK 921   NORMALIZED FREE ENERGY PREDICTED BY IDOCK:   -3.17 KCAL/MOL
REMARK 922        TOTAL FREE ENERGY PREDICTED BY IDOCK:   -9.21 KCAL/MOL
REMARK 923 INTER-LIGAND FREE ENERGY PREDICTED BY IDOCK:   -7.43 KCAL/MOL
REMARK 924 INTRA-LIGAND FREE ENERGY PREDICTED BY IDOCK:   -1.78 KCAL/MOL
REMARK 927      BINDING AFFINITY PREDICTED BY RF-SCORE:    0.00 PKD
ROOT
HETATM    1  C   UNL     1     -11.350  10.155  70.732  1.00  0.00    -0.436 C  
HETATM    2  C   UNL     1     -12.254   9.128  71.388  1.00  0.00    -0.407 C  
ENDROOT
BRANCH   2   3
HETATM    3  C   UNL     1     -11.448   8.136  72.221  1.00  0.00    -0.435 C  
BRANCH   3   4
HETATM    4  C   UNL     1     -11.765   6.704  71.806  1.00  0.00    -0.363 C  
BRANCH   4   5
HETATM    5  C   UNL     1     -11.409   6.469  70.345  1.00  0.00    -0.443 C  
BRANCH   5   6
HETATM    6  C   UNL     1      -9.942   6.078  70.205  1.00  0.00    -0.236 C  
BRANCH   6   7
HETATM    7  C   UNL     1      -9.350   6.726  68.965  1.00  0.00    -0.134 C  
BRANCH   7   8
HETATM    8  C   UNL     1     -10.418   7.426  68.130  1.00  0.00    -0.241 C  
BRANCH   8   9
HETATM    9  C   UNL     1      -9.726   8.411  67.199  1.00  0.00    -0.250 C  
BRANCH   9  10
HETATM   10  C   UNL     1     -10.442   9.754  67.154  1.00  0.00    -0.250 C  
BRANCH  10  11
HETATM   11  N   UNL     1      -9.718  10.784  66.248  1.00  0.00    -0.197 N  
HETATM   12  C   UNL     1      -8.335  11.110  66.814  1.00  0.00    -0.152 C  
HETATM   13  C   UNL     1      -9.578  10.232  64.827  1.00  0.00    -0.307 C  
BRANCH  11  14
HETATM   14  C   UNL     1     -10.610  12.052  66.246  1.00  0.00    -0.252 C  
BRANCH  14  15
HETATM   15  C   UNL     1     -11.613  12.064  67.390  1.00  0.00    -0.388 C  
BRANCH  15  16
HETATM   16  C   UNL     1     -11.907  13.475  67.879  1.00  0.00    -0.397 C  
BRANCH  16  17
HETATM   17  C   UNL     1     -11.074  13.733  69.130  1.00  0.00    -0.282 C  
BRANCH  17  18
HETATM   18  C   UNL     1     -10.652  15.189  69.233  1.00  0.00    -0.253 C  
BRANCH  18  19
HETATM   19  C   UNL     1     -11.062  15.935  67.970  1.00  0.00    -0.334 C  
BRANCH  19  20
HETATM   20  C   UNL     1      -9.892  16.744  67.423  1.00  0.00    -0.252 C  
BRANCH  20  21
HETATM   21  C   UNL     1     -10.385  17.950  66.629  1.00  0.00    -0.362 C  
BRANCH  21  22
HETATM   22  C   UNL     1     -10.721  19.108  67.563  1.00  0.00    -0.555 C  
HETATM   23  C   UNL     1      -9.802  19.126  68.770  1.00  0.00    -0.502 C  
ENDBRANCH  21  22
ENDBRANCH  20  21
ENDBRANCH  19  20
ENDBRANCH  18  19
ENDBRANCH  17  18
ENDBRANCH  16  17
ENDBRANCH  15  16
ENDBRANCH  14  15
ENDBRANCH  11  14
ENDBRANCH  10  11
ENDBRANCH   9  10
ENDBRANCH   8   9
ENDBRANCH   7   8
ENDBRANCH   6   7
ENDBRANCH   5   6
ENDBRANCH   4   5
ENDBRANCH   3   4
ENDBRANCH   2   3
TORSDOF 18
ENDMDL
MODEL      161
REMARK 921   NORMALIZED FREE ENERGY PREDICTED BY IDOCK:   -3.17 KCAL/MOL
REMARK 922        TOTAL FREE ENERGY PREDICTED BY IDOCK:   -9.20 KCAL/MOL
REMARK 923 INTER-LIGAND FREE ENERGY PREDICTED BY IDOCK:   -6.84 KCAL/MOL
REMARK 924 INTRA-LIGAND FREE ENERGY PREDICTED BY IDOCK:   -2.37 KCAL/MOL
REMARK 927      BINDING AFFINITY PREDICTED BY RF-SCORE:    0.00 PKD
ROOT
HETATM    1  C   UNL     1      -8.148   9.408  66.239  1.00  0.00    -0.111 C  
HETATM    2  C   UNL     1      -8.130   9.953  64.823  1.00  0.00    -0.151 C  
ENDROOT
BRANCH   2   3
HETATM    3  C   UNL     1      -9.374  10.789  64.538  1.00  0.00    -0.273 C  
BRANCH   3   4
HETATM    4  C   UNL     1     -10.409  10.607  65.641  1.00  0.00    -0.285 C  
BRANCH   4   5
HETATM    5  C   UNL     1     -10.875  11.953  66.177  1.00  0.00    -0.334 C  
BRANCH   5   6
HETATM    6  C   UNL     1      -9.719  12.947  66.215  1.00  0.00    -0.268 C  
BRANCH   6   7
HETATM    7  C   UNL     1      -8.951  12.796  67.517  1.00  0.00    -0.192 C  
BRANCH   7   8
HETATM    8  C   UNL     1      -7.545  13.379  67.413  1.00  0.00    -0.138 C  
BRANCH   8   9
HETATM    9  C   UNL     1      -7.520  14.703  68.162  1.00  0.00    -0.125 C  
BRANCH   9  10
HETATM   10  C   UNL     1      -7.142  15.866  67.255  1.00  0.00    -0.207 C  
BRANCH  10  11
HETATM   11  N   UNL     1      -7.581  17.237  67.831  1.00  0.00    -0.184 N  
HETATM   12  C   UNL     1      -6.405  17.922  68.529  1.00  0.00    -0.199 C  
HETATM   13  C   UNL     1      -8.110  18.136  66.710  1.00  0.00    -0.246 C  
BRANCH  11  14
HETATM   14  C   UNL     1      -8.708  16.932  68.851  1.00  0.00    -0.212 C  
BRANCH  14  15
HETATM   15  C   UNL     1     -10.087  17.304  68.329  1.00  0.00    -0.321 C  
BRANCH  15  16
HETATM   16  C   UNL     1     -10.953  16.078  68.075  1.00  0.00    -0.341 C  
BRANCH  16  17
HETATM   17  C   UNL     1     -11.401  15.520  69.422  1.00  0.00    -0.321 C  
BRANCH  17  18
HETATM   18  C   UNL     1     -11.641  14.021  69.355  1.00  0.00    -0.349 C  
BRANCH  18  19
HETATM   19  C   UNL     1     -12.337  13.553  70.627  1.00  0.00    -0.432 C  
BRANCH  19  20
HETATM   20  C   UNL     1     -13.065  14.713  71.296  1.00  0.00    -0.424 C  
BRANCH  20  21
HETATM   21  C   UNL     1     -13.383  14.391  72.753  1.00  0.00    -0.606 C  
BRANCH  21  22
HETATM   22  C   UNL     1     -13.112  15.599  73.643  1.00  0.00    -0.582 C  
HETATM   23  C   UNL     1     -11.985  16.450  73.087  1.00  0.00    -0.536 C  
ENDBRANCH  21  22
ENDBRANCH  20  21
ENDBRANCH  19  20
ENDBRANCH  18  19
ENDBRANCH  17  18
ENDBRANCH  16  17
ENDBRANCH  15  16
ENDBRANCH  14  15
ENDBRANCH  11  14
ENDBRANCH  10  11
ENDBRANCH   9  10
ENDBRANCH   8   9
ENDBRANCH   7   8
ENDBRANCH   6   7
ENDBRANCH   5   6
ENDBRANCH   4   5
ENDBRANCH   3   4
ENDBRANCH   2   3
TORSDOF 18
ENDMDL
MODEL      162
REMARK 921   NORMALIZED FREE ENERGY PREDICTED BY IDOCK:   -3.17 KCAL/MOL
REMARK 922        TOTAL FREE ENERGY PREDICTED BY IDOCK:   -9.20 KCAL/MOL
REMARK 923 INTER-LIGAND FREE ENERGY PREDICTED BY IDOCK:   -7.03 KCAL/MOL
REMARK 924 INTRA-LIGAND FREE ENERGY PREDICTED BY IDOCK:   -2.17 KCAL/MOL
REMARK 927      BINDING AFFINITY PREDICTED BY RF-SCORE:    0.00 PKD
ROOT
HETATM    1  C   UNL     1     -14.324  14.888  71.548  1.00  0.00    -0.631 C  
HETATM    2  C   UNL     1     -13.691  13.794  72.386  1.00  0.00    -0.692 C  
ENDROOT
BRANCH   2   3
HETATM    3  C   UNL     1     -12.906  12.816  71.517  1.00  0.00    -0.369 C  
BRANCH   3   4
HETATM    4  C   UNL     1     -13.293  11.378  71.841  1.00  0.00    -0.409 C  
BRANCH   4   5
HETATM    5  C   UNL     1     -12.908  10.442  70.705  1.00  0.00    -0.393 C  
BRANCH   5   6
HETATM    6  C   UNL     1     -11.443  10.629  70.326  1.00  0.00    -0.422 C  
BRANCH   6   7
HETATM    7  C   UNL     1     -11.328  10.943  68.844  1.00  0.00    -0.354 C  
BRANCH   7   8
HETATM    8  C   UNL     1      -9.966  11.534  68.495  1.00  0.00    -0.207 C  
BRANCH   8   9
HETATM    9  C   UNL     1     -10.009  12.015  67.052  1.00  0.00    -0.218 C  
BRANCH   9  10
HETATM   10  C   UNL     1     -10.524  10.940  66.106  1.00  0.00    -0.229 C  
BRANCH  10  11
HETATM   11  N   UNL     1      -9.397  10.003  65.599  1.00  0.00    -0.187 N  
HETATM   12  C   UNL     1      -9.406   9.941  64.071  1.00  0.00    -0.223 C  
HETATM   13  C   UNL     1      -8.035  10.502  66.087  1.00  0.00    -0.147 C  
BRANCH  11  14
HETATM   14  C   UNL     1      -9.703   8.605  66.195  1.00  0.00    -0.222 C  
BRANCH  14  15
HETATM   15  C   UNL     1      -8.654   8.157  67.202  1.00  0.00    -0.124 C  
BRANCH  15  16
HETATM   16  C   UNL     1      -9.270   7.781  68.542  1.00  0.00    -0.137 C  
BRANCH  16  17
HETATM   17  C   UNL     1      -9.347   6.260  68.625  1.00  0.00    -0.122 C  
BRANCH  17  18
HETATM   18  C   UNL     1     -10.664   5.798  69.227  1.00  0.00    -0.386 C  
BRANCH  18  19
HETATM   19  C   UNL     1     -11.516   7.006  69.593  1.00  0.00    -0.124 C  
BRANCH  19  20
HETATM   20  C   UNL     1     -12.052   6.872  71.014  1.00  0.00    -0.429 C  
BRANCH  20  21
HETATM   21  C   UNL     1     -11.221   5.878  71.820  1.00  0.00    -0.311 C  
BRANCH  21  22
HETATM   22  C   UNL     1     -10.841   6.468  73.174  1.00  0.00    -0.286 C  
HETATM   23  C   UNL     1     -10.445   7.928  73.047  1.00  0.00    -0.410 C  
ENDBRANCH  21  22
ENDBRANCH  20  21
ENDBRANCH  19  20
ENDBRANCH  18  19
ENDBRANCH  17  18
ENDBRANCH  16  17
ENDBRANCH  15  16
ENDBRANCH  14  15
ENDBRANCH  11  14
ENDBRANCH  10  11
ENDBRANCH   9  10
ENDBRANCH   8   9
ENDBRANCH   7   8
ENDBRANCH   6   7
ENDBRANCH   5   6
ENDBRANCH   4   5
ENDBRANCH   3   4
ENDBRANCH   2   3
TORSDOF 18
ENDMDL
MODEL      163
REMARK 921   NORMALIZED FREE ENERGY PREDICTED BY IDOCK:   -3.16 KCAL/MOL
REMARK 922        TOTAL FREE ENERGY PREDICTED BY IDOCK:   -9.19 KCAL/MOL
REMARK 923 INTER-LIGAND FREE ENERGY PREDICTED BY IDOCK:   -6.95 KCAL/MOL
REMARK 924 INTRA-LIGAND FREE ENERGY PREDICTED BY IDOCK:   -2.24 KCAL/MOL
REMARK 927      BINDING AFFINITY PREDICTED BY RF-SCORE:    0.00 PKD
ROOT
HETATM    1  C   UNL     1     -11.242   6.094  69.445  1.00  0.00    -0.466 C  
HETATM    2  C   UNL     1     -11.406   6.268  70.943  1.00  0.00    -0.389 C  
ENDROOT
BRANCH   2   3
HETATM    3  C   UNL     1     -12.528   7.251  71.265  1.00  0.00    -0.402 C  
BRANCH   3   4
HETATM    4  C   UNL     1     -12.081   8.247  72.329  1.00  0.00    -0.439 C  
BRANCH   4   5
HETATM    5  C   UNL     1     -12.970   9.482  72.324  1.00  0.00    -0.466 C  
BRANCH   5   6
HETATM    6  C   UNL     1     -13.280   9.916  70.895  1.00  0.00    -0.309 C  
BRANCH   6   7
HETATM    7  C   UNL     1     -12.364  11.059  70.492  1.00  0.00    -0.462 C  
BRANCH   7   8
HETATM    8  C   UNL     1     -11.588  10.737  69.218  1.00  0.00    -0.376 C  
BRANCH   8   9
HETATM    9  C   UNL     1     -10.189  10.285  69.612  1.00  0.00    -0.268 C  
BRANCH   9  10
HETATM   10  C   UNL     1      -9.587   9.332  68.589  1.00  0.00    -0.147 C  
BRANCH  10  11
HETATM   11  N   UNL     1      -8.169   9.764  68.135  1.00  0.00    -0.109 N  
HETATM   12  C   UNL     1      -7.922  11.231  68.491  1.00  0.00    -0.145 C  
HETATM   13  C   UNL     1      -7.109   8.884  68.802  1.00  0.00    -0.067 C  
BRANCH  11  14
HETATM   14  C   UNL     1      -8.136   9.572  66.596  1.00  0.00    -0.108 C  
BRANCH  14  15
HETATM   15  C   UNL     1      -8.667  10.783  65.844  1.00  0.00    -0.189 C  
BRANCH  15  16
HETATM   16  C   UNL     1      -9.936  10.464  65.068  1.00  0.00    -0.399 C  
BRANCH  16  17
HETATM   17  C   UNL     1     -10.956  11.565  65.341  1.00  0.00    -0.288 C  
BRANCH  17  18
HETATM   18  C   UNL     1     -10.343  12.714  66.123  1.00  0.00    -0.273 C  
BRANCH  18  19
HETATM   19  C   UNL     1     -11.433  13.468  66.873  1.00  0.00    -0.374 C  
BRANCH  19  20
HETATM   20  C   UNL     1     -11.405  14.949  66.512  1.00  0.00    -0.319 C  
BRANCH  20  21
HETATM   21  C   UNL     1     -10.977  15.794  67.708  1.00  0.00    -0.314 C  
BRANCH  21  22
HETATM   22  C   UNL     1      -9.856  16.750  67.316  1.00  0.00    -0.260 C  
HETATM   23  C   UNL     1      -8.963  16.145  66.249  1.00  0.00    -0.379 C  
ENDBRANCH  21  22
ENDBRANCH  20  21
ENDBRANCH  19  20
ENDBRANCH  18  19
ENDBRANCH  17  18
ENDBRANCH  16  17
ENDBRANCH  15  16
ENDBRANCH  14  15
ENDBRANCH  11  14
ENDBRANCH  10  11
ENDBRANCH   9  10
ENDBRANCH   8   9
ENDBRANCH   7   8
ENDBRANCH   6   7
ENDBRANCH   5   6
ENDBRANCH   4   5
ENDBRANCH   3   4
ENDBRANCH   2   3
TORSDOF 18
ENDMDL
MODEL      164
REMARK 921   NORMALIZED FREE ENERGY PREDICTED BY IDOCK:   -3.16 KCAL/MOL
REMARK 922        TOTAL FREE ENERGY PREDICTED BY IDOCK:   -9.19 KCAL/MOL
REMARK 923 INTER-LIGAND FREE ENERGY PREDICTED BY IDOCK:   -7.46 KCAL/MOL
REMARK 924 INTRA-LIGAND FREE ENERGY PREDICTED BY IDOCK:   -1.72 KCAL/MOL
REMARK 927      BINDING AFFINITY PREDICTED BY RF-SCORE:    0.00 PKD
ROOT
HETATM    1  C   UNL     1     -10.304   5.604  68.515  1.00  0.00    -0.265 C  
HETATM    2  C   UNL     1     -11.285   6.168  69.526  1.00  0.00    -0.482 C  
ENDROOT
BRANCH   2   3
HETATM    3  C   UNL     1     -10.892   5.784  70.949  1.00  0.00    -0.326 C  
BRANCH   3   4
HETATM    4  C   UNL     1     -11.114   6.952  71.902  1.00  0.00    -0.278 C  
BRANCH   4   5
HETATM    5  C   UNL     1     -11.965   8.032  71.250  1.00  0.00    -0.321 C  
BRANCH   5   6
HETATM    6  C   UNL     1     -11.179   9.333  71.123  1.00  0.00    -0.413 C  
BRANCH   6   7
HETATM    7  C   UNL     1      -9.727   9.100  71.504  1.00  0.00    -0.313 C  
BRANCH   7   8
HETATM    8  C   UNL     1      -8.776   9.518  70.388  1.00  0.00    -0.265 C  
BRANCH   8   9
HETATM    9  C   UNL     1      -9.603  10.072  69.237  1.00  0.00    -0.227 C  
BRANCH   9  10
HETATM   10  C   UNL     1      -8.751  10.365  68.010  1.00  0.00    -0.123 C  
BRANCH  10  11
HETATM   11  N   UNL     1      -9.336   9.741  66.716  1.00  0.00    -0.148 N  
HETATM   12  C   UNL     1      -8.307   8.821  66.058  1.00  0.00    -0.126 C  
HETATM   13  C   UNL     1     -10.606   8.949  67.039  1.00  0.00    -0.209 C  
BRANCH  11  14
HETATM   14  C   UNL     1      -9.669  10.932  65.780  1.00  0.00    -0.224 C  
BRANCH  14  15
HETATM   15  C   UNL     1      -9.881  10.500  64.337  1.00  0.00    -0.405 C  
BRANCH  15  16
HETATM   16  C   UNL     1     -10.295  11.663  63.446  1.00  0.00    -0.482 C  
BRANCH  16  17
HETATM   17  C   UNL     1     -11.805  11.843  63.563  1.00  0.00    -0.560 C  
BRANCH  17  18
HETATM   18  C   UNL     1     -12.205  13.305  63.452  1.00  0.00    -0.476 C  
BRANCH  18  19
HETATM   19  C   UNL     1     -11.823  14.043  64.728  1.00  0.00    -0.415 C  
BRANCH  19  20
HETATM   20  C   UNL     1     -12.640  13.529  65.908  1.00  0.00    -0.454 C  
BRANCH  20  21
HETATM   21  C   UNL     1     -11.772  13.392  67.155  1.00  0.00    -0.424 C  
BRANCH  21  22
HETATM   22  C   UNL     1     -12.092  14.496  68.157  1.00  0.00    -0.232 C  
HETATM   23  C   UNL     1     -11.160  14.442  69.353  1.00  0.00    -0.294 C  
ENDBRANCH  21  22
ENDBRANCH  20  21
ENDBRANCH  19  20
ENDBRANCH  18  19
ENDBRANCH  17  18
ENDBRANCH  16  17
ENDBRANCH  15  16
ENDBRANCH  14  15
ENDBRANCH  11  14
ENDBRANCH  10  11
ENDBRANCH   9  10
ENDBRANCH   8   9
ENDBRANCH   7   8
ENDBRANCH   6   7
ENDBRANCH   5   6
ENDBRANCH   4   5
ENDBRANCH   3   4
ENDBRANCH   2   3
TORSDOF 18
ENDMDL
MODEL      165
REMARK 921   NORMALIZED FREE ENERGY PREDICTED BY IDOCK:   -3.15 KCAL/MOL
REMARK 922        TOTAL FREE ENERGY PREDICTED BY IDOCK:   -9.17 KCAL/MOL
REMARK 923 INTER-LIGAND FREE ENERGY PREDICTED BY IDOCK:   -6.86 KCAL/MOL
REMARK 924 INTRA-LIGAND FREE ENERGY PREDICTED BY IDOCK:   -2.32 KCAL/MOL
REMARK 927      BINDING AFFINITY PREDICTED BY RF-SCORE:    0.00 PKD
ROOT
HETATM    1  C   UNL     1     -11.765  16.032  71.433  1.00  0.00    -0.536 C  
HETATM    2  C   UNL     1     -12.825  15.519  70.476  1.00  0.00    -0.402 C  
ENDROOT
BRANCH   2   3
HETATM    3  C   UNL     1     -12.260  15.344  69.070  1.00  0.00    -0.167 C  
BRANCH   3   4
HETATM    4  C   UNL     1     -11.969  13.874  68.787  1.00  0.00    -0.393 C  
BRANCH   4   5
HETATM    5  C   UNL     1     -10.473  13.602  68.812  1.00  0.00    -0.214 C  
BRANCH   5   6
HETATM    6  C   UNL     1      -9.694  14.829  68.349  1.00  0.00    -0.214 C  
BRANCH   6   7
HETATM    7  C   UNL     1      -8.543  15.100  69.303  1.00  0.00    -0.211 C  
BRANCH   7   8
HETATM    8  C   UNL     1      -7.424  15.887  68.627  1.00  0.00    -0.158 C  
BRANCH   8   9
HETATM    9  C   UNL     1      -7.870  17.337  68.497  1.00  0.00    -0.266 C  
BRANCH   9  10
HETATM   10  C   UNL     1      -8.218  17.701  67.060  1.00  0.00    -0.220 C  
BRANCH  10  11
HETATM   11  N   UNL     1      -9.375  18.729  66.970  1.00  0.00    -0.290 N  
HETATM   12  C   UNL     1      -9.996  18.952  68.349  1.00  0.00    -0.391 C  
HETATM   13  C   UNL     1      -8.860  20.058  66.414  1.00  0.00    -0.316 C  
BRANCH  11  14
HETATM   14  C   UNL     1     -10.420  18.112  66.003  1.00  0.00    -0.335 C  
BRANCH  14  15
HETATM   15  C   UNL     1     -10.131  16.653  65.683  1.00  0.00    -0.244 C  
BRANCH  15  16
HETATM   16  C   UNL     1     -11.284  15.990  64.944  1.00  0.00    -0.319 C  
BRANCH  16  17
HETATM   17  C   UNL     1     -10.880  14.557  64.611  1.00  0.00    -0.351 C  
BRANCH  17  18
HETATM   18  C   UNL     1     -12.066  13.738  64.130  1.00  0.00    -0.478 C  
BRANCH  18  19
HETATM   19  C   UNL     1     -11.849  12.269  64.469  1.00  0.00    -0.441 C  
BRANCH  19  20
HETATM   20  C   UNL     1     -10.707  12.113  65.468  1.00  0.00    -0.321 C  
BRANCH  20  21
HETATM   21  C   UNL     1     -10.332  10.645  65.644  1.00  0.00    -0.285 C  
BRANCH  21  22
HETATM   22  C   UNL     1      -8.861  10.507  66.019  1.00  0.00    -0.179 C  
HETATM   23  C   UNL     1      -8.678  10.464  67.525  1.00  0.00    -0.125 C  
ENDBRANCH  21  22
ENDBRANCH  20  21
ENDBRANCH  19  20
ENDBRANCH  18  19
ENDBRANCH  17  18
ENDBRANCH  16  17
ENDBRANCH  15  16
ENDBRANCH  14  15
ENDBRANCH  11  14
ENDBRANCH  10  11
ENDBRANCH   9  10
ENDBRANCH   8   9
ENDBRANCH   7   8
ENDBRANCH   6   7
ENDBRANCH   5   6
ENDBRANCH   4   5
ENDBRANCH   3   4
ENDBRANCH   2   3
TORSDOF 18
ENDMDL
MODEL      166
REMARK 921   NORMALIZED FREE ENERGY PREDICTED BY IDOCK:   -3.15 KCAL/MOL
REMARK 922        TOTAL FREE ENERGY PREDICTED BY IDOCK:   -9.17 KCAL/MOL
REMARK 923 INTER-LIGAND FREE ENERGY PREDICTED BY IDOCK:   -7.48 KCAL/MOL
REMARK 924 INTRA-LIGAND FREE ENERGY PREDICTED BY IDOCK:   -1.69 KCAL/MOL
REMARK 927      BINDING AFFINITY PREDICTED BY RF-SCORE:    0.00 PKD
ROOT
HETATM    1  C   UNL     1     -10.577   5.285  73.789  1.00  0.00    -0.330 C  
HETATM    2  C   UNL     1     -11.612   4.221  73.476  1.00  0.00    -0.174 C  
ENDROOT
BRANCH   2   3
HETATM    3  C   UNL     1     -10.969   2.842  73.365  1.00  0.00    -0.297 C  
BRANCH   3   4
HETATM    4  C   UNL     1      -9.700   2.906  72.525  1.00  0.00    -0.204 C  
BRANCH   4   5
HETATM    5  C   UNL     1      -9.874   2.147  71.217  1.00  0.00    -0.151 C  
BRANCH   5   6
HETATM    6  C   UNL     1      -9.508   3.030  70.029  1.00  0.00    -0.195 C  
BRANCH   6   7
HETATM    7  C   UNL     1      -9.476   4.487  70.458  1.00  0.00    -0.246 C  
BRANCH   7   8
HETATM    8  C   UNL     1     -10.191   5.387  69.456  1.00  0.00    -0.336 C  
BRANCH   8   9
HETATM    9  C   UNL     1     -11.245   6.191  70.203  1.00  0.00    -0.452 C  
BRANCH   9  10
HETATM   10  C   UNL     1     -11.018   7.691  70.073  1.00  0.00    -0.228 C  
BRANCH  10  11
HETATM   11  N   UNL     1     -11.445   8.470  71.344  1.00  0.00    -0.273 N  
HETATM   12  C   UNL     1     -12.725   7.871  71.928  1.00  0.00    -0.316 C  
HETATM   13  C   UNL     1     -10.330   8.428  72.391  1.00  0.00    -0.329 C  
BRANCH  11  14
HETATM   14  C   UNL     1     -11.697   9.930  70.886  1.00  0.00    -0.364 C  
BRANCH  14  15
HETATM   15  C   UNL     1     -11.235  10.183  69.458  1.00  0.00    -0.288 C  
BRANCH  15  16
HETATM   16  C   UNL     1     -11.988  11.335  68.808  1.00  0.00    -0.350 C  
BRANCH  16  17
HETATM   17  C   UNL     1     -11.903  12.546  69.732  1.00  0.00    -0.380 C  
BRANCH  17  18
HETATM   18  C   UNL     1     -11.313  13.753  69.022  1.00  0.00    -0.333 C  
BRANCH  18  19
HETATM   19  C   UNL     1     -11.207  13.471  67.529  1.00  0.00    -0.307 C  
BRANCH  19  20
HETATM   20  C   UNL     1     -12.049  14.464  66.736  1.00  0.00    -0.393 C  
BRANCH  20  21
HETATM   21  C   UNL     1     -12.883  13.750  65.677  1.00  0.00    -0.456 C  
BRANCH  21  22
HETATM   22  C   UNL     1     -12.165  12.500  65.179  1.00  0.00    -0.509 C  
HETATM   23  C   UNL     1     -11.803  12.621  63.711  1.00  0.00    -0.574 C  
ENDBRANCH  21  22
ENDBRANCH  20  21
ENDBRANCH  19  20
ENDBRANCH  18  19
ENDBRANCH  17  18
ENDBRANCH  16  17
ENDBRANCH  15  16
ENDBRANCH  14  15
ENDBRANCH  11  14
ENDBRANCH  10  11
ENDBRANCH   9  10
ENDBRANCH   8   9
ENDBRANCH   7   8
ENDBRANCH   6   7
ENDBRANCH   5   6
ENDBRANCH   4   5
ENDBRANCH   3   4
ENDBRANCH   2   3
TORSDOF 18
ENDMDL
MODEL      167
REMARK 921   NORMALIZED FREE ENERGY PREDICTED BY IDOCK:   -3.15 KCAL/MOL
REMARK 922        TOTAL FREE ENERGY PREDICTED BY IDOCK:   -9.17 KCAL/MOL
REMARK 923 INTER-LIGAND FREE ENERGY PREDICTED BY IDOCK:   -6.67 KCAL/MOL
REMARK 924 INTRA-LIGAND FREE ENERGY PREDICTED BY IDOCK:   -2.50 KCAL/MOL
REMARK 927      BINDING AFFINITY PREDICTED BY RF-SCORE:    0.00 PKD
ROOT
HETATM    1  C   UNL     1     -12.030   7.036  70.948  1.00  0.00    -0.409 C  
HETATM    2  C   UNL     1     -11.549   8.444  71.244  1.00  0.00    -0.326 C  
ENDROOT
BRANCH   2   3
HETATM    3  C   UNL     1     -12.593   9.230  72.030  1.00  0.00    -0.465 C  
BRANCH   3   4
HETATM    4  C   UNL     1     -12.724  10.647  71.484  1.00  0.00    -0.549 C  
BRANCH   4   5
HETATM    5  C   UNL     1     -12.364  10.695  70.006  1.00  0.00    -0.341 C  
BRANCH   5   6
HETATM    6  C   UNL     1     -11.815  12.067  69.630  1.00  0.00    -0.401 C  
BRANCH   6   7
HETATM    7  C   UNL     1     -11.296  12.042  68.202  1.00  0.00    -0.349 C  
BRANCH   7   8
HETATM    8  C   UNL     1     -11.216  10.620  67.655  1.00  0.00    -0.361 C  
BRANCH   8   9
HETATM    9  C   UNL     1      -9.749  10.259  67.474  1.00  0.00    -0.196 C  
BRANCH   9  10
HETATM   10  C   UNL     1      -8.934  11.430  66.942  1.00  0.00    -0.171 C  
BRANCH  10  11
HETATM   11  N   UNL     1      -7.526  11.517  67.587  1.00  0.00    -0.103 N  
HETATM   12  C   UNL     1      -7.557  10.951  69.007  1.00  0.00    -0.135 C  
HETATM   13  C   UNL     1      -6.509  10.744  66.744  1.00  0.00    -0.096 C  
BRANCH  11  14
HETATM   14  C   UNL     1      -7.163  13.024  67.618  1.00  0.00    -0.151 C  
BRANCH  14  15
HETATM   15  C   UNL     1      -8.272  13.881  68.210  1.00  0.00    -0.158 C  
BRANCH  15  16
HETATM   16  C   UNL     1      -7.727  15.114  68.918  1.00  0.00    -0.159 C  
BRANCH  16  17
HETATM   17  C   UNL     1      -8.852  16.137  69.035  1.00  0.00    -0.251 C  
BRANCH  17  18
HETATM   18  C   UNL     1     -10.213  15.466  69.113  1.00  0.00    -0.239 C  
BRANCH  18  19
HETATM   19  C   UNL     1     -11.155  16.089  68.091  1.00  0.00    -0.344 C  
BRANCH  19  20
HETATM   20  C   UNL     1     -10.367  16.866  67.042  1.00  0.00    -0.307 C  
BRANCH  20  21
HETATM   21  C   UNL     1     -10.525  16.236  65.662  1.00  0.00    -0.386 C  
BRANCH  21  22
HETATM   22  C   UNL     1     -11.242  14.894  65.762  1.00  0.00    -0.334 C  
HETATM   23  C   UNL     1     -10.665  13.887  64.784  1.00  0.00    -0.437 C  
ENDBRANCH  21  22
ENDBRANCH  20  21
ENDBRANCH  19  20
ENDBRANCH  18  19
ENDBRANCH  17  18
ENDBRANCH  16  17
ENDBRANCH  15  16
ENDBRANCH  14  15
ENDBRANCH  11  14
ENDBRANCH  10  11
ENDBRANCH   9  10
ENDBRANCH   8   9
ENDBRANCH   7   8
ENDBRANCH   6   7
ENDBRANCH   5   6
ENDBRANCH   4   5
ENDBRANCH   3   4
ENDBRANCH   2   3
TORSDOF 18
ENDMDL
MODEL      168
REMARK 921   NORMALIZED FREE ENERGY PREDICTED BY IDOCK:   -3.14 KCAL/MOL
REMARK 922        TOTAL FREE ENERGY PREDICTED BY IDOCK:   -9.15 KCAL/MOL
REMARK 923 INTER-LIGAND FREE ENERGY PREDICTED BY IDOCK:   -7.75 KCAL/MOL
REMARK 924 INTRA-LIGAND FREE ENERGY PREDICTED BY IDOCK:   -1.41 KCAL/MOL
REMARK 927      BINDING AFFINITY PREDICTED BY RF-SCORE:    0.00 PKD
ROOT
HETATM    1  C   UNL     1     -10.246   4.859  69.579  1.00  0.00    -0.247 C  
HETATM    2  C   UNL     1     -10.195   5.422  70.987  1.00  0.00    -0.296 C  
ENDROOT
BRANCH   2   3
HETATM    3  C   UNL     1     -11.455   6.219  71.308  1.00  0.00    -0.352 C  
BRANCH   3   4
HETATM    4  C   UNL     1     -11.311   6.938  72.645  1.00  0.00    -0.272 C  
BRANCH   4   5
HETATM    5  C   UNL     1     -11.636   8.417  72.504  1.00  0.00    -0.426 C  
BRANCH   5   6
HETATM    6  C   UNL     1     -12.882   8.615  71.646  1.00  0.00    -0.380 C  
BRANCH   6   7
HETATM    7  C   UNL     1     -12.941  10.047  71.143  1.00  0.00    -0.478 C  
BRANCH   7   8
HETATM    8  C   UNL     1     -11.572  10.540  70.682  1.00  0.00    -0.445 C  
BRANCH   8   9
HETATM    9  C   UNL     1     -11.782  11.698  69.717  1.00  0.00    -0.425 C  
BRANCH   9  10
HETATM   10  C   UNL     1     -11.917  11.224  68.277  1.00  0.00    -0.145 C  
BRANCH  10  11
HETATM   11  N   UNL     1     -11.045  12.048  67.294  1.00  0.00    -0.268 N  
HETATM   12  C   UNL     1     -10.335  11.120  66.308  1.00  0.00    -0.249 C  
HETATM   13  C   UNL     1     -11.913  13.049  66.528  1.00  0.00    -0.391 C  
BRANCH  11  14
HETATM   14  C   UNL     1     -10.007  12.798  68.169  1.00  0.00    -0.229 C  
BRANCH  14  15
HETATM   15  C   UNL     1      -8.869  13.389  67.350  1.00  0.00    -0.214 C  
BRANCH  15  16
HETATM   16  C   UNL     1      -8.651  14.864  67.655  1.00  0.00    -0.181 C  
BRANCH  16  17
HETATM   17  C   UNL     1      -9.682  15.298  68.692  1.00  0.00    -0.212 C  
BRANCH  17  18
HETATM   18  C   UNL     1      -9.698  16.806  68.870  1.00  0.00    -0.257 C  
BRANCH  18  19
HETATM   19  C   UNL     1      -8.318  17.376  68.572  1.00  0.00    -0.271 C  
BRANCH  19  20
HETATM   20  C   UNL     1      -8.388  18.889  68.403  1.00  0.00    -0.382 C  
BRANCH  20  21
HETATM   21  C   UNL     1      -9.824  19.387  68.531  1.00  0.00    -0.509 C  
BRANCH  21  22
HETATM   22  C   UNL     1     -10.224  20.197  67.302  1.00  0.00    -0.540 C  
HETATM   23  C   UNL     1     -10.523  19.293  66.120  1.00  0.00    -0.577 C  
ENDBRANCH  21  22
ENDBRANCH  20  21
ENDBRANCH  19  20
ENDBRANCH  18  19
ENDBRANCH  17  18
ENDBRANCH  16  17
ENDBRANCH  15  16
ENDBRANCH  14  15
ENDBRANCH  11  14
ENDBRANCH  10  11
ENDBRANCH   9  10
ENDBRANCH   8   9
ENDBRANCH   7   8
ENDBRANCH   6   7
ENDBRANCH   5   6
ENDBRANCH   4   5
ENDBRANCH   3   4
ENDBRANCH   2   3
TORSDOF 18
ENDMDL
MODEL      169
REMARK 921   NORMALIZED FREE ENERGY PREDICTED BY IDOCK:   -3.14 KCAL/MOL
REMARK 922        TOTAL FREE ENERGY PREDICTED BY IDOCK:   -9.14 KCAL/MOL
REMARK 923 INTER-LIGAND FREE ENERGY PREDICTED BY IDOCK:   -7.57 KCAL/MOL
REMARK 924 INTRA-LIGAND FREE ENERGY PREDICTED BY IDOCK:   -1.58 KCAL/MOL
REMARK 927      BINDING AFFINITY PREDICTED BY RF-SCORE:    0.00 PKD
ROOT
HETATM    1  C   UNL     1     -10.902  18.945  67.329  1.00  0.00    -0.448 C  
HETATM    2  C   UNL     1      -9.953  19.867  68.071  1.00  0.00    -0.556 C  
ENDROOT
BRANCH   2   3
HETATM    3  C   UNL     1      -8.998  20.567  67.108  1.00  0.00    -0.417 C  
BRANCH   3   4
HETATM    4  C   UNL     1      -7.847  19.643  66.727  1.00  0.00    -0.305 C  
BRANCH   4   5
HETATM    5  C   UNL     1      -7.197  19.044  67.965  1.00  0.00    -0.271 C  
BRANCH   5   6
HETATM    6  C   UNL     1      -7.039  17.534  67.813  1.00  0.00    -0.187 C  
BRANCH   6   7
HETATM    7  C   UNL     1      -7.673  17.077  66.510  1.00  0.00    -0.327 C  
BRANCH   7   8
HETATM    8  C   UNL     1      -8.445  15.773  66.686  1.00  0.00    -0.323 C  
BRANCH   8   9
HETATM    9  C   UNL     1      -9.662  15.812  65.773  1.00  0.00    -0.372 C  
BRANCH   9  10
HETATM   10  C   UNL     1     -10.819  14.993  66.327  1.00  0.00    -0.333 C  
BRANCH  10  11
HETATM   11  N   UNL     1     -11.429  14.033  65.273  1.00  0.00    -0.313 N  
HETATM   12  C   UNL     1     -12.360  14.800  64.333  1.00  0.00    -0.368 C  
HETATM   13  C   UNL     1     -10.316  13.362  64.463  1.00  0.00    -0.373 C  
BRANCH  11  14
HETATM   14  C   UNL     1     -12.227  12.971  66.072  1.00  0.00    -0.399 C  
BRANCH  14  15
HETATM   15  C   UNL     1     -11.646  12.722  67.456  1.00  0.00    -0.412 C  
BRANCH  15  16
HETATM   16  C   UNL     1     -11.051  11.327  67.584  1.00  0.00    -0.336 C  
BRANCH  16  17
HETATM   17  C   UNL     1     -10.828  11.035  69.065  1.00  0.00    -0.274 C  
BRANCH  17  18
HETATM   18  C   UNL     1      -9.858   9.883  69.269  1.00  0.00    -0.217 C  
BRANCH  18  19
HETATM   19  C   UNL     1     -10.626   8.571  69.356  1.00  0.00    -0.203 C  
BRANCH  19  20
HETATM   20  C   UNL     1     -10.373   7.720  68.116  1.00  0.00    -0.248 C  
BRANCH  20  21
HETATM   21  C   UNL     1     -10.931   6.311  68.297  1.00  0.00    -0.408 C  
BRANCH  21  22
HETATM   22  C   UNL     1     -10.286   5.627  69.497  1.00  0.00    -0.345 C  
HETATM   23  C   UNL     1      -9.027   4.882  69.095  1.00  0.00    -0.132 C  
ENDBRANCH  21  22
ENDBRANCH  20  21
ENDBRANCH  19  20
ENDBRANCH  18  19
ENDBRANCH  17  18
ENDBRANCH  16  17
ENDBRANCH  15  16
ENDBRANCH  14  15
ENDBRANCH  11  14
ENDBRANCH  10  11
ENDBRANCH   9  10
ENDBRANCH   8   9
ENDBRANCH   7   8
ENDBRANCH   6   7
ENDBRANCH   5   6
ENDBRANCH   4   5
ENDBRANCH   3   4
ENDBRANCH   2   3
TORSDOF 18
ENDMDL
MODEL      170
REMARK 921   NORMALIZED FREE ENERGY PREDICTED BY IDOCK:   -3.14 KCAL/MOL
REMARK 922        TOTAL FREE ENERGY PREDICTED BY IDOCK:   -9.14 KCAL/MOL
REMARK 923 INTER-LIGAND FREE ENERGY PREDICTED BY IDOCK:   -7.08 KCAL/MOL
REMARK 924 INTRA-LIGAND FREE ENERGY PREDICTED BY IDOCK:   -2.06 KCAL/MOL
REMARK 927      BINDING AFFINITY PREDICTED BY RF-SCORE:    0.00 PKD
ROOT
HETATM    1  C   UNL     1     -13.154  10.716  71.831  1.00  0.00    -0.563 C  
HETATM    2  C   UNL     1     -13.710   9.305  71.851  1.00  0.00    -0.464 C  
ENDROOT
BRANCH   2   3
HETATM    3  C   UNL     1     -12.639   8.284  71.479  1.00  0.00    -0.333 C  
BRANCH   3   4
HETATM    4  C   UNL     1     -11.267   8.746  71.956  1.00  0.00    -0.443 C  
BRANCH   4   5
HETATM    5  C   UNL     1     -10.631   7.709  72.869  1.00  0.00    -0.411 C  
BRANCH   5   6
HETATM    6  C   UNL     1      -9.112   7.740  72.744  1.00  0.00    -0.242 C  
BRANCH   6   7
HETATM    7  C   UNL     1      -8.617   6.442  72.129  1.00  0.00    -0.125 C  
BRANCH   7   8
HETATM    8  C   UNL     1      -9.768   5.496  71.804  1.00  0.00    -0.202 C  
BRANCH   8   9
HETATM    9  C   UNL     1      -9.658   5.095  70.341  1.00  0.00    -0.252 C  
BRANCH   9  10
HETATM   10  C   UNL     1     -10.597   5.903  69.455  1.00  0.00    -0.309 C  
BRANCH  10  11
HETATM   11  N   UNL     1      -9.931   6.336  68.122  1.00  0.00    -0.131 N  
HETATM   12  C   UNL     1      -8.424   6.081  68.174  1.00  0.00    -0.115 C  
HETATM   13  C   UNL     1     -10.546   5.568  66.950  1.00  0.00    -0.278 C  
BRANCH  11  14
HETATM   14  C   UNL     1     -10.214   7.854  67.977  1.00  0.00    -0.208 C  
BRANCH  14  15
HETATM   15  C   UNL     1      -9.212   8.711  68.736  1.00  0.00    -0.142 C  
BRANCH  15  16
HETATM   16  C   UNL     1      -9.408  10.196  68.464  1.00  0.00    -0.151 C  
BRANCH  16  17
HETATM   17  C   UNL     1     -10.834  10.409  67.966  1.00  0.00    -0.319 C  
BRANCH  17  18
HETATM   18  C   UNL     1     -11.545  11.498  68.750  1.00  0.00    -0.379 C  
BRANCH  18  19
HETATM   19  C   UNL     1     -11.781  12.708  67.855  1.00  0.00    -0.412 C  
BRANCH  19  20
HETATM   20  C   UNL     1     -11.231  12.454  66.456  1.00  0.00    -0.368 C  
BRANCH  20  21
HETATM   21  C   UNL     1     -10.200  13.511  66.074  1.00  0.00    -0.308 C  
BRANCH  21  22
HETATM   22  C   UNL     1     -10.654  14.284  64.840  1.00  0.00    -0.452 C  
HETATM   23  C   UNL     1     -12.145  14.123  64.608  1.00  0.00    -0.469 C  
ENDBRANCH  21  22
ENDBRANCH  20  21
ENDBRANCH  19  20
ENDBRANCH  18  19
ENDBRANCH  17  18
ENDBRANCH  16  17
ENDBRANCH  15  16
ENDBRANCH  14  15
ENDBRANCH  11  14
ENDBRANCH  10  11
ENDBRANCH   9  10
ENDBRANCH   8   9
ENDBRANCH   7   8
ENDBRANCH   6   7
ENDBRANCH   5   6
ENDBRANCH   4   5
ENDBRANCH   3   4
ENDBRANCH   2   3
TORSDOF 18
ENDMDL
MODEL      171
REMARK 921   NORMALIZED FREE ENERGY PREDICTED BY IDOCK:   -3.14 KCAL/MOL
REMARK 922        TOTAL FREE ENERGY PREDICTED BY IDOCK:   -9.14 KCAL/MOL
REMARK 923 INTER-LIGAND FREE ENERGY PREDICTED BY IDOCK:   -6.99 KCAL/MOL
REMARK 924 INTRA-LIGAND FREE ENERGY PREDICTED BY IDOCK:   -2.15 KCAL/MOL
REMARK 927      BINDING AFFINITY PREDICTED BY RF-SCORE:    0.00 PKD
ROOT
HETATM    1  C   UNL     1     -10.164  15.810  69.471  1.00  0.00    -0.271 C  
HETATM    2  C   UNL     1     -11.495  15.667  68.755  1.00  0.00    -0.382 C  
ENDROOT
BRANCH   2   3
HETATM    3  C   UNL     1     -11.311  15.075  67.361  1.00  0.00    -0.338 C  
BRANCH   3   4
HETATM    4  C   UNL     1     -11.820  13.639  67.315  1.00  0.00    -0.429 C  
BRANCH   4   5
HETATM    5  C   UNL     1     -10.662  12.652  67.326  1.00  0.00    -0.259 C  
BRANCH   5   6
HETATM    6  C   UNL     1     -10.525  12.000  68.699  1.00  0.00    -0.238 C  
BRANCH   6   7
HETATM    7  C   UNL     1     -11.853  12.057  69.433  1.00  0.00    -0.384 C  
BRANCH   7   8
HETATM    8  C   UNL     1     -11.977  10.939  70.464  1.00  0.00    -0.466 C  
BRANCH   8   9
HETATM    9  C   UNL     1     -10.729  10.072  70.380  1.00  0.00    -0.369 C  
BRANCH   9  10
HETATM   10  C   UNL     1     -11.069   8.596  70.219  1.00  0.00    -0.217 C  
BRANCH  10  11
HETATM   11  N   UNL     1     -10.213   7.685  71.135  1.00  0.00    -0.196 N  
HETATM   12  C   UNL     1      -9.418   8.530  72.132  1.00  0.00    -0.305 C  
HETATM   13  C   UNL     1     -11.110   6.702  71.891  1.00  0.00    -0.253 C  
BRANCH  11  14
HETATM   14  C   UNL     1      -9.249   6.917  70.194  1.00  0.00    -0.155 C  
BRANCH  14  15
HETATM   15  C   UNL     1      -8.366   7.847  69.375  1.00  0.00    -0.132 C  
BRANCH  15  16
HETATM   16  C   UNL     1      -8.673   7.763  67.887  1.00  0.00    -0.124 C  
BRANCH  16  17
HETATM   17  C   UNL     1      -8.525   9.158  67.287  1.00  0.00    -0.121 C  
BRANCH  17  18
HETATM   18  C   UNL     1      -9.515   9.391  66.159  1.00  0.00    -0.287 C  
BRANCH  18  19
HETATM   19  C   UNL     1      -8.808   9.260  64.817  1.00  0.00    -0.225 C  
BRANCH  19  20
HETATM   20  C   UNL     1      -9.222  10.391  63.881  1.00  0.00    -0.301 C  
BRANCH  20  21
HETATM   21  C   UNL     1     -10.575  10.968  64.286  1.00  0.00    -0.402 C  
BRANCH  21  22
HETATM   22  C   UNL     1     -10.781  12.344  63.664  1.00  0.00    -0.497 C  
HETATM   23  C   UNL     1     -12.255  12.644  63.465  1.00  0.00    -0.638 C  
ENDBRANCH  21  22
ENDBRANCH  20  21
ENDBRANCH  19  20
ENDBRANCH  18  19
ENDBRANCH  17  18
ENDBRANCH  16  17
ENDBRANCH  15  16
ENDBRANCH  14  15
ENDBRANCH  11  14
ENDBRANCH  10  11
ENDBRANCH   9  10
ENDBRANCH   8   9
ENDBRANCH   7   8
ENDBRANCH   6   7
ENDBRANCH   5   6
ENDBRANCH   4   5
ENDBRANCH   3   4
ENDBRANCH   2   3
TORSDOF 18
ENDMDL
MODEL      172
REMARK 921   NORMALIZED FREE ENERGY PREDICTED BY IDOCK:   -3.13 KCAL/MOL
REMARK 922        TOTAL FREE ENERGY PREDICTED BY IDOCK:   -9.13 KCAL/MOL
REMARK 923 INTER-LIGAND FREE ENERGY PREDICTED BY IDOCK:   -7.64 KCAL/MOL
REMARK 924 INTRA-LIGAND FREE ENERGY PREDICTED BY IDOCK:   -1.49 KCAL/MOL
REMARK 927      BINDING AFFINITY PREDICTED BY RF-SCORE:    0.00 PKD
ROOT
HETATM    1  C   UNL     1      -7.086   7.387  69.827  1.00  0.00    -0.068 C  
HETATM    2  C   UNL     1      -7.545   8.710  70.412  1.00  0.00    -0.075 C  
ENDROOT
BRANCH   2   3
HETATM    3  C   UNL     1      -8.056   8.535  71.839  1.00  0.00    -0.185 C  
BRANCH   3   4
HETATM    4  C   UNL     1      -9.572   8.688  71.889  1.00  0.00    -0.377 C  
BRANCH   4   5
HETATM    5  C   UNL     1     -10.060   9.621  70.791  1.00  0.00    -0.293 C  
BRANCH   5   6
HETATM    6  C   UNL     1     -11.541   9.938  70.974  1.00  0.00    -0.470 C  
BRANCH   6   7
HETATM    7  C   UNL     1     -11.870  11.270  70.321  1.00  0.00    -0.446 C  
BRANCH   7   8
HETATM    8  C   UNL     1     -12.124  11.118  68.825  1.00  0.00    -0.232 C  
BRANCH   8   9
HETATM    9  C   UNL     1     -11.716  12.413  68.137  1.00  0.00    -0.408 C  
BRANCH   9  10
HETATM   10  C   UNL     1     -11.081  12.162  66.776  1.00  0.00    -0.300 C  
BRANCH  10  11
HETATM   11  N   UNL     1     -11.057  13.433  65.888  1.00  0.00    -0.281 N  
HETATM   12  C   UNL     1     -10.572  13.087  64.479  1.00  0.00    -0.393 C  
HETATM   13  C   UNL     1     -12.455  14.054  65.815  1.00  0.00    -0.494 C  
BRANCH  11  14
HETATM   14  C   UNL     1     -10.069  14.414  66.571  1.00  0.00    -0.276 C  
BRANCH  14  15
HETATM   15  C   UNL     1     -10.752  15.677  67.073  1.00  0.00    -0.314 C  
BRANCH  15  16
HETATM   16  C   UNL     1      -9.757  16.679  67.641  1.00  0.00    -0.250 C  
BRANCH  16  17
HETATM   17  C   UNL     1      -9.668  16.465  69.149  1.00  0.00    -0.260 C  
BRANCH  17  18
HETATM   18  C   UNL     1     -11.018  16.103  69.744  1.00  0.00    -0.349 C  
BRANCH  18  19
HETATM   19  C   UNL     1     -11.088  16.574  71.190  1.00  0.00     0.187 C  
BRANCH  19  20
HETATM   20  C   UNL     1     -12.146  15.790  71.958  1.00  0.00    -0.562 C  
BRANCH  20  21
HETATM   21  C   UNL     1     -13.279  15.352  71.035  1.00  0.00    -0.560 C  
BRANCH  21  22
HETATM   22  C   UNL     1     -14.354  14.607  71.818  1.00  0.00    -0.638 C  
HETATM   23  C   UNL     1     -13.788  13.370  72.491  1.00  0.00    -0.595 C  
ENDBRANCH  21  22
ENDBRANCH  20  21
ENDBRANCH  19  20
ENDBRANCH  18  19
ENDBRANCH  17  18
ENDBRANCH  16  17
ENDBRANCH  15  16
ENDBRANCH  14  15
ENDBRANCH  11  14
ENDBRANCH  10  11
ENDBRANCH   9  10
ENDBRANCH   8   9
ENDBRANCH   7   8
ENDBRANCH   6   7
ENDBRANCH   5   6
ENDBRANCH   4   5
ENDBRANCH   3   4
ENDBRANCH   2   3
TORSDOF 18
ENDMDL
MODEL      173
REMARK 921   NORMALIZED FREE ENERGY PREDICTED BY IDOCK:   -3.13 KCAL/MOL
REMARK 922        TOTAL FREE ENERGY PREDICTED BY IDOCK:   -9.13 KCAL/MOL
REMARK 923 INTER-LIGAND FREE ENERGY PREDICTED BY IDOCK:   -6.95 KCAL/MOL
REMARK 924 INTRA-LIGAND FREE ENERGY PREDICTED BY IDOCK:   -2.18 KCAL/MOL
REMARK 927      BINDING AFFINITY PREDICTED BY RF-SCORE:    0.00 PKD
ROOT
HETATM    1  C   UNL     1     -10.937  15.056  64.927  1.00  0.00    -0.427 C  
HETATM    2  C   UNL     1     -12.234  14.446  64.429  1.00  0.00    -0.481 C  
ENDROOT
BRANCH   2   3
HETATM    3  C   UNL     1     -12.342  12.978  64.830  1.00  0.00    -0.490 C  
BRANCH   3   4
HETATM    4  C   UNL     1     -11.741  12.081  63.754  1.00  0.00    -0.575 C  
BRANCH   4   5
HETATM    5  C   UNL     1     -10.689  11.154  64.345  1.00  0.00    -0.388 C  
BRANCH   5   6
HETATM    6  C   UNL     1     -10.434  11.494  65.810  1.00  0.00    -0.308 C  
BRANCH   6   7
HETATM    7  C   UNL     1     -10.660  10.264  66.672  1.00  0.00    -0.232 C  
BRANCH   7   8
HETATM    8  C   UNL     1      -9.845   9.072  66.181  1.00  0.00    -0.349 C  
BRANCH   8   9
HETATM    9  C   UNL     1     -10.343   7.825  66.897  1.00  0.00    -0.396 C  
BRANCH   9  10
HETATM   10  C   UNL     1      -9.655   6.564  66.394  1.00  0.00    -0.104 C  
BRANCH  10  11
HETATM   11  N   UNL     1      -9.289   5.587  67.541  1.00  0.00    -0.110 N  
HETATM   12  C   UNL     1      -9.710   4.162  67.180  1.00  0.00    -0.186 C  
HETATM   13  C   UNL     1      -7.783   5.629  67.811  1.00  0.00    -0.096 C  
BRANCH  11  14
HETATM   14  C   UNL     1     -10.071   6.079  68.787  1.00  0.00    -0.168 C  
BRANCH  14  15
HETATM   15  C   UNL     1      -9.362   5.746  70.092  1.00  0.00    -0.184 C  
BRANCH  15  16
HETATM   16  C   UNL     1     -10.055   4.620  70.847  1.00  0.00    -0.257 C  
BRANCH  16  17
HETATM   17  C   UNL     1     -10.886   5.236  71.969  1.00  0.00    -0.230 C  
BRANCH  17  18
HETATM   18  C   UNL     1     -10.037   6.098  72.887  1.00  0.00    -0.196 C  
BRANCH  18  19
HETATM   19  C   UNL     1     -10.761   7.404  73.184  1.00  0.00    -0.436 C  
BRANCH  19  20
HETATM   20  C   UNL     1     -10.181   8.540  72.349  1.00  0.00    -0.369 C  
BRANCH  20  21
HETATM   21  C   UNL     1     -11.117   8.906  71.201  1.00  0.00    -0.354 C  
BRANCH  21  22
HETATM   22  C   UNL     1     -10.425   9.850  70.223  1.00  0.00    -0.348 C  
HETATM   23  C   UNL     1      -8.946   9.529  70.101  1.00  0.00    -0.269 C  
ENDBRANCH  21  22
ENDBRANCH  20  21
ENDBRANCH  19  20
ENDBRANCH  18  19
ENDBRANCH  17  18
ENDBRANCH  16  17
ENDBRANCH  15  16
ENDBRANCH  14  15
ENDBRANCH  11  14
ENDBRANCH  10  11
ENDBRANCH   9  10
ENDBRANCH   8   9
ENDBRANCH   7   8
ENDBRANCH   6   7
ENDBRANCH   5   6
ENDBRANCH   4   5
ENDBRANCH   3   4
ENDBRANCH   2   3
TORSDOF 18
ENDMDL
MODEL      174
REMARK 921   NORMALIZED FREE ENERGY PREDICTED BY IDOCK:   -3.12 KCAL/MOL
REMARK 922        TOTAL FREE ENERGY PREDICTED BY IDOCK:   -9.10 KCAL/MOL
REMARK 923 INTER-LIGAND FREE ENERGY PREDICTED BY IDOCK:   -7.25 KCAL/MOL
REMARK 924 INTRA-LIGAND FREE ENERGY PREDICTED BY IDOCK:   -1.85 KCAL/MOL
REMARK 927      BINDING AFFINITY PREDICTED BY RF-SCORE:    0.00 PKD
ROOT
HETATM    1  C   UNL     1      -9.786   3.757  71.708  1.00  0.00    -0.244 C  
HETATM    2  C   UNL     1      -9.553   2.290  71.396  1.00  0.00    -0.222 C  
ENDROOT
BRANCH   2   3
HETATM    3  C   UNL     1      -9.599   2.032  69.893  1.00  0.00    -0.050 C  
BRANCH   3   4
HETATM    4  C   UNL     1      -9.171   3.274  69.121  1.00  0.00    -0.225 C  
BRANCH   4   5
HETATM    5  C   UNL     1      -9.457   3.115  67.635  1.00  0.00    -0.202 C  
BRANCH   5   6
HETATM    6  C   UNL     1      -9.883   4.446  67.023  1.00  0.00    -0.227 C  
BRANCH   6   7
HETATM    7  C   UNL     1      -9.758   5.553  68.055  1.00  0.00    -0.159 C  
BRANCH   7   8
HETATM    8  C   UNL     1     -11.055   6.343  68.195  1.00  0.00    -0.358 C  
BRANCH   8   9
HETATM    9  C   UNL     1     -11.428   6.392  69.670  1.00  0.00    -0.446 C  
BRANCH   9  10
HETATM   10  C   UNL     1     -10.858   7.623  70.363  1.00  0.00    -0.244 C  
BRANCH  10  11
HETATM   11  N   UNL     1     -11.725   8.085  71.563  1.00  0.00    -0.274 N  
HETATM   12  C   UNL     1     -13.045   7.313  71.593  1.00  0.00    -0.369 C  
HETATM   13  C   UNL     1     -10.970   7.868  72.876  1.00  0.00    -0.388 C  
BRANCH  11  14
HETATM   14  C   UNL     1     -11.991   9.596  71.341  1.00  0.00    -0.399 C  
BRANCH  14  15
HETATM   15  C   UNL     1     -11.096  10.196  70.266  1.00  0.00    -0.384 C  
BRANCH  15  16
HETATM   16  C   UNL     1     -11.797  11.301  69.488  1.00  0.00    -0.427 C  
BRANCH  16  17
HETATM   17  C   UNL     1     -10.776  11.964  68.570  1.00  0.00    -0.254 C  
BRANCH  17  18
HETATM   18  C   UNL     1     -10.643  13.449  68.859  1.00  0.00    -0.181 C  
BRANCH  18  19
HETATM   19  C   UNL     1     -12.019  14.102  68.845  1.00  0.00    -0.376 C  
BRANCH  19  20
HETATM   20  C   UNL     1     -12.106  15.189  69.911  1.00  0.00    -0.373 C  
BRANCH  20  21
HETATM   21  C   UNL     1     -11.704  14.646  71.279  1.00  0.00    -0.324 C  
BRANCH  21  22
HETATM   22  C   UNL     1     -12.905  14.612  72.218  1.00  0.00    -0.420 C  
HETATM   23  C   UNL     1     -13.553  13.240  72.235  1.00  0.00    -0.703 C  
ENDBRANCH  21  22
ENDBRANCH  20  21
ENDBRANCH  19  20
ENDBRANCH  18  19
ENDBRANCH  17  18
ENDBRANCH  16  17
ENDBRANCH  15  16
ENDBRANCH  14  15
ENDBRANCH  11  14
ENDBRANCH  10  11
ENDBRANCH   9  10
ENDBRANCH   8   9
ENDBRANCH   7   8
ENDBRANCH   6   7
ENDBRANCH   5   6
ENDBRANCH   4   5
ENDBRANCH   3   4
ENDBRANCH   2   3
TORSDOF 18
ENDMDL
MODEL      175
REMARK 921   NORMALIZED FREE ENERGY PREDICTED BY IDOCK:   -3.11 KCAL/MOL
REMARK 922        TOTAL FREE ENERGY PREDICTED BY IDOCK:   -9.09 KCAL/MOL
REMARK 923 INTER-LIGAND FREE ENERGY PREDICTED BY IDOCK:   -7.72 KCAL/MOL
REMARK 924 INTRA-LIGAND FREE ENERGY PREDICTED BY IDOCK:   -1.37 KCAL/MOL
REMARK 927      BINDING AFFINITY PREDICTED BY RF-SCORE:    0.00 PKD
ROOT
HETATM    1  C   UNL     1     -10.703   7.764  71.739  1.00  0.00    -0.265 C  
HETATM    2  C   UNL     1     -11.309   6.474  71.220  1.00  0.00    -0.355 C  
ENDROOT
BRANCH   2   3
HETATM    3  C   UNL     1     -10.590   5.993  69.962  1.00  0.00    -0.340 C  
BRANCH   3   4
HETATM    4  C   UNL     1     -11.000   6.830  68.756  1.00  0.00    -0.267 C  
BRANCH   4   5
HETATM    5  C   UNL     1      -9.796   7.537  68.151  1.00  0.00    -0.179 C  
BRANCH   5   6
HETATM    6  C   UNL     1     -10.189   8.913  67.622  1.00  0.00    -0.296 C  
BRANCH   6   7
HETATM    7  C   UNL     1     -11.088   9.615  68.625  1.00  0.00    -0.085 C  
BRANCH   7   8
HETATM    8  C   UNL     1     -11.455  11.022  68.166  1.00  0.00    -0.374 C  
BRANCH   8   9
HETATM    9  C   UNL     1     -10.831  11.257  66.798  1.00  0.00    -0.334 C  
BRANCH   9  10
HETATM   10  C   UNL     1     -11.776  11.993  65.857  1.00  0.00    -0.242 C  
BRANCH  10  11
HETATM   11  N   UNL     1     -11.067  13.124  65.068  1.00  0.00    -0.293 N  
HETATM   12  C   UNL     1     -10.688  12.637  63.668  1.00  0.00    -0.372 C  
HETATM   13  C   UNL     1     -11.982  14.346  64.959  1.00  0.00    -0.412 C  
BRANCH  11  14
HETATM   14  C   UNL     1      -9.793  13.477  65.877  1.00  0.00    -0.241 C  
BRANCH  14  15
HETATM   15  C   UNL     1      -9.691  14.963  66.188  1.00  0.00    -0.333 C  
BRANCH  15  16
HETATM   16  C   UNL     1      -9.716  15.239  67.685  1.00  0.00    -0.208 C  
BRANCH  16  17
HETATM   17  C   UNL     1     -10.768  16.309  67.958  1.00  0.00    -0.331 C  
BRANCH  17  18
HETATM   18  C   UNL     1     -10.708  16.801  69.394  1.00  0.00    -0.300 C  
BRANCH  18  19
HETATM   19  C   UNL     1     -11.110  15.678  70.341  1.00  0.00    -0.369 C  
BRANCH  19  20
HETATM   20  C   UNL     1     -11.807  16.242  71.574  1.00  0.00    -0.441 C  
BRANCH  20  21
HETATM   21  C   UNL     1     -11.720  15.268  72.745  1.00  0.00    -0.502 C  
BRANCH  21  22
HETATM   22  C   UNL     1     -12.996  14.441  72.852  1.00  0.00    -0.575 C  
HETATM   23  C   UNL     1     -14.174  15.160  72.221  1.00  0.00    -0.613 C  
ENDBRANCH  21  22
ENDBRANCH  20  21
ENDBRANCH  19  20
ENDBRANCH  18  19
ENDBRANCH  17  18
ENDBRANCH  16  17
ENDBRANCH  15  16
ENDBRANCH  14  15
ENDBRANCH  11  14
ENDBRANCH  10  11
ENDBRANCH   9  10
ENDBRANCH   8   9
ENDBRANCH   7   8
ENDBRANCH   6   7
ENDBRANCH   5   6
ENDBRANCH   4   5
ENDBRANCH   3   4
ENDBRANCH   2   3
TORSDOF 18
ENDMDL
MODEL      176
REMARK 921   NORMALIZED FREE ENERGY PREDICTED BY IDOCK:   -3.11 KCAL/MOL
REMARK 922        TOTAL FREE ENERGY PREDICTED BY IDOCK:   -9.09 KCAL/MOL
REMARK 923 INTER-LIGAND FREE ENERGY PREDICTED BY IDOCK:   -6.55 KCAL/MOL
REMARK 924 INTRA-LIGAND FREE ENERGY PREDICTED BY IDOCK:   -2.54 KCAL/MOL
REMARK 927      BINDING AFFINITY PREDICTED BY RF-SCORE:    0.00 PKD
ROOT
HETATM    1  C   UNL     1      -7.634   7.764  65.391  1.00  0.00    -0.089 C  
HETATM    2  C   UNL     1      -8.153   8.530  64.189  1.00  0.00    -0.154 C  
ENDROOT
BRANCH   2   3
HETATM    3  C   UNL     1      -9.156   9.601  64.609  1.00  0.00    -0.286 C  
BRANCH   3   4
HETATM    4  C   UNL     1      -9.168   9.763  66.124  1.00  0.00    -0.221 C  
BRANCH   4   5
HETATM    5  C   UNL     1      -8.556  11.094  66.533  1.00  0.00    -0.169 C  
BRANCH   5   6
HETATM    6  C   UNL     1      -8.221  11.098  68.021  1.00  0.00    -0.125 C  
BRANCH   6   7
HETATM    7  C   UNL     1      -7.915  12.514  68.479  1.00  0.00    -0.097 C  
BRANCH   7   8
HETATM    8  C   UNL     1      -7.798  13.475  67.300  1.00  0.00    -0.106 C  
BRANCH   8   9
HETATM    9  C   UNL     1      -8.660  14.695  67.591  1.00  0.00    -0.182 C  
BRANCH   9  10
HETATM   10  C   UNL     1      -8.921  15.522  66.339  1.00  0.00    -0.324 C  
BRANCH  10  11
HETATM   11  N   UNL     1     -10.381  16.040  66.262  1.00  0.00    -0.308 N  
HETATM   12  C   UNL     1     -10.448  17.506  66.692  1.00  0.00    -0.270 C  
HETATM   13  C   UNL     1     -10.918  15.896  64.836  1.00  0.00    -0.411 C  
BRANCH  11  14
HETATM   14  C   UNL     1     -11.201  15.156  67.236  1.00  0.00    -0.324 C  
BRANCH  14  15
HETATM   15  C   UNL     1     -12.197  14.259  66.516  1.00  0.00    -0.419 C  
BRANCH  15  16
HETATM   16  C   UNL     1     -11.899  12.782  66.734  1.00  0.00    -0.452 C  
BRANCH  16  17
HETATM   17  C   UNL     1     -11.667  12.554  68.224  1.00  0.00    -0.390 C  
BRANCH  17  18
HETATM   18  C   UNL     1     -11.863  11.097  68.605  1.00  0.00    -0.357 C  
BRANCH  18  19
HETATM   19  C   UNL     1     -11.479  10.889  70.064  1.00  0.00    -0.411 C  
BRANCH  19  20
HETATM   20  C   UNL     1     -10.873   9.505  70.266  1.00  0.00    -0.319 C  
BRANCH  20  21
HETATM   21  C   UNL     1     -11.066   9.028  71.703  1.00  0.00    -0.433 C  
BRANCH  21  22
HETATM   22  C   UNL     1     -11.242   7.514  71.748  1.00  0.00    -0.281 C  
HETATM   23  C   UNL     1     -12.604   7.103  71.219  1.00  0.00    -0.421 C  
ENDBRANCH  21  22
ENDBRANCH  20  21
ENDBRANCH  19  20
ENDBRANCH  18  19
ENDBRANCH  17  18
ENDBRANCH  16  17
ENDBRANCH  15  16
ENDBRANCH  14  15
ENDBRANCH  11  14
ENDBRANCH  10  11
ENDBRANCH   9  10
ENDBRANCH   8   9
ENDBRANCH   7   8
ENDBRANCH   6   7
ENDBRANCH   5   6
ENDBRANCH   4   5
ENDBRANCH   3   4
ENDBRANCH   2   3
TORSDOF 18
ENDMDL
MODEL      177
REMARK 921   NORMALIZED FREE ENERGY PREDICTED BY IDOCK:   -3.10 KCAL/MOL
REMARK 922        TOTAL FREE ENERGY PREDICTED BY IDOCK:   -9.07 KCAL/MOL
REMARK 923 INTER-LIGAND FREE ENERGY PREDICTED BY IDOCK:   -7.76 KCAL/MOL
REMARK 924 INTRA-LIGAND FREE ENERGY PREDICTED BY IDOCK:   -1.31 KCAL/MOL
REMARK 927      BINDING AFFINITY PREDICTED BY RF-SCORE:    0.00 PKD
ROOT
HETATM    1  C   UNL     1     -10.724  18.857  67.394  1.00  0.00    -0.519 C  
HETATM    2  C   UNL     1      -9.750  19.826  68.038  1.00  0.00    -0.505 C  
ENDROOT
BRANCH   2   3
HETATM    3  C   UNL     1      -8.898  20.532  66.987  1.00  0.00    -0.357 C  
BRANCH   3   4
HETATM    4  C   UNL     1      -7.958  19.545  66.305  1.00  0.00    -0.332 C  
BRANCH   4   5
HETATM    5  C   UNL     1      -6.987  18.938  67.306  1.00  0.00    -0.214 C  
BRANCH   5   6
HETATM    6  C   UNL     1      -6.994  17.416  67.208  1.00  0.00    -0.194 C  
BRANCH   6   7
HETATM    7  C   UNL     1      -7.915  16.975  66.084  1.00  0.00    -0.299 C  
BRANCH   7   8
HETATM    8  C   UNL     1      -8.751  15.762  66.481  1.00  0.00    -0.354 C  
BRANCH   8   9
HETATM    9  C   UNL     1      -9.868  15.597  65.461  1.00  0.00    -0.326 C  
BRANCH   9  10
HETATM   10  C   UNL     1     -11.052  14.826  66.030  1.00  0.00    -0.330 C  
BRANCH  10  11
HETATM   11  N   UNL     1     -11.441  13.604  65.158  1.00  0.00    -0.309 N  
HETATM   12  C   UNL     1     -12.283  14.051  63.962  1.00  0.00    -0.355 C  
HETATM   13  C   UNL     1     -10.183  12.885  64.663  1.00  0.00    -0.298 C  
BRANCH  11  14
HETATM   14  C   UNL     1     -12.267  12.668  66.078  1.00  0.00    -0.260 C  
BRANCH  14  15
HETATM   15  C   UNL     1     -11.394  11.707  66.870  1.00  0.00    -0.364 C  
BRANCH  15  16
HETATM   16  C   UNL     1     -10.822  12.354  68.123  1.00  0.00    -0.250 C  
BRANCH  16  17
HETATM   17  C   UNL     1      -9.715  11.455  68.665  1.00  0.00    -0.182 C  
BRANCH  17  18
HETATM   18  C   UNL     1     -10.207  10.036  68.894  1.00  0.00    -0.206 C  
BRANCH  18  19
HETATM   19  C   UNL     1     -10.781   9.910  70.299  1.00  0.00    -0.367 C  
BRANCH  19  20
HETATM   20  C   UNL     1     -12.289  10.132  70.283  1.00  0.00    -0.211 C  
BRANCH  20  21
HETATM   21  C   UNL     1     -12.814  10.420  71.686  1.00  0.00    -0.579 C  
BRANCH  21  22
HETATM   22  C   UNL     1     -13.348   9.146  72.332  1.00  0.00    -0.527 C  
HETATM   23  C   UNL     1     -14.360   8.456  71.435  1.00  0.00    -0.425 C  
ENDBRANCH  21  22
ENDBRANCH  20  21
ENDBRANCH  19  20
ENDBRANCH  18  19
ENDBRANCH  17  18
ENDBRANCH  16  17
ENDBRANCH  15  16
ENDBRANCH  14  15
ENDBRANCH  11  14
ENDBRANCH  10  11
ENDBRANCH   9  10
ENDBRANCH   8   9
ENDBRANCH   7   8
ENDBRANCH   6   7
ENDBRANCH   5   6
ENDBRANCH   4   5
ENDBRANCH   3   4
ENDBRANCH   2   3
TORSDOF 18
ENDMDL
MODEL      178
REMARK 921   NORMALIZED FREE ENERGY PREDICTED BY IDOCK:   -3.10 KCAL/MOL
REMARK 922        TOTAL FREE ENERGY PREDICTED BY IDOCK:   -9.05 KCAL/MOL
REMARK 923 INTER-LIGAND FREE ENERGY PREDICTED BY IDOCK:   -6.94 KCAL/MOL
REMARK 924 INTRA-LIGAND FREE ENERGY PREDICTED BY IDOCK:   -2.11 KCAL/MOL
REMARK 927      BINDING AFFINITY PREDICTED BY RF-SCORE:    0.00 PKD
ROOT
HETATM    1  C   UNL     1     -14.213  14.535  72.314  1.00  0.00    -0.563 C  
HETATM    2  C   UNL     1     -12.715  14.547  72.555  1.00  0.00    -0.433 C  
ENDROOT
BRANCH   2   3
HETATM    3  C   UNL     1     -12.115  15.912  72.231  1.00  0.00    -0.597 C  
BRANCH   3   4
HETATM    4  C   UNL     1     -11.339  15.861  70.920  1.00  0.00    -0.428 C  
BRANCH   4   5
HETATM    5  C   UNL     1     -12.280  15.674  69.738  1.00  0.00    -0.293 C  
BRANCH   5   6
HETATM    6  C   UNL     1     -11.711  14.658  68.753  1.00  0.00    -0.357 C  
BRANCH   6   7
HETATM    7  C   UNL     1     -11.960  13.249  69.262  1.00  0.00    -0.354 C  
BRANCH   7   8
HETATM    8  C   UNL     1     -11.777  12.210  68.159  1.00  0.00    -0.402 C  
BRANCH   8   9
HETATM    9  C   UNL     1     -11.444  10.876  68.811  1.00  0.00    -0.376 C  
BRANCH   9  10
HETATM   10  C   UNL     1     -10.714   9.941  67.856  1.00  0.00    -0.265 C  
BRANCH  10  11
HETATM   11  N   UNL     1      -9.280   9.600  68.337  1.00  0.00    -0.133 N  
HETATM   12  C   UNL     1      -9.105   9.991  69.805  1.00  0.00    -0.193 C  
HETATM   13  C   UNL     1      -9.005   8.105  68.164  1.00  0.00    -0.135 C  
BRANCH  11  14
HETATM   14  C   UNL     1      -8.321  10.429  67.443  1.00  0.00    -0.121 C  
BRANCH  14  15
HETATM   15  C   UNL     1      -7.428  11.360  68.249  1.00  0.00    -0.101 C  
BRANCH  15  16
HETATM   16  C   UNL     1      -7.246  12.710  67.569  1.00  0.00    -0.155 C  
BRANCH  16  17
HETATM   17  C   UNL     1      -8.377  13.630  68.018  1.00  0.00    -0.170 C  
BRANCH  17  18
HETATM   18  C   UNL     1      -8.847  14.533  66.890  1.00  0.00    -0.257 C  
BRANCH  18  19
HETATM   19  C   UNL     1      -8.147  15.882  66.984  1.00  0.00    -0.265 C  
BRANCH  19  20
HETATM   20  C   UNL     1      -8.831  16.768  68.020  1.00  0.00    -0.216 C  
BRANCH  20  21
HETATM   21  C   UNL     1      -8.017  18.032  68.281  1.00  0.00    -0.294 C  
BRANCH  21  22
HETATM   22  C   UNL     1      -8.868  19.276  68.051  1.00  0.00    -0.360 C  
HETATM   23  C   UNL     1     -10.325  18.914  67.831  1.00  0.00    -0.473 C  
ENDBRANCH  21  22
ENDBRANCH  20  21
ENDBRANCH  19  20
ENDBRANCH  18  19
ENDBRANCH  17  18
ENDBRANCH  16  17
ENDBRANCH  15  16
ENDBRANCH  14  15
ENDBRANCH  11  14
ENDBRANCH  10  11
ENDBRANCH   9  10
ENDBRANCH   8   9
ENDBRANCH   7   8
ENDBRANCH   6   7
ENDBRANCH   5   6
ENDBRANCH   4   5
ENDBRANCH   3   4
ENDBRANCH   2   3
TORSDOF 18
ENDMDL
MODEL      179
REMARK 921   NORMALIZED FREE ENERGY PREDICTED BY IDOCK:   -3.09 KCAL/MOL
REMARK 922        TOTAL FREE ENERGY PREDICTED BY IDOCK:   -9.05 KCAL/MOL
REMARK 923 INTER-LIGAND FREE ENERGY PREDICTED BY IDOCK:   -7.18 KCAL/MOL
REMARK 924 INTRA-LIGAND FREE ENERGY PREDICTED BY IDOCK:   -1.87 KCAL/MOL
REMARK 927      BINDING AFFINITY PREDICTED BY RF-SCORE:    0.00 PKD
ROOT
HETATM    1  C   UNL     1      -8.203  10.394  69.375  1.00  0.00    -0.158 C  
HETATM    2  C   UNL     1      -7.294  10.283  68.165  1.00  0.00    -0.085 C  
ENDROOT
BRANCH   2   3
HETATM    3  C   UNL     1      -7.489   8.950  67.449  1.00  0.00    -0.085 C  
BRANCH   3   4
HETATM    4  C   UNL     1      -8.786   8.285  67.893  1.00  0.00    -0.138 C  
BRANCH   4   5
HETATM    5  C   UNL     1      -9.707   8.043  66.706  1.00  0.00    -0.305 C  
BRANCH   5   6
HETATM    6  C   UNL     1      -9.103   8.620  65.430  1.00  0.00    -0.150 C  
BRANCH   6   7
HETATM    7  C   UNL     1      -9.891   9.843  64.991  1.00  0.00    -0.323 C  
BRANCH   7   8
HETATM    8  C   UNL     1      -9.094  10.711  64.023  1.00  0.00    -0.246 C  
BRANCH   8   9
HETATM    9  C   UNL     1     -10.045  11.718  63.392  1.00  0.00    -0.470 C  
BRANCH   9  10
HETATM   10  C   UNL     1     -10.306  12.908  64.306  1.00  0.00    -0.372 C  
BRANCH  10  11
HETATM   11  N   UNL     1     -11.810  13.077  64.646  1.00  0.00    -0.352 N  
HETATM   12  C   UNL     1     -12.258  14.513  64.369  1.00  0.00    -0.458 C  
HETATM   13  C   UNL     1     -12.652  12.104  63.818  1.00  0.00    -0.475 C  
BRANCH  11  14
HETATM   14  C   UNL     1     -11.945  12.754  66.157  1.00  0.00    -0.414 C  
BRANCH  14  15
HETATM   15  C   UNL     1     -10.604  12.744  66.875  1.00  0.00    -0.257 C  
BRANCH  15  16
HETATM   16  C   UNL     1     -10.765  12.781  68.389  1.00  0.00    -0.269 C  
BRANCH  16  17
HETATM   17  C   UNL     1     -12.042  13.549  68.716  1.00  0.00    -0.305 C  
BRANCH  17  18
HETATM   18  C   UNL     1     -11.975  14.185  70.094  1.00  0.00    -0.400 C  
BRANCH  18  19
HETATM   19  C   UNL     1     -11.878  15.699  69.960  1.00  0.00    -0.381 C  
BRANCH  19  20
HETATM   20  C   UNL     1     -10.468  16.112  69.553  1.00  0.00    -0.295 C  
BRANCH  20  21
HETATM   21  C   UNL     1     -10.500  17.088  68.381  1.00  0.00    -0.370 C  
BRANCH  21  22
HETATM   22  C   UNL     1      -9.442  18.171  68.554  1.00  0.00    -0.339 C  
HETATM   23  C   UNL     1     -10.074  19.548  68.644  1.00  0.00    -0.535 C  
ENDBRANCH  21  22
ENDBRANCH  20  21
ENDBRANCH  19  20
ENDBRANCH  18  19
ENDBRANCH  17  18
ENDBRANCH  16  17
ENDBRANCH  15  16
ENDBRANCH  14  15
ENDBRANCH  11  14
ENDBRANCH  10  11
ENDBRANCH   9  10
ENDBRANCH   8   9
ENDBRANCH   7   8
ENDBRANCH   6   7
ENDBRANCH   5   6
ENDBRANCH   4   5
ENDBRANCH   3   4
ENDBRANCH   2   3
TORSDOF 18
ENDMDL
MODEL      180
REMARK 921   NORMALIZED FREE ENERGY PREDICTED BY IDOCK:   -3.09 KCAL/MOL
REMARK 922        TOTAL FREE ENERGY PREDICTED BY IDOCK:   -9.05 KCAL/MOL
REMARK 923 INTER-LIGAND FREE ENERGY PREDICTED BY IDOCK:   -6.18 KCAL/MOL
REMARK 924 INTRA-LIGAND FREE ENERGY PREDICTED BY IDOCK:   -2.87 KCAL/MOL
REMARK 927      BINDING AFFINITY PREDICTED BY RF-SCORE:    0.00 PKD
ROOT
HETATM    1  C   UNL     1      -7.653   7.537  71.226  1.00  0.00    -0.081 C  
HETATM    2  C   UNL     1      -8.427   8.611  71.968  1.00  0.00    -0.191 C  
ENDROOT
BRANCH   2   3
HETATM    3  C   UNL     1      -9.565   8.006  72.785  1.00  0.00    -0.345 C  
BRANCH   3   4
HETATM    4  C   UNL     1     -10.916   8.416  72.211  1.00  0.00    -0.431 C  
BRANCH   4   5
HETATM    5  C   UNL     1     -11.628   7.222  71.592  1.00  0.00    -0.306 C  
BRANCH   5   6
HETATM    6  C   UNL     1     -10.991   5.916  72.055  1.00  0.00    -0.319 C  
BRANCH   6   7
HETATM    7  C   UNL     1     -10.425   5.166  70.861  1.00  0.00    -0.258 C  
BRANCH   7   8
HETATM    8  C   UNL     1     -10.902   5.764  69.541  1.00  0.00    -0.410 C  
BRANCH   8   9
HETATM    9  C   UNL     1     -10.130   5.100  68.410  1.00  0.00    -0.205 C  
BRANCH   9  10
HETATM   10  C   UNL     1      -8.672   5.538  68.379  1.00  0.00    -0.105 C  
BRANCH  10  11
HETATM   11  N   UNL     1      -8.261   6.146  67.013  1.00  0.00    -0.106 N  
HETATM   12  C   UNL     1      -6.810   5.790  66.688  1.00  0.00    -0.059 C  
HETATM   13  C   UNL     1      -9.181   5.627  65.905  1.00  0.00    -0.132 C  
BRANCH  11  14
HETATM   14  C   UNL     1      -8.417   7.681  67.165  1.00  0.00    -0.121 C  
BRANCH  14  15
HETATM   15  C   UNL     1      -9.594   8.231  66.371  1.00  0.00    -0.300 C  
BRANCH  15  16
HETATM   16  C   UNL     1     -10.647   8.860  67.271  1.00  0.00    -0.304 C  
BRANCH  16  17
HETATM   17  C   UNL     1     -10.021   9.114  68.638  1.00  0.00    -0.185 C  
BRANCH  17  18
HETATM   18  C   UNL     1     -10.107  10.580  69.030  1.00  0.00    -0.230 C  
BRANCH  18  19
HETATM   19  C   UNL     1     -11.527  10.914  69.469  1.00  0.00    -0.372 C  
BRANCH  19  20
HETATM   20  C   UNL     1     -11.950  12.273  68.924  1.00  0.00    -0.300 C  
BRANCH  20  21
HETATM   21  C   UNL     1     -11.593  12.405  67.446  1.00  0.00    -0.433 C  
BRANCH  21  22
HETATM   22  C   UNL     1     -12.091  13.734  66.889  1.00  0.00    -0.454 C  
HETATM   23  C   UNL     1     -12.612  13.577  65.473  1.00  0.00    -0.531 C  
ENDBRANCH  21  22
ENDBRANCH  20  21
ENDBRANCH  19  20
ENDBRANCH  18  19
ENDBRANCH  17  18
ENDBRANCH  16  17
ENDBRANCH  15  16
ENDBRANCH  14  15
ENDBRANCH  11  14
ENDBRANCH  10  11
ENDBRANCH   9  10
ENDBRANCH   8   9
ENDBRANCH   7   8
ENDBRANCH   6   7
ENDBRANCH   5   6
ENDBRANCH   4   5
ENDBRANCH   3   4
ENDBRANCH   2   3
TORSDOF 18
ENDMDL
MODEL      181
REMARK 921   NORMALIZED FREE ENERGY PREDICTED BY IDOCK:   -3.09 KCAL/MOL
REMARK 922        TOTAL FREE ENERGY PREDICTED BY IDOCK:   -9.05 KCAL/MOL
REMARK 923 INTER-LIGAND FREE ENERGY PREDICTED BY IDOCK:   -7.44 KCAL/MOL
REMARK 924 INTRA-LIGAND FREE ENERGY PREDICTED BY IDOCK:   -1.60 KCAL/MOL
REMARK 927      BINDING AFFINITY PREDICTED BY RF-SCORE:    0.00 PKD
ROOT
HETATM    1  C   UNL     1      -7.709  10.050  69.664  1.00  0.00    -0.158 C  
HETATM    2  C   UNL     1      -6.772   9.837  68.490  1.00  0.00    -0.052 C  
ENDROOT
BRANCH   2   3
HETATM    3  C   UNL     1      -7.218   8.653  67.636  1.00  0.00    -0.084 C  
BRANCH   3   4
HETATM    4  C   UNL     1      -8.606   8.181  68.054  1.00  0.00    -0.129 C  
BRANCH   4   5
HETATM    5  C   UNL     1      -9.567   8.210  66.875  1.00  0.00    -0.269 C  
BRANCH   5   6
HETATM    6  C   UNL     1      -8.913   8.866  65.663  1.00  0.00    -0.249 C  
BRANCH   6   7
HETATM    7  C   UNL     1      -9.909   9.781  64.971  1.00  0.00    -0.243 C  
BRANCH   7   8
HETATM    8  C   UNL     1      -9.228  10.692  63.955  1.00  0.00    -0.271 C  
BRANCH   8   9
HETATM    9  C   UNL     1     -10.201  11.799  63.577  1.00  0.00    -0.483 C  
BRANCH   9  10
HETATM   10  C   UNL     1     -10.373  12.815  64.698  1.00  0.00    -0.338 C  
BRANCH  10  11
HETATM   11  N   UNL     1     -11.857  13.200  64.930  1.00  0.00    -0.340 N  
HETATM   12  C   UNL     1     -12.078  14.679  64.612  1.00  0.00    -0.454 C  
HETATM   13  C   UNL     1     -12.770  12.340  64.052  1.00  0.00    -0.352 C  
BRANCH  11  14
HETATM   14  C   UNL     1     -12.141  12.925  66.430  1.00  0.00    -0.329 C  
BRANCH  14  15
HETATM   15  C   UNL     1     -10.950  12.305  67.146  1.00  0.00    -0.308 C  
BRANCH  15  16
HETATM   16  C   UNL     1     -10.435  13.192  68.271  1.00  0.00    -0.258 C  
BRANCH  16  17
HETATM   17  C   UNL     1     -11.408  14.352  68.453  1.00  0.00    -0.312 C  
BRANCH  17  18
HETATM   18  C   UNL     1     -10.689  15.631  68.846  1.00  0.00    -0.238 C  
BRANCH  18  19
HETATM   19  C   UNL     1     -11.325  16.215  70.101  1.00  0.00    -0.347 C  
BRANCH  19  20
HETATM   20  C   UNL     1     -12.444  15.310  70.605  1.00  0.00    -0.458 C  
BRANCH  20  21
HETATM   21  C   UNL     1     -12.069  14.666  71.936  1.00  0.00    -0.375 C  
BRANCH  21  22
HETATM   22  C   UNL     1     -13.105  14.996  73.004  1.00  0.00    -0.604 C  
HETATM   23  C   UNL     1     -12.453  15.590  74.239  1.00  0.00    -0.792 C  
ENDBRANCH  21  22
ENDBRANCH  20  21
ENDBRANCH  19  20
ENDBRANCH  18  19
ENDBRANCH  17  18
ENDBRANCH  16  17
ENDBRANCH  15  16
ENDBRANCH  14  15
ENDBRANCH  11  14
ENDBRANCH  10  11
ENDBRANCH   9  10
ENDBRANCH   8   9
ENDBRANCH   7   8
ENDBRANCH   6   7
ENDBRANCH   5   6
ENDBRANCH   4   5
ENDBRANCH   3   4
ENDBRANCH   2   3
TORSDOF 18
ENDMDL
MODEL      182
REMARK 921   NORMALIZED FREE ENERGY PREDICTED BY IDOCK:   -3.09 KCAL/MOL
REMARK 922        TOTAL FREE ENERGY PREDICTED BY IDOCK:   -9.04 KCAL/MOL
REMARK 923 INTER-LIGAND FREE ENERGY PREDICTED BY IDOCK:   -6.30 KCAL/MOL
REMARK 924 INTRA-LIGAND FREE ENERGY PREDICTED BY IDOCK:   -2.75 KCAL/MOL
REMARK 927      BINDING AFFINITY PREDICTED BY RF-SCORE:    0.00 PKD
ROOT
HETATM    1  C   UNL     1      -8.387  14.270  66.970  1.00  0.00    -0.156 C  
HETATM    2  C   UNL     1      -7.803  12.893  67.225  1.00  0.00    -0.134 C  
ENDROOT
BRANCH   2   3
HETATM    3  C   UNL     1      -8.302  12.318  68.547  1.00  0.00    -0.084 C  
BRANCH   3   4
HETATM    4  C   UNL     1      -7.582  11.015  68.873  1.00  0.00    -0.134 C  
BRANCH   4   5
HETATM    5  C   UNL     1      -8.512  10.043  69.585  1.00  0.00    -0.193 C  
BRANCH   5   6
HETATM    6  C   UNL     1      -8.532   8.696  68.870  1.00  0.00    -0.129 C  
BRANCH   6   7
HETATM    7  C   UNL     1      -9.813   8.556  68.066  1.00  0.00    -0.202 C  
BRANCH   7   8
HETATM    8  C   UNL     1     -10.631   7.348  68.513  1.00  0.00    -0.188 C  
BRANCH   8   9
HETATM    9  C   UNL     1      -9.720   6.420  69.303  1.00  0.00    -0.150 C  
BRANCH   9  10
HETATM   10  C   UNL     1     -10.508   5.471  70.197  1.00  0.00    -0.300 C  
BRANCH  10  11
HETATM   11  N   UNL     1     -10.147   5.630  71.697  1.00  0.00    -0.188 N  
HETATM   12  C   UNL     1     -10.257   4.284  72.414  1.00  0.00    -0.181 C  
HETATM   13  C   UNL     1      -8.727   6.180  71.844  1.00  0.00    -0.137 C  
BRANCH  11  14
HETATM   14  C   UNL     1     -11.175   6.634  72.279  1.00  0.00    -0.267 C  
BRANCH  14  15
HETATM   15  C   UNL     1     -10.549   7.977  72.626  1.00  0.00    -0.419 C  
BRANCH  15  16
HETATM   16  C   UNL     1     -11.082   9.101  71.749  1.00  0.00    -0.437 C  
BRANCH  16  17
HETATM   17  C   UNL     1     -12.584   9.222  71.985  1.00  0.00    -0.465 C  
BRANCH  17  18
HETATM   18  C   UNL     1     -13.246  10.105  70.941  1.00  0.00    -0.360 C  
BRANCH  18  19
HETATM   19  C   UNL     1     -12.324  11.264  70.587  1.00  0.00    -0.477 C  
BRANCH  19  20
HETATM   20  C   UNL     1     -11.973  11.235  69.104  1.00  0.00    -0.405 C  
BRANCH  20  21
HETATM   21  C   UNL     1     -11.753  12.646  68.566  1.00  0.00    -0.372 C  
BRANCH  21  22
HETATM   22  C   UNL     1     -11.711  12.641  67.043  1.00  0.00    -0.438 C  
HETATM   23  C   UNL     1     -12.228  13.949  66.473  1.00  0.00    -0.482 C  
ENDBRANCH  21  22
ENDBRANCH  20  21
ENDBRANCH  19  20
ENDBRANCH  18  19
ENDBRANCH  17  18
ENDBRANCH  16  17
ENDBRANCH  15  16
ENDBRANCH  14  15
ENDBRANCH  11  14
ENDBRANCH  10  11
ENDBRANCH   9  10
ENDBRANCH   8   9
ENDBRANCH   7   8
ENDBRANCH   6   7
ENDBRANCH   5   6
ENDBRANCH   4   5
ENDBRANCH   3   4
ENDBRANCH   2   3
TORSDOF 18
ENDMDL
MODEL      183
REMARK 921   NORMALIZED FREE ENERGY PREDICTED BY IDOCK:   -3.09 KCAL/MOL
REMARK 922        TOTAL FREE ENERGY PREDICTED BY IDOCK:   -9.03 KCAL/MOL
REMARK 923 INTER-LIGAND FREE ENERGY PREDICTED BY IDOCK:   -6.49 KCAL/MOL
REMARK 924 INTRA-LIGAND FREE ENERGY PREDICTED BY IDOCK:   -2.54 KCAL/MOL
REMARK 927      BINDING AFFINITY PREDICTED BY RF-SCORE:    0.00 PKD
ROOT
HETATM    1  C   UNL     1      -6.976  15.333  69.517  1.00  0.00    -0.191 C  
HETATM    2  C   UNL     1      -6.900  13.870  69.123  1.00  0.00    -0.108 C  
ENDROOT
BRANCH   2   3
HETATM    3  C   UNL     1      -7.105  13.691  67.622  1.00  0.00    -0.179 C  
BRANCH   3   4
HETATM    4  C   UNL     1      -6.451  12.402  67.139  1.00  0.00    -0.097 C  
BRANCH   4   5
HETATM    5  C   UNL     1      -7.197  11.184  67.666  1.00  0.00    -0.094 C  
BRANCH   5   6
HETATM    6  C   UNL     1      -8.253  10.726  66.667  1.00  0.00    -0.140 C  
BRANCH   6   7
HETATM    7  C   UNL     1      -9.584  10.531  67.374  1.00  0.00    -0.181 C  
BRANCH   7   8
HETATM    8  C   UNL     1      -9.707  11.427  68.602  1.00  0.00    -0.182 C  
BRANCH   8   9
HETATM    9  C   UNL     1     -10.943  12.299  68.436  1.00  0.00    -0.270 C  
BRANCH   9  10
HETATM   10  C   UNL     1     -11.400  12.370  66.985  1.00  0.00    -0.327 C  
BRANCH  10  11
HETATM   11  N   UNL     1     -11.371  13.815  66.422  1.00  0.00    -0.310 N  
HETATM   12  C   UNL     1     -10.128  14.022  65.556  1.00  0.00    -0.320 C  
HETATM   13  C   UNL     1     -12.629  14.086  65.594  1.00  0.00    -0.512 C  
BRANCH  11  14
HETATM   14  C   UNL     1     -11.328  14.754  67.656  1.00  0.00    -0.339 C  
BRANCH  14  15
HETATM   15  C   UNL     1     -10.204  15.775  67.575  1.00  0.00    -0.265 C  
BRANCH  15  16
HETATM   16  C   UNL     1     -10.731  17.199  67.463  1.00  0.00    -0.276 C  
BRANCH  16  17
HETATM   17  C   UNL     1     -10.139  18.021  68.604  1.00  0.00    -0.401 C  
BRANCH  17  18
HETATM   18  C   UNL     1     -10.265  19.512  68.344  1.00  0.00    -0.536 C  
BRANCH  18  19
HETATM   19  C   UNL     1      -9.634  19.857  67.002  1.00  0.00    -0.515 C  
BRANCH  19  20
HETATM   20  C   UNL     1      -8.157  20.197  67.177  1.00  0.00    -0.370 C  
BRANCH  20  21
HETATM   21  C   UNL     1      -7.321  19.591  66.054  1.00  0.00    -0.308 C  
BRANCH  21  22
HETATM   22  C   UNL     1      -7.394  18.068  66.091  1.00  0.00    -0.317 C  
HETATM   23  C   UNL     1      -6.038  17.459  66.396  1.00  0.00    -0.256 C  
ENDBRANCH  21  22
ENDBRANCH  20  21
ENDBRANCH  19  20
ENDBRANCH  18  19
ENDBRANCH  17  18
ENDBRANCH  16  17
ENDBRANCH  15  16
ENDBRANCH  14  15
ENDBRANCH  11  14
ENDBRANCH  10  11
ENDBRANCH   9  10
ENDBRANCH   8   9
ENDBRANCH   7   8
ENDBRANCH   6   7
ENDBRANCH   5   6
ENDBRANCH   4   5
ENDBRANCH   3   4
ENDBRANCH   2   3
TORSDOF 18
ENDMDL
MODEL      184
REMARK 921   NORMALIZED FREE ENERGY PREDICTED BY IDOCK:   -3.09 KCAL/MOL
REMARK 922        TOTAL FREE ENERGY PREDICTED BY IDOCK:   -9.03 KCAL/MOL
REMARK 923 INTER-LIGAND FREE ENERGY PREDICTED BY IDOCK:   -6.92 KCAL/MOL
REMARK 924 INTRA-LIGAND FREE ENERGY PREDICTED BY IDOCK:   -2.11 KCAL/MOL
REMARK 927      BINDING AFFINITY PREDICTED BY RF-SCORE:    0.00 PKD
ROOT
HETATM    1  C   UNL     1     -14.408  15.105  71.867  1.00  0.00    -0.693 C  
HETATM    2  C   UNL     1     -13.121  14.343  71.611  1.00  0.00    -0.421 C  
ENDROOT
BRANCH   2   3
HETATM    3  C   UNL     1     -11.899  15.212  71.895  1.00  0.00    -0.477 C  
BRANCH   3   4
HETATM    4  C   UNL     1     -11.016  15.319  70.657  1.00  0.00    -0.318 C  
BRANCH   4   5
HETATM    5  C   UNL     1     -11.638  16.248  69.625  1.00  0.00    -0.152 C  
BRANCH   5   6
HETATM    6  C   UNL     1     -11.401  15.720  68.213  1.00  0.00    -0.354 C  
BRANCH   6   7
HETATM    7  C   UNL     1     -11.882  14.283  68.111  1.00  0.00    -0.374 C  
BRANCH   7   8
HETATM    8  C   UNL     1     -11.985  13.824  66.660  1.00  0.00    -0.469 C  
BRANCH   8   9
HETATM    9  C   UNL     1     -11.758  12.320  66.618  1.00  0.00    -0.417 C  
BRANCH   9  10
HETATM   10  C   UNL     1     -11.162  11.869  65.291  1.00  0.00    -0.295 C  
BRANCH  10  11
HETATM   11  N   UNL     1      -9.920  10.959  65.475  1.00  0.00    -0.246 N  
HETATM   12  C   UNL     1     -10.254   9.785  66.396  1.00  0.00    -0.217 C  
HETATM   13  C   UNL     1      -9.443  10.433  64.119  1.00  0.00    -0.300 C  
BRANCH  11  14
HETATM   14  C   UNL     1      -8.827  11.852  66.119  1.00  0.00    -0.063 C  
BRANCH  14  15
HETATM   15  C   UNL     1      -8.211  11.221  67.358  1.00  0.00    -0.135 C  
BRANCH  15  16
HETATM   16  C   UNL     1      -7.635  12.264  68.305  1.00  0.00    -0.133 C  
BRANCH  16  17
HETATM   17  C   UNL     1      -7.102  13.426  67.473  1.00  0.00    -0.154 C  
BRANCH  17  18
HETATM   18  C   UNL     1      -6.816  14.645  68.332  1.00  0.00    -0.102 C  
BRANCH  18  19
HETATM   19  C   UNL     1      -8.054  15.528  68.404  1.00  0.00    -0.136 C  
BRANCH  19  20
HETATM   20  C   UNL     1      -7.660  16.991  68.581  1.00  0.00    -0.238 C  
BRANCH  20  21
HETATM   21  C   UNL     1      -8.538  17.900  67.727  1.00  0.00    -0.242 C  
BRANCH  21  22
HETATM   22  C   UNL     1      -8.903  19.168  68.493  1.00  0.00    -0.406 C  
HETATM   23  C   UNL     1     -10.221  19.743  68.008  1.00  0.00    -0.581 C  
ENDBRANCH  21  22
ENDBRANCH  20  21
ENDBRANCH  19  20
ENDBRANCH  18  19
ENDBRANCH  17  18
ENDBRANCH  16  17
ENDBRANCH  15  16
ENDBRANCH  14  15
ENDBRANCH  11  14
ENDBRANCH  10  11
ENDBRANCH   9  10
ENDBRANCH   8   9
ENDBRANCH   7   8
ENDBRANCH   6   7
ENDBRANCH   5   6
ENDBRANCH   4   5
ENDBRANCH   3   4
ENDBRANCH   2   3
TORSDOF 18
ENDMDL
MODEL      185
REMARK 921   NORMALIZED FREE ENERGY PREDICTED BY IDOCK:   -3.08 KCAL/MOL
REMARK 922        TOTAL FREE ENERGY PREDICTED BY IDOCK:   -9.03 KCAL/MOL
REMARK 923 INTER-LIGAND FREE ENERGY PREDICTED BY IDOCK:   -7.01 KCAL/MOL
REMARK 924 INTRA-LIGAND FREE ENERGY PREDICTED BY IDOCK:   -2.02 KCAL/MOL
REMARK 927      BINDING AFFINITY PREDICTED BY RF-SCORE:    0.00 PKD
ROOT
HETATM    1  C   UNL     1     -11.121   6.175  69.639  1.00  0.00    -0.489 C  
HETATM    2  C   UNL     1     -12.019   6.933  70.599  1.00  0.00    -0.400 C  
ENDROOT
BRANCH   2   3
HETATM    3  C   UNL     1     -11.202   7.806  71.547  1.00  0.00    -0.278 C  
BRANCH   3   4
HETATM    4  C   UNL     1     -11.594   9.271  71.400  1.00  0.00    -0.437 C  
BRANCH   4   5
HETATM    5  C   UNL     1     -10.671   9.986  70.424  1.00  0.00    -0.369 C  
BRANCH   5   6
HETATM    6  C   UNL     1     -11.479  10.752  69.381  1.00  0.00    -0.366 C  
BRANCH   6   7
HETATM    7  C   UNL     1     -10.771  10.701  68.038  1.00  0.00    -0.275 C  
BRANCH   7   8
HETATM    8  C   UNL     1     -10.889   9.326  67.389  1.00  0.00    -0.165 C  
BRANCH   8   9
HETATM    9  C   UNL     1      -9.488   8.824  67.073  1.00  0.00    -0.218 C  
BRANCH   9  10
HETATM   10  C   UNL     1      -8.656   9.872  66.346  1.00  0.00    -0.128 C  
BRANCH  10  11
HETATM   11  N   UNL     1      -8.178   9.390  64.952  1.00  0.00    -0.133 N  
HETATM   12  C   UNL     1      -6.812   9.992  64.621  1.00  0.00    -0.130 C  
HETATM   13  C   UNL     1      -8.090   7.862  64.922  1.00  0.00    -0.144 C  
BRANCH  11  14
HETATM   14  C   UNL     1      -9.243   9.885  63.940  1.00  0.00    -0.248 C  
BRANCH  14  15
HETATM   15  C   UNL     1      -9.796  11.257  64.297  1.00  0.00    -0.319 C  
BRANCH  15  16
HETATM   16  C   UNL     1     -11.161  11.506  63.669  1.00  0.00    -0.469 C  
BRANCH  16  17
HETATM   17  C   UNL     1     -11.556  12.953  63.939  1.00  0.00    -0.515 C  
BRANCH  17  18
HETATM   18  C   UNL     1     -10.619  13.614  64.936  1.00  0.00    -0.421 C  
BRANCH  18  19
HETATM   19  C   UNL     1     -11.407  14.550  65.843  1.00  0.00    -0.341 C  
BRANCH  19  20
HETATM   20  C   UNL     1     -10.466  15.324  66.760  1.00  0.00    -0.293 C  
BRANCH  20  21
HETATM   21  C   UNL     1     -10.396  16.794  66.355  1.00  0.00    -0.309 C  
BRANCH  21  22
HETATM   22  C   UNL     1      -8.950  17.277  66.334  1.00  0.00    -0.282 C  
HETATM   23  C   UNL     1      -8.012  16.233  66.913  1.00  0.00    -0.278 C  
ENDBRANCH  21  22
ENDBRANCH  20  21
ENDBRANCH  19  20
ENDBRANCH  18  19
ENDBRANCH  17  18
ENDBRANCH  16  17
ENDBRANCH  15  16
ENDBRANCH  14  15
ENDBRANCH  11  14
ENDBRANCH  10  11
ENDBRANCH   9  10
ENDBRANCH   8   9
ENDBRANCH   7   8
ENDBRANCH   6   7
ENDBRANCH   5   6
ENDBRANCH   4   5
ENDBRANCH   3   4
ENDBRANCH   2   3
TORSDOF 18
ENDMDL
MODEL      186
REMARK 921   NORMALIZED FREE ENERGY PREDICTED BY IDOCK:   -3.08 KCAL/MOL
REMARK 922        TOTAL FREE ENERGY PREDICTED BY IDOCK:   -9.03 KCAL/MOL
REMARK 923 INTER-LIGAND FREE ENERGY PREDICTED BY IDOCK:   -6.13 KCAL/MOL
REMARK 924 INTRA-LIGAND FREE ENERGY PREDICTED BY IDOCK:   -2.90 KCAL/MOL
REMARK 927      BINDING AFFINITY PREDICTED BY RF-SCORE:    0.00 PKD
ROOT
HETATM    1  C   UNL     1      -6.730  11.470  66.847  1.00  0.00    -0.139 C  
HETATM    2  C   UNL     1      -7.433  12.606  67.566  1.00  0.00    -0.155 C  
ENDROOT
BRANCH   2   3
HETATM    3  C   UNL     1      -8.870  12.763  67.078  1.00  0.00    -0.213 C  
BRANCH   3   4
HETATM    4  C   UNL     1      -9.774  13.233  68.212  1.00  0.00    -0.225 C  
BRANCH   4   5
HETATM    5  C   UNL     1     -11.190  12.706  68.031  1.00  0.00    -0.308 C  
BRANCH   5   6
HETATM    6  C   UNL     1     -11.886  12.557  69.380  1.00  0.00    -0.368 C  
BRANCH   6   7
HETATM    7  C   UNL     1     -12.125  11.086  69.678  1.00  0.00    -0.411 C  
BRANCH   7   8
HETATM    8  C   UNL     1     -12.521  10.863  71.134  1.00  0.00    -0.511 C  
BRANCH   8   9
HETATM    9  C   UNL     1     -12.646   9.365  71.371  1.00  0.00    -0.430 C  
BRANCH   9  10
HETATM   10  C   UNL     1     -11.423   8.795  72.078  1.00  0.00    -0.371 C  
BRANCH  10  11
HETATM   11  N   UNL     1     -10.985   7.425  71.498  1.00  0.00    -0.229 N  
HETATM   12  C   UNL     1     -10.679   6.443  72.630  1.00  0.00    -0.234 C  
HETATM   13  C   UNL     1     -12.087   6.854  70.602  1.00  0.00    -0.311 C  
BRANCH  11  14
HETATM   14  C   UNL     1      -9.706   7.702  70.666  1.00  0.00    -0.174 C  
BRANCH  14  15
HETATM   15  C   UNL     1      -9.208   9.132  70.819  1.00  0.00    -0.321 C  
BRANCH  15  16
HETATM   16  C   UNL     1      -8.873   9.768  69.478  1.00  0.00    -0.202 C  
BRANCH  16  17
HETATM   17  C   UNL     1      -9.122   8.737  68.382  1.00  0.00    -0.141 C  
BRANCH  17  18
HETATM   18  C   UNL     1      -9.968   9.308  67.257  1.00  0.00    -0.264 C  
BRANCH  18  19
HETATM   19  C   UNL     1      -9.431   8.831  65.914  1.00  0.00    -0.278 C  
BRANCH  19  20
HETATM   20  C   UNL     1      -9.540   9.938  64.871  1.00  0.00    -0.356 C  
BRANCH  20  21
HETATM   21  C   UNL     1      -8.993   9.474  63.524  1.00  0.00    -0.205 C  
BRANCH  21  22
HETATM   22  C   UNL     1      -8.254  10.609  62.824  1.00  0.00    -0.161 C  
HETATM   23  C   UNL     1      -6.759  10.350  62.783  1.00  0.00    -0.123 C  
ENDBRANCH  21  22
ENDBRANCH  20  21
ENDBRANCH  19  20
ENDBRANCH  18  19
ENDBRANCH  17  18
ENDBRANCH  16  17
ENDBRANCH  15  16
ENDBRANCH  14  15
ENDBRANCH  11  14
ENDBRANCH  10  11
ENDBRANCH   9  10
ENDBRANCH   8   9
ENDBRANCH   7   8
ENDBRANCH   6   7
ENDBRANCH   5   6
ENDBRANCH   4   5
ENDBRANCH   3   4
ENDBRANCH   2   3
TORSDOF 18
ENDMDL
MODEL      187
REMARK 921   NORMALIZED FREE ENERGY PREDICTED BY IDOCK:   -3.08 KCAL/MOL
REMARK 922        TOTAL FREE ENERGY PREDICTED BY IDOCK:   -9.03 KCAL/MOL
REMARK 923 INTER-LIGAND FREE ENERGY PREDICTED BY IDOCK:   -5.90 KCAL/MOL
REMARK 924 INTRA-LIGAND FREE ENERGY PREDICTED BY IDOCK:   -3.12 KCAL/MOL
REMARK 927      BINDING AFFINITY PREDICTED BY RF-SCORE:    0.00 PKD
ROOT
HETATM    1  C   UNL     1     -11.389   6.179  69.332  1.00  0.00    -0.401 C  
HETATM    2  C   UNL     1     -11.609   6.903  70.647  1.00  0.00    -0.402 C  
ENDROOT
BRANCH   2   3
HETATM    3  C   UNL     1     -10.416   6.727  71.581  1.00  0.00    -0.231 C  
BRANCH   3   4
HETATM    4  C   UNL     1      -9.660   8.041  71.742  1.00  0.00    -0.231 C  
BRANCH   4   5
HETATM    5  C   UNL     1      -8.837   8.350  70.500  1.00  0.00    -0.156 C  
BRANCH   5   6
HETATM    6  C   UNL     1      -8.941   9.829  70.141  1.00  0.00    -0.235 C  
BRANCH   6   7
HETATM    7  C   UNL     1      -8.814  10.006  68.638  1.00  0.00    -0.132 C  
BRANCH   7   8
HETATM    8  C   UNL     1      -9.712   9.035  67.877  1.00  0.00    -0.185 C  
BRANCH   8   9
HETATM    9  C   UNL     1      -8.915   8.456  66.718  1.00  0.00    -0.172 C  
BRANCH   9  10
HETATM   10  C   UNL     1      -8.074   9.514  66.017  1.00  0.00    -0.111 C  
BRANCH  10  11
HETATM   11  N   UNL     1      -8.050   9.331  64.477  1.00  0.00    -0.130 N  
HETATM   12  C   UNL     1      -6.855  10.070  63.873  1.00  0.00    -0.126 C  
HETATM   13  C   UNL     1      -7.972   7.845  64.122  1.00  0.00    -0.125 C  
BRANCH  11  14
HETATM   14  C   UNL     1      -9.378   9.939  63.954  1.00  0.00    -0.207 C  
BRANCH  14  15
HETATM   15  C   UNL     1      -9.648  11.327  64.518  1.00  0.00    -0.260 C  
BRANCH  15  16
HETATM   16  C   UNL     1     -11.123  11.541  64.827  1.00  0.00    -0.300 C  
BRANCH  16  17
HETATM   17  C   UNL     1     -11.251  12.773  65.717  1.00  0.00    -0.341 C  
BRANCH  17  18
HETATM   18  C   UNL     1      -9.980  13.028  66.509  1.00  0.00    -0.262 C  
BRANCH  18  19
HETATM   19  C   UNL     1     -10.321  13.243  67.978  1.00  0.00    -0.243 C  
BRANCH  19  20
HETATM   20  C   UNL     1     -11.748  12.790  68.268  1.00  0.00    -0.388 C  
BRANCH  20  21
HETATM   21  C   UNL     1     -11.878  12.277  69.699  1.00  0.00    -0.393 C  
BRANCH  21  22
HETATM   22  C   UNL     1     -12.246  10.798  69.709  1.00  0.00    -0.359 C  
HETATM   23  C   UNL     1     -12.687  10.349  71.090  1.00  0.00    -0.514 C  
ENDBRANCH  21  22
ENDBRANCH  20  21
ENDBRANCH  19  20
ENDBRANCH  18  19
ENDBRANCH  17  18
ENDBRANCH  16  17
ENDBRANCH  15  16
ENDBRANCH  14  15
ENDBRANCH  11  14
ENDBRANCH  10  11
ENDBRANCH   9  10
ENDBRANCH   8   9
ENDBRANCH   7   8
ENDBRANCH   6   7
ENDBRANCH   5   6
ENDBRANCH   4   5
ENDBRANCH   3   4
ENDBRANCH   2   3
TORSDOF 18
ENDMDL
MODEL      188
REMARK 921   NORMALIZED FREE ENERGY PREDICTED BY IDOCK:   -3.08 KCAL/MOL
REMARK 922        TOTAL FREE ENERGY PREDICTED BY IDOCK:   -9.02 KCAL/MOL
REMARK 923 INTER-LIGAND FREE ENERGY PREDICTED BY IDOCK:   -7.14 KCAL/MOL
REMARK 924 INTRA-LIGAND FREE ENERGY PREDICTED BY IDOCK:   -1.88 KCAL/MOL
REMARK 927      BINDING AFFINITY PREDICTED BY RF-SCORE:    0.00 PKD
ROOT
HETATM    1  C   UNL     1      -9.687   7.042  67.970  1.00  0.00    -0.140 C  
HETATM    2  C   UNL     1      -9.925   5.930  68.975  1.00  0.00    -0.211 C  
ENDROOT
BRANCH   2   3
HETATM    3  C   UNL     1     -11.220   6.154  69.749  1.00  0.00    -0.494 C  
BRANCH   3   4
HETATM    4  C   UNL     1     -11.018   5.861  71.232  1.00  0.00    -0.325 C  
BRANCH   4   5
HETATM    5  C   UNL     1     -10.152   6.928  71.883  1.00  0.00    -0.198 C  
BRANCH   5   6
HETATM    6  C   UNL     1     -10.867   8.276  71.885  1.00  0.00    -0.350 C  
BRANCH   6   7
HETATM    7  C   UNL     1     -10.039   9.301  71.130  1.00  0.00    -0.374 C  
BRANCH   7   8
HETATM    8  C   UNL     1     -10.822   9.920  69.976  1.00  0.00    -0.339 C  
BRANCH   8   9
HETATM    9  C   UNL     1      -9.843  10.663  69.079  1.00  0.00    -0.218 C  
BRANCH   9  10
HETATM   10  C   UNL     1     -10.531  11.737  68.248  1.00  0.00    -0.206 C  
BRANCH  10  11
HETATM   11  N   UNL     1      -9.788  12.028  66.918  1.00  0.00    -0.202 N  
HETATM   12  C   UNL     1      -8.451  11.287  66.883  1.00  0.00    -0.152 C  
HETATM   13  C   UNL     1     -10.648  11.599  65.727  1.00  0.00    -0.271 C  
BRANCH  11  14
HETATM   14  C   UNL     1      -9.554  13.561  66.886  1.00  0.00    -0.258 C  
BRANCH  14  15
HETATM   15  C   UNL     1     -10.757  14.326  66.356  1.00  0.00    -0.297 C  
BRANCH  15  16
HETATM   16  C   UNL     1     -10.723  15.794  66.755  1.00  0.00    -0.293 C  
BRANCH  16  17
HETATM   17  C   UNL     1     -10.457  15.878  68.255  1.00  0.00    -0.257 C  
BRANCH  17  18
HETATM   18  C   UNL     1     -11.750  15.895  69.053  1.00  0.00    -0.377 C  
BRANCH  18  19
HETATM   19  C   UNL     1     -11.440  15.780  70.539  1.00  0.00    -0.401 C  
BRANCH  19  20
HETATM   20  C   UNL     1     -12.609  15.141  71.282  1.00  0.00    -0.421 C  
BRANCH  20  21
HETATM   21  C   UNL     1     -12.618  13.628  71.087  1.00  0.00    -0.452 C  
BRANCH  21  22
HETATM   22  C   UNL     1     -13.408  12.948  72.199  1.00  0.00    -0.615 C  
HETATM   23  C   UNL     1     -13.282  11.437  72.120  1.00  0.00    -0.293 C  
ENDBRANCH  21  22
ENDBRANCH  20  21
ENDBRANCH  19  20
ENDBRANCH  18  19
ENDBRANCH  17  18
ENDBRANCH  16  17
ENDBRANCH  15  16
ENDBRANCH  14  15
ENDBRANCH  11  14
ENDBRANCH  10  11
ENDBRANCH   9  10
ENDBRANCH   8   9
ENDBRANCH   7   8
ENDBRANCH   6   7
ENDBRANCH   5   6
ENDBRANCH   4   5
ENDBRANCH   3   4
ENDBRANCH   2   3
TORSDOF 18
ENDMDL
MODEL      189
REMARK 921   NORMALIZED FREE ENERGY PREDICTED BY IDOCK:   -3.08 KCAL/MOL
REMARK 922        TOTAL FREE ENERGY PREDICTED BY IDOCK:   -9.02 KCAL/MOL
REMARK 923 INTER-LIGAND FREE ENERGY PREDICTED BY IDOCK:   -7.17 KCAL/MOL
REMARK 924 INTRA-LIGAND FREE ENERGY PREDICTED BY IDOCK:   -1.85 KCAL/MOL
REMARK 927      BINDING AFFINITY PREDICTED BY RF-SCORE:    0.00 PKD
ROOT
HETATM    1  C   UNL     1     -13.972  15.522  72.065  1.00  0.00    -0.599 C  
HETATM    2  C   UNL     1     -12.918  14.548  72.557  1.00  0.00    -0.500 C  
ENDROOT
BRANCH   2   3
HETATM    3  C   UNL     1     -12.713  13.408  71.563  1.00  0.00    -0.386 C  
BRANCH   3   4
HETATM    4  C   UNL     1     -13.323  12.116  72.094  1.00  0.00    -0.438 C  
BRANCH   4   5
HETATM    5  C   UNL     1     -12.776  10.909  71.346  1.00  0.00    -0.539 C  
BRANCH   5   6
HETATM    6  C   UNL     1     -13.608   9.667  71.646  1.00  0.00    -0.402 C  
BRANCH   6   7
HETATM    7  C   UNL     1     -12.732   8.596  72.272  1.00  0.00    -0.450 C  
BRANCH   7   8
HETATM    8  C   UNL     1     -12.746   7.307  71.457  1.00  0.00    -0.422 C  
BRANCH   8   9
HETATM    9  C   UNL     1     -11.507   6.500  71.818  1.00  0.00    -0.346 C  
BRANCH   9  10
HETATM   10  C   UNL     1     -10.346   7.392  72.238  1.00  0.00    -0.214 C  
BRANCH  10  11
HETATM   11  N   UNL     1      -9.241   7.480  71.153  1.00  0.00    -0.147 N  
HETATM   12  C   UNL     1      -7.860   7.542  71.807  1.00  0.00    -0.086 C  
HETATM   13  C   UNL     1      -9.317   6.269  70.221  1.00  0.00    -0.161 C  
BRANCH  11  14
HETATM   14  C   UNL     1      -9.521   8.785  70.363  1.00  0.00    -0.179 C  
BRANCH  14  15
HETATM   15  C   UNL     1     -10.306   8.536  69.084  1.00  0.00    -0.227 C  
BRANCH  15  16
HETATM   16  C   UNL     1     -11.032   9.786  68.606  1.00  0.00    -0.189 C  
BRANCH  16  17
HETATM   17  C   UNL     1     -10.108  10.983  68.806  1.00  0.00    -0.214 C  
BRANCH  17  18
HETATM   18  C   UNL     1      -9.841  11.709  67.498  1.00  0.00    -0.199 C  
BRANCH  18  19
HETATM   19  C   UNL     1      -8.503  11.262  66.924  1.00  0.00    -0.152 C  
BRANCH  19  20
HETATM   20  C   UNL     1      -8.670  10.785  65.486  1.00  0.00    -0.196 C  
BRANCH  20  21
HETATM   21  C   UNL     1     -10.139  10.793  65.074  1.00  0.00    -0.377 C  
BRANCH  21  22
HETATM   22  C   UNL     1     -10.278  11.093  63.586  1.00  0.00    -0.444 C  
HETATM   23  C   UNL     1      -9.119  10.514  62.796  1.00  0.00    -0.299 C  
ENDBRANCH  21  22
ENDBRANCH  20  21
ENDBRANCH  19  20
ENDBRANCH  18  19
ENDBRANCH  17  18
ENDBRANCH  16  17
ENDBRANCH  15  16
ENDBRANCH  14  15
ENDBRANCH  11  14
ENDBRANCH  10  11
ENDBRANCH   9  10
ENDBRANCH   8   9
ENDBRANCH   7   8
ENDBRANCH   6   7
ENDBRANCH   5   6
ENDBRANCH   4   5
ENDBRANCH   3   4
ENDBRANCH   2   3
TORSDOF 18
ENDMDL
MODEL      190
REMARK 921   NORMALIZED FREE ENERGY PREDICTED BY IDOCK:   -3.08 KCAL/MOL
REMARK 922        TOTAL FREE ENERGY PREDICTED BY IDOCK:   -9.01 KCAL/MOL
REMARK 923 INTER-LIGAND FREE ENERGY PREDICTED BY IDOCK:   -6.30 KCAL/MOL
REMARK 924 INTRA-LIGAND FREE ENERGY PREDICTED BY IDOCK:   -2.71 KCAL/MOL
REMARK 927      BINDING AFFINITY PREDICTED BY RF-SCORE:    0.00 PKD
ROOT
HETATM    1  C   UNL     1     -14.225   8.268  71.738  1.00  0.00    -0.544 C  
HETATM    2  C   UNL     1     -13.342   9.286  72.436  1.00  0.00    -0.521 C  
ENDROOT
BRANCH   2   3
HETATM    3  C   UNL     1     -12.820  10.329  71.452  1.00  0.00    -0.544 C  
BRANCH   3   4
HETATM    4  C   UNL     1     -11.711   9.744  70.586  1.00  0.00    -0.377 C  
BRANCH   4   5
HETATM    5  C   UNL     1     -10.555   9.250  71.444  1.00  0.00    -0.417 C  
BRANCH   5   6
HETATM    6  C   UNL     1     -10.194   7.812  71.083  1.00  0.00    -0.214 C  
BRANCH   6   7
HETATM    7  C   UNL     1     -11.244   7.233  70.151  1.00  0.00    -0.264 C  
BRANCH   7   8
HETATM    8  C   UNL     1     -10.885   5.820  69.703  1.00  0.00    -0.418 C  
BRANCH   8   9
HETATM    9  C   UNL     1      -9.369   5.683  69.726  1.00  0.00    -0.176 C  
BRANCH   9  10
HETATM   10  C   UNL     1      -8.803   5.360  68.350  1.00  0.00    -0.100 C  
BRANCH  10  11
HETATM   11  N   UNL     1      -7.670   6.332  67.929  1.00  0.00    -0.101 N  
HETATM   12  C   UNL     1      -7.121   7.068  69.152  1.00  0.00    -0.084 C  
HETATM   13  C   UNL     1      -6.541   5.561  67.240  1.00  0.00    -0.053 C  
BRANCH  11  14
HETATM   14  C   UNL     1      -8.315   7.337  66.941  1.00  0.00    -0.118 C  
BRANCH  14  15
HETATM   15  C   UNL     1      -9.041   8.471  67.650  1.00  0.00    -0.144 C  
BRANCH  15  16
HETATM   16  C   UNL     1     -10.355   8.825  66.967  1.00  0.00    -0.353 C  
BRANCH  16  17
HETATM   17  C   UNL     1     -10.458  10.345  66.884  1.00  0.00    -0.300 C  
BRANCH  17  18
HETATM   18  C   UNL     1      -9.339  11.025  67.655  1.00  0.00    -0.162 C  
BRANCH  18  19
HETATM   19  C   UNL     1      -9.755  12.443  68.024  1.00  0.00    -0.210 C  
BRANCH  19  20
HETATM   20  C   UNL     1     -11.245  12.497  68.346  1.00  0.00    -0.313 C  
BRANCH  20  21
HETATM   21  C   UNL     1     -11.814  13.884  68.065  1.00  0.00    -0.411 C  
BRANCH  21  22
HETATM   22  C   UNL     1     -12.427  14.479  69.328  1.00  0.00    -0.066 C  
HETATM   23  C   UNL     1     -12.097  13.640  70.549  1.00  0.00    -0.411 C  
ENDBRANCH  21  22
ENDBRANCH  20  21
ENDBRANCH  19  20
ENDBRANCH  18  19
ENDBRANCH  17  18
ENDBRANCH  16  17
ENDBRANCH  15  16
ENDBRANCH  14  15
ENDBRANCH  11  14
ENDBRANCH  10  11
ENDBRANCH   9  10
ENDBRANCH   8   9
ENDBRANCH   7   8
ENDBRANCH   6   7
ENDBRANCH   5   6
ENDBRANCH   4   5
ENDBRANCH   3   4
ENDBRANCH   2   3
TORSDOF 18
ENDMDL
MODEL      191
REMARK 921   NORMALIZED FREE ENERGY PREDICTED BY IDOCK:   -3.07 KCAL/MOL
REMARK 922        TOTAL FREE ENERGY PREDICTED BY IDOCK:   -8.99 KCAL/MOL
REMARK 923 INTER-LIGAND FREE ENERGY PREDICTED BY IDOCK:   -7.04 KCAL/MOL
REMARK 924 INTRA-LIGAND FREE ENERGY PREDICTED BY IDOCK:   -1.95 KCAL/MOL
REMARK 927      BINDING AFFINITY PREDICTED BY RF-SCORE:    0.00 PKD
ROOT
HETATM    1  C   UNL     1     -14.316  15.234  72.055  1.00  0.00    -0.689 C  
HETATM    2  C   UNL     1     -13.135  14.650  71.302  1.00  0.00    -0.424 C  
ENDROOT
BRANCH   2   3
HETATM    3  C   UNL     1     -11.869  15.467  71.540  1.00  0.00    -0.472 C  
BRANCH   3   4
HETATM    4  C   UNL     1     -10.789  15.093  70.532  1.00  0.00    -0.230 C  
BRANCH   4   5
HETATM    5  C   UNL     1     -11.387  14.884  69.148  1.00  0.00    -0.309 C  
BRANCH   5   6
HETATM    6  C   UNL     1     -10.694  13.730  68.431  1.00  0.00    -0.266 C  
BRANCH   6   7
HETATM    7  C   UNL     1     -11.600  12.510  68.420  1.00  0.00    -0.368 C  
BRANCH   7   8
HETATM    8  C   UNL     1     -10.866  11.258  68.890  1.00  0.00    -0.253 C  
BRANCH   8   9
HETATM    9  C   UNL     1     -11.606  10.694  70.094  1.00  0.00    -0.414 C  
BRANCH   9  10
HETATM   10  C   UNL     1     -10.703   9.838  70.970  1.00  0.00    -0.272 C  
BRANCH  10  11
HETATM   11  N   UNL     1     -11.483   8.734  71.730  1.00  0.00    -0.318 N  
HETATM   12  C   UNL     1     -10.618   8.142  72.844  1.00  0.00    -0.257 C  
HETATM   13  C   UNL     1     -12.769   9.312  72.327  1.00  0.00    -0.363 C  
BRANCH  11  14
HETATM   14  C   UNL     1     -11.822   7.647  70.677  1.00  0.00    -0.147 C  
BRANCH  14  15
HETATM   15  C   UNL     1     -11.120   6.326  70.954  1.00  0.00    -0.366 C  
BRANCH  15  16
HETATM   16  C   UNL     1     -10.908   5.513  69.685  1.00  0.00    -0.279 C  
BRANCH  16  17
HETATM   17  C   UNL     1     -10.945   6.465  68.494  1.00  0.00    -0.396 C  
BRANCH  17  18
HETATM   18  C   UNL     1      -9.831   6.168  67.504  1.00  0.00    -0.140 C  
BRANCH  18  19
HETATM   19  C   UNL     1      -8.661   7.112  67.747  1.00  0.00    -0.126 C  
BRANCH  19  20
HETATM   20  C   UNL     1      -9.063   8.552  67.445  1.00  0.00    -0.148 C  
BRANCH  20  21
HETATM   21  C   UNL     1      -8.683   8.937  66.018  1.00  0.00    -0.185 C  
BRANCH  21  22
HETATM   22  C   UNL     1      -9.766   9.808  65.391  1.00  0.00    -0.383 C  
HETATM   23  C   UNL     1      -9.355  11.269  65.371  1.00  0.00    -0.232 C  
ENDBRANCH  21  22
ENDBRANCH  20  21
ENDBRANCH  19  20
ENDBRANCH  18  19
ENDBRANCH  17  18
ENDBRANCH  16  17
ENDBRANCH  15  16
ENDBRANCH  14  15
ENDBRANCH  11  14
ENDBRANCH  10  11
ENDBRANCH   9  10
ENDBRANCH   8   9
ENDBRANCH   7   8
ENDBRANCH   6   7
ENDBRANCH   5   6
ENDBRANCH   4   5
ENDBRANCH   3   4
ENDBRANCH   2   3
TORSDOF 18
ENDMDL
MODEL      192
REMARK 921   NORMALIZED FREE ENERGY PREDICTED BY IDOCK:   -3.06 KCAL/MOL
REMARK 922        TOTAL FREE ENERGY PREDICTED BY IDOCK:   -8.99 KCAL/MOL
REMARK 923 INTER-LIGAND FREE ENERGY PREDICTED BY IDOCK:   -5.76 KCAL/MOL
REMARK 924 INTRA-LIGAND FREE ENERGY PREDICTED BY IDOCK:   -3.23 KCAL/MOL
REMARK 927      BINDING AFFINITY PREDICTED BY RF-SCORE:    0.00 PKD
ROOT
HETATM    1  C   UNL     1     -12.551   6.961  71.439  1.00  0.00    -0.400 C  
HETATM    2  C   UNL     1     -11.984   8.340  71.159  1.00  0.00    -0.290 C  
ENDROOT
BRANCH   2   3
HETATM    3  C   UNL     1     -10.873   8.690  72.143  1.00  0.00    -0.424 C  
BRANCH   3   4
HETATM    4  C   UNL     1     -10.749   7.617  73.219  1.00  0.00    -0.409 C  
BRANCH   4   5
HETATM    5  C   UNL     1      -9.295   7.414  73.619  1.00  0.00    -0.306 C  
BRANCH   5   6
HETATM    6  C   UNL     1      -8.609   6.434  72.673  1.00  0.00    -0.122 C  
BRANCH   6   7
HETATM    7  C   UNL     1      -9.150   5.033  72.898  1.00  0.00    -0.127 C  
BRANCH   7   8
HETATM    8  C   UNL     1      -9.746   4.446  71.622  1.00  0.00    -0.238 C  
BRANCH   8   9
HETATM    9  C   UNL     1      -9.345   5.336  70.454  1.00  0.00    -0.208 C  
BRANCH   9  10
HETATM   10  C   UNL     1     -10.119   4.999  69.187  1.00  0.00    -0.187 C  
BRANCH  10  11
HETATM   11  N   UNL     1      -9.190   4.593  68.013  1.00  0.00    -0.121 N  
HETATM   12  C   UNL     1      -7.732   4.892  68.362  1.00  0.00    -0.082 C  
HETATM   13  C   UNL     1      -9.351   3.103  67.702  1.00  0.00    -0.200 C  
BRANCH  11  14
HETATM   14  C   UNL     1      -9.638   5.447  66.799  1.00  0.00    -0.147 C  
BRANCH  14  15
HETATM   15  C   UNL     1     -10.920   6.221  67.069  1.00  0.00    -0.442 C  
BRANCH  15  16
HETATM   16  C   UNL     1     -10.699   7.726  67.034  1.00  0.00    -0.316 C  
BRANCH  16  17
HETATM   17  C   UNL     1      -9.310   7.993  66.462  1.00  0.00    -0.261 C  
BRANCH  17  18
HETATM   18  C   UNL     1      -8.533   8.980  67.317  1.00  0.00    -0.114 C  
BRANCH  18  19
HETATM   19  C   UNL     1      -8.922   8.814  68.780  1.00  0.00    -0.138 C  
BRANCH  19  20
HETATM   20  C   UNL     1      -9.194  10.172  69.418  1.00  0.00    -0.229 C  
BRANCH  20  21
HETATM   21  C   UNL     1      -9.909  11.101  68.443  1.00  0.00    -0.188 C  
BRANCH  21  22
HETATM   22  C   UNL     1     -11.421  10.992  68.605  1.00  0.00    -0.375 C  
HETATM   23  C   UNL     1     -11.893  11.703  69.860  1.00  0.00    -0.434 C  
ENDBRANCH  21  22
ENDBRANCH  20  21
ENDBRANCH  19  20
ENDBRANCH  18  19
ENDBRANCH  17  18
ENDBRANCH  16  17
ENDBRANCH  15  16
ENDBRANCH  14  15
ENDBRANCH  11  14
ENDBRANCH  10  11
ENDBRANCH   9  10
ENDBRANCH   8   9
ENDBRANCH   7   8
ENDBRANCH   6   7
ENDBRANCH   5   6
ENDBRANCH   4   5
ENDBRANCH   3   4
ENDBRANCH   2   3
TORSDOF 18
ENDMDL
MODEL      193
REMARK 921   NORMALIZED FREE ENERGY PREDICTED BY IDOCK:   -3.04 KCAL/MOL
REMARK 922        TOTAL FREE ENERGY PREDICTED BY IDOCK:   -8.94 KCAL/MOL
REMARK 923 INTER-LIGAND FREE ENERGY PREDICTED BY IDOCK:   -6.57 KCAL/MOL
REMARK 924 INTRA-LIGAND FREE ENERGY PREDICTED BY IDOCK:   -2.37 KCAL/MOL
REMARK 927      BINDING AFFINITY PREDICTED BY RF-SCORE:    0.00 PKD
ROOT
HETATM    1  C   UNL     1      -9.438   3.204  71.534  1.00  0.00    -0.215 C  
HETATM    2  C   UNL     1      -9.392   1.793  70.979  1.00  0.00    -0.183 C  
ENDROOT
BRANCH   2   3
HETATM    3  C   UNL     1      -9.544   1.792  69.461  1.00  0.00    -0.057 C  
BRANCH   3   4
HETATM    4  C   UNL     1      -9.186   3.156  68.884  1.00  0.00    -0.226 C  
BRANCH   4   5
HETATM    5  C   UNL     1      -9.340   3.162  67.370  1.00  0.00    -0.232 C  
BRANCH   5   6
HETATM    6  C   UNL     1      -9.849   4.516  66.886  1.00  0.00    -0.238 C  
BRANCH   6   7
HETATM    7  C   UNL     1      -9.713   5.546  67.995  1.00  0.00    -0.159 C  
BRANCH   7   8
HETATM    8  C   UNL     1     -11.024   6.287  68.240  1.00  0.00    -0.408 C  
BRANCH   8   9
HETATM    9  C   UNL     1     -11.260   6.357  69.742  1.00  0.00    -0.484 C  
BRANCH   9  10
HETATM   10  C   UNL     1     -10.950   7.737  70.306  1.00  0.00    -0.247 C  
BRANCH  10  11
HETATM   11  N   UNL     1     -11.850   8.102  71.515  1.00  0.00    -0.283 N  
HETATM   12  C   UNL     1     -13.167   7.328  71.449  1.00  0.00    -0.346 C  
HETATM   13  C   UNL     1     -11.128   7.782  72.827  1.00  0.00    -0.398 C  
BRANCH  11  14
HETATM   14  C   UNL     1     -12.115   9.626  71.406  1.00  0.00    -0.388 C  
BRANCH  14  15
HETATM   15  C   UNL     1     -11.276  10.290  70.325  1.00  0.00    -0.395 C  
BRANCH  15  16
HETATM   16  C   UNL     1     -11.905  11.582  69.825  1.00  0.00    -0.429 C  
BRANCH  16  17
HETATM   17  C   UNL     1     -11.111  12.067  68.617  1.00  0.00    -0.298 C  
BRANCH  17  18
HETATM   18  C   UNL     1     -11.529  11.348  67.345  1.00  0.00    -0.328 C  
BRANCH  18  19
HETATM   19  C   UNL     1     -10.580  11.711  66.211  1.00  0.00    -0.301 C  
BRANCH  19  20
HETATM   20  C   UNL     1     -10.149  10.460  65.453  1.00  0.00    -0.354 C  
BRANCH  20  21
HETATM   21  C   UNL     1      -9.999   9.272  66.399  1.00  0.00    -0.356 C  
BRANCH  21  22
HETATM   22  C   UNL     1      -8.533   9.048  66.751  1.00  0.00    -0.121 C  
HETATM   23  C   UNL     1      -8.293   9.208  68.241  1.00  0.00    -0.120 C  
ENDBRANCH  21  22
ENDBRANCH  20  21
ENDBRANCH  19  20
ENDBRANCH  18  19
ENDBRANCH  17  18
ENDBRANCH  16  17
ENDBRANCH  15  16
ENDBRANCH  14  15
ENDBRANCH  11  14
ENDBRANCH  10  11
ENDBRANCH   9  10
ENDBRANCH   8   9
ENDBRANCH   7   8
ENDBRANCH   6   7
ENDBRANCH   5   6
ENDBRANCH   4   5
ENDBRANCH   3   4
ENDBRANCH   2   3
TORSDOF 18
ENDMDL
MODEL      194
REMARK 921   NORMALIZED FREE ENERGY PREDICTED BY IDOCK:   -3.04 KCAL/MOL
REMARK 922        TOTAL FREE ENERGY PREDICTED BY IDOCK:   -8.94 KCAL/MOL
REMARK 923 INTER-LIGAND FREE ENERGY PREDICTED BY IDOCK:   -6.88 KCAL/MOL
REMARK 924 INTRA-LIGAND FREE ENERGY PREDICTED BY IDOCK:   -2.06 KCAL/MOL
REMARK 927      BINDING AFFINITY PREDICTED BY RF-SCORE:    0.00 PKD
ROOT
HETATM    1  C   UNL     1      -7.220   8.379  65.711  1.00  0.00    -0.072 C  
HETATM    2  C   UNL     1      -7.992   7.865  66.912  1.00  0.00    -0.108 C  
ENDROOT
BRANCH   2   3
HETATM    3  C   UNL     1      -9.456   7.617  66.562  1.00  0.00    -0.250 C  
BRANCH   3   4
HETATM    4  C   UNL     1     -10.367   8.508  67.399  1.00  0.00    -0.356 C  
BRANCH   4   5
HETATM    5  C   UNL     1      -9.579   9.642  68.039  1.00  0.00    -0.161 C  
BRANCH   5   6
HETATM    6  C   UNL     1      -9.616  10.887  67.159  1.00  0.00    -0.187 C  
BRANCH   6   7
HETATM    7  C   UNL     1     -10.861  10.868  66.288  1.00  0.00    -0.191 C  
BRANCH   7   8
HETATM    8  C   UNL     1     -10.511  10.846  64.803  1.00  0.00    -0.373 C  
BRANCH   8   9
HETATM    9  C   UNL     1     -10.146  12.261  64.378  1.00  0.00    -0.296 C  
BRANCH   9  10
HETATM   10  C   UNL     1     -11.368  13.063  63.953  1.00  0.00    -0.410 C  
BRANCH  10  11
HETATM   11  N   UNL     1     -11.665  14.247  64.911  1.00  0.00    -0.377 N  
HETATM   12  C   UNL     1     -12.089  15.481  64.113  1.00  0.00    -0.045 C  
HETATM   13  C   UNL     1     -12.771  13.865  65.898  1.00  0.00    -0.421 C  
BRANCH  11  14
HETATM   14  C   UNL     1     -10.341  14.525  65.669  1.00  0.00    -0.349 C  
BRANCH  14  15
HETATM   15  C   UNL     1     -10.554  15.334  66.940  1.00  0.00    -0.304 C  
BRANCH  15  16
HETATM   16  C   UNL     1     -10.019  14.617  68.171  1.00  0.00    -0.224 C  
BRANCH  16  17
HETATM   17  C   UNL     1     -10.042  15.594  69.343  1.00  0.00    -0.269 C  
BRANCH  17  18
HETATM   18  C   UNL     1     -11.120  15.234  70.351  1.00  0.00    -0.324 C  
BRANCH  18  19
HETATM   19  C   UNL     1     -12.128  14.287  69.713  1.00  0.00    -0.401 C  
BRANCH  19  20
HETATM   20  C   UNL     1     -12.343  13.061  70.593  1.00  0.00    -0.391 C  
BRANCH  20  21
HETATM   21  C   UNL     1     -11.957  11.783  69.854  1.00  0.00    -0.405 C  
BRANCH  21  22
HETATM   22  C   UNL     1     -12.466  10.555  70.602  1.00  0.00    -0.456 C  
HETATM   23  C   UNL     1     -13.195  10.948  71.873  1.00  0.00    -0.508 C  
ENDBRANCH  21  22
ENDBRANCH  20  21
ENDBRANCH  19  20
ENDBRANCH  18  19
ENDBRANCH  17  18
ENDBRANCH  16  17
ENDBRANCH  15  16
ENDBRANCH  14  15
ENDBRANCH  11  14
ENDBRANCH  10  11
ENDBRANCH   9  10
ENDBRANCH   8   9
ENDBRANCH   7   8
ENDBRANCH   6   7
ENDBRANCH   5   6
ENDBRANCH   4   5
ENDBRANCH   3   4
ENDBRANCH   2   3
TORSDOF 18
ENDMDL
MODEL      195
REMARK 921   NORMALIZED FREE ENERGY PREDICTED BY IDOCK:   -3.03 KCAL/MOL
REMARK 922        TOTAL FREE ENERGY PREDICTED BY IDOCK:   -8.92 KCAL/MOL
REMARK 923 INTER-LIGAND FREE ENERGY PREDICTED BY IDOCK:   -6.47 KCAL/MOL
REMARK 924 INTRA-LIGAND FREE ENERGY PREDICTED BY IDOCK:   -2.45 KCAL/MOL
REMARK 927      BINDING AFFINITY PREDICTED BY RF-SCORE:    0.00 PKD
ROOT
HETATM    1  C   UNL     1     -11.043  15.615  68.294  1.00  0.00    -0.336 C  
HETATM    2  C   UNL     1     -11.689  14.246  68.404  1.00  0.00    -0.373 C  
ENDROOT
BRANCH   2   3
HETATM    3  C   UNL     1     -11.929  13.637  67.025  1.00  0.00    -0.448 C  
BRANCH   3   4
HETATM    4  C   UNL     1     -11.632  12.142  67.039  1.00  0.00    -0.406 C  
BRANCH   4   5
HETATM    5  C   UNL     1     -10.145  11.886  67.236  1.00  0.00    -0.213 C  
BRANCH   5   6
HETATM    6  C   UNL     1      -9.914  10.517  67.869  1.00  0.00    -0.193 C  
BRANCH   6   7
HETATM    7  C   UNL     1      -8.706  10.570  68.788  1.00  0.00    -0.154 C  
BRANCH   7   8
HETATM    8  C   UNL     1      -8.113   9.184  69.022  1.00  0.00    -0.102 C  
BRANCH   8   9
HETATM    9  C   UNL     1      -9.066   8.152  68.436  1.00  0.00    -0.136 C  
BRANCH   9  10
HETATM   10  C   UNL     1      -8.432   6.770  68.354  1.00  0.00    -0.122 C  
BRANCH  10  11
HETATM   11  N   UNL     1      -9.361   5.655  68.901  1.00  0.00    -0.118 N  
HETATM   12  C   UNL     1     -10.827   6.044  68.708  1.00  0.00    -0.322 C  
HETATM   13  C   UNL     1      -9.078   4.333  68.184  1.00  0.00    -0.131 C  
BRANCH  11  14
HETATM   14  C   UNL     1      -9.032   5.528  70.411  1.00  0.00    -0.139 C  
BRANCH  14  15
HETATM   15  C   UNL     1     -10.120   4.799  71.186  1.00  0.00    -0.261 C  
BRANCH  15  16
HETATM   16  C   UNL     1     -10.526   5.550  72.447  1.00  0.00    -0.261 C  
BRANCH  16  17
HETATM   17  C   UNL     1     -12.019   5.851  72.366  1.00  0.00    -0.206 C  
BRANCH  17  18
HETATM   18  C   UNL     1     -12.280   7.267  71.883  1.00  0.00    -0.348 C  
BRANCH  18  19
HETATM   19  C   UNL     1     -11.246   8.214  72.478  1.00  0.00    -0.459 C  
BRANCH  19  20
HETATM   20  C   UNL     1     -10.941   9.351  71.509  1.00  0.00    -0.429 C  
BRANCH  20  21
HETATM   21  C   UNL     1     -12.218   9.866  70.852  1.00  0.00    -0.420 C  
BRANCH  21  22
HETATM   22  C   UNL     1     -12.219  11.390  70.800  1.00  0.00    -0.475 C  
HETATM   23  C   UNL     1     -13.283  11.971  71.713  1.00  0.00    -0.421 C  
ENDBRANCH  21  22
ENDBRANCH  20  21
ENDBRANCH  19  20
ENDBRANCH  18  19
ENDBRANCH  17  18
ENDBRANCH  16  17
ENDBRANCH  15  16
ENDBRANCH  14  15
ENDBRANCH  11  14
ENDBRANCH  10  11
ENDBRANCH   9  10
ENDBRANCH   8   9
ENDBRANCH   7   8
ENDBRANCH   6   7
ENDBRANCH   5   6
ENDBRANCH   4   5
ENDBRANCH   3   4
ENDBRANCH   2   3
TORSDOF 18
ENDMDL
MODEL      196
REMARK 921   NORMALIZED FREE ENERGY PREDICTED BY IDOCK:   -3.03 KCAL/MOL
REMARK 922        TOTAL FREE ENERGY PREDICTED BY IDOCK:   -8.91 KCAL/MOL
REMARK 923 INTER-LIGAND FREE ENERGY PREDICTED BY IDOCK:   -7.31 KCAL/MOL
REMARK 924 INTRA-LIGAND FREE ENERGY PREDICTED BY IDOCK:   -1.60 KCAL/MOL
REMARK 927      BINDING AFFINITY PREDICTED BY RF-SCORE:    0.00 PKD
ROOT
HETATM    1  C   UNL     1      -5.845  19.362  65.409  1.00  0.00    -0.221 C  
HETATM    2  C   UNL     1      -7.265  19.830  65.669  1.00  0.00    -0.322 C  
ENDROOT
BRANCH   2   3
HETATM    3  C   UNL     1      -7.426  20.336  67.099  1.00  0.00    -0.337 C  
BRANCH   3   4
HETATM    4  C   UNL     1      -8.877  20.221  67.550  1.00  0.00    -0.415 C  
BRANCH   4   5
HETATM    5  C   UNL     1      -9.014  19.226  68.694  1.00  0.00    -0.419 C  
BRANCH   5   6
HETATM    6  C   UNL     1      -9.345  17.836  68.161  1.00  0.00    -0.281 C  
BRANCH   6   7
HETATM    7  C   UNL     1     -10.494  17.922  67.170  1.00  0.00    -0.359 C  
BRANCH   7   8
HETATM    8  C   UNL     1     -10.208  17.121  65.904  1.00  0.00    -0.290 C  
BRANCH   8   9
HETATM    9  C   UNL     1     -10.644  15.682  66.140  1.00  0.00    -0.325 C  
BRANCH   9  10
HETATM   10  C   UNL     1     -10.505  14.830  64.886  1.00  0.00    -0.369 C  
BRANCH  10  11
HETATM   11  N   UNL     1     -11.267  13.483  64.995  1.00  0.00    -0.312 N  
HETATM   12  C   UNL     1     -12.736  13.731  65.341  1.00  0.00    -0.472 C  
HETATM   13  C   UNL     1     -11.170  12.713  63.676  1.00  0.00    -0.466 C  
BRANCH  11  14
HETATM   14  C   UNL     1     -10.573  12.690  66.132  1.00  0.00    -0.258 C  
BRANCH  14  15
HETATM   15  C   UNL     1     -11.519  12.362  67.278  1.00  0.00    -0.421 C  
BRANCH  15  16
HETATM   16  C   UNL     1     -11.461  10.891  67.665  1.00  0.00    -0.281 C  
BRANCH  16  17
HETATM   17  C   UNL     1     -11.884  10.762  69.125  1.00  0.00    -0.347 C  
BRANCH  17  18
HETATM   18  C   UNL     1     -10.689  10.542  70.037  1.00  0.00    -0.282 C  
BRANCH  18  19
HETATM   19  C   UNL     1     -10.805   9.187  70.721  1.00  0.00    -0.331 C  
BRANCH  19  20
HETATM   20  C   UNL     1     -10.339   8.074  69.789  1.00  0.00    -0.219 C  
BRANCH  20  21
HETATM   21  C   UNL     1      -8.949   8.373  69.234  1.00  0.00    -0.150 C  
BRANCH  21  22
HETATM   22  C   UNL     1      -8.945   8.276  67.713  1.00  0.00    -0.139 C  
HETATM   23  C   UNL     1     -10.041   7.350  67.217  1.00  0.00    -0.296 C  
ENDBRANCH  21  22
ENDBRANCH  20  21
ENDBRANCH  19  20
ENDBRANCH  18  19
ENDBRANCH  17  18
ENDBRANCH  16  17
ENDBRANCH  15  16
ENDBRANCH  14  15
ENDBRANCH  11  14
ENDBRANCH  10  11
ENDBRANCH   9  10
ENDBRANCH   8   9
ENDBRANCH   7   8
ENDBRANCH   6   7
ENDBRANCH   5   6
ENDBRANCH   4   5
ENDBRANCH   3   4
ENDBRANCH   2   3
TORSDOF 18
ENDMDL
MODEL      197
REMARK 921   NORMALIZED FREE ENERGY PREDICTED BY IDOCK:   -3.02 KCAL/MOL
REMARK 922        TOTAL FREE ENERGY PREDICTED BY IDOCK:   -8.90 KCAL/MOL
REMARK 923 INTER-LIGAND FREE ENERGY PREDICTED BY IDOCK:   -7.31 KCAL/MOL
REMARK 924 INTRA-LIGAND FREE ENERGY PREDICTED BY IDOCK:   -1.60 KCAL/MOL
REMARK 927      BINDING AFFINITY PREDICTED BY RF-SCORE:    0.00 PKD
ROOT
HETATM    1  C   UNL     1      -8.453   5.976  68.301  1.00  0.00    -0.112 C  
HETATM    2  C   UNL     1      -8.051   6.235  69.741  1.00  0.00    -0.120 C  
ENDROOT
BRANCH   2   3
HETATM    3  C   UNL     1      -8.887   5.401  70.707  1.00  0.00    -0.145 C  
BRANCH   3   4
HETATM    4  C   UNL     1     -10.360   5.440  70.315  1.00  0.00    -0.357 C  
BRANCH   4   5
HETATM    5  C   UNL     1     -11.202   6.044  71.429  1.00  0.00    -0.325 C  
BRANCH   5   6
HETATM    6  C   UNL     1     -11.688   7.437  71.042  1.00  0.00    -0.326 C  
BRANCH   6   7
HETATM    7  C   UNL     1     -11.048   8.478  71.944  1.00  0.00    -0.395 C  
BRANCH   7   8
HETATM    8  C   UNL     1      -9.979   9.280  71.210  1.00  0.00    -0.341 C  
BRANCH   8   9
HETATM    9  C   UNL     1     -10.360   9.351  69.739  1.00  0.00    -0.240 C  
BRANCH   9  10
HETATM   10  C   UNL     1     -10.756  10.759  69.318  1.00  0.00    -0.229 C  
BRANCH  10  11
HETATM   11  N   UNL     1     -10.550  11.007  67.801  1.00  0.00    -0.198 N  
HETATM   12  C   UNL     1      -9.240  11.757  67.558  1.00  0.00    -0.175 C  
HETATM   13  C   UNL     1     -10.532   9.676  67.045  1.00  0.00    -0.232 C  
BRANCH  11  14
HETATM   14  C   UNL     1     -11.755  11.868  67.341  1.00  0.00    -0.256 C  
BRANCH  14  15
HETATM   15  C   UNL     1     -11.557  12.457  65.952  1.00  0.00    -0.449 C  
BRANCH  15  16
HETATM   16  C   UNL     1     -12.534  13.588  65.665  1.00  0.00    -0.528 C  
BRANCH  16  17
HETATM   17  C   UNL     1     -11.753  14.759  65.077  1.00  0.00    -0.364 C  
BRANCH  17  18
HETATM   18  C   UNL     1     -10.348  14.838  65.648  1.00  0.00    -0.369 C  
BRANCH  18  19
HETATM   19  C   UNL     1     -10.038  16.272  66.058  1.00  0.00    -0.377 C  
BRANCH  19  20
HETATM   20  C   UNL     1     -10.515  16.537  67.481  1.00  0.00    -0.310 C  
BRANCH  20  21
HETATM   21  C   UNL     1     -10.078  17.919  67.956  1.00  0.00    -0.360 C  
BRANCH  21  22
HETATM   22  C   UNL     1     -10.577  18.998  67.002  1.00  0.00    -0.543 C  
HETATM   23  C   UNL     1      -9.986  20.353  67.345  1.00  0.00    -0.556 C  
ENDBRANCH  21  22
ENDBRANCH  20  21
ENDBRANCH  19  20
ENDBRANCH  18  19
ENDBRANCH  17  18
ENDBRANCH  16  17
ENDBRANCH  15  16
ENDBRANCH  14  15
ENDBRANCH  11  14
ENDBRANCH  10  11
ENDBRANCH   9  10
ENDBRANCH   8   9
ENDBRANCH   7   8
ENDBRANCH   6   7
ENDBRANCH   5   6
ENDBRANCH   4   5
ENDBRANCH   3   4
ENDBRANCH   2   3
TORSDOF 18
ENDMDL
MODEL      198
REMARK 921   NORMALIZED FREE ENERGY PREDICTED BY IDOCK:   -3.02 KCAL/MOL
REMARK 922        TOTAL FREE ENERGY PREDICTED BY IDOCK:   -8.90 KCAL/MOL
REMARK 923 INTER-LIGAND FREE ENERGY PREDICTED BY IDOCK:   -6.31 KCAL/MOL
REMARK 924 INTRA-LIGAND FREE ENERGY PREDICTED BY IDOCK:   -2.59 KCAL/MOL
REMARK 927      BINDING AFFINITY PREDICTED BY RF-SCORE:    0.00 PKD
ROOT
HETATM    1  C   UNL     1     -11.460   6.258  71.001  1.00  0.00    -0.370 C  
HETATM    2  C   UNL     1     -12.682   7.050  71.427  1.00  0.00    -0.421 C  
ENDROOT
BRANCH   2   3
HETATM    3  C   UNL     1     -12.283   8.341  72.135  1.00  0.00    -0.418 C  
BRANCH   3   4
HETATM    4  C   UNL     1     -13.416   9.359  72.076  1.00  0.00    -0.522 C  
BRANCH   4   5
HETATM    5  C   UNL     1     -12.886  10.743  71.733  1.00  0.00    -0.528 C  
BRANCH   5   6
HETATM    6  C   UNL     1     -12.857  10.949  70.222  1.00  0.00    -0.209 C  
BRANCH   6   7
HETATM    7  C   UNL     1     -11.422  10.938  69.726  1.00  0.00    -0.390 C  
BRANCH   7   8
HETATM    8  C   UNL     1     -11.258  10.055  68.492  1.00  0.00    -0.180 C  
BRANCH   8   9
HETATM    9  C   UNL     1     -10.313   8.915  68.843  1.00  0.00    -0.229 C  
BRANCH   9  10
HETATM   10  C   UNL     1      -9.383   9.276  69.994  1.00  0.00    -0.209 C  
BRANCH  10  11
HETATM   11  N   UNL     1      -8.187   8.298  70.122  1.00  0.00    -0.115 N  
HETATM   12  C   UNL     1      -8.047   7.818  71.567  1.00  0.00    -0.100 C  
HETATM   13  C   UNL     1      -8.385   7.096  69.195  1.00  0.00    -0.129 C  
BRANCH  11  14
HETATM   14  C   UNL     1      -6.930   9.101  69.698  1.00  0.00    -0.055 C  
BRANCH  14  15
HETATM   15  C   UNL     1      -7.118  10.604  69.849  1.00  0.00    -0.133 C  
BRANCH  15  16
HETATM   16  C   UNL     1      -6.609  11.369  68.636  1.00  0.00    -0.062 C  
BRANCH  16  17
HETATM   17  C   UNL     1      -7.712  12.313  68.168  1.00  0.00    -0.138 C  
BRANCH  17  18
HETATM   18  C   UNL     1      -8.372  11.816  66.893  1.00  0.00    -0.170 C  
BRANCH  18  19
HETATM   19  C   UNL     1      -9.473  12.780  66.473  1.00  0.00    -0.253 C  
BRANCH  19  20
HETATM   20  C   UNL     1     -10.463  12.089  65.541  1.00  0.00    -0.307 C  
BRANCH  20  21
HETATM   21  C   UNL     1     -11.895  12.510  65.855  1.00  0.00    -0.489 C  
BRANCH  21  22
HETATM   22  C   UNL     1     -12.533  13.189  64.648  1.00  0.00    -0.433 C  
HETATM   23  C   UNL     1     -12.179  14.664  64.595  1.00  0.00    -0.447 C  
ENDBRANCH  21  22
ENDBRANCH  20  21
ENDBRANCH  19  20
ENDBRANCH  18  19
ENDBRANCH  17  18
ENDBRANCH  16  17
ENDBRANCH  15  16
ENDBRANCH  14  15
ENDBRANCH  11  14
ENDBRANCH  10  11
ENDBRANCH   9  10
ENDBRANCH   8   9
ENDBRANCH   7   8
ENDBRANCH   6   7
ENDBRANCH   5   6
ENDBRANCH   4   5
ENDBRANCH   3   4
ENDBRANCH   2   3
TORSDOF 18
ENDMDL
MODEL      199
REMARK 921   NORMALIZED FREE ENERGY PREDICTED BY IDOCK:   -3.01 KCAL/MOL
REMARK 922        TOTAL FREE ENERGY PREDICTED BY IDOCK:   -8.87 KCAL/MOL
REMARK 923 INTER-LIGAND FREE ENERGY PREDICTED BY IDOCK:   -7.24 KCAL/MOL
REMARK 924 INTRA-LIGAND FREE ENERGY PREDICTED BY IDOCK:   -1.63 KCAL/MOL
REMARK 927      BINDING AFFINITY PREDICTED BY RF-SCORE:    0.00 PKD
ROOT
HETATM    1  C   UNL     1      -8.316   4.028  67.969  1.00  0.00    -0.099 C  
HETATM    2  C   UNL     1      -9.556   4.174  68.830  1.00  0.00    -0.222 C  
ENDROOT
BRANCH   2   3
HETATM    3  C   UNL     1     -10.258   5.502  68.565  1.00  0.00    -0.250 C  
BRANCH   3   4
HETATM    4  C   UNL     1     -10.878   6.048  69.846  1.00  0.00    -0.434 C  
BRANCH   4   5
HETATM    5  C   UNL     1     -10.205   5.450  71.073  1.00  0.00    -0.296 C  
BRANCH   5   6
HETATM    6  C   UNL     1     -10.238   6.434  72.238  1.00  0.00    -0.205 C  
BRANCH   6   7
HETATM    7  C   UNL     1     -10.040   7.850  71.725  1.00  0.00    -0.236 C  
BRANCH   7   8
HETATM    8  C   UNL     1     -11.189   8.765  72.137  1.00  0.00    -0.408 C  
BRANCH   8   9
HETATM    9  C   UNL     1     -11.392   9.801  71.040  1.00  0.00    -0.460 C  
BRANCH   9  10
HETATM   10  C   UNL     1     -10.158   9.950  70.160  1.00  0.00    -0.255 C  
BRANCH  10  11
HETATM   11  N   UNL     1     -10.508  10.386  68.714  1.00  0.00    -0.187 N  
HETATM   12  C   UNL     1     -10.716   9.159  67.825  1.00  0.00    -0.179 C  
HETATM   13  C   UNL     1     -11.774  11.246  68.712  1.00  0.00    -0.338 C  
BRANCH  11  14
HETATM   14  C   UNL     1      -9.296  11.213  68.212  1.00  0.00    -0.176 C  
BRANCH  14  15
HETATM   15  C   UNL     1      -8.823  10.780  66.832  1.00  0.00    -0.144 C  
BRANCH  15  16
HETATM   16  C   UNL     1      -9.462  11.604  65.723  1.00  0.00    -0.244 C  
BRANCH  16  17
HETATM   17  C   UNL     1      -9.600  10.720  64.488  1.00  0.00    -0.322 C  
BRANCH  17  18
HETATM   18  C   UNL     1     -10.363  11.423  63.378  1.00  0.00    -0.458 C  
BRANCH  18  19
HETATM   19  C   UNL     1     -11.773  11.752  63.850  1.00  0.00    -0.461 C  
BRANCH  19  20
HETATM   20  C   UNL     1     -12.217  13.106  63.309  1.00  0.00    -0.438 C  
BRANCH  20  21
HETATM   21  C   UNL     1     -12.156  14.176  64.396  1.00  0.00    -0.486 C  
BRANCH  21  22
HETATM   22  C   UNL     1     -12.508  13.581  65.755  1.00  0.00    -0.514 C  
HETATM   23  C   UNL     1     -11.871  14.372  66.883  1.00  0.00    -0.433 C  
ENDBRANCH  21  22
ENDBRANCH  20  21
ENDBRANCH  19  20
ENDBRANCH  18  19
ENDBRANCH  17  18
ENDBRANCH  16  17
ENDBRANCH  15  16
ENDBRANCH  14  15
ENDBRANCH  11  14
ENDBRANCH  10  11
ENDBRANCH   9  10
ENDBRANCH   8   9
ENDBRANCH   7   8
ENDBRANCH   6   7
ENDBRANCH   5   6
ENDBRANCH   4   5
ENDBRANCH   3   4
ENDBRANCH   2   3
TORSDOF 18
ENDMDL
MODEL      200
REMARK 921   NORMALIZED FREE ENERGY PREDICTED BY IDOCK:   -3.00 KCAL/MOL
REMARK 922        TOTAL FREE ENERGY PREDICTED BY IDOCK:   -8.86 KCAL/MOL
REMARK 923 INTER-LIGAND FREE ENERGY PREDICTED BY IDOCK:   -7.35 KCAL/MOL
REMARK 924 INTRA-LIGAND FREE ENERGY PREDICTED BY IDOCK:   -1.51 KCAL/MOL
REMARK 927      BINDING AFFINITY PREDICTED BY RF-SCORE:    0.00 PKD
ROOT
HETATM    1  C   UNL     1      -6.136  21.066  65.981  1.00  0.00    -0.304 C  
HETATM    2  C   UNL     1      -6.426  20.044  64.898  1.00  0.00    -0.323 C  
ENDROOT
BRANCH   2   3
HETATM    3  C   UNL     1      -6.523  18.637  65.479  1.00  0.00    -0.321 C  
BRANCH   3   4
HETATM    4  C   UNL     1      -7.059  18.679  66.905  1.00  0.00    -0.218 C  
BRANCH   4   5
HETATM    5  C   UNL     1      -8.153  17.641  67.106  1.00  0.00    -0.233 C  
BRANCH   5   6
HETATM    6  C   UNL     1      -9.465  18.115  66.490  1.00  0.00    -0.307 C  
BRANCH   6   7
HETATM    7  C   UNL     1     -10.609  17.868  67.457  1.00  0.00    -0.386 C  
BRANCH   7   8
HETATM    8  C   UNL     1     -10.116  17.292  68.780  1.00  0.00    -0.337 C  
BRANCH   8   9
HETATM    9  C   UNL     1     -10.863  15.993  69.045  1.00  0.00    -0.283 C  
BRANCH   9  10
HETATM   10  C   UNL     1     -10.402  14.871  68.126  1.00  0.00    -0.237 C  
BRANCH  10  11
HETATM   11  N   UNL     1     -11.104  13.523  68.433  1.00  0.00    -0.259 N  
HETATM   12  C   UNL     1     -10.089  12.379  68.418  1.00  0.00    -0.217 C  
HETATM   13  C   UNL     1     -11.792  13.585  69.799  1.00  0.00    -0.329 C  
BRANCH  11  14
HETATM   14  C   UNL     1     -12.155  13.323  67.311  1.00  0.00    -0.289 C  
BRANCH  14  15
HETATM   15  C   UNL     1     -11.866  14.171  66.081  1.00  0.00    -0.420 C  
BRANCH  15  16
HETATM   16  C   UNL     1     -12.903  13.963  64.986  1.00  0.00    -0.309 C  
BRANCH  16  17
HETATM   17  C   UNL     1     -12.183  13.492  63.727  1.00  0.00    -0.449 C  
BRANCH  17  18
HETATM   18  C   UNL     1     -12.121  11.976  63.651  1.00  0.00    -0.627 C  
BRANCH  18  19
HETATM   19  C   UNL     1     -10.669  11.522  63.578  1.00  0.00    -0.483 C  
BRANCH  19  20
HETATM   20  C   UNL     1     -10.185  11.055  64.947  1.00  0.00    -0.373 C  
BRANCH  20  21
HETATM   21  C   UNL     1      -9.359   9.778  64.829  1.00  0.00    -0.327 C  
BRANCH  21  22
HETATM   22  C   UNL     1      -8.486   9.817  63.579  1.00  0.00    -0.184 C  
HETATM   23  C   UNL     1      -7.738   8.510  63.390  1.00  0.00    -0.139 C  
ENDBRANCH  21  22
ENDBRANCH  20  21
ENDBRANCH  19  20
ENDBRANCH  18  19
ENDBRANCH  17  18
ENDBRANCH  16  17
ENDBRANCH  15  16
ENDBRANCH  14  15
ENDBRANCH  11  14
ENDBRANCH  10  11
ENDBRANCH   9  10
ENDBRANCH   8   9
ENDBRANCH   7   8
ENDBRANCH   6   7
ENDBRANCH   5   6
ENDBRANCH   4   5
ENDBRANCH   3   4
ENDBRANCH   2   3
TORSDOF 18
ENDMDL
MODEL      201
REMARK 921   NORMALIZED FREE ENERGY PREDICTED BY IDOCK:   -3.00 KCAL/MOL
REMARK 922        TOTAL FREE ENERGY PREDICTED BY IDOCK:   -8.86 KCAL/MOL
REMARK 923 INTER-LIGAND FREE ENERGY PREDICTED BY IDOCK:   -6.21 KCAL/MOL
REMARK 924 INTRA-LIGAND FREE ENERGY PREDICTED BY IDOCK:   -2.64 KCAL/MOL
REMARK 927      BINDING AFFINITY PREDICTED BY RF-SCORE:    0.00 PKD
ROOT
HETATM    1  C   UNL     1      -9.912  15.304  66.835  1.00  0.00    -0.243 C  
HETATM    2  C   UNL     1     -11.241  14.706  66.411  1.00  0.00    -0.336 C  
ENDROOT
BRANCH   2   3
HETATM    3  C   UNL     1     -11.801  13.786  67.492  1.00  0.00    -0.422 C  
BRANCH   3   4
HETATM    4  C   UNL     1     -11.957  14.537  68.809  1.00  0.00    -0.315 C  
BRANCH   4   5
HETATM    5  C   UNL     1     -11.780  13.598  69.993  1.00  0.00    -0.319 C  
BRANCH   5   6
HETATM    6  C   UNL     1     -12.640  14.047  71.170  1.00  0.00    -0.445 C  
BRANCH   6   7
HETATM    7  C   UNL     1     -13.255  12.837  71.852  1.00  0.00    -0.511 C  
BRANCH   7   8
HETATM    8  C   UNL     1     -13.090  11.572  71.015  1.00  0.00    -0.102 C  
BRANCH   8   9
HETATM    9  C   UNL     1     -12.904  10.394  71.961  1.00  0.00    -0.447 C  
BRANCH   9  10
HETATM   10  C   UNL     1     -13.034   9.058  71.242  1.00  0.00    -0.230 C  
BRANCH  10  11
HETATM   11  N   UNL     1     -11.723   8.232  71.279  1.00  0.00    -0.279 N  
HETATM   12  C   UNL     1     -11.344   7.901  72.723  1.00  0.00    -0.393 C  
HETATM   13  C   UNL     1     -11.890   6.938  70.479  1.00  0.00    -0.333 C  
BRANCH  11  14
HETATM   14  C   UNL     1     -10.635   9.127  70.630  1.00  0.00    -0.246 C  
BRANCH  14  15
HETATM   15  C   UNL     1     -10.605   9.005  69.114  1.00  0.00    -0.219 C  
BRANCH  15  16
HETATM   16  C   UNL     1     -10.530  10.363  68.431  1.00  0.00    -0.216 C  
BRANCH  16  17
HETATM   17  C   UNL     1      -9.081  10.838  68.468  1.00  0.00    -0.170 C  
BRANCH  17  18
HETATM   18  C   UNL     1      -8.780  11.809  67.338  1.00  0.00    -0.162 C  
BRANCH  18  19
HETATM   19  C   UNL     1      -9.266  11.228  66.017  1.00  0.00    -0.224 C  
BRANCH  19  20
HETATM   20  C   UNL     1      -8.179  10.374  65.375  1.00  0.00    -0.159 C  
BRANCH  20  21
HETATM   21  C   UNL     1      -8.618   8.916  65.271  1.00  0.00    -0.209 C  
BRANCH  21  22
HETATM   22  C   UNL     1      -7.986   8.084  66.380  1.00  0.00    -0.102 C  
HETATM   23  C   UNL     1      -8.554   6.677  66.405  1.00  0.00    -0.130 C  
ENDBRANCH  21  22
ENDBRANCH  20  21
ENDBRANCH  19  20
ENDBRANCH  18  19
ENDBRANCH  17  18
ENDBRANCH  16  17
ENDBRANCH  15  16
ENDBRANCH  14  15
ENDBRANCH  11  14
ENDBRANCH  10  11
ENDBRANCH   9  10
ENDBRANCH   8   9
ENDBRANCH   7   8
ENDBRANCH   6   7
ENDBRANCH   5   6
ENDBRANCH   4   5
ENDBRANCH   3   4
ENDBRANCH   2   3
TORSDOF 18
ENDMDL
MODEL      202
REMARK 921   NORMALIZED FREE ENERGY PREDICTED BY IDOCK:   -2.99 KCAL/MOL
REMARK 922        TOTAL FREE ENERGY PREDICTED BY IDOCK:   -8.83 KCAL/MOL
REMARK 923 INTER-LIGAND FREE ENERGY PREDICTED BY IDOCK:   -6.67 KCAL/MOL
REMARK 924 INTRA-LIGAND FREE ENERGY PREDICTED BY IDOCK:   -2.16 KCAL/MOL
REMARK 927      BINDING AFFINITY PREDICTED BY RF-SCORE:    0.00 PKD
ROOT
HETATM    1  C   UNL     1      -9.146   5.297  65.409  1.00  0.00    -0.124 C  
HETATM    2  C   UNL     1     -10.243   4.802  66.333  1.00  0.00    -0.308 C  
ENDROOT
BRANCH   2   3
HETATM    3  C   UNL     1      -9.659   4.150  67.583  1.00  0.00    -0.213 C  
BRANCH   3   4
HETATM    4  C   UNL     1      -9.291   5.205  68.619  1.00  0.00    -0.164 C  
BRANCH   4   5
HETATM    5  C   UNL     1     -10.348   5.287  69.710  1.00  0.00    -0.369 C  
BRANCH   5   6
HETATM    6  C   UNL     1     -11.178   6.558  69.562  1.00  0.00    -0.434 C  
BRANCH   6   7
HETATM    7  C   UNL     1     -10.334   7.770  69.917  1.00  0.00    -0.223 C  
BRANCH   7   8
HETATM    8  C   UNL     1     -10.720   8.990  69.085  1.00  0.00    -0.176 C  
BRANCH   8   9
HETATM    9  C   UNL     1     -10.297   8.740  67.645  1.00  0.00    -0.317 C  
BRANCH   9  10
HETATM   10  C   UNL     1     -10.062  10.038  66.885  1.00  0.00    -0.229 C  
BRANCH  10  11
HETATM   11  N   UNL     1      -8.621  10.146  66.323  1.00  0.00    -0.129 N  
HETATM   12  C   UNL     1      -7.900  11.347  66.938  1.00  0.00    -0.158 C  
HETATM   13  C   UNL     1      -7.839   8.865  66.623  1.00  0.00    -0.100 C  
BRANCH  11  14
HETATM   14  C   UNL     1      -8.772  10.336  64.792  1.00  0.00    -0.188 C  
BRANCH  14  15
HETATM   15  C   UNL     1     -10.176  10.764  64.391  1.00  0.00    -0.432 C  
BRANCH  15  16
HETATM   16  C   UNL     1     -10.171  12.046  63.569  1.00  0.00    -0.477 C  
BRANCH  16  17
HETATM   17  C   UNL     1     -10.824  13.148  64.396  1.00  0.00    -0.417 C  
BRANCH  17  18
HETATM   18  C   UNL     1     -12.062  12.647  65.121  1.00  0.00    -0.508 C  
BRANCH  18  19
HETATM   19  C   UNL     1     -12.088  13.199  66.540  1.00  0.00    -0.423 C  
BRANCH  19  20
HETATM   20  C   UNL     1     -10.786  13.926  66.855  1.00  0.00    -0.284 C  
BRANCH  20  21
HETATM   21  C   UNL     1     -10.333  13.641  68.284  1.00  0.00    -0.251 C  
BRANCH  21  22
HETATM   22  C   UNL     1     -11.358  12.778  69.011  1.00  0.00    -0.346 C  
HETATM   23  C   UNL     1     -12.023  13.544  70.139  1.00  0.00    -0.399 C  
ENDBRANCH  21  22
ENDBRANCH  20  21
ENDBRANCH  19  20
ENDBRANCH  18  19
ENDBRANCH  17  18
ENDBRANCH  16  17
ENDBRANCH  15  16
ENDBRANCH  14  15
ENDBRANCH  11  14
ENDBRANCH  10  11
ENDBRANCH   9  10
ENDBRANCH   8   9
ENDBRANCH   7   8
ENDBRANCH   6   7
ENDBRANCH   5   6
ENDBRANCH   4   5
ENDBRANCH   3   4
ENDBRANCH   2   3
TORSDOF 18
ENDMDL
MODEL      203
REMARK 921   NORMALIZED FREE ENERGY PREDICTED BY IDOCK:   -2.98 KCAL/MOL
REMARK 922        TOTAL FREE ENERGY PREDICTED BY IDOCK:   -8.81 KCAL/MOL
REMARK 923 INTER-LIGAND FREE ENERGY PREDICTED BY IDOCK:   -7.03 KCAL/MOL
REMARK 924 INTRA-LIGAND FREE ENERGY PREDICTED BY IDOCK:   -1.77 KCAL/MOL
REMARK 927      BINDING AFFINITY PREDICTED BY RF-SCORE:    0.00 PKD
ROOT
HETATM    1  C   UNL     1      -9.707   3.929  71.960  1.00  0.00    -0.232 C  
HETATM    2  C   UNL     1      -9.829   2.731  71.037  1.00  0.00    -0.056 C  
ENDROOT
BRANCH   2   3
HETATM    3  C   UNL     1      -8.510   2.446  70.324  1.00  0.00    -0.087 C  
BRANCH   3   4
HETATM    4  C   UNL     1      -8.185   3.557  69.332  1.00  0.00    -0.069 C  
BRANCH   4   5
HETATM    5  C   UNL     1      -9.282   3.691  68.287  1.00  0.00    -0.218 C  
BRANCH   5   6
HETATM    6  C   UNL     1      -9.059   4.931  67.427  1.00  0.00    -0.124 C  
BRANCH   6   7
HETATM    7  C   UNL     1      -9.464   6.175  68.199  1.00  0.00    -0.113 C  
BRANCH   7   8
HETATM    8  C   UNL     1     -10.979   6.282  68.341  1.00  0.00    -0.409 C  
BRANCH   8   9
HETATM    9  C   UNL     1     -11.314   6.391  69.822  1.00  0.00    -0.494 C  
BRANCH   9  10
HETATM   10  C   UNL     1     -10.756   7.665  70.441  1.00  0.00    -0.236 C  
BRANCH  10  11
HETATM   11  N   UNL     1     -11.596   8.158  71.648  1.00  0.00    -0.266 N  
HETATM   12  C   UNL     1     -12.987   7.524  71.620  1.00  0.00    -0.358 C  
HETATM   13  C   UNL     1     -10.893   7.806  72.961  1.00  0.00    -0.389 C  
BRANCH  11  14
HETATM   14  C   UNL     1     -11.704   9.697  71.493  1.00  0.00    -0.400 C  
BRANCH  14  15
HETATM   15  C   UNL     1     -11.207  10.186  70.140  1.00  0.00    -0.377 C  
BRANCH  15  16
HETATM   16  C   UNL     1     -12.031  11.354  69.616  1.00  0.00    -0.416 C  
BRANCH  16  17
HETATM   17  C   UNL     1     -11.591  11.646  68.185  1.00  0.00    -0.389 C  
BRANCH  17  18
HETATM   18  C   UNL     1     -10.903  10.448  67.554  1.00  0.00    -0.358 C  
BRANCH  18  19
HETATM   19  C   UNL     1     -10.394  10.816  66.167  1.00  0.00    -0.300 C  
BRANCH  19  20
HETATM   20  C   UNL     1     -11.084  12.079  65.662  1.00  0.00    -0.361 C  
BRANCH  20  21
HETATM   21  C   UNL     1     -11.615  11.882  64.245  1.00  0.00    -0.405 C  
BRANCH  21  22
HETATM   22  C   UNL     1     -11.828  13.227  63.559  1.00  0.00    -0.477 C  
HETATM   23  C   UNL     1     -12.114  14.322  64.571  1.00  0.00    -0.499 C  
ENDBRANCH  21  22
ENDBRANCH  20  21
ENDBRANCH  19  20
ENDBRANCH  18  19
ENDBRANCH  17  18
ENDBRANCH  16  17
ENDBRANCH  15  16
ENDBRANCH  14  15
ENDBRANCH  11  14
ENDBRANCH  10  11
ENDBRANCH   9  10
ENDBRANCH   8   9
ENDBRANCH   7   8
ENDBRANCH   6   7
ENDBRANCH   5   6
ENDBRANCH   4   5
ENDBRANCH   3   4
ENDBRANCH   2   3
TORSDOF 18
ENDMDL
MODEL      204
REMARK 921   NORMALIZED FREE ENERGY PREDICTED BY IDOCK:   -2.97 KCAL/MOL
REMARK 922        TOTAL FREE ENERGY PREDICTED BY IDOCK:   -8.80 KCAL/MOL
REMARK 923 INTER-LIGAND FREE ENERGY PREDICTED BY IDOCK:   -6.05 KCAL/MOL
REMARK 924 INTRA-LIGAND FREE ENERGY PREDICTED BY IDOCK:   -2.75 KCAL/MOL
REMARK 927      BINDING AFFINITY PREDICTED BY RF-SCORE:    0.00 PKD
ROOT
HETATM    1  C   UNL     1     -12.885  11.057  71.458  1.00  0.00    -0.555 C  
HETATM    2  C   UNL     1     -12.423   9.644  71.156  1.00  0.00    -0.421 C  
ENDROOT
BRANCH   2   3
HETATM    3  C   UNL     1     -10.929   9.483  71.424  1.00  0.00    -0.415 C  
BRANCH   3   4
HETATM    4  C   UNL     1     -10.591   8.028  71.729  1.00  0.00    -0.296 C  
BRANCH   4   5
HETATM    5  C   UNL     1     -10.624   7.185  70.463  1.00  0.00    -0.243 C  
BRANCH   5   6
HETATM    6  C   UNL     1      -9.214   6.970  69.923  1.00  0.00    -0.144 C  
BRANCH   6   7
HETATM    7  C   UNL     1      -9.190   7.227  68.425  1.00  0.00    -0.137 C  
BRANCH   7   8
HETATM    8  C   UNL     1     -10.312   8.166  67.995  1.00  0.00    -0.267 C  
BRANCH   8   9
HETATM    9  C   UNL     1     -10.031   8.627  66.572  1.00  0.00    -0.353 C  
BRANCH   9  10
HETATM   10  C   UNL     1      -8.762   8.000  66.009  1.00  0.00    -0.157 C  
BRANCH  10  11
HETATM   11  N   UNL     1      -7.938   8.995  65.151  1.00  0.00    -0.114 N  
HETATM   12  C   UNL     1      -6.442   8.798  65.400  1.00  0.00    -0.067 C  
HETATM   13  C   UNL     1      -8.246   8.791  63.665  1.00  0.00    -0.163 C  
BRANCH  11  14
HETATM   14  C   UNL     1      -8.376  10.413  65.600  1.00  0.00    -0.163 C  
BRANCH  14  15
HETATM   15  C   UNL     1      -7.371  11.065  66.538  1.00  0.00    -0.144 C  
BRANCH  15  16
HETATM   16  C   UNL     1      -8.016  11.528  67.836  1.00  0.00    -0.126 C  
BRANCH  16  17
HETATM   17  C   UNL     1      -8.320  13.018  67.718  1.00  0.00    -0.175 C  
BRANCH  17  18
HETATM   18  C   UNL     1      -9.626  13.380  68.402  1.00  0.00    -0.188 C  
BRANCH  18  19
HETATM   19  C   UNL     1     -10.477  12.130  68.586  1.00  0.00    -0.237 C  
BRANCH  19  20
HETATM   20  C   UNL     1     -11.735  12.208  67.728  1.00  0.00    -0.390 C  
BRANCH  20  21
HETATM   21  C   UNL     1     -11.948  13.622  67.198  1.00  0.00    -0.434 C  
BRANCH  21  22
HETATM   22  C   UNL     1     -12.155  13.604  65.687  1.00  0.00    -0.457 C  
HETATM   23  C   UNL     1     -11.841  12.239  65.104  1.00  0.00    -0.404 C  
ENDBRANCH  21  22
ENDBRANCH  20  21
ENDBRANCH  19  20
ENDBRANCH  18  19
ENDBRANCH  17  18
ENDBRANCH  16  17
ENDBRANCH  15  16
ENDBRANCH  14  15
ENDBRANCH  11  14
ENDBRANCH  10  11
ENDBRANCH   9  10
ENDBRANCH   8   9
ENDBRANCH   7   8
ENDBRANCH   6   7
ENDBRANCH   5   6
ENDBRANCH   4   5
ENDBRANCH   3   4
ENDBRANCH   2   3
TORSDOF 18
ENDMDL
MODEL      205
REMARK 921   NORMALIZED FREE ENERGY PREDICTED BY IDOCK:   -2.95 KCAL/MOL
REMARK 922        TOTAL FREE ENERGY PREDICTED BY IDOCK:   -8.76 KCAL/MOL
REMARK 923 INTER-LIGAND FREE ENERGY PREDICTED BY IDOCK:   -7.22 KCAL/MOL
REMARK 924 INTRA-LIGAND FREE ENERGY PREDICTED BY IDOCK:   -1.55 KCAL/MOL
REMARK 927      BINDING AFFINITY PREDICTED BY RF-SCORE:    0.00 PKD
ROOT
HETATM    1  C   UNL     1     -11.490   6.476  70.675  1.00  0.00    -0.433 C  
HETATM    2  C   UNL     1     -10.398   7.524  70.776  1.00  0.00    -0.205 C  
ENDROOT
BRANCH   2   3
HETATM    3  C   UNL     1     -10.709   8.732  69.897  1.00  0.00    -0.228 C  
BRANCH   3   4
HETATM    4  C   UNL     1     -10.444   8.412  68.430  1.00  0.00    -0.208 C  
BRANCH   4   5
HETATM    5  C   UNL     1      -8.950   8.336  68.152  1.00  0.00    -0.139 C  
BRANCH   5   6
HETATM    6  C   UNL     1      -8.591   9.147  66.911  1.00  0.00    -0.129 C  
BRANCH   6   7
HETATM    7  C   UNL     1      -9.815   9.305  66.026  1.00  0.00    -0.363 C  
BRANCH   7   8
HETATM    8  C   UNL     1      -9.752  10.585  65.198  1.00  0.00    -0.341 C  
BRANCH   8   9
HETATM    9  C   UNL     1      -9.662  11.767  66.153  1.00  0.00    -0.250 C  
BRANCH   9  10
HETATM   10  C   UNL     1     -10.148  13.059  65.510  1.00  0.00    -0.259 C  
BRANCH  10  11
HETATM   11  N   UNL     1     -11.339  13.693  66.274  1.00  0.00    -0.306 N  
HETATM   12  C   UNL     1     -12.552  13.825  65.352  1.00  0.00    -0.497 C  
HETATM   13  C   UNL     1     -11.704  12.837  67.489  1.00  0.00    -0.364 C  
BRANCH  11  14
HETATM   14  C   UNL     1     -10.856  15.094  66.731  1.00  0.00    -0.322 C  
BRANCH  14  15
HETATM   15  C   UNL     1      -9.347  15.164  66.909  1.00  0.00    -0.251 C  
BRANCH  15  16
HETATM   16  C   UNL     1      -8.941  15.124  68.376  1.00  0.00    -0.183 C  
BRANCH  16  17
HETATM   17  C   UNL     1      -8.862  16.557  68.891  1.00  0.00    -0.244 C  
BRANCH  17  18
HETATM   18  C   UNL     1      -7.652  17.287  68.334  1.00  0.00    -0.241 C  
BRANCH  18  19
HETATM   19  C   UNL     1      -7.725  18.763  68.703  1.00  0.00    -0.358 C  
BRANCH  19  20
HETATM   20  C   UNL     1      -8.087  19.602  67.482  1.00  0.00    -0.333 C  
BRANCH  20  21
HETATM   21  C   UNL     1      -9.473  20.223  67.637  1.00  0.00    -0.507 C  
BRANCH  21  22
HETATM   22  C   UNL     1     -10.278  20.067  66.352  1.00  0.00    -0.598 C  
HETATM   23  C   UNL     1     -10.435  18.606  65.974  1.00  0.00    -0.456 C  
ENDBRANCH  21  22
ENDBRANCH  20  21
ENDBRANCH  19  20
ENDBRANCH  18  19
ENDBRANCH  17  18
ENDBRANCH  16  17
ENDBRANCH  15  16
ENDBRANCH  14  15
ENDBRANCH  11  14
ENDBRANCH  10  11
ENDBRANCH   9  10
ENDBRANCH   8   9
ENDBRANCH   7   8
ENDBRANCH   6   7
ENDBRANCH   5   6
ENDBRANCH   4   5
ENDBRANCH   3   4
ENDBRANCH   2   3
TORSDOF 18
ENDMDL
MODEL      206
REMARK 921   NORMALIZED FREE ENERGY PREDICTED BY IDOCK:   -2.95 KCAL/MOL
REMARK 922        TOTAL FREE ENERGY PREDICTED BY IDOCK:   -8.76 KCAL/MOL
REMARK 923 INTER-LIGAND FREE ENERGY PREDICTED BY IDOCK:   -6.78 KCAL/MOL
REMARK 924 INTRA-LIGAND FREE ENERGY PREDICTED BY IDOCK:   -1.98 KCAL/MOL
REMARK 927      BINDING AFFINITY PREDICTED BY RF-SCORE:    0.00 PKD
ROOT
HETATM    1  C   UNL     1     -10.897   8.705  72.078  1.00  0.00    -0.430 C  
HETATM    2  C   UNL     1     -10.929   7.288  71.537  1.00  0.00    -0.259 C  
ENDROOT
BRANCH   2   3
HETATM    3  C   UNL     1     -10.041   7.148  70.304  1.00  0.00    -0.195 C  
BRANCH   3   4
HETATM    4  C   UNL     1     -10.666   7.856  69.108  1.00  0.00    -0.130 C  
BRANCH   4   5
HETATM    5  C   UNL     1      -9.761   8.970  68.603  1.00  0.00    -0.168 C  
BRANCH   5   6
HETATM    6  C   UNL     1     -10.581  10.063  67.924  1.00  0.00    -0.298 C  
BRANCH   6   7
HETATM    7  C   UNL     1     -11.278  10.913  68.973  1.00  0.00    -0.327 C  
BRANCH   7   8
HETATM    8  C   UNL     1     -11.786  12.227  68.389  1.00  0.00    -0.390 C  
BRANCH   8   9
HETATM    9  C   UNL     1     -11.051  12.484  67.081  1.00  0.00    -0.321 C  
BRANCH   9  10
HETATM   10  C   UNL     1     -12.005  12.840  65.949  1.00  0.00    -0.449 C  
BRANCH  10  11
HETATM   11  N   UNL     1     -11.267  13.128  64.617  1.00  0.00    -0.325 N  
HETATM   12  C   UNL     1     -10.486  11.894  64.164  1.00  0.00    -0.349 C  
HETATM   13  C   UNL     1     -12.269  13.531  63.533  1.00  0.00    -0.346 C  
BRANCH  11  14
HETATM   14  C   UNL     1     -10.295  14.301  64.911  1.00  0.00    -0.401 C  
BRANCH  14  15
HETATM   15  C   UNL     1     -11.011  15.638  65.026  1.00  0.00    -0.445 C  
BRANCH  15  16
HETATM   16  C   UNL     1     -10.219  16.642  65.852  1.00  0.00    -0.358 C  
BRANCH  16  17
HETATM   17  C   UNL     1     -10.855  16.732  67.235  1.00  0.00    -0.137 C  
BRANCH  17  18
HETATM   18  C   UNL     1     -10.326  17.922  68.019  1.00  0.00    -0.394 C  
BRANCH  18  19
HETATM   19  C   UNL     1      -9.015  18.400  67.408  1.00  0.00    -0.265 C  
BRANCH  19  20
HETATM   20  C   UNL     1      -7.856  18.147  68.366  1.00  0.00    -0.306 C  
BRANCH  20  21
HETATM   21  C   UNL     1      -7.113  16.866  67.999  1.00  0.00    -0.163 C  
BRANCH  21  22
HETATM   22  C   UNL     1      -7.303  15.806  69.078  1.00  0.00    -0.177 C  
HETATM   23  C   UNL     1      -8.062  14.606  68.543  1.00  0.00    -0.146 C  
ENDBRANCH  21  22
ENDBRANCH  20  21
ENDBRANCH  19  20
ENDBRANCH  18  19
ENDBRANCH  17  18
ENDBRANCH  16  17
ENDBRANCH  15  16
ENDBRANCH  14  15
ENDBRANCH  11  14
ENDBRANCH  10  11
ENDBRANCH   9  10
ENDBRANCH   8   9
ENDBRANCH   7   8
ENDBRANCH   6   7
ENDBRANCH   5   6
ENDBRANCH   4   5
ENDBRANCH   3   4
ENDBRANCH   2   3
TORSDOF 18
ENDMDL
MODEL      207
REMARK 921   NORMALIZED FREE ENERGY PREDICTED BY IDOCK:   -2.95 KCAL/MOL
REMARK 922        TOTAL FREE ENERGY PREDICTED BY IDOCK:   -8.76 KCAL/MOL
REMARK 923 INTER-LIGAND FREE ENERGY PREDICTED BY IDOCK:   -6.55 KCAL/MOL
REMARK 924 INTRA-LIGAND FREE ENERGY PREDICTED BY IDOCK:   -2.21 KCAL/MOL
REMARK 927      BINDING AFFINITY PREDICTED BY RF-SCORE:    0.00 PKD
ROOT
HETATM    1  C   UNL     1     -12.038  12.876  63.470  1.00  0.00    -0.633 C  
HETATM    2  C   UNL     1     -12.522  12.477  64.851  1.00  0.00    -0.524 C  
ENDROOT
BRANCH   2   3
HETATM    3  C   UNL     1     -12.326  13.610  65.854  1.00  0.00    -0.516 C  
BRANCH   3   4
HETATM    4  C   UNL     1     -11.733  13.080  67.154  1.00  0.00    -0.439 C  
BRANCH   4   5
HETATM    5  C   UNL     1     -11.025  11.752  66.928  1.00  0.00    -0.333 C  
BRANCH   5   6
HETATM    6  C   UNL     1     -11.264  10.807  68.101  1.00  0.00    -0.365 C  
BRANCH   6   7
HETATM    7  C   UNL     1     -11.992  11.540  69.215  1.00  0.00    -0.397 C  
BRANCH   7   8
HETATM    8  C   UNL     1     -11.886  10.797  70.543  1.00  0.00    -0.453 C  
BRANCH   8   9
HETATM    9  C   UNL     1     -11.323   9.410  70.270  1.00  0.00    -0.261 C  
BRANCH   9  10
HETATM   10  C   UNL     1     -11.271   8.556  71.530  1.00  0.00    -0.279 C  
BRANCH  10  11
HETATM   11  N   UNL     1     -11.981   7.189  71.353  1.00  0.00    -0.308 N  
HETATM   12  C   UNL     1     -13.479   7.329  71.624  1.00  0.00    -0.354 C  
HETATM   13  C   UNL     1     -11.760   6.659  69.933  1.00  0.00    -0.270 C  
BRANCH  11  14
HETATM   14  C   UNL     1     -11.334   6.234  72.389  1.00  0.00    -0.292 C  
BRANCH  14  15
HETATM   15  C   UNL     1      -9.821   6.383  72.457  1.00  0.00    -0.175 C  
BRANCH  15  16
HETATM   16  C   UNL     1      -9.112   5.037  72.449  1.00  0.00    -0.146 C  
BRANCH  16  17
HETATM   17  C   UNL     1      -8.528   4.811  71.058  1.00  0.00    -0.118 C  
BRANCH  17  18
HETATM   18  C   UNL     1      -8.233   6.124  70.354  1.00  0.00    -0.117 C  
BRANCH  18  19
HETATM   19  C   UNL     1      -8.058   5.881  68.861  1.00  0.00    -0.103 C  
BRANCH  19  20
HETATM   20  C   UNL     1      -7.472   7.115  68.183  1.00  0.00    -0.099 C  
BRANCH  20  21
HETATM   21  C   UNL     1      -8.374   8.329  68.382  1.00  0.00    -0.132 C  
BRANCH  21  22
HETATM   22  C   UNL     1      -7.550   9.555  68.759  1.00  0.00    -0.076 C  
HETATM   23  C   UNL     1      -7.754   9.929  70.215  1.00  0.00    -0.160 C  
ENDBRANCH  21  22
ENDBRANCH  20  21
ENDBRANCH  19  20
ENDBRANCH  18  19
ENDBRANCH  17  18
ENDBRANCH  16  17
ENDBRANCH  15  16
ENDBRANCH  14  15
ENDBRANCH  11  14
ENDBRANCH  10  11
ENDBRANCH   9  10
ENDBRANCH   8   9
ENDBRANCH   7   8
ENDBRANCH   6   7
ENDBRANCH   5   6
ENDBRANCH   4   5
ENDBRANCH   3   4
ENDBRANCH   2   3
TORSDOF 18
ENDMDL
MODEL      208
REMARK 921   NORMALIZED FREE ENERGY PREDICTED BY IDOCK:   -2.95 KCAL/MOL
REMARK 922        TOTAL FREE ENERGY PREDICTED BY IDOCK:   -8.76 KCAL/MOL
REMARK 923 INTER-LIGAND FREE ENERGY PREDICTED BY IDOCK:   -5.89 KCAL/MOL
REMARK 924 INTRA-LIGAND FREE ENERGY PREDICTED BY IDOCK:   -2.86 KCAL/MOL
REMARK 927      BINDING AFFINITY PREDICTED BY RF-SCORE:    0.00 PKD
ROOT
HETATM    1  C   UNL     1      -9.580   7.934  72.672  1.00  0.00    -0.290 C  
HETATM    2  C   UNL     1     -10.473   8.844  71.850  1.00  0.00    -0.415 C  
ENDROOT
BRANCH   2   3
HETATM    3  C   UNL     1     -10.910   8.165  70.555  1.00  0.00    -0.247 C  
BRANCH   3   4
HETATM    4  C   UNL     1     -10.094   8.680  69.376  1.00  0.00    -0.204 C  
BRANCH   4   5
HETATM    5  C   UNL     1      -9.470  10.031  69.695  1.00  0.00    -0.247 C  
BRANCH   5   6
HETATM    6  C   UNL     1      -7.951   9.963  69.579  1.00  0.00    -0.149 C  
BRANCH   6   7
HETATM    7  C   UNL     1      -7.442  11.140  68.764  1.00  0.00    -0.118 C  
BRANCH   7   8
HETATM    8  C   UNL     1      -6.274  10.742  67.867  1.00  0.00    -0.054 C  
BRANCH   8   9
HETATM    9  C   UNL     1      -6.612  11.140  66.438  1.00  0.00    -0.108 C  
BRANCH   9  10
HETATM   10  C   UNL     1      -6.684   9.934  65.511  1.00  0.00    -0.094 C  
BRANCH  10  11
HETATM   11  N   UNL     1      -8.134   9.612  65.065  1.00  0.00    -0.121 N  
HETATM   12  C   UNL     1      -8.162   9.227  63.585  1.00  0.00    -0.166 C  
HETATM   13  C   UNL     1      -8.705   8.469  65.907  1.00  0.00    -0.174 C  
BRANCH  11  14
HETATM   14  C   UNL     1      -8.951  10.910  65.298  1.00  0.00    -0.186 C  
BRANCH  14  15
HETATM   15  C   UNL     1     -10.428  10.636  65.541  1.00  0.00    -0.246 C  
BRANCH  15  16
HETATM   16  C   UNL     1     -11.098  11.758  66.320  1.00  0.00    -0.364 C  
BRANCH  16  17
HETATM   17  C   UNL     1     -10.013  12.694  66.843  1.00  0.00    -0.232 C  
BRANCH  17  18
HETATM   18  C   UNL     1     -10.380  13.279  68.196  1.00  0.00    -0.246 C  
BRANCH  18  19
HETATM   19  C   UNL     1     -11.766  12.797  68.606  1.00  0.00    -0.360 C  
BRANCH  19  20
HETATM   20  C   UNL     1     -11.914  12.825  70.124  1.00  0.00    -0.371 C  
BRANCH  20  21
HETATM   21  C   UNL     1     -12.525  11.525  70.637  1.00  0.00    -0.405 C  
BRANCH  21  22
HETATM   22  C   UNL     1     -13.051  11.702  72.057  1.00  0.00    -0.433 C  
HETATM   23  C   UNL     1     -13.483  13.134  72.310  1.00  0.00    -0.665 C  
ENDBRANCH  21  22
ENDBRANCH  20  21
ENDBRANCH  19  20
ENDBRANCH  18  19
ENDBRANCH  17  18
ENDBRANCH  16  17
ENDBRANCH  15  16
ENDBRANCH  14  15
ENDBRANCH  11  14
ENDBRANCH  10  11
ENDBRANCH   9  10
ENDBRANCH   8   9
ENDBRANCH   7   8
ENDBRANCH   6   7
ENDBRANCH   5   6
ENDBRANCH   4   5
ENDBRANCH   3   4
ENDBRANCH   2   3
TORSDOF 18
ENDMDL
MODEL      209
REMARK 921   NORMALIZED FREE ENERGY PREDICTED BY IDOCK:   -2.95 KCAL/MOL
REMARK 922        TOTAL FREE ENERGY PREDICTED BY IDOCK:   -8.75 KCAL/MOL
REMARK 923 INTER-LIGAND FREE ENERGY PREDICTED BY IDOCK:   -7.16 KCAL/MOL
REMARK 924 INTRA-LIGAND FREE ENERGY PREDICTED BY IDOCK:   -1.60 KCAL/MOL
REMARK 927      BINDING AFFINITY PREDICTED BY RF-SCORE:    0.00 PKD
ROOT
HETATM    1  C   UNL     1      -8.991   5.818  65.936  1.00  0.00    -0.158 C  
HETATM    2  C   UNL     1     -10.143   4.990  66.474  1.00  0.00    -0.278 C  
ENDROOT
BRANCH   2   3
HETATM    3  C   UNL     1      -9.730   4.216  67.722  1.00  0.00    -0.168 C  
BRANCH   3   4
HETATM    4  C   UNL     1      -9.327   5.171  68.839  1.00  0.00    -0.168 C  
BRANCH   4   5
HETATM    5  C   UNL     1     -10.423   5.271  69.890  1.00  0.00    -0.351 C  
BRANCH   5   6
HETATM    6  C   UNL     1     -11.137   6.616  69.797  1.00  0.00    -0.398 C  
BRANCH   6   7
HETATM    7  C   UNL     1     -10.118   7.741  69.753  1.00  0.00    -0.194 C  
BRANCH   7   8
HETATM    8  C   UNL     1     -10.754   9.064  69.337  1.00  0.00    -0.202 C  
BRANCH   8   9
HETATM    9  C   UNL     1     -10.658   9.185  67.823  1.00  0.00    -0.289 C  
BRANCH   9  10
HETATM   10  C   UNL     1     -10.859  10.618  67.350  1.00  0.00    -0.296 C  
BRANCH  10  11
HETATM   11  N   UNL     1      -9.579  11.221  66.717  1.00  0.00    -0.190 N  
HETATM   12  C   UNL     1      -8.735  11.917  67.785  1.00  0.00    -0.158 C  
HETATM   13  C   UNL     1      -8.755  10.122  66.042  1.00  0.00    -0.140 C  
BRANCH  11  14
HETATM   14  C   UNL     1     -10.067  12.249  65.663  1.00  0.00    -0.252 C  
BRANCH  14  15
HETATM   15  C   UNL     1     -11.254  13.067  66.150  1.00  0.00    -0.320 C  
BRANCH  15  16
HETATM   16  C   UNL     1     -10.908  14.540  66.311  1.00  0.00    -0.317 C  
BRANCH  16  17
HETATM   17  C   UNL     1     -11.076  14.915  67.780  1.00  0.00    -0.313 C  
BRANCH  17  18
HETATM   18  C   UNL     1     -12.136  14.063  68.458  1.00  0.00    -0.329 C  
BRANCH  18  19
HETATM   19  C   UNL     1     -11.889  14.031  69.960  1.00  0.00    -0.388 C  
BRANCH  19  20
HETATM   20  C   UNL     1     -12.477  15.271  70.625  1.00  0.00    -0.458 C  
BRANCH  20  21
HETATM   21  C   UNL     1     -13.729  14.923  71.423  1.00  0.00    -0.527 C  
BRANCH  21  22
HETATM   22  C   UNL     1     -13.357  14.405  72.808  1.00  0.00    -0.606 C  
HETATM   23  C   UNL     1     -12.307  15.285  73.461  1.00  0.00    -0.653 C  
ENDBRANCH  21  22
ENDBRANCH  20  21
ENDBRANCH  19  20
ENDBRANCH  18  19
ENDBRANCH  17  18
ENDBRANCH  16  17
ENDBRANCH  15  16
ENDBRANCH  14  15
ENDBRANCH  11  14
ENDBRANCH  10  11
ENDBRANCH   9  10
ENDBRANCH   8   9
ENDBRANCH   7   8
ENDBRANCH   6   7
ENDBRANCH   5   6
ENDBRANCH   4   5
ENDBRANCH   3   4
ENDBRANCH   2   3
TORSDOF 18
ENDMDL
MODEL      210
REMARK 921   NORMALIZED FREE ENERGY PREDICTED BY IDOCK:   -2.95 KCAL/MOL
REMARK 922        TOTAL FREE ENERGY PREDICTED BY IDOCK:   -8.75 KCAL/MOL
REMARK 923 INTER-LIGAND FREE ENERGY PREDICTED BY IDOCK:   -7.00 KCAL/MOL
REMARK 924 INTRA-LIGAND FREE ENERGY PREDICTED BY IDOCK:   -1.75 KCAL/MOL
REMARK 927      BINDING AFFINITY PREDICTED BY RF-SCORE:    0.00 PKD
ROOT
HETATM    1  C   UNL     1      -8.305   8.944  67.450  1.00  0.00    -0.108 C  
HETATM    2  C   UNL     1      -8.988   7.644  67.834  1.00  0.00    -0.128 C  
ENDROOT
BRANCH   2   3
HETATM    3  C   UNL     1     -10.426   7.888  68.280  1.00  0.00    -0.212 C  
BRANCH   3   4
HETATM    4  C   UNL     1     -10.718   7.149  69.581  1.00  0.00    -0.256 C  
BRANCH   4   5
HETATM    5  C   UNL     1     -10.490   8.055  70.783  1.00  0.00    -0.221 C  
BRANCH   5   6
HETATM    6  C   UNL     1     -11.819   8.537  71.354  1.00  0.00    -0.345 C  
BRANCH   6   7
HETATM    7  C   UNL     1     -11.841  10.055  71.404  1.00  0.00    -0.447 C  
BRANCH   7   8
HETATM    8  C   UNL     1     -12.403  10.654  70.119  1.00  0.00    -0.370 C  
BRANCH   8   9
HETATM    9  C   UNL     1     -11.284  11.407  69.413  1.00  0.00    -0.333 C  
BRANCH   9  10
HETATM   10  C   UNL     1     -11.773  12.709  68.794  1.00  0.00    -0.323 C  
BRANCH  10  11
HETATM   11  N   UNL     1     -11.251  12.914  67.348  1.00  0.00    -0.277 N  
HETATM   12  C   UNL     1     -11.045  11.563  66.662  1.00  0.00    -0.295 C  
HETATM   13  C   UNL     1     -12.243  13.757  66.543  1.00  0.00    -0.430 C  
BRANCH  11  14
HETATM   14  C   UNL     1      -9.899  13.660  67.484  1.00  0.00    -0.227 C  
BRANCH  14  15
HETATM   15  C   UNL     1      -9.540  14.453  66.236  1.00  0.00    -0.321 C  
BRANCH  15  16
HETATM   16  C   UNL     1      -9.231  15.909  66.552  1.00  0.00    -0.310 C  
BRANCH  16  17
HETATM   17  C   UNL     1      -9.696  16.200  67.976  1.00  0.00    -0.229 C  
BRANCH  17  18
HETATM   18  C   UNL     1     -10.760  17.284  68.007  1.00  0.00    -0.367 C  
BRANCH  18  19
HETATM   19  C   UNL     1     -10.151  18.591  68.499  1.00  0.00    -0.414 C  
BRANCH  19  20
HETATM   20  C   UNL     1      -9.786  19.488  67.321  1.00  0.00    -0.450 C  
BRANCH  20  21
HETATM   21  C   UNL     1      -8.362  20.019  67.460  1.00  0.00    -0.381 C  
BRANCH  21  22
HETATM   22  C   UNL     1      -7.556  19.151  68.420  1.00  0.00    -0.347 C  
HETATM   23  C   UNL     1      -6.174  18.855  67.867  1.00  0.00    -0.207 C  
ENDBRANCH  21  22
ENDBRANCH  20  21
ENDBRANCH  19  20
ENDBRANCH  18  19
ENDBRANCH  17  18
ENDBRANCH  16  17
ENDBRANCH  15  16
ENDBRANCH  14  15
ENDBRANCH  11  14
ENDBRANCH  10  11
ENDBRANCH   9  10
ENDBRANCH   8   9
ENDBRANCH   7   8
ENDBRANCH   6   7
ENDBRANCH   5   6
ENDBRANCH   4   5
ENDBRANCH   3   4
ENDBRANCH   2   3
TORSDOF 18
ENDMDL
MODEL      211
REMARK 921   NORMALIZED FREE ENERGY PREDICTED BY IDOCK:   -2.94 KCAL/MOL
REMARK 922        TOTAL FREE ENERGY PREDICTED BY IDOCK:   -8.74 KCAL/MOL
REMARK 923 INTER-LIGAND FREE ENERGY PREDICTED BY IDOCK:   -6.94 KCAL/MOL
REMARK 924 INTRA-LIGAND FREE ENERGY PREDICTED BY IDOCK:   -1.80 KCAL/MOL
REMARK 927      BINDING AFFINITY PREDICTED BY RF-SCORE:    0.00 PKD
ROOT
HETATM    1  C   UNL     1     -12.759  15.428  70.582  1.00  0.00    -0.490 C  
HETATM    2  C   UNL     1     -11.864  15.503  69.359  1.00  0.00    -0.392 C  
ENDROOT
BRANCH   2   3
HETATM    3  C   UNL     1     -10.401  15.677  69.755  1.00  0.00    -0.309 C  
BRANCH   3   4
HETATM    4  C   UNL     1      -9.616  16.349  68.634  1.00  0.00    -0.240 C  
BRANCH   4   5
HETATM    5  C   UNL     1     -10.540  16.768  67.500  1.00  0.00    -0.309 C  
BRANCH   5   6
HETATM    6  C   UNL     1      -9.898  16.476  66.147  1.00  0.00    -0.355 C  
BRANCH   6   7
HETATM    7  C   UNL     1     -10.866  15.696  65.274  1.00  0.00    -0.420 C  
BRANCH   7   8
HETATM    8  C   UNL     1     -10.421  14.248  65.092  1.00  0.00    -0.432 C  
BRANCH   8   9
HETATM    9  C   UNL     1     -10.951  13.435  66.264  1.00  0.00    -0.296 C  
BRANCH   9  10
HETATM   10  C   UNL     1      -9.834  12.732  67.024  1.00  0.00    -0.231 C  
BRANCH  10  11
HETATM   11  N   UNL     1     -10.003  11.191  67.040  1.00  0.00    -0.189 N  
HETATM   12  C   UNL     1     -11.267  10.803  67.808  1.00  0.00    -0.316 C  
HETATM   13  C   UNL     1     -10.082  10.652  65.609  1.00  0.00    -0.272 C  
BRANCH  11  14
HETATM   14  C   UNL     1      -8.747  10.630  67.755  1.00  0.00    -0.129 C  
BRANCH  14  15
HETATM   15  C   UNL     1      -9.051   9.394  68.589  1.00  0.00    -0.132 C  
BRANCH  15  16
HETATM   16  C   UNL     1      -8.235   8.189  68.143  1.00  0.00    -0.129 C  
BRANCH  16  17
HETATM   17  C   UNL     1      -8.941   7.544  66.955  1.00  0.00    -0.143 C  
BRANCH  17  18
HETATM   18  C   UNL     1     -10.416   7.316  67.236  1.00  0.00    -0.380 C  
BRANCH  18  19
HETATM   19  C   UNL     1     -10.608   5.974  67.929  1.00  0.00    -0.337 C  
BRANCH  19  20
HETATM   20  C   UNL     1     -11.159   6.173  69.337  1.00  0.00    -0.479 C  
BRANCH  20  21
HETATM   21  C   UNL     1     -10.136   5.751  70.388  1.00  0.00    -0.271 C  
BRANCH  21  22
HETATM   22  C   UNL     1     -10.661   6.030  71.792  1.00  0.00    -0.294 C  
HETATM   23  C   UNL     1     -12.015   6.715  71.748  1.00  0.00    -0.391 C  
ENDBRANCH  21  22
ENDBRANCH  20  21
ENDBRANCH  19  20
ENDBRANCH  18  19
ENDBRANCH  17  18
ENDBRANCH  16  17
ENDBRANCH  15  16
ENDBRANCH  14  15
ENDBRANCH  11  14
ENDBRANCH  10  11
ENDBRANCH   9  10
ENDBRANCH   8   9
ENDBRANCH   7   8
ENDBRANCH   6   7
ENDBRANCH   5   6
ENDBRANCH   4   5
ENDBRANCH   3   4
ENDBRANCH   2   3
TORSDOF 18
ENDMDL
MODEL      212
REMARK 921   NORMALIZED FREE ENERGY PREDICTED BY IDOCK:   -2.94 KCAL/MOL
REMARK 922        TOTAL FREE ENERGY PREDICTED BY IDOCK:   -8.73 KCAL/MOL
REMARK 923 INTER-LIGAND FREE ENERGY PREDICTED BY IDOCK:   -6.41 KCAL/MOL
REMARK 924 INTRA-LIGAND FREE ENERGY PREDICTED BY IDOCK:   -2.32 KCAL/MOL
REMARK 927      BINDING AFFINITY PREDICTED BY RF-SCORE:    0.00 PKD
ROOT
HETATM    1  C   UNL     1     -12.329  12.259  63.557  1.00  0.00    -0.670 C  
HETATM    2  C   UNL     1     -10.842  12.483  63.755  1.00  0.00    -0.489 C  
ENDROOT
BRANCH   2   3
HETATM    3  C   UNL     1     -10.024  11.368  63.109  1.00  0.00    -0.402 C  
BRANCH   3   4
HETATM    4  C   UNL     1      -9.653  10.308  64.140  1.00  0.00    -0.376 C  
BRANCH   4   5
HETATM    5  C   UNL     1      -8.452   9.497  63.676  1.00  0.00    -0.197 C  
BRANCH   5   6
HETATM    6  C   UNL     1      -7.384   9.446  64.764  1.00  0.00    -0.107 C  
BRANCH   6   7
HETATM    7  C   UNL     1      -7.747   8.391  65.795  1.00  0.00    -0.094 C  
BRANCH   7   8
HETATM    8  C   UNL     1      -7.794   8.971  67.205  1.00  0.00    -0.099 C  
BRANCH   8   9
HETATM    9  C   UNL     1      -8.901   8.266  67.975  1.00  0.00    -0.135 C  
BRANCH   9  10
HETATM   10  C   UNL     1      -8.667   6.764  68.066  1.00  0.00    -0.118 C  
BRANCH  10  11
HETATM   11  N   UNL     1      -9.941   5.942  67.742  1.00  0.00    -0.124 N  
HETATM   12  C   UNL     1     -11.016   6.847  67.138  1.00  0.00    -0.357 C  
HETATM   13  C   UNL     1      -9.608   4.813  66.765  1.00  0.00    -0.173 C  
BRANCH  11  14
HETATM   14  C   UNL     1     -10.428   5.357  69.093  1.00  0.00    -0.207 C  
BRANCH  14  15
HETATM   15  C   UNL     1     -11.189   6.374  69.931  1.00  0.00    -0.485 C  
BRANCH  15  16
HETATM   16  C   UNL     1     -10.516   6.628  71.273  1.00  0.00    -0.244 C  
BRANCH  16  17
HETATM   17  C   UNL     1     -10.655   8.110  71.606  1.00  0.00    -0.292 C  
BRANCH  17  18
HETATM   18  C   UNL     1     -11.614   8.810  70.659  1.00  0.00    -0.236 C  
BRANCH  18  19
HETATM   19  C   UNL     1     -11.440  10.319  70.771  1.00  0.00    -0.438 C  
BRANCH  19  20
HETATM   20  C   UNL     1     -12.134  11.025  69.611  1.00  0.00    -0.411 C  
BRANCH  20  21
HETATM   21  C   UNL     1     -11.287  10.956  68.344  1.00  0.00    -0.370 C  
BRANCH  21  22
HETATM   22  C   UNL     1      -9.975  11.710  68.531  1.00  0.00    -0.198 C  
HETATM   23  C   UNL     1      -9.415  12.180  67.201  1.00  0.00    -0.190 C  
ENDBRANCH  21  22
ENDBRANCH  20  21
ENDBRANCH  19  20
ENDBRANCH  18  19
ENDBRANCH  17  18
ENDBRANCH  16  17
ENDBRANCH  15  16
ENDBRANCH  14  15
ENDBRANCH  11  14
ENDBRANCH  10  11
ENDBRANCH   9  10
ENDBRANCH   8   9
ENDBRANCH   7   8
ENDBRANCH   6   7
ENDBRANCH   5   6
ENDBRANCH   4   5
ENDBRANCH   3   4
ENDBRANCH   2   3
TORSDOF 18
ENDMDL
MODEL      213
REMARK 921   NORMALIZED FREE ENERGY PREDICTED BY IDOCK:   -2.94 KCAL/MOL
REMARK 922        TOTAL FREE ENERGY PREDICTED BY IDOCK:   -8.73 KCAL/MOL
REMARK 923 INTER-LIGAND FREE ENERGY PREDICTED BY IDOCK:   -7.35 KCAL/MOL
REMARK 924 INTRA-LIGAND FREE ENERGY PREDICTED BY IDOCK:   -1.38 KCAL/MOL
REMARK 927      BINDING AFFINITY PREDICTED BY RF-SCORE:    0.00 PKD
ROOT
HETATM    1  C   UNL     1      -8.329  19.550  66.810  1.00  0.00    -0.324 C  
HETATM    2  C   UNL     1      -7.488  18.525  66.072  1.00  0.00    -0.259 C  
ENDROOT
BRANCH   2   3
HETATM    3  C   UNL     1      -7.250  17.286  66.930  1.00  0.00    -0.235 C  
BRANCH   3   4
HETATM    4  C   UNL     1      -7.612  17.562  68.385  1.00  0.00    -0.254 C  
BRANCH   4   5
HETATM    5  C   UNL     1      -8.337  16.373  68.999  1.00  0.00    -0.225 C  
BRANCH   5   6
HETATM    6  C   UNL     1      -9.038  15.554  67.920  1.00  0.00    -0.175 C  
BRANCH   6   7
HETATM    7  C   UNL     1     -10.457  15.231  68.356  1.00  0.00    -0.236 C  
BRANCH   7   8
HETATM    8  C   UNL     1     -11.017  16.299  69.291  1.00  0.00    -0.317 C  
BRANCH   8   9
HETATM    9  C   UNL     1     -12.282  15.752  69.938  1.00  0.00    -0.271 C  
BRANCH   9  10
HETATM   10  C   UNL     1     -12.018  14.466  70.710  1.00  0.00    -0.323 C  
BRANCH  10  11
HETATM   11  N   UNL     1     -12.946  14.312  71.943  1.00  0.00    -0.333 N  
HETATM   12  C   UNL     1     -12.271  14.881  73.190  1.00  0.00    -0.312 C  
HETATM   13  C   UNL     1     -14.274  15.033  71.699  1.00  0.00    -0.555 C  
BRANCH  11  14
HETATM   14  C   UNL     1     -13.185  12.789  72.109  1.00  0.00    -0.441 C  
BRANCH  14  15
HETATM   15  C   UNL     1     -12.464  11.964  71.053  1.00  0.00    -0.390 C  
BRANCH  15  16
HETATM   16  C   UNL     1     -12.747  10.476  71.197  1.00  0.00    -0.518 C  
BRANCH  16  17
HETATM   17  C   UNL     1     -11.420   9.754  71.411  1.00  0.00    -0.435 C  
BRANCH  17  18
HETATM   18  C   UNL     1     -11.315   8.507  70.549  1.00  0.00    -0.235 C  
BRANCH  18  19
HETATM   19  C   UNL     1     -11.266   7.270  71.436  1.00  0.00    -0.274 C  
BRANCH  19  20
HETATM   20  C   UNL     1     -11.339   7.662  72.907  1.00  0.00    -0.394 C  
BRANCH  20  21
HETATM   21  C   UNL     1     -10.307   6.895  73.729  1.00  0.00    -0.409 C  
BRANCH  21  22
HETATM   22  C   UNL     1      -8.897   7.187  73.229  1.00  0.00    -0.168 C  
HETATM   23  C   UNL     1      -8.263   8.329  74.002  1.00  0.00    -0.271 C  
ENDBRANCH  21  22
ENDBRANCH  20  21
ENDBRANCH  19  20
ENDBRANCH  18  19
ENDBRANCH  17  18
ENDBRANCH  16  17
ENDBRANCH  15  16
ENDBRANCH  14  15
ENDBRANCH  11  14
ENDBRANCH  10  11
ENDBRANCH   9  10
ENDBRANCH   8   9
ENDBRANCH   7   8
ENDBRANCH   6   7
ENDBRANCH   5   6
ENDBRANCH   4   5
ENDBRANCH   3   4
ENDBRANCH   2   3
TORSDOF 18
ENDMDL
MODEL      214
REMARK 921   NORMALIZED FREE ENERGY PREDICTED BY IDOCK:   -2.94 KCAL/MOL
REMARK 922        TOTAL FREE ENERGY PREDICTED BY IDOCK:   -8.73 KCAL/MOL
REMARK 923 INTER-LIGAND FREE ENERGY PREDICTED BY IDOCK:   -6.19 KCAL/MOL
REMARK 924 INTRA-LIGAND FREE ENERGY PREDICTED BY IDOCK:   -2.53 KCAL/MOL
REMARK 927      BINDING AFFINITY PREDICTED BY RF-SCORE:    0.00 PKD
ROOT
HETATM    1  C   UNL     1      -9.194  11.062  64.367  1.00  0.00    -0.179 C  
HETATM    2  C   UNL     1     -10.013  10.260  65.361  1.00  0.00    -0.371 C  
ENDROOT
BRANCH   2   3
HETATM    3  C   UNL     1     -10.343  11.087  66.600  1.00  0.00    -0.288 C  
BRANCH   3   4
HETATM    4  C   UNL     1      -9.326  12.209  66.783  1.00  0.00    -0.212 C  
BRANCH   4   5
HETATM    5  C   UNL     1      -8.731  12.178  68.183  1.00  0.00    -0.185 C  
BRANCH   5   6
HETATM    6  C   UNL     1      -7.407  11.421  68.188  1.00  0.00    -0.092 C  
BRANCH   6   7
HETATM    7  C   UNL     1      -7.520  10.188  69.069  1.00  0.00    -0.091 C  
BRANCH   7   8
HETATM    8  C   UNL     1      -7.969   8.966  68.274  1.00  0.00    -0.105 C  
BRANCH   8   9
HETATM    9  C   UNL     1      -9.174   8.356  68.975  1.00  0.00    -0.147 C  
BRANCH   9  10
HETATM   10  C   UNL     1      -8.765   7.362  70.054  1.00  0.00    -0.140 C  
BRANCH  10  11
HETATM   11  N   UNL     1      -9.435   5.976  69.870  1.00  0.00    -0.150 N  
HETATM   12  C   UNL     1      -8.986   5.339  68.555  1.00  0.00    -0.108 C  
HETATM   13  C   UNL     1      -9.076   5.056  71.039  1.00  0.00    -0.141 C  
BRANCH  11  14
HETATM   14  C   UNL     1     -10.963   6.239  69.845  1.00  0.00    -0.370 C  
BRANCH  14  15
HETATM   15  C   UNL     1     -11.583   6.220  71.235  1.00  0.00    -0.336 C  
BRANCH  15  16
HETATM   16  C   UNL     1     -12.782   7.152  71.339  1.00  0.00    -0.433 C  
BRANCH  16  17
HETATM   17  C   UNL     1     -12.279   8.539  71.726  1.00  0.00    -0.388 C  
BRANCH  17  18
HETATM   18  C   UNL     1     -13.417   9.446  72.163  1.00  0.00    -0.543 C  
BRANCH  18  19
HETATM   19  C   UNL     1     -13.225  10.836  71.572  1.00  0.00    -0.434 C  
BRANCH  19  20
HETATM   20  C   UNL     1     -11.996  10.870  70.671  1.00  0.00    -0.467 C  
BRANCH  20  21
HETATM   21  C   UNL     1     -12.252  11.715  69.427  1.00  0.00    -0.246 C  
BRANCH  21  22
HETATM   22  C   UNL     1     -11.855  13.166  69.672  1.00  0.00    -0.390 C  
HETATM   23  C   UNL     1     -12.011  14.000  68.413  1.00  0.00    -0.378 C  
ENDBRANCH  21  22
ENDBRANCH  20  21
ENDBRANCH  19  20
ENDBRANCH  18  19
ENDBRANCH  17  18
ENDBRANCH  16  17
ENDBRANCH  15  16
ENDBRANCH  14  15
ENDBRANCH  11  14
ENDBRANCH  10  11
ENDBRANCH   9  10
ENDBRANCH   8   9
ENDBRANCH   7   8
ENDBRANCH   6   7
ENDBRANCH   5   6
ENDBRANCH   4   5
ENDBRANCH   3   4
ENDBRANCH   2   3
TORSDOF 18
ENDMDL
MODEL      215
REMARK 921   NORMALIZED FREE ENERGY PREDICTED BY IDOCK:   -2.94 KCAL/MOL
REMARK 922        TOTAL FREE ENERGY PREDICTED BY IDOCK:   -8.73 KCAL/MOL
REMARK 923 INTER-LIGAND FREE ENERGY PREDICTED BY IDOCK:   -7.30 KCAL/MOL
REMARK 924 INTRA-LIGAND FREE ENERGY PREDICTED BY IDOCK:   -1.42 KCAL/MOL
REMARK 927      BINDING AFFINITY PREDICTED BY RF-SCORE:    0.00 PKD
ROOT
HETATM    1  C   UNL     1     -10.097  20.504  67.442  1.00  0.00    -0.441 C  
HETATM    2  C   UNL     1      -9.938  19.505  66.311  1.00  0.00    -0.538 C  
ENDROOT
BRANCH   2   3
HETATM    3  C   UNL     1      -9.119  18.296  66.753  1.00  0.00    -0.287 C  
BRANCH   3   4
HETATM    4  C   UNL     1      -8.984  18.265  68.271  1.00  0.00    -0.318 C  
BRANCH   4   5
HETATM    5  C   UNL     1      -7.521  18.212  68.686  1.00  0.00    -0.300 C  
BRANCH   5   6
HETATM    6  C   UNL     1      -6.755  17.210  67.828  1.00  0.00    -0.162 C  
BRANCH   6   7
HETATM    7  C   UNL     1      -6.901  15.814  68.407  1.00  0.00    -0.116 C  
BRANCH   7   8
HETATM    8  C   UNL     1      -7.428  14.825  67.372  1.00  0.00    -0.221 C  
BRANCH   8   9
HETATM    9  C   UNL     1      -8.852  14.448  67.753  1.00  0.00    -0.186 C  
BRANCH   9  10
HETATM   10  C   UNL     1      -9.550  13.663  66.650  1.00  0.00    -0.283 C  
BRANCH  10  11
HETATM   11  N   UNL     1     -11.072  13.953  66.585  1.00  0.00    -0.302 N  
HETATM   12  C   UNL     1     -11.491  14.853  67.748  1.00  0.00    -0.338 C  
HETATM   13  C   UNL     1     -11.426  14.627  65.257  1.00  0.00    -0.361 C  
BRANCH  11  14
HETATM   14  C   UNL     1     -11.774  12.575  66.692  1.00  0.00    -0.387 C  
BRANCH  14  15
HETATM   15  C   UNL     1     -10.789  11.416  66.709  1.00  0.00    -0.336 C  
BRANCH  15  16
HETATM   16  C   UNL     1     -11.088  10.426  67.826  1.00  0.00    -0.365 C  
BRANCH  16  17
HETATM   17  C   UNL     1     -10.047   9.313  67.773  1.00  0.00    -0.253 C  
BRANCH  17  18
HETATM   18  C   UNL     1     -10.566   8.029  68.398  1.00  0.00    -0.150 C  
BRANCH  18  19
HETATM   19  C   UNL     1     -10.520   8.139  69.916  1.00  0.00    -0.226 C  
BRANCH  19  20
HETATM   20  C   UNL     1     -11.239   6.959  70.560  1.00  0.00    -0.353 C  
BRANCH  20  21
HETATM   21  C   UNL     1     -12.526   7.409  71.244  1.00  0.00    -0.381 C  
BRANCH  21  22
HETATM   22  C   UNL     1     -12.262   8.605  72.153  1.00  0.00    -0.453 C  
HETATM   23  C   UNL     1     -13.314   9.682  71.965  1.00  0.00    -0.547 C  
ENDBRANCH  21  22
ENDBRANCH  20  21
ENDBRANCH  19  20
ENDBRANCH  18  19
ENDBRANCH  17  18
ENDBRANCH  16  17
ENDBRANCH  15  16
ENDBRANCH  14  15
ENDBRANCH  11  14
ENDBRANCH  10  11
ENDBRANCH   9  10
ENDBRANCH   8   9
ENDBRANCH   7   8
ENDBRANCH   6   7
ENDBRANCH   5   6
ENDBRANCH   4   5
ENDBRANCH   3   4
ENDBRANCH   2   3
TORSDOF 18
ENDMDL
MODEL      216
REMARK 921   NORMALIZED FREE ENERGY PREDICTED BY IDOCK:   -2.93 KCAL/MOL
REMARK 922        TOTAL FREE ENERGY PREDICTED BY IDOCK:   -8.72 KCAL/MOL
REMARK 923 INTER-LIGAND FREE ENERGY PREDICTED BY IDOCK:   -7.41 KCAL/MOL
REMARK 924 INTRA-LIGAND FREE ENERGY PREDICTED BY IDOCK:   -1.31 KCAL/MOL
REMARK 927      BINDING AFFINITY PREDICTED BY RF-SCORE:    0.00 PKD
ROOT
HETATM    1  C   UNL     1     -14.006  15.440  72.118  1.00  0.00    -0.649 C  
HETATM    2  C   UNL     1     -13.253  14.382  72.903  1.00  0.00    -0.613 C  
ENDROOT
BRANCH   2   3
HETATM    3  C   UNL     1     -12.636  13.341  71.974  1.00  0.00    -0.090 C  
BRANCH   3   4
HETATM    4  C   UNL     1     -13.409  12.029  72.048  1.00  0.00    -0.447 C  
BRANCH   4   5
HETATM    5  C   UNL     1     -12.690  10.930  71.280  1.00  0.00    -0.542 C  
BRANCH   5   6
HETATM    6  C   UNL     1     -13.221   9.557  71.680  1.00  0.00    -0.486 C  
BRANCH   6   7
HETATM    7  C   UNL     1     -12.062   8.617  71.963  1.00  0.00    -0.442 C  
BRANCH   7   8
HETATM    8  C   UNL     1     -11.813   7.662  70.801  1.00  0.00    -0.227 C  
BRANCH   8   9
HETATM    9  C   UNL     1     -10.349   7.768  70.400  1.00  0.00    -0.212 C  
BRANCH   9  10
HETATM   10  C   UNL     1      -9.784   9.158  70.663  1.00  0.00    -0.256 C  
BRANCH  10  11
HETATM   11  N   UNL     1      -9.152   9.793  69.398  1.00  0.00    -0.187 N  
HETATM   12  C   UNL     1      -7.660  10.047  69.620  1.00  0.00    -0.147 C  
HETATM   13  C   UNL     1      -9.344   8.871  68.191  1.00  0.00    -0.142 C  
BRANCH  11  14
HETATM   14  C   UNL     1      -9.898  11.134  69.174  1.00  0.00    -0.053 C  
BRANCH  14  15
HETATM   15  C   UNL     1     -10.366  11.310  67.737  1.00  0.00    -0.208 C  
BRANCH  15  16
HETATM   16  C   UNL     1     -11.460  12.361  67.616  1.00  0.00    -0.399 C  
BRANCH  16  17
HETATM   17  C   UNL     1     -11.035  13.590  68.413  1.00  0.00    -0.289 C  
BRANCH  17  18
HETATM   18  C   UNL     1     -10.065  14.458  67.630  1.00  0.00    -0.222 C  
BRANCH  18  19
HETATM   19  C   UNL     1     -10.820  15.248  66.569  1.00  0.00    -0.311 C  
BRANCH  19  20
HETATM   20  C   UNL     1     -10.512  16.736  66.689  1.00  0.00    -0.258 C  
BRANCH  20  21
HETATM   21  C   UNL     1      -9.810  17.044  68.008  1.00  0.00    -0.275 C  
BRANCH  21  22
HETATM   22  C   UNL     1      -9.565  18.542  68.149  1.00  0.00    -0.353 C  
HETATM   23  C   UNL     1     -10.634  19.346  67.431  1.00  0.00    -0.603 C  
ENDBRANCH  21  22
ENDBRANCH  20  21
ENDBRANCH  19  20
ENDBRANCH  18  19
ENDBRANCH  17  18
ENDBRANCH  16  17
ENDBRANCH  15  16
ENDBRANCH  14  15
ENDBRANCH  11  14
ENDBRANCH  10  11
ENDBRANCH   9  10
ENDBRANCH   8   9
ENDBRANCH   7   8
ENDBRANCH   6   7
ENDBRANCH   5   6
ENDBRANCH   4   5
ENDBRANCH   3   4
ENDBRANCH   2   3
TORSDOF 18
ENDMDL
MODEL      217
REMARK 921   NORMALIZED FREE ENERGY PREDICTED BY IDOCK:   -2.93 KCAL/MOL
REMARK 922        TOTAL FREE ENERGY PREDICTED BY IDOCK:   -8.71 KCAL/MOL
REMARK 923 INTER-LIGAND FREE ENERGY PREDICTED BY IDOCK:   -7.51 KCAL/MOL
REMARK 924 INTRA-LIGAND FREE ENERGY PREDICTED BY IDOCK:   -1.20 KCAL/MOL
REMARK 927      BINDING AFFINITY PREDICTED BY RF-SCORE:    0.00 PKD
ROOT
HETATM    1  C   UNL     1     -11.352   6.092  72.053  1.00  0.00    -0.348 C  
HETATM    2  C   UNL     1     -10.757   5.882  70.673  1.00  0.00    -0.353 C  
ENDROOT
BRANCH   2   3
HETATM    3  C   UNL     1      -9.516   4.996  70.736  1.00  0.00    -0.230 C  
BRANCH   3   4
HETATM    4  C   UNL     1      -9.445   4.082  69.519  1.00  0.00    -0.257 C  
BRANCH   4   5
HETATM    5  C   UNL     1     -10.010   4.772  68.287  1.00  0.00    -0.157 C  
BRANCH   5   6
HETATM    6  C   UNL     1      -8.885   5.293  67.398  1.00  0.00    -0.105 C  
BRANCH   6   7
HETATM    7  C   UNL     1      -9.327   6.565  66.696  1.00  0.00    -0.184 C  
BRANCH   7   8
HETATM    8  C   UNL     1     -10.624   7.113  67.285  1.00  0.00    -0.398 C  
BRANCH   8   9
HETATM    9  C   UNL     1     -10.670   8.612  67.026  1.00  0.00    -0.190 C  
BRANCH   9  10
HETATM   10  C   UNL     1      -9.665   9.040  65.965  1.00  0.00    -0.269 C  
BRANCH  10  11
HETATM   11  N   UNL     1      -9.661  10.574  65.734  1.00  0.00    -0.209 N  
HETATM   12  C   UNL     1      -8.273  11.149  66.016  1.00  0.00    -0.094 C  
HETATM   13  C   UNL     1     -10.070  10.893  64.294  1.00  0.00    -0.351 C  
BRANCH  11  14
HETATM   14  C   UNL     1     -10.697  11.159  66.728  1.00  0.00    -0.276 C  
BRANCH  14  15
HETATM   15  C   UNL     1     -11.075  12.596  66.402  1.00  0.00    -0.325 C  
BRANCH  15  16
HETATM   16  C   UNL     1     -10.659  13.562  67.503  1.00  0.00    -0.247 C  
BRANCH  16  17
HETATM   17  C   UNL     1     -11.921  14.107  68.163  1.00  0.00    -0.367 C  
BRANCH  17  18
HETATM   18  C   UNL     1     -12.178  13.451  69.509  1.00  0.00    -0.260 C  
BRANCH  18  19
HETATM   19  C   UNL     1     -12.302  14.518  70.589  1.00  0.00    -0.407 C  
BRANCH  19  20
HETATM   20  C   UNL     1     -13.495  14.228  71.493  1.00  0.00    -0.426 C  
BRANCH  20  21
HETATM   21  C   UNL     1     -13.796  15.418  72.398  1.00  0.00    -0.661 C  
BRANCH  21  22
HETATM   22  C   UNL     1     -12.505  16.017  72.946  1.00  0.00    -0.596 C  
HETATM   23  C   UNL     1     -12.323  15.684  74.415  1.00  0.00    -0.802 C  
ENDBRANCH  21  22
ENDBRANCH  20  21
ENDBRANCH  19  20
ENDBRANCH  18  19
ENDBRANCH  17  18
ENDBRANCH  16  17
ENDBRANCH  15  16
ENDBRANCH  14  15
ENDBRANCH  11  14
ENDBRANCH  10  11
ENDBRANCH   9  10
ENDBRANCH   8   9
ENDBRANCH   7   8
ENDBRANCH   6   7
ENDBRANCH   5   6
ENDBRANCH   4   5
ENDBRANCH   3   4
ENDBRANCH   2   3
TORSDOF 18
ENDMDL
MODEL      218
REMARK 921   NORMALIZED FREE ENERGY PREDICTED BY IDOCK:   -2.93 KCAL/MOL
REMARK 922        TOTAL FREE ENERGY PREDICTED BY IDOCK:   -8.71 KCAL/MOL
REMARK 923 INTER-LIGAND FREE ENERGY PREDICTED BY IDOCK:   -6.24 KCAL/MOL
REMARK 924 INTRA-LIGAND FREE ENERGY PREDICTED BY IDOCK:   -2.47 KCAL/MOL
REMARK 927      BINDING AFFINITY PREDICTED BY RF-SCORE:    0.00 PKD
ROOT
HETATM    1  C   UNL     1      -7.963   9.795  70.038  1.00  0.00    -0.196 C  
HETATM    2  C   UNL     1      -7.246  10.259  68.783  1.00  0.00    -0.083 C  
ENDROOT
BRANCH   2   3
HETATM    3  C   UNL     1      -7.845   9.616  67.536  1.00  0.00    -0.095 C  
BRANCH   3   4
HETATM    4  C   UNL     1      -9.053   8.760  67.899  1.00  0.00    -0.145 C  
BRANCH   4   5
HETATM    5  C   UNL     1     -10.200   8.998  66.928  1.00  0.00    -0.339 C  
BRANCH   5   6
HETATM    6  C   UNL     1      -9.686   9.609  65.628  1.00  0.00    -0.363 C  
BRANCH   6   7
HETATM    7  C   UNL     1     -10.472  10.868  65.302  1.00  0.00    -0.299 C  
BRANCH   7   8
HETATM    8  C   UNL     1     -10.604  11.077  63.797  1.00  0.00    -0.365 C  
BRANCH   8   9
HETATM    9  C   UNL     1     -11.178  12.466  63.557  1.00  0.00    -0.540 C  
BRANCH   9  10
HETATM   10  C   UNL     1     -10.509  13.520  64.429  1.00  0.00    -0.346 C  
BRANCH  10  11
HETATM   11  N   UNL     1     -11.533  14.449  65.131  1.00  0.00    -0.347 N  
HETATM   12  C   UNL     1     -11.657  15.771  64.374  1.00  0.00    -0.240 C  
HETATM   13  C   UNL     1     -12.901  13.766  65.207  1.00  0.00    -0.384 C  
BRANCH  11  14
HETATM   14  C   UNL     1     -10.977  14.696  66.558  1.00  0.00    -0.318 C  
BRANCH  14  15
HETATM   15  C   UNL     1     -11.493  13.685  67.570  1.00  0.00    -0.360 C  
BRANCH  15  16
HETATM   16  C   UNL     1     -10.363  13.032  68.354  1.00  0.00    -0.257 C  
BRANCH  16  17
HETATM   17  C   UNL     1      -9.060  13.255  67.593  1.00  0.00    -0.204 C  
BRANCH  17  18
HETATM   18  C   UNL     1      -8.074  14.082  68.401  1.00  0.00    -0.148 C  
BRANCH  18  19
HETATM   19  C   UNL     1      -7.029  14.690  67.475  1.00  0.00    -0.193 C  
BRANCH  19  20
HETATM   20  C   UNL     1      -7.432  16.104  67.069  1.00  0.00    -0.264 C  
BRANCH  20  21
HETATM   21  C   UNL     1      -8.264  16.770  68.161  1.00  0.00    -0.199 C  
BRANCH  21  22
HETATM   22  C   UNL     1      -7.698  18.143  68.506  1.00  0.00    -0.307 C  
HETATM   23  C   UNL     1      -6.391  18.025  69.268  1.00  0.00    -0.249 C  
ENDBRANCH  21  22
ENDBRANCH  20  21
ENDBRANCH  19  20
ENDBRANCH  18  19
ENDBRANCH  17  18
ENDBRANCH  16  17
ENDBRANCH  15  16
ENDBRANCH  14  15
ENDBRANCH  11  14
ENDBRANCH  10  11
ENDBRANCH   9  10
ENDBRANCH   8   9
ENDBRANCH   7   8
ENDBRANCH   6   7
ENDBRANCH   5   6
ENDBRANCH   4   5
ENDBRANCH   3   4
ENDBRANCH   2   3
TORSDOF 18
ENDMDL
MODEL      219
REMARK 921   NORMALIZED FREE ENERGY PREDICTED BY IDOCK:   -2.92 KCAL/MOL
REMARK 922        TOTAL FREE ENERGY PREDICTED BY IDOCK:   -8.69 KCAL/MOL
REMARK 923 INTER-LIGAND FREE ENERGY PREDICTED BY IDOCK:   -6.54 KCAL/MOL
REMARK 924 INTRA-LIGAND FREE ENERGY PREDICTED BY IDOCK:   -2.15 KCAL/MOL
REMARK 927      BINDING AFFINITY PREDICTED BY RF-SCORE:    0.00 PKD
ROOT
HETATM    1  C   UNL     1     -10.306  18.823  66.684  1.00  0.00    -0.472 C  
HETATM    2  C   UNL     1      -9.871  17.398  66.395  1.00  0.00    -0.311 C  
ENDROOT
BRANCH   2   3
HETATM    3  C   UNL     1     -10.683  16.795  65.252  1.00  0.00    -0.183 C  
BRANCH   3   4
HETATM    4  C   UNL     1     -10.455  15.290  65.167  1.00  0.00    -0.438 C  
BRANCH   4   5
HETATM    5  C   UNL     1     -11.632  14.528  65.757  1.00  0.00    -0.347 C  
BRANCH   5   6
HETATM    6  C   UNL     1     -11.744  13.141  65.132  1.00  0.00    -0.367 C  
BRANCH   6   7
HETATM    7  C   UNL     1     -10.943  13.090  63.842  1.00  0.00    -0.375 C  
BRANCH   7   8
HETATM    8  C   UNL     1     -10.635  11.655  63.426  1.00  0.00    -0.472 C  
BRANCH   8   9
HETATM    9  C   UNL     1     -10.492  10.812  64.684  1.00  0.00    -0.346 C  
BRANCH   9  10
HETATM   10  C   UNL     1      -9.223   9.971  64.668  1.00  0.00    -0.258 C  
BRANCH  10  11
HETATM   11  N   UNL     1      -8.305  10.254  65.885  1.00  0.00    -0.140 N  
HETATM   12  C   UNL     1      -8.401   9.113  66.899  1.00  0.00    -0.119 C  
HETATM   13  C   UNL     1      -6.854  10.418  65.427  1.00  0.00    -0.120 C  
BRANCH  11  14
HETATM   14  C   UNL     1      -8.823  11.574  66.512  1.00  0.00    -0.190 C  
BRANCH  14  15
HETATM   15  C   UNL     1      -8.566  11.651  68.010  1.00  0.00    -0.152 C  
BRANCH  15  16
HETATM   16  C   UNL     1      -7.643  12.805  68.375  1.00  0.00    -0.133 C  
BRANCH  16  17
HETATM   17  C   UNL     1      -8.174  14.072  67.713  1.00  0.00    -0.169 C  
BRANCH  17  18
HETATM   18  C   UNL     1      -8.961  14.928  68.692  1.00  0.00    -0.184 C  
BRANCH  18  19
HETATM   19  C   UNL     1     -10.344  14.328  68.906  1.00  0.00    -0.218 C  
BRANCH  19  20
HETATM   20  C   UNL     1     -11.269  15.341  69.571  1.00  0.00    -0.289 C  
BRANCH  20  21
HETATM   21  C   UNL     1     -12.453  14.645  70.237  1.00  0.00    -0.401 C  
BRANCH  21  22
HETATM   22  C   UNL     1     -12.708  15.227  71.623  1.00  0.00    -0.455 C  
HETATM   23  C   UNL     1     -11.489  15.965  72.144  1.00  0.00    -0.399 C  
ENDBRANCH  21  22
ENDBRANCH  20  21
ENDBRANCH  19  20
ENDBRANCH  18  19
ENDBRANCH  17  18
ENDBRANCH  16  17
ENDBRANCH  15  16
ENDBRANCH  14  15
ENDBRANCH  11  14
ENDBRANCH  10  11
ENDBRANCH   9  10
ENDBRANCH   8   9
ENDBRANCH   7   8
ENDBRANCH   6   7
ENDBRANCH   5   6
ENDBRANCH   4   5
ENDBRANCH   3   4
ENDBRANCH   2   3
TORSDOF 18
ENDMDL
MODEL      220
REMARK 921   NORMALIZED FREE ENERGY PREDICTED BY IDOCK:   -2.92 KCAL/MOL
REMARK 922        TOTAL FREE ENERGY PREDICTED BY IDOCK:   -8.69 KCAL/MOL
REMARK 923 INTER-LIGAND FREE ENERGY PREDICTED BY IDOCK:   -6.16 KCAL/MOL
REMARK 924 INTRA-LIGAND FREE ENERGY PREDICTED BY IDOCK:   -2.53 KCAL/MOL
REMARK 927      BINDING AFFINITY PREDICTED BY RF-SCORE:    0.00 PKD
ROOT
HETATM    1  C   UNL     1      -5.649   7.035  67.719  1.00  0.00    -0.017 C  
HETATM    2  C   UNL     1      -7.021   6.556  67.283  1.00  0.00    -0.075 C  
ENDROOT
BRANCH   2   3
HETATM    3  C   UNL     1      -7.142   6.541  65.762  1.00  0.00    -0.062 C  
BRANCH   3   4
HETATM    4  C   UNL     1      -8.569   6.210  65.340  1.00  0.00    -0.111 C  
BRANCH   4   5
HETATM    5  C   UNL     1      -9.134   5.072  66.177  1.00  0.00    -0.138 C  
BRANCH   5   6
HETATM    6  C   UNL     1     -10.641   5.229  66.353  1.00  0.00    -0.338 C  
BRANCH   6   7
HETATM    7  C   UNL     1     -10.945   6.539  67.060  1.00  0.00    -0.466 C  
BRANCH   7   8
HETATM    8  C   UNL     1     -11.063   6.351  68.570  1.00  0.00    -0.385 C  
BRANCH   8   9
HETATM    9  C   UNL     1     -10.366   7.518  69.253  1.00  0.00    -0.209 C  
BRANCH   9  10
HETATM   10  C   UNL     1      -9.868   7.151  70.644  1.00  0.00    -0.182 C  
BRANCH  10  11
HETATM   11  N   UNL     1     -10.619   7.914  71.766  1.00  0.00    -0.219 N  
HETATM   12  C   UNL     1     -11.958   7.237  72.064  1.00  0.00    -0.296 C  
HETATM   13  C   UNL     1      -9.768   7.958  73.038  1.00  0.00    -0.283 C  
BRANCH  11  14
HETATM   14  C   UNL     1     -10.851   9.349  71.226  1.00  0.00    -0.361 C  
BRANCH  14  15
HETATM   15  C   UNL     1     -12.186   9.932  71.668  1.00  0.00    -0.482 C  
BRANCH  15  16
HETATM   16  C   UNL     1     -12.743  10.920  70.654  1.00  0.00    -0.396 C  
BRANCH  16  17
HETATM   17  C   UNL     1     -12.005  10.721  69.334  1.00  0.00    -0.353 C  
BRANCH  17  18
HETATM   18  C   UNL     1     -11.773  12.041  68.617  1.00  0.00    -0.380 C  
BRANCH  18  19
HETATM   19  C   UNL     1     -11.379  11.779  67.170  1.00  0.00    -0.387 C  
BRANCH  19  20
HETATM   20  C   UNL     1      -9.862  11.750  67.025  1.00  0.00    -0.213 C  
BRANCH  20  21
HETATM   21  C   UNL     1      -9.354  10.321  66.865  1.00  0.00    -0.183 C  
BRANCH  21  22
HETATM   22  C   UNL     1      -9.931   9.683  65.606  1.00  0.00    -0.321 C  
HETATM   23  C   UNL     1      -9.171  10.122  64.369  1.00  0.00    -0.306 C  
ENDBRANCH  21  22
ENDBRANCH  20  21
ENDBRANCH  19  20
ENDBRANCH  18  19
ENDBRANCH  17  18
ENDBRANCH  16  17
ENDBRANCH  15  16
ENDBRANCH  14  15
ENDBRANCH  11  14
ENDBRANCH  10  11
ENDBRANCH   9  10
ENDBRANCH   8   9
ENDBRANCH   7   8
ENDBRANCH   6   7
ENDBRANCH   5   6
ENDBRANCH   4   5
ENDBRANCH   3   4
ENDBRANCH   2   3
TORSDOF 18
ENDMDL
MODEL      221
REMARK 921   NORMALIZED FREE ENERGY PREDICTED BY IDOCK:   -2.91 KCAL/MOL
REMARK 922        TOTAL FREE ENERGY PREDICTED BY IDOCK:   -8.68 KCAL/MOL
REMARK 923 INTER-LIGAND FREE ENERGY PREDICTED BY IDOCK:   -6.32 KCAL/MOL
REMARK 924 INTRA-LIGAND FREE ENERGY PREDICTED BY IDOCK:   -2.36 KCAL/MOL
REMARK 927      BINDING AFFINITY PREDICTED BY RF-SCORE:    0.00 PKD
ROOT
HETATM    1  C   UNL     1      -6.249   8.346  70.744  1.00  0.00    -0.033 C  
HETATM    2  C   UNL     1      -7.349   9.343  70.429  1.00  0.00    -0.124 C  
ENDROOT
BRANCH   2   3
HETATM    3  C   UNL     1      -8.610   9.045  71.234  1.00  0.00    -0.221 C  
BRANCH   3   4
HETATM    4  C   UNL     1      -8.409   7.819  72.117  1.00  0.00    -0.148 C  
BRANCH   4   5
HETATM    5  C   UNL     1      -9.070   8.011  73.473  1.00  0.00    -0.327 C  
BRANCH   5   6
HETATM    6  C   UNL     1     -10.241   7.048  73.643  1.00  0.00    -0.396 C  
BRANCH   6   7
HETATM    7  C   UNL     1     -11.393   7.473  72.749  1.00  0.00    -0.388 C  
BRANCH   7   8
HETATM    8  C   UNL     1     -11.853   6.336  71.842  1.00  0.00    -0.359 C  
BRANCH   8   9
HETATM    9  C   UNL     1     -11.713   6.792  70.396  1.00  0.00    -0.418 C  
BRANCH   9  10
HETATM   10  C   UNL     1     -10.839   5.848  69.582  1.00  0.00    -0.374 C  
BRANCH  10  11
HETATM   11  N   UNL     1     -10.238   6.529  68.325  1.00  0.00    -0.158 N  
HETATM   12  C   UNL     1      -8.711   6.456  68.361  1.00  0.00    -0.113 C  
HETATM   13  C   UNL     1     -10.758   5.850  67.056  1.00  0.00    -0.318 C  
BRANCH  11  14
HETATM   14  C   UNL     1     -10.706   8.006  68.375  1.00  0.00    -0.016 C  
BRANCH  14  15
HETATM   15  C   UNL     1      -9.910   8.904  67.439  1.00  0.00    -0.247 C  
BRANCH  15  16
HETATM   16  C   UNL     1     -10.091  10.379  67.769  1.00  0.00    -0.212 C  
BRANCH  16  17
HETATM   17  C   UNL     1     -11.196  10.505  68.812  1.00  0.00    -0.317 C  
BRANCH  17  18
HETATM   18  C   UNL     1     -11.880  11.860  68.743  1.00  0.00    -0.371 C  
BRANCH  18  19
HETATM   19  C   UNL     1     -10.835  12.958  68.592  1.00  0.00    -0.288 C  
BRANCH  19  20
HETATM   20  C   UNL     1     -11.367  14.085  67.714  1.00  0.00    -0.328 C  
BRANCH  20  21
HETATM   21  C   UNL     1     -12.102  13.531  66.498  1.00  0.00    -0.460 C  
BRANCH  21  22
HETATM   22  C   UNL     1     -11.116  13.166  65.394  1.00  0.00    -0.299 C  
HETATM   23  C   UNL     1     -10.283  14.365  64.981  1.00  0.00    -0.406 C  
ENDBRANCH  21  22
ENDBRANCH  20  21
ENDBRANCH  19  20
ENDBRANCH  18  19
ENDBRANCH  17  18
ENDBRANCH  16  17
ENDBRANCH  15  16
ENDBRANCH  14  15
ENDBRANCH  11  14
ENDBRANCH  10  11
ENDBRANCH   9  10
ENDBRANCH   8   9
ENDBRANCH   7   8
ENDBRANCH   6   7
ENDBRANCH   5   6
ENDBRANCH   4   5
ENDBRANCH   3   4
ENDBRANCH   2   3
TORSDOF 18
ENDMDL
MODEL      222
REMARK 921   NORMALIZED FREE ENERGY PREDICTED BY IDOCK:   -2.91 KCAL/MOL
REMARK 922        TOTAL FREE ENERGY PREDICTED BY IDOCK:   -8.68 KCAL/MOL
REMARK 923 INTER-LIGAND FREE ENERGY PREDICTED BY IDOCK:   -6.81 KCAL/MOL
REMARK 924 INTRA-LIGAND FREE ENERGY PREDICTED BY IDOCK:   -1.87 KCAL/MOL
REMARK 927      BINDING AFFINITY PREDICTED BY RF-SCORE:    0.00 PKD
ROOT
HETATM    1  C   UNL     1      -8.985   4.902  65.276  1.00  0.00    -0.152 C  
HETATM    2  C   UNL     1      -8.259   5.885  66.176  1.00  0.00    -0.116 C  
ENDROOT
BRANCH   2   3
HETATM    3  C   UNL     1      -8.951   7.245  66.178  1.00  0.00    -0.179 C  
BRANCH   3   4
HETATM    4  C   UNL     1      -8.039   8.314  65.589  1.00  0.00    -0.124 C  
BRANCH   4   5
HETATM    5  C   UNL     1      -8.845   9.510  65.104  1.00  0.00    -0.223 C  
BRANCH   5   6
HETATM    6  C   UNL     1      -8.691   9.688  63.597  1.00  0.00    -0.240 C  
BRANCH   6   7
HETATM    7  C   UNL     1      -9.628  10.778  63.107  1.00  0.00    -0.385 C  
BRANCH   7   8
HETATM    8  C   UNL     1     -10.617  11.201  64.189  1.00  0.00    -0.436 C  
BRANCH   8   9
HETATM    9  C   UNL     1     -10.575  12.718  64.307  1.00  0.00    -0.424 C  
BRANCH   9  10
HETATM   10  C   UNL     1     -10.545  13.177  65.759  1.00  0.00    -0.282 C  
BRANCH  10  11
HETATM   11  N   UNL     1     -11.562  14.313  66.045  1.00  0.00    -0.351 N  
HETATM   12  C   UNL     1     -10.909  15.678  65.826  1.00  0.00    -0.306 C  
HETATM   13  C   UNL     1     -12.783  14.172  65.132  1.00  0.00    -0.364 C  
BRANCH  11  14
HETATM   14  C   UNL     1     -11.980  14.148  67.529  1.00  0.00    -0.384 C  
BRANCH  14  15
HETATM   15  C   UNL     1     -10.867  14.525  68.495  1.00  0.00    -0.256 C  
BRANCH  15  16
HETATM   16  C   UNL     1     -11.365  14.631  69.930  1.00  0.00    -0.302 C  
BRANCH  16  17
HETATM   17  C   UNL     1     -12.498  13.628  70.119  1.00  0.00    -0.305 C  
BRANCH  17  18
HETATM   18  C   UNL     1     -12.497  13.040  71.520  1.00  0.00    -0.174 C  
BRANCH  18  19
HETATM   19  C   UNL     1     -12.851  11.560  71.459  1.00  0.00    -0.485 C  
BRANCH  19  20
HETATM   20  C   UNL     1     -12.297  10.929  70.186  1.00  0.00    -0.399 C  
BRANCH  20  21
HETATM   21  C   UNL     1     -11.174   9.948  70.507  1.00  0.00    -0.399 C  
BRANCH  21  22
HETATM   22  C   UNL     1     -10.405   9.578  69.243  1.00  0.00    -0.219 C  
HETATM   23  C   UNL     1     -11.039  10.198  68.012  1.00  0.00    -0.302 C  
ENDBRANCH  21  22
ENDBRANCH  20  21
ENDBRANCH  19  20
ENDBRANCH  18  19
ENDBRANCH  17  18
ENDBRANCH  16  17
ENDBRANCH  15  16
ENDBRANCH  14  15
ENDBRANCH  11  14
ENDBRANCH  10  11
ENDBRANCH   9  10
ENDBRANCH   8   9
ENDBRANCH   7   8
ENDBRANCH   6   7
ENDBRANCH   5   6
ENDBRANCH   4   5
ENDBRANCH   3   4
ENDBRANCH   2   3
TORSDOF 18
ENDMDL
MODEL      223
REMARK 921   NORMALIZED FREE ENERGY PREDICTED BY IDOCK:   -2.91 KCAL/MOL
REMARK 922        TOTAL FREE ENERGY PREDICTED BY IDOCK:   -8.68 KCAL/MOL
REMARK 923 INTER-LIGAND FREE ENERGY PREDICTED BY IDOCK:   -6.28 KCAL/MOL
REMARK 924 INTRA-LIGAND FREE ENERGY PREDICTED BY IDOCK:   -2.40 KCAL/MOL
REMARK 927      BINDING AFFINITY PREDICTED BY RF-SCORE:    0.00 PKD
ROOT
HETATM    1  C   UNL     1     -10.114   1.670  63.662  1.00  0.00    -0.128 C  
HETATM    2  C   UNL     1     -10.452   3.078  63.209  1.00  0.00    -0.208 C  
ENDROOT
BRANCH   2   3
HETATM    3  C   UNL     1     -10.533   4.034  64.395  1.00  0.00    -0.215 C  
BRANCH   3   4
HETATM    4  C   UNL     1      -9.405   3.763  65.384  1.00  0.00    -0.159 C  
BRANCH   4   5
HETATM    5  C   UNL     1      -9.601   4.561  66.664  1.00  0.00    -0.203 C  
BRANCH   5   6
HETATM    6  C   UNL     1     -10.712   5.592  66.492  1.00  0.00    -0.309 C  
BRANCH   6   7
HETATM    7  C   UNL     1     -11.033   6.234  67.830  1.00  0.00    -0.421 C  
BRANCH   7   8
HETATM    8  C   UNL     1     -10.153   5.683  68.947  1.00  0.00    -0.254 C  
BRANCH   8   9
HETATM    9  C   UNL     1     -10.782   6.058  70.281  1.00  0.00    -0.367 C  
BRANCH   9  10
HETATM   10  C   UNL     1     -11.072   7.549  70.377  1.00  0.00    -0.261 C  
BRANCH  10  11
HETATM   11  N   UNL     1     -11.816   7.928  71.684  1.00  0.00    -0.276 N  
HETATM   12  C   UNL     1     -13.226   7.336  71.683  1.00  0.00    -0.366 C  
HETATM   13  C   UNL     1     -11.042   7.417  72.901  1.00  0.00    -0.349 C  
BRANCH  11  14
HETATM   14  C   UNL     1     -11.884   9.477  71.703  1.00  0.00    -0.397 C  
BRANCH  14  15
HETATM   15  C   UNL     1     -11.865  10.081  70.307  1.00  0.00    -0.291 C  
BRANCH  15  16
HETATM   16  C   UNL     1     -12.041  11.593  70.334  1.00  0.00    -0.462 C  
BRANCH  16  17
HETATM   17  C   UNL     1     -11.762  12.134  68.936  1.00  0.00    -0.381 C  
BRANCH  17  18
HETATM   18  C   UNL     1     -10.494  11.539  68.348  1.00  0.00    -0.226 C  
BRANCH  18  19
HETATM   19  C   UNL     1     -10.773  11.011  66.947  1.00  0.00    -0.325 C  
BRANCH  19  20
HETATM   20  C   UNL     1     -10.209   9.604  66.782  1.00  0.00    -0.308 C  
BRANCH  20  21
HETATM   21  C   UNL     1      -9.040   9.370  67.734  1.00  0.00    -0.134 C  
BRANCH  21  22
HETATM   22  C   UNL     1      -8.099   8.306  67.178  1.00  0.00    -0.108 C  
HETATM   23  C   UNL     1      -8.237   8.182  65.672  1.00  0.00    -0.133 C  
ENDBRANCH  21  22
ENDBRANCH  20  21
ENDBRANCH  19  20
ENDBRANCH  18  19
ENDBRANCH  17  18
ENDBRANCH  16  17
ENDBRANCH  15  16
ENDBRANCH  14  15
ENDBRANCH  11  14
ENDBRANCH  10  11
ENDBRANCH   9  10
ENDBRANCH   8   9
ENDBRANCH   7   8
ENDBRANCH   6   7
ENDBRANCH   5   6
ENDBRANCH   4   5
ENDBRANCH   3   4
ENDBRANCH   2   3
TORSDOF 18
ENDMDL
MODEL      224
REMARK 921   NORMALIZED FREE ENERGY PREDICTED BY IDOCK:   -2.90 KCAL/MOL
REMARK 922        TOTAL FREE ENERGY PREDICTED BY IDOCK:   -8.65 KCAL/MOL
REMARK 923 INTER-LIGAND FREE ENERGY PREDICTED BY IDOCK:   -6.80 KCAL/MOL
REMARK 924 INTRA-LIGAND FREE ENERGY PREDICTED BY IDOCK:   -1.85 KCAL/MOL
REMARK 927      BINDING AFFINITY PREDICTED BY RF-SCORE:    0.00 PKD
ROOT
HETATM    1  C   UNL     1     -11.530   6.545  70.208  1.00  0.00    -0.474 C  
HETATM    2  C   UNL     1     -12.177   6.686  71.573  1.00  0.00    -0.391 C  
ENDROOT
BRANCH   2   3
HETATM    3  C   UNL     1     -12.264   8.150  71.994  1.00  0.00    -0.385 C  
BRANCH   3   4
HETATM    4  C   UNL     1     -10.875   8.775  72.060  1.00  0.00    -0.428 C  
BRANCH   4   5
HETATM    5  C   UNL     1     -10.027   8.099  73.127  1.00  0.00    -0.233 C  
BRANCH   5   6
HETATM    6  C   UNL     1      -8.553   8.117  72.734  1.00  0.00    -0.269 C  
BRANCH   6   7
HETATM    7  C   UNL     1      -8.422   8.134  71.220  1.00  0.00    -0.154 C  
BRANCH   7   8
HETATM    8  C   UNL     1      -7.484   9.240  70.747  1.00  0.00    -0.144 C  
BRANCH   8   9
HETATM    9  C   UNL     1      -8.258  10.152  69.806  1.00  0.00    -0.161 C  
BRANCH   9  10
HETATM   10  C   UNL     1      -8.699   9.427  68.541  1.00  0.00    -0.128 C  
BRANCH  10  11
HETATM   11  N   UNL     1      -9.669  10.274  67.677  1.00  0.00    -0.162 N  
HETATM   12  C   UNL     1      -8.941  11.485  67.094  1.00  0.00    -0.166 C  
HETATM   13  C   UNL     1     -10.247   9.423  66.544  1.00  0.00    -0.238 C  
BRANCH  11  14
HETATM   14  C   UNL     1     -10.800  10.735  68.633  1.00  0.00    -0.220 C  
BRANCH  14  15
HETATM   15  C   UNL     1     -11.434  12.048  68.198  1.00  0.00    -0.383 C  
BRANCH  15  16
HETATM   16  C   UNL     1     -11.492  13.059  69.334  1.00  0.00    -0.323 C  
BRANCH  16  17
HETATM   17  C   UNL     1     -11.832  14.424  68.744  1.00  0.00    -0.360 C  
BRANCH  17  18
HETATM   18  C   UNL     1     -10.580  15.231  68.442  1.00  0.00    -0.246 C  
BRANCH  18  19
HETATM   19  C   UNL     1     -10.602  15.694  66.991  1.00  0.00    -0.311 C  
BRANCH  19  20
HETATM   20  C   UNL     1      -9.843  14.712  66.105  1.00  0.00    -0.334 C  
BRANCH  20  21
HETATM   21  C   UNL     1     -10.565  14.504  64.777  1.00  0.00    -0.401 C  
BRANCH  21  22
HETATM   22  C   UNL     1     -10.634  13.021  64.430  1.00  0.00    -0.429 C  
HETATM   23  C   UNL     1     -12.003  12.446  64.744  1.00  0.00    -0.462 C  
ENDBRANCH  21  22
ENDBRANCH  20  21
ENDBRANCH  19  20
ENDBRANCH  18  19
ENDBRANCH  17  18
ENDBRANCH  16  17
ENDBRANCH  15  16
ENDBRANCH  14  15
ENDBRANCH  11  14
ENDBRANCH  10  11
ENDBRANCH   9  10
ENDBRANCH   8   9
ENDBRANCH   7   8
ENDBRANCH   6   7
ENDBRANCH   5   6
ENDBRANCH   4   5
ENDBRANCH   3   4
ENDBRANCH   2   3
TORSDOF 18
ENDMDL
MODEL      225
REMARK 921   NORMALIZED FREE ENERGY PREDICTED BY IDOCK:   -2.89 KCAL/MOL
REMARK 922        TOTAL FREE ENERGY PREDICTED BY IDOCK:   -8.63 KCAL/MOL
REMARK 923 INTER-LIGAND FREE ENERGY PREDICTED BY IDOCK:   -6.04 KCAL/MOL
REMARK 924 INTRA-LIGAND FREE ENERGY PREDICTED BY IDOCK:   -2.59 KCAL/MOL
REMARK 927      BINDING AFFINITY PREDICTED BY RF-SCORE:    0.00 PKD
ROOT
HETATM    1  C   UNL     1     -10.188   8.926  66.505  1.00  0.00    -0.319 C  
HETATM    2  C   UNL     1      -9.924  10.149  65.647  1.00  0.00    -0.348 C  
ENDROOT
BRANCH   2   3
HETATM    3  C   UNL     1     -10.013  11.431  66.470  1.00  0.00    -0.243 C  
BRANCH   3   4
HETATM    4  C   UNL     1     -11.390  12.068  66.326  1.00  0.00    -0.415 C  
BRANCH   4   5
HETATM    5  C   UNL     1     -11.837  12.700  67.636  1.00  0.00    -0.390 C  
BRANCH   5   6
HETATM    6  C   UNL     1     -11.223  11.966  68.824  1.00  0.00    -0.314 C  
BRANCH   6   7
HETATM    7  C   UNL     1     -12.197  10.924  69.347  1.00  0.00    -0.293 C  
BRANCH   7   8
HETATM    8  C   UNL     1     -12.357  11.011  70.861  1.00  0.00    -0.503 C  
BRANCH   8   9
HETATM    9  C   UNL     1     -12.477   9.597  71.412  1.00  0.00    -0.465 C  
BRANCH   9  10
HETATM   10  C   UNL     1     -11.145   9.072  71.931  1.00  0.00    -0.363 C  
BRANCH  10  11
HETATM   11  N   UNL     1     -10.769   7.697  71.321  1.00  0.00    -0.227 N  
HETATM   12  C   UNL     1      -9.997   6.857  72.339  1.00  0.00    -0.165 C  
HETATM   13  C   UNL     1     -12.031   6.948  70.884  1.00  0.00    -0.381 C  
BRANCH  11  14
HETATM   14  C   UNL     1      -9.875   8.005  70.091  1.00  0.00    -0.184 C  
BRANCH  14  15
HETATM   15  C   UNL     1      -9.085   9.295  70.251  1.00  0.00    -0.271 C  
BRANCH  15  16
HETATM   16  C   UNL     1      -7.839   9.315  69.377  1.00  0.00    -0.083 C  
BRANCH  16  17
HETATM   17  C   UNL     1      -6.856  10.321  69.967  1.00  0.00    -0.146 C  
BRANCH  17  18
HETATM   18  C   UNL     1      -6.575  11.461  69.002  1.00  0.00    -0.086 C  
BRANCH  18  19
HETATM   19  C   UNL     1      -6.264  12.732  69.782  1.00  0.00    -0.108 C  
BRANCH  19  20
HETATM   20  C   UNL     1      -6.807  13.955  69.051  1.00  0.00    -0.111 C  
BRANCH  20  21
HETATM   21  C   UNL     1      -8.114  13.628  68.335  1.00  0.00    -0.146 C  
BRANCH  21  22
HETATM   22  C   UNL     1      -8.485  14.739  67.360  1.00  0.00    -0.218 C  
HETATM   23  C   UNL     1      -7.348  15.731  67.196  1.00  0.00    -0.257 C  
ENDBRANCH  21  22
ENDBRANCH  20  21
ENDBRANCH  19  20
ENDBRANCH  18  19
ENDBRANCH  17  18
ENDBRANCH  16  17
ENDBRANCH  15  16
ENDBRANCH  14  15
ENDBRANCH  11  14
ENDBRANCH  10  11
ENDBRANCH   9  10
ENDBRANCH   8   9
ENDBRANCH   7   8
ENDBRANCH   6   7
ENDBRANCH   5   6
ENDBRANCH   4   5
ENDBRANCH   3   4
ENDBRANCH   2   3
TORSDOF 18
ENDMDL
MODEL      226
REMARK 921   NORMALIZED FREE ENERGY PREDICTED BY IDOCK:   -2.88 KCAL/MOL
REMARK 922        TOTAL FREE ENERGY PREDICTED BY IDOCK:   -8.62 KCAL/MOL
REMARK 923 INTER-LIGAND FREE ENERGY PREDICTED BY IDOCK:   -6.29 KCAL/MOL
REMARK 924 INTRA-LIGAND FREE ENERGY PREDICTED BY IDOCK:   -2.33 KCAL/MOL
REMARK 927      BINDING AFFINITY PREDICTED BY RF-SCORE:    0.00 PKD
ROOT
HETATM    1  C   UNL     1      -6.844   6.306  67.156  1.00  0.00    -0.066 C  
HETATM    2  C   UNL     1      -6.725   7.728  67.672  1.00  0.00    -0.068 C  
ENDROOT
BRANCH   2   3
HETATM    3  C   UNL     1      -6.907   8.740  66.545  1.00  0.00    -0.072 C  
BRANCH   3   4
HETATM    4  C   UNL     1      -7.924   8.237  65.528  1.00  0.00    -0.120 C  
BRANCH   4   5
HETATM    5  C   UNL     1      -9.344   8.511  65.998  1.00  0.00    -0.266 C  
BRANCH   5   6
HETATM    6  C   UNL     1      -9.913   9.744  65.303  1.00  0.00    -0.251 C  
BRANCH   6   7
HETATM    7  C   UNL     1      -9.187   9.977  63.989  1.00  0.00    -0.318 C  
BRANCH   7   8
HETATM    8  C   UNL     1      -9.932  10.969  63.101  1.00  0.00    -0.382 C  
BRANCH   8   9
HETATM    9  C   UNL     1     -10.938  11.720  63.962  1.00  0.00    -0.451 C  
BRANCH   9  10
HETATM   10  C   UNL     1     -10.578  13.192  64.109  1.00  0.00    -0.361 C  
BRANCH  10  11
HETATM   11  N   UNL     1     -10.856  13.732  65.536  1.00  0.00    -0.292 N  
HETATM   12  C   UNL     1     -11.117  15.239  65.492  1.00  0.00    -0.327 C  
HETATM   13  C   UNL     1     -12.064  13.017  66.147  1.00  0.00    -0.409 C  
BRANCH  11  14
HETATM   14  C   UNL     1      -9.580  13.432  66.363  1.00  0.00    -0.257 C  
BRANCH  14  15
HETATM   15  C   UNL     1      -9.879  12.668  67.645  1.00  0.00    -0.210 C  
BRANCH  15  16
HETATM   16  C   UNL     1      -8.821  11.616  67.944  1.00  0.00    -0.155 C  
BRANCH  16  17
HETATM   17  C   UNL     1      -9.300  10.776  69.124  1.00  0.00    -0.141 C  
BRANCH  17  18
HETATM   18  C   UNL     1     -10.634  10.110  68.832  1.00  0.00    -0.237 C  
BRANCH  18  19
HETATM   19  C   UNL     1     -10.755   8.823  69.637  1.00  0.00    -0.212 C  
BRANCH  19  20
HETATM   20  C   UNL     1     -10.087   8.979  70.999  1.00  0.00    -0.352 C  
BRANCH  20  21
HETATM   21  C   UNL     1     -11.039   8.584  72.124  1.00  0.00    -0.436 C  
BRANCH  21  22
HETATM   22  C   UNL     1     -12.451   8.378  71.585  1.00  0.00    -0.363 C  
HETATM   23  C   UNL     1     -13.416   9.393  72.169  1.00  0.00    -0.543 C  
ENDBRANCH  21  22
ENDBRANCH  20  21
ENDBRANCH  19  20
ENDBRANCH  18  19
ENDBRANCH  17  18
ENDBRANCH  16  17
ENDBRANCH  15  16
ENDBRANCH  14  15
ENDBRANCH  11  14
ENDBRANCH  10  11
ENDBRANCH   9  10
ENDBRANCH   8   9
ENDBRANCH   7   8
ENDBRANCH   6   7
ENDBRANCH   5   6
ENDBRANCH   4   5
ENDBRANCH   3   4
ENDBRANCH   2   3
TORSDOF 18
ENDMDL
MODEL      227
REMARK 921   NORMALIZED FREE ENERGY PREDICTED BY IDOCK:   -2.88 KCAL/MOL
REMARK 922        TOTAL FREE ENERGY PREDICTED BY IDOCK:   -8.62 KCAL/MOL
REMARK 923 INTER-LIGAND FREE ENERGY PREDICTED BY IDOCK:   -7.49 KCAL/MOL
REMARK 924 INTRA-LIGAND FREE ENERGY PREDICTED BY IDOCK:   -1.13 KCAL/MOL
REMARK 927      BINDING AFFINITY PREDICTED BY RF-SCORE:    0.00 PKD
ROOT
HETATM    1  C   UNL     1     -10.363   1.624  63.270  1.00  0.00    -0.131 C  
HETATM    2  C   UNL     1     -10.751   3.038  62.883  1.00  0.00    -0.196 C  
ENDROOT
BRANCH   2   3
HETATM    3  C   UNL     1     -10.567   4.001  64.051  1.00  0.00    -0.180 C  
BRANCH   3   4
HETATM    4  C   UNL     1      -9.513   3.476  65.020  1.00  0.00    -0.159 C  
BRANCH   4   5
HETATM    5  C   UNL     1      -9.727   4.044  66.415  1.00  0.00    -0.206 C  
BRANCH   5   6
HETATM    6  C   UNL     1     -10.653   5.254  66.368  1.00  0.00    -0.338 C  
BRANCH   6   7
HETATM    7  C   UNL     1     -10.710   5.916  67.734  1.00  0.00    -0.346 C  
BRANCH   7   8
HETATM    8  C   UNL     1      -9.680   5.324  68.691  1.00  0.00    -0.199 C  
BRANCH   8   9
HETATM    9  C   UNL     1     -10.334   5.157  70.055  1.00  0.00    -0.347 C  
BRANCH   9  10
HETATM   10  C   UNL     1     -10.650   6.497  70.705  1.00  0.00    -0.233 C  
BRANCH  10  11
HETATM   11  N   UNL     1     -10.588   6.437  72.253  1.00  0.00    -0.208 N  
HETATM   12  C   UNL     1     -11.463   5.296  72.775  1.00  0.00    -0.247 C  
HETATM   13  C   UNL     1      -9.144   6.234  72.718  1.00  0.00    -0.131 C  
BRANCH  11  14
HETATM   14  C   UNL     1     -11.128   7.801  72.756  1.00  0.00    -0.398 C  
BRANCH  14  15
HETATM   15  C   UNL     1     -11.876   8.568  71.676  1.00  0.00    -0.370 C  
BRANCH  15  16
HETATM   16  C   UNL     1     -13.188   9.145  72.189  1.00  0.00    -0.524 C  
BRANCH  16  17
HETATM   17  C   UNL     1     -13.207  10.639  71.885  1.00  0.00    -0.528 C  
BRANCH  17  18
HETATM   18  C   UNL     1     -12.726  10.930  70.473  1.00  0.00    -0.363 C  
BRANCH  18  19
HETATM   19  C   UNL     1     -12.212  12.361  70.388  1.00  0.00    -0.370 C  
BRANCH  19  20
HETATM   20  C   UNL     1     -12.847  13.223  71.473  1.00  0.00    -0.419 C  
BRANCH  20  21
HETATM   21  C   UNL     1     -13.041  14.657  70.989  1.00  0.00    -0.427 C  
BRANCH  21  22
HETATM   22  C   UNL     1     -12.413  15.644  71.967  1.00  0.00    -0.503 C  
HETATM   23  C   UNL     1     -12.880  15.385  73.387  1.00  0.00    -0.662 C  
ENDBRANCH  21  22
ENDBRANCH  20  21
ENDBRANCH  19  20
ENDBRANCH  18  19
ENDBRANCH  17  18
ENDBRANCH  16  17
ENDBRANCH  15  16
ENDBRANCH  14  15
ENDBRANCH  11  14
ENDBRANCH  10  11
ENDBRANCH   9  10
ENDBRANCH   8   9
ENDBRANCH   7   8
ENDBRANCH   6   7
ENDBRANCH   5   6
ENDBRANCH   4   5
ENDBRANCH   3   4
ENDBRANCH   2   3
TORSDOF 18
ENDMDL
MODEL      228
REMARK 921   NORMALIZED FREE ENERGY PREDICTED BY IDOCK:   -2.88 KCAL/MOL
REMARK 922        TOTAL FREE ENERGY PREDICTED BY IDOCK:   -8.61 KCAL/MOL
REMARK 923 INTER-LIGAND FREE ENERGY PREDICTED BY IDOCK:   -7.21 KCAL/MOL
REMARK 924 INTRA-LIGAND FREE ENERGY PREDICTED BY IDOCK:   -1.40 KCAL/MOL
REMARK 927      BINDING AFFINITY PREDICTED BY RF-SCORE:    0.00 PKD
ROOT
HETATM    1  C   UNL     1      -7.730   9.104  70.783  1.00  0.00    -0.162 C  
HETATM    2  C   UNL     1      -7.549   9.968  69.549  1.00  0.00    -0.133 C  
ENDROOT
BRANCH   2   3
HETATM    3  C   UNL     1      -7.001   9.154  68.381  1.00  0.00    -0.068 C  
BRANCH   3   4
HETATM    4  C   UNL     1      -7.445   9.755  67.052  1.00  0.00    -0.091 C  
BRANCH   4   5
HETATM    5  C   UNL     1      -8.963   9.771  66.942  1.00  0.00    -0.154 C  
BRANCH   5   6
HETATM    6  C   UNL     1      -9.405   9.369  65.539  1.00  0.00    -0.315 C  
BRANCH   6   7
HETATM    7  C   UNL     1      -8.796  10.312  64.515  1.00  0.00    -0.223 C  
BRANCH   7   8
HETATM    8  C   UNL     1      -9.729  10.536  63.330  1.00  0.00    -0.361 C  
BRANCH   8   9
HETATM    9  C   UNL     1     -10.280  11.952  63.416  1.00  0.00    -0.478 C  
BRANCH   9  10
HETATM   10  C   UNL     1     -11.603  12.006  64.168  1.00  0.00    -0.379 C  
BRANCH  10  11
HETATM   11  N   UNL     1     -11.553  12.956  65.393  1.00  0.00    -0.334 N  
HETATM   12  C   UNL     1     -12.702  13.963  65.331  1.00  0.00    -0.490 C  
HETATM   13  C   UNL     1     -11.642  12.150  66.691  1.00  0.00    -0.350 C  
BRANCH  11  14
HETATM   14  C   UNL     1     -10.190  13.690  65.309  1.00  0.00    -0.323 C  
BRANCH  14  15
HETATM   15  C   UNL     1     -10.283  15.148  65.736  1.00  0.00    -0.365 C  
BRANCH  15  16
HETATM   16  C   UNL     1      -8.955  15.678  66.256  1.00  0.00    -0.377 C  
BRANCH  16  17
HETATM   17  C   UNL     1      -9.049  17.198  66.351  1.00  0.00    -0.285 C  
BRANCH  17  18
HETATM   18  C   UNL     1     -10.483  17.680  66.209  1.00  0.00    -0.292 C  
BRANCH  18  19
HETATM   19  C   UNL     1     -10.667  18.984  66.974  1.00  0.00    -0.516 C  
BRANCH  19  20
HETATM   20  C   UNL     1      -9.837  20.096  66.342  1.00  0.00    -0.560 C  
BRANCH  20  21
HETATM   21  C   UNL     1      -8.967  20.789  67.387  1.00  0.00    -0.278 C  
BRANCH  21  22
HETATM   22  C   UNL     1      -7.521  20.314  67.282  1.00  0.00    -0.338 C  
HETATM   23  C   UNL     1      -7.159  19.393  68.432  1.00  0.00    -0.339 C  
ENDBRANCH  21  22
ENDBRANCH  20  21
ENDBRANCH  19  20
ENDBRANCH  18  19
ENDBRANCH  17  18
ENDBRANCH  16  17
ENDBRANCH  15  16
ENDBRANCH  14  15
ENDBRANCH  11  14
ENDBRANCH  10  11
ENDBRANCH   9  10
ENDBRANCH   8   9
ENDBRANCH   7   8
ENDBRANCH   6   7
ENDBRANCH   5   6
ENDBRANCH   4   5
ENDBRANCH   3   4
ENDBRANCH   2   3
TORSDOF 18
ENDMDL
MODEL      229
REMARK 921   NORMALIZED FREE ENERGY PREDICTED BY IDOCK:   -2.88 KCAL/MOL
REMARK 922        TOTAL FREE ENERGY PREDICTED BY IDOCK:   -8.61 KCAL/MOL
REMARK 923 INTER-LIGAND FREE ENERGY PREDICTED BY IDOCK:   -6.93 KCAL/MOL
REMARK 924 INTRA-LIGAND FREE ENERGY PREDICTED BY IDOCK:   -1.68 KCAL/MOL
REMARK 927      BINDING AFFINITY PREDICTED BY RF-SCORE:    0.00 PKD
ROOT
HETATM    1  C   UNL     1     -11.832   6.114  72.207  1.00  0.00    -0.326 C  
HETATM    2  C   UNL     1     -10.831   6.615  71.183  1.00  0.00    -0.284 C  
ENDROOT
BRANCH   2   3
HETATM    3  C   UNL     1      -9.562   5.768  71.191  1.00  0.00    -0.201 C  
BRANCH   3   4
HETATM    4  C   UNL     1      -9.490   4.895  69.944  1.00  0.00    -0.229 C  
BRANCH   4   5
HETATM    5  C   UNL     1     -10.375   5.451  68.839  1.00  0.00    -0.260 C  
BRANCH   5   6
HETATM    6  C   UNL     1      -9.847   5.042  67.468  1.00  0.00    -0.201 C  
BRANCH   6   7
HETATM    7  C   UNL     1     -10.240   6.080  66.431  1.00  0.00    -0.135 C  
BRANCH   7   8
HETATM    8  C   UNL     1     -10.773   7.353  67.081  1.00  0.00    -0.400 C  
BRANCH   8   9
HETATM    9  C   UNL     1      -9.776   8.474  66.824  1.00  0.00    -0.303 C  
BRANCH   9  10
HETATM   10  C   UNL     1      -8.934   8.217  65.582  1.00  0.00    -0.109 C  
BRANCH  10  11
HETATM   11  N   UNL     1      -8.704   9.501  64.743  1.00  0.00    -0.185 N  
HETATM   12  C   UNL     1      -7.433  10.216  65.205  1.00  0.00    -0.141 C  
HETATM   13  C   UNL     1      -8.588   9.149  63.258  1.00  0.00    -0.175 C  
BRANCH  11  14
HETATM   14  C   UNL     1      -9.945  10.399  64.986  1.00  0.00    -0.330 C  
BRANCH  14  15
HETATM   15  C   UNL     1     -10.468  11.033  63.706  1.00  0.00    -0.408 C  
BRANCH  15  16
HETATM   16  C   UNL     1     -10.687  12.531  63.857  1.00  0.00    -0.473 C  
BRANCH  16  17
HETATM   17  C   UNL     1     -12.189  12.799  63.856  1.00  0.00    -0.543 C  
BRANCH  17  18
HETATM   18  C   UNL     1     -12.640  13.472  65.141  1.00  0.00    -0.485 C  
BRANCH  18  19
HETATM   19  C   UNL     1     -11.439  13.709  66.048  1.00  0.00    -0.340 C  
BRANCH  19  20
HETATM   20  C   UNL     1     -11.888  14.257  67.398  1.00  0.00    -0.441 C  
BRANCH  20  21
HETATM   21  C   UNL     1     -11.569  13.274  68.520  1.00  0.00    -0.368 C  
BRANCH  21  22
HETATM   22  C   UNL     1     -10.915  12.015  67.962  1.00  0.00    -0.267 C  
HETATM   23  C   UNL     1     -11.572  10.763  68.514  1.00  0.00    -0.325 C  
ENDBRANCH  21  22
ENDBRANCH  20  21
ENDBRANCH  19  20
ENDBRANCH  18  19
ENDBRANCH  17  18
ENDBRANCH  16  17
ENDBRANCH  15  16
ENDBRANCH  14  15
ENDBRANCH  11  14
ENDBRANCH  10  11
ENDBRANCH   9  10
ENDBRANCH   8   9
ENDBRANCH   7   8
ENDBRANCH   6   7
ENDBRANCH   5   6
ENDBRANCH   4   5
ENDBRANCH   3   4
ENDBRANCH   2   3
TORSDOF 18
ENDMDL
MODEL      230
REMARK 921   NORMALIZED FREE ENERGY PREDICTED BY IDOCK:   -2.87 KCAL/MOL
REMARK 922        TOTAL FREE ENERGY PREDICTED BY IDOCK:   -8.60 KCAL/MOL
REMARK 923 INTER-LIGAND FREE ENERGY PREDICTED BY IDOCK:   -7.16 KCAL/MOL
REMARK 924 INTRA-LIGAND FREE ENERGY PREDICTED BY IDOCK:   -1.44 KCAL/MOL
REMARK 927      BINDING AFFINITY PREDICTED BY RF-SCORE:    0.00 PKD
ROOT
HETATM    1  C   UNL     1      -8.477  16.853  68.164  1.00  0.00    -0.217 C  
HETATM    2  C   UNL     1      -9.377  16.323  67.063  1.00  0.00    -0.235 C  
ENDROOT
BRANCH   2   3
HETATM    3  C   UNL     1     -10.697  15.807  67.630  1.00  0.00    -0.310 C  
BRANCH   3   4
HETATM    4  C   UNL     1     -11.278  14.719  66.735  1.00  0.00    -0.344 C  
BRANCH   4   5
HETATM    5  C   UNL     1     -11.161  15.103  65.267  1.00  0.00    -0.389 C  
BRANCH   5   6
HETATM    6  C   UNL     1     -12.249  14.422  64.444  1.00  0.00    -0.481 C  
BRANCH   6   7
HETATM    7  C   UNL     1     -12.189  12.919  64.651  1.00  0.00    -0.494 C  
BRANCH   7   8
HETATM    8  C   UNL     1     -11.850  12.183  63.359  1.00  0.00    -0.553 C  
BRANCH   8   9
HETATM    9  C   UNL     1     -10.425  11.659  63.467  1.00  0.00    -0.498 C  
BRANCH   9  10
HETATM   10  C   UNL     1      -9.871  11.798  64.879  1.00  0.00    -0.223 C  
BRANCH  10  11
HETATM   11  N   UNL     1      -9.315  10.462  65.435  1.00  0.00    -0.188 N  
HETATM   12  C   UNL     1      -9.141   9.448  64.303  1.00  0.00    -0.106 C  
HETATM   13  C   UNL     1      -7.971  10.696  66.129  1.00  0.00    -0.151 C  
BRANCH  11  14
HETATM   14  C   UNL     1     -10.365   9.953  66.455  1.00  0.00    -0.188 C  
BRANCH  14  15
HETATM   15  C   UNL     1     -10.107   8.520  66.896  1.00  0.00    -0.364 C  
BRANCH  15  16
HETATM   16  C   UNL     1     -10.162   8.367  68.409  1.00  0.00    -0.239 C  
BRANCH  16  17
HETATM   17  C   UNL     1      -9.864   9.724  69.040  1.00  0.00    -0.183 C  
BRANCH  17  18
HETATM   18  C   UNL     1      -9.426   9.585  70.488  1.00  0.00    -0.306 C  
BRANCH  18  19
HETATM   19  C   UNL     1      -9.746   8.184  70.991  1.00  0.00    -0.193 C  
BRANCH  19  20
HETATM   20  C   UNL     1      -9.997   8.200  72.495  1.00  0.00    -0.372 C  
BRANCH  20  21
HETATM   21  C   UNL     1     -11.485   8.055  72.802  1.00  0.00    -0.420 C  
BRANCH  21  22
HETATM   22  C   UNL     1     -12.278   7.823  71.520  1.00  0.00    -0.344 C  
HETATM   23  C   UNL     1     -13.563   8.630  71.515  1.00  0.00    -0.356 C  
ENDBRANCH  21  22
ENDBRANCH  20  21
ENDBRANCH  19  20
ENDBRANCH  18  19
ENDBRANCH  17  18
ENDBRANCH  16  17
ENDBRANCH  15  16
ENDBRANCH  14  15
ENDBRANCH  11  14
ENDBRANCH  10  11
ENDBRANCH   9  10
ENDBRANCH   8   9
ENDBRANCH   7   8
ENDBRANCH   6   7
ENDBRANCH   5   6
ENDBRANCH   4   5
ENDBRANCH   3   4
ENDBRANCH   2   3
TORSDOF 18
ENDMDL
MODEL      231
REMARK 921   NORMALIZED FREE ENERGY PREDICTED BY IDOCK:   -2.87 KCAL/MOL
REMARK 922        TOTAL FREE ENERGY PREDICTED BY IDOCK:   -8.59 KCAL/MOL
REMARK 923 INTER-LIGAND FREE ENERGY PREDICTED BY IDOCK:   -6.61 KCAL/MOL
REMARK 924 INTRA-LIGAND FREE ENERGY PREDICTED BY IDOCK:   -1.98 KCAL/MOL
REMARK 927      BINDING AFFINITY PREDICTED BY RF-SCORE:    0.00 PKD
ROOT
HETATM    1  C   UNL     1      -7.377   9.227  70.229  1.00  0.00    -0.100 C  
HETATM    2  C   UNL     1      -8.462  10.143  69.694  1.00  0.00    -0.172 C  
ENDROOT
BRANCH   2   3
HETATM    3  C   UNL     1      -9.847   9.662  70.114  1.00  0.00    -0.310 C  
BRANCH   3   4
HETATM    4  C   UNL     1      -9.789   8.976  71.475  1.00  0.00    -0.381 C  
BRANCH   4   5
HETATM    5  C   UNL     1     -11.180   8.574  71.940  1.00  0.00    -0.397 C  
BRANCH   5   6
HETATM    6  C   UNL     1     -11.359   7.062  71.860  1.00  0.00    -0.291 C  
BRANCH   6   7
HETATM    7  C   UNL     1     -11.862   6.673  70.480  1.00  0.00    -0.430 C  
BRANCH   7   8
HETATM    8  C   UNL     1     -10.856   5.800  69.737  1.00  0.00    -0.419 C  
BRANCH   8   9
HETATM    9  C   UNL     1     -10.541   6.462  68.404  1.00  0.00    -0.311 C  
BRANCH   9  10
HETATM   10  C   UNL     1      -9.043   6.634  68.190  1.00  0.00    -0.119 C  
BRANCH  10  11
HETATM   11  N   UNL     1      -8.706   7.246  66.806  1.00  0.00    -0.125 N  
HETATM   12  C   UNL     1      -7.311   7.872  66.828  1.00  0.00    -0.089 C  
HETATM   13  C   UNL     1      -8.772   6.169  65.721  1.00  0.00    -0.145 C  
BRANCH  11  14
HETATM   14  C   UNL     1      -9.779   8.335  66.547  1.00  0.00    -0.253 C  
BRANCH  14  15
HETATM   15  C   UNL     1      -9.173   9.665  66.123  1.00  0.00    -0.222 C  
BRANCH  15  16
HETATM   16  C   UNL     1      -9.470   9.991  64.666  1.00  0.00    -0.367 C  
BRANCH  16  17
HETATM   17  C   UNL     1     -10.600  11.014  64.624  1.00  0.00    -0.369 C  
BRANCH  17  18
HETATM   18  C   UNL     1     -10.434  12.077  65.698  1.00  0.00    -0.293 C  
BRANCH  18  19
HETATM   19  C   UNL     1     -11.769  12.328  66.386  1.00  0.00    -0.431 C  
BRANCH  19  20
HETATM   20  C   UNL     1     -11.592  13.273  67.569  1.00  0.00    -0.388 C  
BRANCH  20  21
HETATM   21  C   UNL     1     -11.553  14.727  67.106  1.00  0.00    -0.373 C  
BRANCH  21  22
HETATM   22  C   UNL     1     -10.332  15.440  67.675  1.00  0.00    -0.262 C  
HETATM   23  C   UNL     1     -10.665  16.865  68.078  1.00  0.00    -0.364 C  
ENDBRANCH  21  22
ENDBRANCH  20  21
ENDBRANCH  19  20
ENDBRANCH  18  19
ENDBRANCH  17  18
ENDBRANCH  16  17
ENDBRANCH  15  16
ENDBRANCH  14  15
ENDBRANCH  11  14
ENDBRANCH  10  11
ENDBRANCH   9  10
ENDBRANCH   8   9
ENDBRANCH   7   8
ENDBRANCH   6   7
ENDBRANCH   5   6
ENDBRANCH   4   5
ENDBRANCH   3   4
ENDBRANCH   2   3
TORSDOF 18
ENDMDL
MODEL      232
REMARK 921   NORMALIZED FREE ENERGY PREDICTED BY IDOCK:   -2.87 KCAL/MOL
REMARK 922        TOTAL FREE ENERGY PREDICTED BY IDOCK:   -8.58 KCAL/MOL
REMARK 923 INTER-LIGAND FREE ENERGY PREDICTED BY IDOCK:   -7.32 KCAL/MOL
REMARK 924 INTRA-LIGAND FREE ENERGY PREDICTED BY IDOCK:   -1.27 KCAL/MOL
REMARK 927      BINDING AFFINITY PREDICTED BY RF-SCORE:    0.00 PKD
ROOT
HETATM    1  C   UNL     1     -12.211  12.378  63.871  1.00  0.00    -0.603 C  
HETATM    2  C   UNL     1     -10.736  12.245  64.199  1.00  0.00    -0.412 C  
ENDROOT
BRANCH   2   3
HETATM    3  C   UNL     1     -10.056  11.232  63.283  1.00  0.00    -0.428 C  
BRANCH   3   4
HETATM    4  C   UNL     1      -9.195  10.269  64.093  1.00  0.00    -0.309 C  
BRANCH   4   5
HETATM    5  C   UNL     1      -7.832  10.082  63.444  1.00  0.00    -0.151 C  
BRANCH   5   6
HETATM    6  C   UNL     1      -6.801   9.639  64.478  1.00  0.00    -0.107 C  
BRANCH   6   7
HETATM    7  C   UNL     1      -7.501   9.215  65.757  1.00  0.00    -0.090 C  
BRANCH   7   8
HETATM    8  C   UNL     1      -6.918   9.918  66.979  1.00  0.00    -0.088 C  
BRANCH   8   9
HETATM    9  C   UNL     1      -7.770   9.558  68.188  1.00  0.00    -0.083 C  
BRANCH   9  10
HETATM   10  C   UNL     1      -8.569   8.282  67.965  1.00  0.00    -0.132 C  
BRANCH  10  11
HETATM   11  N   UNL     1     -10.080   8.466  68.266  1.00  0.00    -0.192 N  
HETATM   12  C   UNL     1     -10.614   9.711  67.558  1.00  0.00    -0.277 C  
HETATM   13  C   UNL     1     -10.864   7.234  67.806  1.00  0.00    -0.144 C  
BRANCH  11  14
HETATM   14  C   UNL     1     -10.193   8.631  69.803  1.00  0.00    -0.206 C  
BRANCH  14  15
HETATM   15  C   UNL     1     -10.631  10.030  70.210  1.00  0.00    -0.354 C  
BRANCH  15  16
HETATM   16  C   UNL     1     -11.799  10.004  71.186  1.00  0.00    -0.481 C  
BRANCH  16  17
HETATM   17  C   UNL     1     -12.713  11.183  70.872  1.00  0.00    -0.438 C  
BRANCH  17  18
HETATM   18  C   UNL     1     -11.939  12.354  70.291  1.00  0.00    -0.371 C  
BRANCH  18  19
HETATM   19  C   UNL     1     -12.639  13.660  70.639  1.00  0.00    -0.366 C  
BRANCH  19  20
HETATM   20  C   UNL     1     -11.640  14.811  70.672  1.00  0.00    -0.324 C  
BRANCH  20  21
HETATM   21  C   UNL     1     -11.418  15.302  72.099  1.00  0.00    -0.499 C  
BRANCH  21  22
HETATM   22  C   UNL     1     -12.749  15.470  72.823  1.00  0.00    -0.532 C  
HETATM   23  C   UNL     1     -12.542  15.705  74.308  1.00  0.00    -0.732 C  
ENDBRANCH  21  22
ENDBRANCH  20  21
ENDBRANCH  19  20
ENDBRANCH  18  19
ENDBRANCH  17  18
ENDBRANCH  16  17
ENDBRANCH  15  16
ENDBRANCH  14  15
ENDBRANCH  11  14
ENDBRANCH  10  11
ENDBRANCH   9  10
ENDBRANCH   8   9
ENDBRANCH   7   8
ENDBRANCH   6   7
ENDBRANCH   5   6
ENDBRANCH   4   5
ENDBRANCH   3   4
ENDBRANCH   2   3
TORSDOF 18
ENDMDL
MODEL      233
REMARK 921   NORMALIZED FREE ENERGY PREDICTED BY IDOCK:   -2.86 KCAL/MOL
REMARK 922        TOTAL FREE ENERGY PREDICTED BY IDOCK:   -8.58 KCAL/MOL
REMARK 923 INTER-LIGAND FREE ENERGY PREDICTED BY IDOCK:   -7.13 KCAL/MOL
REMARK 924 INTRA-LIGAND FREE ENERGY PREDICTED BY IDOCK:   -1.45 KCAL/MOL
REMARK 927      BINDING AFFINITY PREDICTED BY RF-SCORE:    0.00 PKD
ROOT
HETATM    1  C   UNL     1      -7.069   7.409  69.695  1.00  0.00    -0.072 C  
HETATM    2  C   UNL     1      -7.584   8.662  70.380  1.00  0.00    -0.075 C  
ENDROOT
BRANCH   2   3
HETATM    3  C   UNL     1      -8.162   8.341  71.755  1.00  0.00    -0.186 C  
BRANCH   3   4
HETATM    4  C   UNL     1      -9.668   8.122  71.667  1.00  0.00    -0.238 C  
BRANCH   4   5
HETATM    5  C   UNL     1     -10.354   9.319  71.024  1.00  0.00    -0.388 C  
BRANCH   5   6
HETATM    6  C   UNL     1     -11.785   9.456  71.534  1.00  0.00    -0.465 C  
BRANCH   6   7
HETATM    7  C   UNL     1     -12.236  10.902  71.424  1.00  0.00    -0.332 C  
BRANCH   7   8
HETATM    8  C   UNL     1     -12.390  11.337  69.970  1.00  0.00    -0.330 C  
BRANCH   8   9
HETATM    9  C   UNL     1     -11.760  12.714  69.813  1.00  0.00    -0.354 C  
BRANCH   9  10
HETATM   10  C   UNL     1     -11.013  12.853  68.494  1.00  0.00    -0.259 C  
BRANCH  10  11
HETATM   11  N   UNL     1     -11.128  14.278  67.893  1.00  0.00    -0.269 N  
HETATM   12  C   UNL     1     -11.783  15.227  68.897  1.00  0.00    -0.342 C  
HETATM   13  C   UNL     1      -9.742  14.805  67.512  1.00  0.00    -0.213 C  
BRANCH  11  14
HETATM   14  C   UNL     1     -12.015  14.138  66.629  1.00  0.00    -0.444 C  
BRANCH  14  15
HETATM   15  C   UNL     1     -11.200  14.095  65.344  1.00  0.00    -0.325 C  
BRANCH  15  16
HETATM   16  C   UNL     1     -12.021  13.601  64.161  1.00  0.00    -0.488 C  
BRANCH  16  17
HETATM   17  C   UNL     1     -11.707  12.125  63.941  1.00  0.00    -0.546 C  
BRANCH  17  18
HETATM   18  C   UNL     1     -10.336  11.758  64.482  1.00  0.00    -0.340 C  
BRANCH  18  19
HETATM   19  C   UNL     1      -9.793  10.548  63.733  1.00  0.00    -0.363 C  
BRANCH  19  20
HETATM   20  C   UNL     1      -9.083   9.599  64.692  1.00  0.00    -0.286 C  
BRANCH  20  21
HETATM   21  C   UNL     1      -9.896   9.403  65.969  1.00  0.00    -0.366 C  
BRANCH  21  22
HETATM   22  C   UNL     1      -9.662   8.013  66.548  1.00  0.00    -0.297 C  
HETATM   23  C   UNL     1      -8.501   7.318  65.860  1.00  0.00    -0.148 C  
ENDBRANCH  21  22
ENDBRANCH  20  21
ENDBRANCH  19  20
ENDBRANCH  18  19
ENDBRANCH  17  18
ENDBRANCH  16  17
ENDBRANCH  15  16
ENDBRANCH  14  15
ENDBRANCH  11  14
ENDBRANCH  10  11
ENDBRANCH   9  10
ENDBRANCH   8   9
ENDBRANCH   7   8
ENDBRANCH   6   7
ENDBRANCH   5   6
ENDBRANCH   4   5
ENDBRANCH   3   4
ENDBRANCH   2   3
TORSDOF 18
ENDMDL
MODEL      234
REMARK 921   NORMALIZED FREE ENERGY PREDICTED BY IDOCK:   -2.86 KCAL/MOL
REMARK 922        TOTAL FREE ENERGY PREDICTED BY IDOCK:   -8.57 KCAL/MOL
REMARK 923 INTER-LIGAND FREE ENERGY PREDICTED BY IDOCK:   -6.97 KCAL/MOL
REMARK 924 INTRA-LIGAND FREE ENERGY PREDICTED BY IDOCK:   -1.60 KCAL/MOL
REMARK 927      BINDING AFFINITY PREDICTED BY RF-SCORE:    0.00 PKD
ROOT
HETATM    1  C   UNL     1     -11.655   6.788  70.040  1.00  0.00    -0.367 C  
HETATM    2  C   UNL     1     -12.534   6.833  71.276  1.00  0.00    -0.365 C  
ENDROOT
BRANCH   2   3
HETATM    3  C   UNL     1     -12.426   8.182  71.981  1.00  0.00    -0.375 C  
BRANCH   3   4
HETATM    4  C   UNL     1     -10.966   8.591  72.139  1.00  0.00    -0.427 C  
BRANCH   4   5
HETATM    5  C   UNL     1     -10.258   7.699  73.148  1.00  0.00    -0.401 C  
BRANCH   5   6
HETATM    6  C   UNL     1      -8.747   7.753  72.947  1.00  0.00    -0.220 C  
BRANCH   6   7
HETATM    7  C   UNL     1      -8.422   7.732  71.463  1.00  0.00    -0.129 C  
BRANCH   7   8
HETATM    8  C   UNL     1      -7.468   8.858  71.078  1.00  0.00    -0.124 C  
BRANCH   8   9
HETATM    9  C   UNL     1      -8.128   9.693  69.990  1.00  0.00    -0.190 C  
BRANCH   9  10
HETATM   10  C   UNL     1      -8.761   8.826  68.910  1.00  0.00    -0.134 C  
BRANCH  10  11
HETATM   11  N   UNL     1      -9.663   9.640  67.947  1.00  0.00    -0.143 N  
HETATM   12  C   UNL     1      -8.823  10.639  67.150  1.00  0.00    -0.137 C  
HETATM   13  C   UNL     1     -10.396   8.699  66.987  1.00  0.00    -0.298 C  
BRANCH  11  14
HETATM   14  C   UNL     1     -10.681  10.389  68.845  1.00  0.00    -0.224 C  
BRANCH  14  15
HETATM   15  C   UNL     1     -11.498  11.415  68.073  1.00  0.00    -0.377 C  
BRANCH  15  16
HETATM   16  C   UNL     1     -11.658  12.717  68.845  1.00  0.00    -0.362 C  
BRANCH  16  17
HETATM   17  C   UNL     1     -11.995  13.825  67.853  1.00  0.00    -0.391 C  
BRANCH  17  18
HETATM   18  C   UNL     1     -11.358  13.574  66.496  1.00  0.00    -0.340 C  
BRANCH  18  19
HETATM   19  C   UNL     1     -10.165  14.502  66.307  1.00  0.00    -0.306 C  
BRANCH  19  20
HETATM   20  C   UNL     1     -10.621  15.858  65.778  1.00  0.00    -0.368 C  
BRANCH  20  21
HETATM   21  C   UNL     1     -10.222  16.979  66.733  1.00  0.00    -0.298 C  
BRANCH  21  22
HETATM   22  C   UNL     1     -10.513  18.342  66.114  1.00  0.00    -0.403 C  
HETATM   23  C   UNL     1     -10.631  19.416  67.179  1.00  0.00    -0.596 C  
ENDBRANCH  21  22
ENDBRANCH  20  21
ENDBRANCH  19  20
ENDBRANCH  18  19
ENDBRANCH  17  18
ENDBRANCH  16  17
ENDBRANCH  15  16
ENDBRANCH  14  15
ENDBRANCH  11  14
ENDBRANCH  10  11
ENDBRANCH   9  10
ENDBRANCH   8   9
ENDBRANCH   7   8
ENDBRANCH   6   7
ENDBRANCH   5   6
ENDBRANCH   4   5
ENDBRANCH   3   4
ENDBRANCH   2   3
TORSDOF 18
ENDMDL
MODEL      235
REMARK 921   NORMALIZED FREE ENERGY PREDICTED BY IDOCK:   -2.86 KCAL/MOL
REMARK 922        TOTAL FREE ENERGY PREDICTED BY IDOCK:   -8.57 KCAL/MOL
REMARK 923 INTER-LIGAND FREE ENERGY PREDICTED BY IDOCK:   -7.09 KCAL/MOL
REMARK 924 INTRA-LIGAND FREE ENERGY PREDICTED BY IDOCK:   -1.48 KCAL/MOL
REMARK 927      BINDING AFFINITY PREDICTED BY RF-SCORE:    0.00 PKD
ROOT
HETATM    1  C   UNL     1     -10.696  17.566  67.665  1.00  0.00    -0.306 C  
HETATM    2  C   UNL     1      -9.666  17.173  66.622  1.00  0.00    -0.285 C  
ENDROOT
BRANCH   2   3
HETATM    3  C   UNL     1      -8.467  18.117  66.648  1.00  0.00    -0.282 C  
BRANCH   3   4
HETATM    4  C   UNL     1      -7.254  17.429  67.262  1.00  0.00    -0.192 C  
BRANCH   4   5
HETATM    5  C   UNL     1      -7.351  17.408  68.780  1.00  0.00    -0.257 C  
BRANCH   5   6
HETATM    6  C   UNL     1      -6.951  16.041  69.326  1.00  0.00    -0.205 C  
BRANCH   6   7
HETATM    7  C   UNL     1      -7.968  14.996  68.899  1.00  0.00    -0.169 C  
BRANCH   7   8
HETATM    8  C   UNL     1      -7.385  14.025  67.877  1.00  0.00    -0.162 C  
BRANCH   8   9
HETATM    9  C   UNL     1      -8.535  13.283  67.213  1.00  0.00    -0.203 C  
BRANCH   9  10
HETATM   10  C   UNL     1      -9.828  13.404  68.008  1.00  0.00    -0.229 C  
BRANCH  10  11
HETATM   11  N   UNL     1     -11.076  13.001  67.180  1.00  0.00    -0.265 N  
HETATM   12  C   UNL     1     -12.015  14.196  67.018  1.00  0.00    -0.439 C  
HETATM   13  C   UNL     1     -10.652  12.486  65.802  1.00  0.00    -0.270 C  
BRANCH  11  14
HETATM   14  C   UNL     1     -11.775  11.873  67.983  1.00  0.00    -0.312 C  
BRANCH  14  15
HETATM   15  C   UNL     1     -11.354  11.849  69.445  1.00  0.00    -0.327 C  
BRANCH  15  16
HETATM   16  C   UNL     1     -12.340  12.590  70.337  1.00  0.00    -0.311 C  
BRANCH  16  17
HETATM   17  C   UNL     1     -12.824  11.630  71.419  1.00  0.00    -0.461 C  
BRANCH  17  18
HETATM   18  C   UNL     1     -12.938  10.208  70.896  1.00  0.00    -0.432 C  
BRANCH  18  19
HETATM   19  C   UNL     1     -13.195   9.252  72.053  1.00  0.00    -0.519 C  
BRANCH  19  20
HETATM   20  C   UNL     1     -13.354   7.824  71.542  1.00  0.00    -0.365 C  
BRANCH  20  21
HETATM   21  C   UNL     1     -12.089   7.009  71.796  1.00  0.00    -0.371 C  
BRANCH  21  22
HETATM   22  C   UNL     1     -11.210   7.691  72.837  1.00  0.00    -0.426 C  
HETATM   23  C   UNL     1      -9.838   8.013  72.274  1.00  0.00    -0.301 C  
ENDBRANCH  21  22
ENDBRANCH  20  21
ENDBRANCH  19  20
ENDBRANCH  18  19
ENDBRANCH  17  18
ENDBRANCH  16  17
ENDBRANCH  15  16
ENDBRANCH  14  15
ENDBRANCH  11  14
ENDBRANCH  10  11
ENDBRANCH   9  10
ENDBRANCH   8   9
ENDBRANCH   7   8
ENDBRANCH   6   7
ENDBRANCH   5   6
ENDBRANCH   4   5
ENDBRANCH   3   4
ENDBRANCH   2   3
TORSDOF 18
ENDMDL
MODEL      236
REMARK 921   NORMALIZED FREE ENERGY PREDICTED BY IDOCK:   -2.86 KCAL/MOL
REMARK 922        TOTAL FREE ENERGY PREDICTED BY IDOCK:   -8.57 KCAL/MOL
REMARK 923 INTER-LIGAND FREE ENERGY PREDICTED BY IDOCK:   -6.65 KCAL/MOL
REMARK 924 INTRA-LIGAND FREE ENERGY PREDICTED BY IDOCK:   -1.92 KCAL/MOL
REMARK 927      BINDING AFFINITY PREDICTED BY RF-SCORE:    0.00 PKD
ROOT
HETATM    1  C   UNL     1     -12.037  15.242  69.831  1.00  0.00    -0.375 C  
HETATM    2  C   UNL     1     -11.659  14.497  68.564  1.00  0.00    -0.344 C  
ENDROOT
BRANCH   2   3
HETATM    3  C   UNL     1     -10.144  14.403  68.411  1.00  0.00    -0.244 C  
BRANCH   3   4
HETATM    4  C   UNL     1      -9.679  15.165  67.175  1.00  0.00    -0.230 C  
BRANCH   4   5
HETATM    5  C   UNL     1     -10.867  15.707  66.393  1.00  0.00    -0.252 C  
BRANCH   5   6
HETATM    6  C   UNL     1     -10.911  15.100  64.994  1.00  0.00    -0.457 C  
BRANCH   6   7
HETATM    7  C   UNL     1     -12.182  14.286  64.824  1.00  0.00    -0.456 C  
BRANCH   7   8
HETATM    8  C   UNL     1     -11.879  12.842  64.436  1.00  0.00    -0.446 C  
BRANCH   8   9
HETATM    9  C   UNL     1     -11.453  12.090  65.689  1.00  0.00    -0.372 C  
BRANCH   9  10
HETATM   10  C   UNL     1     -10.097  11.420  65.520  1.00  0.00    -0.247 C  
BRANCH  10  11
HETATM   11  N   UNL     1      -9.862  10.283  66.549  1.00  0.00    -0.203 N  
HETATM   12  C   UNL     1     -11.136  10.026  67.356  1.00  0.00    -0.085 C  
HETATM   13  C   UNL     1      -9.437   9.000  65.832  1.00  0.00    -0.249 C  
BRANCH  11  14
HETATM   14  C   UNL     1      -8.727  10.778  67.482  1.00  0.00    -0.125 C  
BRANCH  14  15
HETATM   15  C   UNL     1      -9.167  10.885  68.934  1.00  0.00    -0.168 C  
BRANCH  15  16
HETATM   16  C   UNL     1      -8.736   9.677  69.753  1.00  0.00    -0.221 C  
BRANCH  16  17
HETATM   17  C   UNL     1      -9.720   9.503  70.905  1.00  0.00    -0.242 C  
BRANCH  17  18
HETATM   18  C   UNL     1      -9.378   8.292  71.757  1.00  0.00    -0.266 C  
BRANCH  18  19
HETATM   19  C   UNL     1     -10.657   7.639  72.263  1.00  0.00    -0.298 C  
BRANCH  19  20
HETATM   20  C   UNL     1     -10.506   6.123  72.302  1.00  0.00    -0.229 C  
BRANCH  20  21
HETATM   21  C   UNL     1     -10.472   5.541  70.892  1.00  0.00    -0.319 C  
BRANCH  21  22
HETATM   22  C   UNL     1     -11.496   6.234  70.000  1.00  0.00    -0.460 C  
HETATM   23  C   UNL     1     -10.916   6.542  68.632  1.00  0.00    -0.363 C  
ENDBRANCH  21  22
ENDBRANCH  20  21
ENDBRANCH  19  20
ENDBRANCH  18  19
ENDBRANCH  17  18
ENDBRANCH  16  17
ENDBRANCH  15  16
ENDBRANCH  14  15
ENDBRANCH  11  14
ENDBRANCH  10  11
ENDBRANCH   9  10
ENDBRANCH   8   9
ENDBRANCH   7   8
ENDBRANCH   6   7
ENDBRANCH   5   6
ENDBRANCH   4   5
ENDBRANCH   3   4
ENDBRANCH   2   3
TORSDOF 18
ENDMDL
MODEL      237
REMARK 921   NORMALIZED FREE ENERGY PREDICTED BY IDOCK:   -2.85 KCAL/MOL
REMARK 922        TOTAL FREE ENERGY PREDICTED BY IDOCK:   -8.56 KCAL/MOL
REMARK 923 INTER-LIGAND FREE ENERGY PREDICTED BY IDOCK:   -6.27 KCAL/MOL
REMARK 924 INTRA-LIGAND FREE ENERGY PREDICTED BY IDOCK:   -2.28 KCAL/MOL
REMARK 927      BINDING AFFINITY PREDICTED BY RF-SCORE:    0.00 PKD
ROOT
HETATM    1  C   UNL     1     -12.067   8.366  72.259  1.00  0.00    -0.456 C  
HETATM    2  C   UNL     1     -10.966   7.662  73.032  1.00  0.00    -0.457 C  
ENDROOT
BRANCH   2   3
HETATM    3  C   UNL     1     -11.169   6.150  73.026  1.00  0.00    -0.206 C  
BRANCH   3   4
HETATM    4  C   UNL     1      -9.888   5.438  72.605  1.00  0.00    -0.184 C  
BRANCH   4   5
HETATM    5  C   UNL     1     -10.037   4.827  71.220  1.00  0.00    -0.258 C  
BRANCH   5   6
HETATM    6  C   UNL     1      -9.544   5.795  70.149  1.00  0.00    -0.208 C  
BRANCH   6   7
HETATM    7  C   UNL     1     -10.702   6.217  69.261  1.00  0.00    -0.383 C  
BRANCH   7   8
HETATM    8  C   UNL     1     -10.589   7.679  68.842  1.00  0.00    -0.176 C  
BRANCH   8   9
HETATM    9  C   UNL     1      -9.465   8.320  69.644  1.00  0.00    -0.163 C  
BRANCH   9  10
HETATM   10  C   UNL     1      -9.253   9.779  69.264  1.00  0.00    -0.192 C  
BRANCH  10  11
HETATM   11  N   UNL     1      -7.964   9.995  68.429  1.00  0.00    -0.096 N  
HETATM   12  C   UNL     1      -7.276  11.297  68.842  1.00  0.00    -0.112 C  
HETATM   13  C   UNL     1      -7.004   8.820  68.625  1.00  0.00    -0.064 C  
BRANCH  11  14
HETATM   14  C   UNL     1      -8.422  10.075  66.950  1.00  0.00    -0.125 C  
BRANCH  14  15
HETATM   15  C   UNL     1      -9.092  11.399  66.615  1.00  0.00    -0.187 C  
BRANCH  15  16
HETATM   16  C   UNL     1     -10.239  11.227  65.629  1.00  0.00    -0.304 C  
BRANCH  16  17
HETATM   17  C   UNL     1     -11.490  11.855  66.234  1.00  0.00    -0.367 C  
BRANCH  17  18
HETATM   18  C   UNL     1     -12.215  12.738  65.232  1.00  0.00    -0.535 C  
BRANCH  18  19
HETATM   19  C   UNL     1     -11.203  13.539  64.424  1.00  0.00    -0.399 C  
BRANCH  19  20
HETATM   20  C   UNL     1     -11.089  14.960  64.967  1.00  0.00    -0.422 C  
BRANCH  20  21
HETATM   21  C   UNL     1      -9.825  15.124  65.805  1.00  0.00    -0.384 C  
BRANCH  21  22
HETATM   22  C   UNL     1     -10.150  15.776  67.145  1.00  0.00    -0.251 C  
HETATM   23  C   UNL     1     -11.291  15.060  67.843  1.00  0.00    -0.344 C  
ENDBRANCH  21  22
ENDBRANCH  20  21
ENDBRANCH  19  20
ENDBRANCH  18  19
ENDBRANCH  17  18
ENDBRANCH  16  17
ENDBRANCH  15  16
ENDBRANCH  14  15
ENDBRANCH  11  14
ENDBRANCH  10  11
ENDBRANCH   9  10
ENDBRANCH   8   9
ENDBRANCH   7   8
ENDBRANCH   6   7
ENDBRANCH   5   6
ENDBRANCH   4   5
ENDBRANCH   3   4
ENDBRANCH   2   3
TORSDOF 18
ENDMDL
MODEL      238
REMARK 921   NORMALIZED FREE ENERGY PREDICTED BY IDOCK:   -2.85 KCAL/MOL
REMARK 922        TOTAL FREE ENERGY PREDICTED BY IDOCK:   -8.56 KCAL/MOL
REMARK 923 INTER-LIGAND FREE ENERGY PREDICTED BY IDOCK:   -6.16 KCAL/MOL
REMARK 924 INTRA-LIGAND FREE ENERGY PREDICTED BY IDOCK:   -2.40 KCAL/MOL
REMARK 927      BINDING AFFINITY PREDICTED BY RF-SCORE:    0.00 PKD
ROOT
HETATM    1  C   UNL     1      -6.848  16.290  67.841  1.00  0.00    -0.152 C  
HETATM    2  C   UNL     1      -7.690  16.230  66.581  1.00  0.00    -0.286 C  
ENDROOT
BRANCH   2   3
HETATM    3  C   UNL     1      -8.914  15.340  66.776  1.00  0.00    -0.291 C  
BRANCH   3   4
HETATM    4  C   UNL     1      -9.331  14.701  65.457  1.00  0.00     0.207 C  
BRANCH   4   5
HETATM    5  C   UNL     1     -10.713  15.176  65.036  1.00  0.00    -0.451 C  
BRANCH   5   6
HETATM    6  C   UNL     1     -11.789  14.550  65.918  1.00  0.00    -0.334 C  
BRANCH   6   7
HETATM    7  C   UNL     1     -12.586  13.533  65.118  1.00  0.00    -0.485 C  
BRANCH   7   8
HETATM    8  C   UNL     1     -11.824  13.066  63.881  1.00  0.00    -0.542 C  
BRANCH   8   9
HETATM    9  C   UNL     1     -11.443  11.606  64.079  1.00  0.00    -0.404 C  
BRANCH   9  10
HETATM   10  C   UNL     1      -9.971  11.443  64.434  1.00  0.00    -0.274 C  
BRANCH  10  11
HETATM   11  N   UNL     1      -9.760  10.638  65.742  1.00  0.00    -0.208 N  
HETATM   12  C   UNL     1      -9.594   9.150  65.430  1.00  0.00    -0.096 C  
HETATM   13  C   UNL     1      -8.525  11.151  66.486  1.00  0.00    -0.165 C  
BRANCH  11  14
HETATM   14  C   UNL     1     -11.034  10.868  66.596  1.00  0.00    -0.148 C  
BRANCH  14  15
HETATM   15  C   UNL     1     -10.776  10.709  68.087  1.00  0.00    -0.267 C  
BRANCH  15  16
HETATM   16  C   UNL     1     -11.438  11.810  68.903  1.00  0.00    -0.357 C  
BRANCH  16  17
HETATM   17  C   UNL     1     -10.558  13.054  68.834  1.00  0.00    -0.157 C  
BRANCH  17  18
HETATM   18  C   UNL     1     -11.314  14.300  69.264  1.00  0.00    -0.322 C  
BRANCH  18  19
HETATM   19  C   UNL     1     -10.464  15.109  70.234  1.00  0.00    -0.151 C  
BRANCH  19  20
HETATM   20  C   UNL     1     -10.808  16.592  70.138  1.00  0.00    -0.208 C  
BRANCH  20  21
HETATM   21  C   UNL     1     -10.919  17.034  68.682  1.00  0.00    -0.217 C  
BRANCH  21  22
HETATM   22  C   UNL     1     -10.197  18.360  68.467  1.00  0.00    -0.394 C  
HETATM   23  C   UNL     1     -10.296  18.812  67.022  1.00  0.00    -0.454 C  
ENDBRANCH  21  22
ENDBRANCH  20  21
ENDBRANCH  19  20
ENDBRANCH  18  19
ENDBRANCH  17  18
ENDBRANCH  16  17
ENDBRANCH  15  16
ENDBRANCH  14  15
ENDBRANCH  11  14
ENDBRANCH  10  11
ENDBRANCH   9  10
ENDBRANCH   8   9
ENDBRANCH   7   8
ENDBRANCH   6   7
ENDBRANCH   5   6
ENDBRANCH   4   5
ENDBRANCH   3   4
ENDBRANCH   2   3
TORSDOF 18
ENDMDL
MODEL      239
REMARK 921   NORMALIZED FREE ENERGY PREDICTED BY IDOCK:   -2.85 KCAL/MOL
REMARK 922        TOTAL FREE ENERGY PREDICTED BY IDOCK:   -8.55 KCAL/MOL
REMARK 923 INTER-LIGAND FREE ENERGY PREDICTED BY IDOCK:   -6.13 KCAL/MOL
REMARK 924 INTRA-LIGAND FREE ENERGY PREDICTED BY IDOCK:   -2.42 KCAL/MOL
REMARK 927      BINDING AFFINITY PREDICTED BY RF-SCORE:    0.00 PKD
ROOT
HETATM    1  C   UNL     1      -7.087  10.798  68.444  1.00  0.00    -0.075 C  
HETATM    2  C   UNL     1      -6.754  11.605  67.203  1.00  0.00    -0.142 C  
ENDROOT
BRANCH   2   3
HETATM    3  C   UNL     1      -6.576  10.701  65.987  1.00  0.00    -0.128 C  
BRANCH   3   4
HETATM    4  C   UNL     1      -7.168   9.321  66.253  1.00  0.00    -0.088 C  
BRANCH   4   5
HETATM    5  C   UNL     1      -7.989   8.844  65.064  1.00  0.00    -0.125 C  
BRANCH   5   6
HETATM    6  C   UNL     1      -8.128   9.953  64.026  1.00  0.00    -0.152 C  
BRANCH   6   7
HETATM    7  C   UNL     1      -9.595  10.291  63.823  1.00  0.00    -0.344 C  
BRANCH   7   8
HETATM    8  C   UNL     1      -9.774  11.629  63.114  1.00  0.00    -0.385 C  
BRANCH   8   9
HETATM    9  C   UNL     1     -10.855  12.416  63.841  1.00  0.00    -0.465 C  
BRANCH   9  10
HETATM   10  C   UNL     1     -10.304  13.163  65.047  1.00  0.00    -0.330 C  
BRANCH  10  11
HETATM   11  N   UNL     1     -11.423  13.762  65.938  1.00  0.00    -0.315 N  
HETATM   12  C   UNL     1     -11.045  15.174  66.388  1.00  0.00    -0.312 C  
HETATM   13  C   UNL     1     -12.746  13.801  65.170  1.00  0.00    -0.397 C  
BRANCH  11  14
HETATM   14  C   UNL     1     -11.542  12.821  67.165  1.00  0.00    -0.364 C  
BRANCH  14  15
HETATM   15  C   UNL     1     -10.464  11.748  67.187  1.00  0.00    -0.250 C  
BRANCH  15  16
HETATM   16  C   UNL     1     -10.870  10.544  68.024  1.00  0.00    -0.312 C  
BRANCH  16  17
HETATM   17  C   UNL     1     -10.703   9.289  67.173  1.00  0.00    -0.222 C  
BRANCH  17  18
HETATM   18  C   UNL     1     -10.650   8.035  68.029  1.00  0.00    -0.190 C  
BRANCH  18  19
HETATM   19  C   UNL     1     -10.809   6.803  67.148  1.00  0.00    -0.462 C  
BRANCH  19  20
HETATM   20  C   UNL     1     -10.566   5.533  67.956  1.00  0.00    -0.213 C  
BRANCH  20  21
HETATM   21  C   UNL     1     -10.747   5.791  69.449  1.00  0.00    -0.397 C  
BRANCH  21  22
HETATM   22  C   UNL     1      -9.771   4.949  70.263  1.00  0.00    -0.287 C  
HETATM   23  C   UNL     1      -9.472   5.595  71.603  1.00  0.00    -0.173 C  
ENDBRANCH  21  22
ENDBRANCH  20  21
ENDBRANCH  19  20
ENDBRANCH  18  19
ENDBRANCH  17  18
ENDBRANCH  16  17
ENDBRANCH  15  16
ENDBRANCH  14  15
ENDBRANCH  11  14
ENDBRANCH  10  11
ENDBRANCH   9  10
ENDBRANCH   8   9
ENDBRANCH   7   8
ENDBRANCH   6   7
ENDBRANCH   5   6
ENDBRANCH   4   5
ENDBRANCH   3   4
ENDBRANCH   2   3
TORSDOF 18
ENDMDL
MODEL      240
REMARK 921   NORMALIZED FREE ENERGY PREDICTED BY IDOCK:   -2.84 KCAL/MOL
REMARK 922        TOTAL FREE ENERGY PREDICTED BY IDOCK:   -8.53 KCAL/MOL
REMARK 923 INTER-LIGAND FREE ENERGY PREDICTED BY IDOCK:   -7.05 KCAL/MOL
REMARK 924 INTRA-LIGAND FREE ENERGY PREDICTED BY IDOCK:   -1.47 KCAL/MOL
REMARK 927      BINDING AFFINITY PREDICTED BY RF-SCORE:    0.00 PKD
ROOT
HETATM    1  C   UNL     1      -9.817   8.513  72.143  1.00  0.00    -0.388 C  
HETATM    2  C   UNL     1     -11.059   7.911  72.774  1.00  0.00    -0.462 C  
ENDROOT
BRANCH   2   3
HETATM    3  C   UNL     1     -10.833   6.450  73.152  1.00  0.00    -0.282 C  
BRANCH   3   4
HETATM    4  C   UNL     1     -11.296   5.527  72.031  1.00  0.00    -0.181 C  
BRANCH   4   5
HETATM    5  C   UNL     1     -10.108   4.875  71.339  1.00  0.00    -0.268 C  
BRANCH   5   6
HETATM    6  C   UNL     1     -10.056   5.274  69.868  1.00  0.00    -0.333 C  
BRANCH   6   7
HETATM    7  C   UNL     1     -11.258   6.137  69.524  1.00  0.00    -0.482 C  
BRANCH   7   8
HETATM    8  C   UNL     1     -11.139   6.741  68.128  1.00  0.00    -0.229 C  
BRANCH   8   9
HETATM    9  C   UNL     1     -10.076   7.829  68.168  1.00  0.00    -0.220 C  
BRANCH   9  10
HETATM   10  C   UNL     1     -10.074   8.672  66.900  1.00  0.00    -0.285 C  
BRANCH  10  11
HETATM   11  N   UNL     1     -10.012  10.193  67.197  1.00  0.00    -0.187 N  
HETATM   12  C   UNL     1     -10.900  10.536  68.394  1.00  0.00    -0.240 C  
HETATM   13  C   UNL     1      -8.570  10.618  67.484  1.00  0.00    -0.122 C  
BRANCH  11  14
HETATM   14  C   UNL     1     -10.536  10.899  65.920  1.00  0.00    -0.178 C  
BRANCH  14  15
HETATM   15  C   UNL     1     -11.353  12.144  66.233  1.00  0.00    -0.411 C  
BRANCH  15  16
HETATM   16  C   UNL     1     -11.574  13.009  65.000  1.00  0.00    -0.359 C  
BRANCH  16  17
HETATM   17  C   UNL     1     -10.520  14.111  64.990  1.00  0.00    -0.447 C  
BRANCH  17  18
HETATM   18  C   UNL     1     -11.131  15.468  64.682  1.00  0.00    -0.373 C  
BRANCH  18  19
HETATM   19  C   UNL     1     -10.553  16.518  65.621  1.00  0.00    -0.317 C  
BRANCH  19  20
HETATM   20  C   UNL     1     -10.081  15.874  66.919  1.00  0.00    -0.267 C  
BRANCH  20  21
HETATM   21  C   UNL     1     -10.812  16.466  68.121  1.00  0.00    -0.346 C  
BRANCH  21  22
HETATM   22  C   UNL     1     -10.300  17.870  68.424  1.00  0.00    -0.380 C  
HETATM   23  C   UNL     1      -8.784  17.904  68.474  1.00  0.00    -0.297 C  
ENDBRANCH  21  22
ENDBRANCH  20  21
ENDBRANCH  19  20
ENDBRANCH  18  19
ENDBRANCH  17  18
ENDBRANCH  16  17
ENDBRANCH  15  16
ENDBRANCH  14  15
ENDBRANCH  11  14
ENDBRANCH  10  11
ENDBRANCH   9  10
ENDBRANCH   8   9
ENDBRANCH   7   8
ENDBRANCH   6   7
ENDBRANCH   5   6
ENDBRANCH   4   5
ENDBRANCH   3   4
ENDBRANCH   2   3
TORSDOF 18
ENDMDL
MODEL      241
REMARK 921   NORMALIZED FREE ENERGY PREDICTED BY IDOCK:   -2.83 KCAL/MOL
REMARK 922        TOTAL FREE ENERGY PREDICTED BY IDOCK:   -8.51 KCAL/MOL
REMARK 923 INTER-LIGAND FREE ENERGY PREDICTED BY IDOCK:   -6.90 KCAL/MOL
REMARK 924 INTRA-LIGAND FREE ENERGY PREDICTED BY IDOCK:   -1.61 KCAL/MOL
REMARK 927      BINDING AFFINITY PREDICTED BY RF-SCORE:    0.00 PKD
ROOT
HETATM    1  C   UNL     1      -9.005   2.959  70.579  1.00  0.00    -0.169 C  
HETATM    2  C   UNL     1      -9.813   4.002  71.327  1.00  0.00    -0.242 C  
ENDROOT
BRANCH   2   3
HETATM    3  C   UNL     1      -9.838   5.328  70.572  1.00  0.00    -0.274 C  
BRANCH   3   4
HETATM    4  C   UNL     1     -11.150   6.064  70.820  1.00  0.00    -0.355 C  
BRANCH   4   5
HETATM    5  C   UNL     1     -11.464   7.015  69.675  1.00  0.00    -0.124 C  
BRANCH   5   6
HETATM    6  C   UNL     1     -10.623   6.677  68.448  1.00  0.00    -0.289 C  
BRANCH   6   7
HETATM    7  C   UNL     1     -10.622   7.850  67.483  1.00  0.00    -0.312 C  
BRANCH   7   8
HETATM    8  C   UNL     1      -9.326   8.649  67.565  1.00  0.00    -0.162 C  
BRANCH   8   9
HETATM    9  C   UNL     1      -9.655  10.042  68.082  1.00  0.00    -0.152 C  
BRANCH   9  10
HETATM   10  C   UNL     1     -10.843  10.656  67.354  1.00  0.00    -0.296 C  
BRANCH  10  11
HETATM   11  N   UNL     1     -10.570  12.112  66.893  1.00  0.00    -0.225 N  
HETATM   12  C   UNL     1      -9.521  12.129  65.780  1.00  0.00    -0.147 C  
HETATM   13  C   UNL     1     -11.864  12.759  66.393  1.00  0.00    -0.408 C  
BRANCH  11  14
HETATM   14  C   UNL     1     -10.041  12.864  68.141  1.00  0.00    -0.240 C  
BRANCH  14  15
HETATM   15  C   UNL     1     -10.482  14.320  68.178  1.00  0.00    -0.246 C  
BRANCH  15  16
HETATM   16  C   UNL     1     -10.442  14.895  69.586  1.00  0.00    -0.182 C  
BRANCH  16  17
HETATM   17  C   UNL     1     -11.773  15.588  69.859  1.00  0.00    -0.368 C  
BRANCH  17  18
HETATM   18  C   UNL     1     -11.870  16.069  71.297  1.00  0.00    -0.502 C  
BRANCH  18  19
HETATM   19  C   UNL     1     -13.256  15.766  71.850  1.00  0.00    -0.477 C  
BRANCH  19  20
HETATM   20  C   UNL     1     -13.684  14.351  71.478  1.00  0.00    -0.458 C  
BRANCH  20  21
HETATM   21  C   UNL     1     -13.080  13.328  72.435  1.00  0.00    -0.443 C  
BRANCH  21  22
HETATM   22  C   UNL     1     -13.316  11.911  71.927  1.00  0.00    -0.405 C  
HETATM   23  C   UNL     1     -12.431  11.599  70.733  1.00  0.00    -0.425 C  
ENDBRANCH  21  22
ENDBRANCH  20  21
ENDBRANCH  19  20
ENDBRANCH  18  19
ENDBRANCH  17  18
ENDBRANCH  16  17
ENDBRANCH  15  16
ENDBRANCH  14  15
ENDBRANCH  11  14
ENDBRANCH  10  11
ENDBRANCH   9  10
ENDBRANCH   8   9
ENDBRANCH   7   8
ENDBRANCH   6   7
ENDBRANCH   5   6
ENDBRANCH   4   5
ENDBRANCH   3   4
ENDBRANCH   2   3
TORSDOF 18
ENDMDL
MODEL      242
REMARK 921   NORMALIZED FREE ENERGY PREDICTED BY IDOCK:   -2.81 KCAL/MOL
REMARK 922        TOTAL FREE ENERGY PREDICTED BY IDOCK:   -8.47 KCAL/MOL
REMARK 923 INTER-LIGAND FREE ENERGY PREDICTED BY IDOCK:   -6.38 KCAL/MOL
REMARK 924 INTRA-LIGAND FREE ENERGY PREDICTED BY IDOCK:   -2.09 KCAL/MOL
REMARK 927      BINDING AFFINITY PREDICTED BY RF-SCORE:    0.00 PKD
ROOT
HETATM    1  C   UNL     1     -14.314  14.692  71.761  1.00  0.00    -0.638 C  
HETATM    2  C   UNL     1     -13.853  13.387  72.382  1.00  0.00    -0.665 C  
ENDROOT
BRANCH   2   3
HETATM    3  C   UNL     1     -12.794  12.709  71.517  1.00  0.00    -0.368 C  
BRANCH   3   4
HETATM    4  C   UNL     1     -12.800  11.201  71.743  1.00  0.00    -0.479 C  
BRANCH   4   5
HETATM    5  C   UNL     1     -12.642  10.454  70.427  1.00  0.00    -0.329 C  
BRANCH   5   6
HETATM    6  C   UNL     1     -11.182  10.081  70.191  1.00  0.00    -0.367 C  
BRANCH   6   7
HETATM    7  C   UNL     1     -10.566  11.022  69.171  1.00  0.00    -0.253 C  
BRANCH   7   8
HETATM    8  C   UNL     1     -11.105  10.764  67.767  1.00  0.00    -0.381 C  
BRANCH   8   9
HETATM    9  C   UNL     1     -11.081  12.076  66.997  1.00  0.00    -0.351 C  
BRANCH   9  10
HETATM   10  C   UNL     1     -10.103  13.075  67.601  1.00  0.00    -0.217 C  
BRANCH  10  11
HETATM   11  N   UNL     1     -10.637  14.530  67.561  1.00  0.00    -0.260 N  
HETATM   12  C   UNL     1     -11.102  14.887  66.148  1.00  0.00    -0.335 C  
HETATM   13  C   UNL     1     -11.799  14.694  68.544  1.00  0.00    -0.311 C  
BRANCH  11  14
HETATM   14  C   UNL     1      -9.448  15.434  67.980  1.00  0.00    -0.201 C  
BRANCH  14  15
HETATM   15  C   UNL     1      -8.398  15.562  66.886  1.00  0.00    -0.290 C  
BRANCH  15  16
HETATM   16  C   UNL     1      -6.986  15.374  67.424  1.00  0.00    -0.222 C  
BRANCH  16  17
HETATM   17  C   UNL     1      -7.053  14.444  68.631  1.00  0.00    -0.116 C  
BRANCH  17  18
HETATM   18  C   UNL     1      -6.437  13.088  68.328  1.00  0.00    -0.093 C  
BRANCH  18  19
HETATM   19  C   UNL     1      -6.599  12.169  69.531  1.00  0.00    -0.065 C  
BRANCH  19  20
HETATM   20  C   UNL     1      -7.197  10.832  69.106  1.00  0.00    -0.107 C  
BRANCH  20  21
HETATM   21  C   UNL     1      -7.182  10.684  67.588  1.00  0.00    -0.089 C  
BRANCH  21  22
HETATM   22  C   UNL     1      -7.649   9.292  67.179  1.00  0.00    -0.091 C  
HETATM   23  C   UNL     1      -8.574   9.353  65.977  1.00  0.00    -0.154 C  
ENDBRANCH  21  22
ENDBRANCH  20  21
ENDBRANCH  19  20
ENDBRANCH  18  19
ENDBRANCH  17  18
ENDBRANCH  16  17
ENDBRANCH  15  16
ENDBRANCH  14  15
ENDBRANCH  11  14
ENDBRANCH  10  11
ENDBRANCH   9  10
ENDBRANCH   8   9
ENDBRANCH   7   8
ENDBRANCH   6   7
ENDBRANCH   5   6
ENDBRANCH   4   5
ENDBRANCH   3   4
ENDBRANCH   2   3
TORSDOF 18
ENDMDL
MODEL      243
REMARK 921   NORMALIZED FREE ENERGY PREDICTED BY IDOCK:   -2.81 KCAL/MOL
REMARK 922        TOTAL FREE ENERGY PREDICTED BY IDOCK:   -8.46 KCAL/MOL
REMARK 923 INTER-LIGAND FREE ENERGY PREDICTED BY IDOCK:   -6.58 KCAL/MOL
REMARK 924 INTRA-LIGAND FREE ENERGY PREDICTED BY IDOCK:   -1.88 KCAL/MOL
REMARK 927      BINDING AFFINITY PREDICTED BY RF-SCORE:    0.00 PKD
ROOT
HETATM    1  C   UNL     1     -10.876  18.897  67.289  1.00  0.00    -0.448 C  
HETATM    2  C   UNL     1      -9.978  19.719  68.195  1.00  0.00    -0.557 C  
ENDROOT
BRANCH   2   3
HETATM    3  C   UNL     1      -8.975  20.534  67.384  1.00  0.00    -0.420 C  
BRANCH   3   4
HETATM    4  C   UNL     1      -7.913  19.627  66.774  1.00  0.00    -0.315 C  
BRANCH   4   5
HETATM    5  C   UNL     1      -7.166  18.860  67.855  1.00  0.00    -0.260 C  
BRANCH   5   6
HETATM    6  C   UNL     1      -7.039  17.387  67.481  1.00  0.00    -0.180 C  
BRANCH   6   7
HETATM    7  C   UNL     1      -7.927  17.079  66.287  1.00  0.00    -0.343 C  
BRANCH   7   8
HETATM    8  C   UNL     1      -8.461  15.651  66.334  1.00  0.00    -0.271 C  
BRANCH   8   9
HETATM    9  C   UNL     1      -9.847  15.638  65.706  1.00  0.00    -0.386 C  
BRANCH   9  10
HETATM   10  C   UNL     1     -10.724  14.533  66.280  1.00  0.00    -0.309 C  
BRANCH  10  11
HETATM   11  N   UNL     1     -11.394  13.672  65.178  1.00  0.00    -0.302 N  
HETATM   12  C   UNL     1     -12.375  14.518  64.366  1.00  0.00    -0.413 C  
HETATM   13  C   UNL     1     -10.330  13.080  64.250  1.00  0.00    -0.362 C  
BRANCH  11  14
HETATM   14  C   UNL     1     -12.148  12.539  65.921  1.00  0.00    -0.352 C  
BRANCH  14  15
HETATM   15  C   UNL     1     -11.324  11.926  67.044  1.00  0.00    -0.392 C  
BRANCH  15  16
HETATM   16  C   UNL     1     -10.910  10.494  66.734  1.00  0.00    -0.209 C  
BRANCH  16  17
HETATM   17  C   UNL     1     -10.657   9.772  68.053  1.00  0.00    -0.291 C  
BRANCH  17  18
HETATM   18  C   UNL     1     -10.020  10.690  69.082  1.00  0.00    -0.228 C  
BRANCH  18  19
HETATM   19  C   UNL     1      -8.503  10.576  69.007  1.00  0.00    -0.159 C  
BRANCH  19  20
HETATM   20  C   UNL     1      -7.898  11.855  68.438  1.00  0.00    -0.141 C  
BRANCH  20  21
HETATM   21  C   UNL     1      -6.383  11.730  68.304  1.00  0.00    -0.050 C  
BRANCH  21  22
HETATM   22  C   UNL     1      -5.684  12.895  68.995  1.00  0.00    -0.072 C  
HETATM   23  C   UNL     1      -5.605  14.107  68.085  1.00  0.00    -0.123 C  
ENDBRANCH  21  22
ENDBRANCH  20  21
ENDBRANCH  19  20
ENDBRANCH  18  19
ENDBRANCH  17  18
ENDBRANCH  16  17
ENDBRANCH  15  16
ENDBRANCH  14  15
ENDBRANCH  11  14
ENDBRANCH  10  11
ENDBRANCH   9  10
ENDBRANCH   8   9
ENDBRANCH   7   8
ENDBRANCH   6   7
ENDBRANCH   5   6
ENDBRANCH   4   5
ENDBRANCH   3   4
ENDBRANCH   2   3
TORSDOF 18
ENDMDL
MODEL      244
REMARK 921   NORMALIZED FREE ENERGY PREDICTED BY IDOCK:   -2.80 KCAL/MOL
REMARK 922        TOTAL FREE ENERGY PREDICTED BY IDOCK:   -8.45 KCAL/MOL
REMARK 923 INTER-LIGAND FREE ENERGY PREDICTED BY IDOCK:   -6.85 KCAL/MOL
REMARK 924 INTRA-LIGAND FREE ENERGY PREDICTED BY IDOCK:   -1.61 KCAL/MOL
REMARK 927      BINDING AFFINITY PREDICTED BY RF-SCORE:    0.00 PKD
ROOT
HETATM    1  C   UNL     1      -8.609  19.794  66.241  1.00  0.00    -0.397 C  
HETATM    2  C   UNL     1      -7.244  19.374  65.728  1.00  0.00    -0.302 C  
ENDROOT
BRANCH   2   3
HETATM    3  C   UNL     1      -6.425  18.704  66.826  1.00  0.00    -0.203 C  
BRANCH   3   4
HETATM    4  C   UNL     1      -7.160  18.765  68.160  1.00  0.00    -0.269 C  
BRANCH   4   5
HETATM    5  C   UNL     1      -7.442  17.367  68.690  1.00  0.00    -0.263 C  
BRANCH   5   6
HETATM    6  C   UNL     1      -6.978  16.310  67.693  1.00  0.00    -0.168 C  
BRANCH   6   7
HETATM    7  C   UNL     1      -8.174  15.533  67.169  1.00  0.00    -0.246 C  
BRANCH   7   8
HETATM    8  C   UNL     1      -9.427  16.401  67.106  1.00  0.00    -0.238 C  
BRANCH   8   9
HETATM    9  C   UNL     1     -10.177  16.066  65.825  1.00  0.00    -0.401 C  
BRANCH   9  10
HETATM   10  C   UNL     1     -10.159  14.573  65.527  1.00  0.00    -0.366 C  
BRANCH  10  11
HETATM   11  N   UNL     1     -11.577  13.946  65.537  1.00  0.00    -0.318 N  
HETATM   12  C   UNL     1     -12.302  14.294  66.838  1.00  0.00    -0.205 C  
HETATM   13  C   UNL     1     -12.388  14.454  64.343  1.00  0.00    -0.403 C  
BRANCH  11  14
HETATM   14  C   UNL     1     -11.368  12.413  65.432  1.00  0.00    -0.337 C  
BRANCH  14  15
HETATM   15  C   UNL     1      -9.898  12.022  65.430  1.00  0.00    -0.243 C  
BRANCH  15  16
HETATM   16  C   UNL     1      -9.635  10.781  66.271  1.00  0.00    -0.234 C  
BRANCH  16  17
HETATM   17  C   UNL     1     -10.746  10.660  67.309  1.00  0.00    -0.338 C  
BRANCH  17  18
HETATM   18  C   UNL     1     -10.204  10.769  68.725  1.00  0.00    -0.207 C  
BRANCH  18  19
HETATM   19  C   UNL     1      -9.590   9.441  69.146  1.00  0.00    -0.163 C  
BRANCH  19  20
HETATM   20  C   UNL     1     -10.184   8.972  70.469  1.00  0.00    -0.268 C  
BRANCH  20  21
HETATM   21  C   UNL     1     -11.403   9.808  70.848  1.00  0.00    -0.439 C  
BRANCH  21  22
HETATM   22  C   UNL     1     -12.112   9.208  72.057  1.00  0.00    -0.431 C  
HETATM   23  C   UNL     1     -11.246   8.168  72.743  1.00  0.00    -0.407 C  
ENDBRANCH  21  22
ENDBRANCH  20  21
ENDBRANCH  19  20
ENDBRANCH  18  19
ENDBRANCH  17  18
ENDBRANCH  16  17
ENDBRANCH  15  16
ENDBRANCH  14  15
ENDBRANCH  11  14
ENDBRANCH  10  11
ENDBRANCH   9  10
ENDBRANCH   8   9
ENDBRANCH   7   8
ENDBRANCH   6   7
ENDBRANCH   5   6
ENDBRANCH   4   5
ENDBRANCH   3   4
ENDBRANCH   2   3
TORSDOF 18
ENDMDL
MODEL      245
REMARK 921   NORMALIZED FREE ENERGY PREDICTED BY IDOCK:   -2.80 KCAL/MOL
REMARK 922        TOTAL FREE ENERGY PREDICTED BY IDOCK:   -8.44 KCAL/MOL
REMARK 923 INTER-LIGAND FREE ENERGY PREDICTED BY IDOCK:   -6.89 KCAL/MOL
REMARK 924 INTRA-LIGAND FREE ENERGY PREDICTED BY IDOCK:   -1.56 KCAL/MOL
REMARK 927      BINDING AFFINITY PREDICTED BY RF-SCORE:    0.00 PKD
ROOT
HETATM    1  C   UNL     1      -9.414   3.861  63.132  1.00  0.00    -0.128 C  
HETATM    2  C   UNL     1      -8.546   4.432  64.238  1.00  0.00    -0.123 C  
ENDROOT
BRANCH   2   3
HETATM    3  C   UNL     1      -8.892   3.808  65.587  1.00  0.00    -0.123 C  
BRANCH   3   4
HETATM    4  C   UNL     1     -10.005   4.592  66.273  1.00  0.00    -0.268 C  
BRANCH   4   5
HETATM    5  C   UNL     1      -9.691   6.080  66.289  1.00  0.00    -0.119 C  
BRANCH   5   6
HETATM    6  C   UNL     1     -10.818   6.861  66.957  1.00  0.00    -0.436 C  
BRANCH   6   7
HETATM    7  C   UNL     1     -10.445   7.179  68.395  1.00  0.00    -0.228 C  
BRANCH   7   8
HETATM    8  C   UNL     1     -11.079   6.196  69.373  1.00  0.00    -0.479 C  
BRANCH   8   9
HETATM    9  C   UNL     1     -10.088   5.937  70.499  1.00  0.00    -0.254 C  
BRANCH   9  10
HETATM   10  C   UNL     1     -10.779   5.808  71.850  1.00  0.00    -0.242 C  
BRANCH  10  11
HETATM   11  N   UNL     1     -10.534   7.036  72.764  1.00  0.00    -0.220 N  
HETATM   12  C   UNL     1     -10.275   6.585  74.202  1.00  0.00    -0.358 C  
HETATM   13  C   UNL     1      -9.338   7.844  72.254  1.00  0.00    -0.180 C  
BRANCH  11  14
HETATM   14  C   UNL     1     -11.828   7.888  72.692  1.00  0.00    -0.297 C  
BRANCH  14  15
HETATM   15  C   UNL     1     -11.673   9.112  71.803  1.00  0.00    -0.456 C  
BRANCH  15  16
HETATM   16  C   UNL     1     -12.961   9.918  71.709  1.00  0.00    -0.549 C  
BRANCH  16  17
HETATM   17  C   UNL     1     -13.011  10.587  70.339  1.00  0.00    -0.208 C  
BRANCH  17  18
HETATM   18  C   UNL     1     -11.816  11.498  70.118  1.00  0.00    -0.440 C  
BRANCH  18  19
HETATM   19  C   UNL     1     -11.296  11.331  68.696  1.00  0.00    -0.336 C  
BRANCH  19  20
HETATM   20  C   UNL     1     -11.709  12.517  67.832  1.00  0.00    -0.416 C  
BRANCH  20  21
HETATM   21  C   UNL     1     -11.764  12.127  66.358  1.00  0.00    -0.394 C  
BRANCH  21  22
HETATM   22  C   UNL     1     -10.361  11.873  65.817  1.00  0.00    -0.285 C  
HETATM   23  C   UNL     1     -10.333  10.661  64.905  1.00  0.00    -0.347 C  
ENDBRANCH  21  22
ENDBRANCH  20  21
ENDBRANCH  19  20
ENDBRANCH  18  19
ENDBRANCH  17  18
ENDBRANCH  16  17
ENDBRANCH  15  16
ENDBRANCH  14  15
ENDBRANCH  11  14
ENDBRANCH  10  11
ENDBRANCH   9  10
ENDBRANCH   8   9
ENDBRANCH   7   8
ENDBRANCH   6   7
ENDBRANCH   5   6
ENDBRANCH   4   5
ENDBRANCH   3   4
ENDBRANCH   2   3
TORSDOF 18
ENDMDL
MODEL      246
REMARK 921   NORMALIZED FREE ENERGY PREDICTED BY IDOCK:   -2.79 KCAL/MOL
REMARK 922        TOTAL FREE ENERGY PREDICTED BY IDOCK:   -8.43 KCAL/MOL
REMARK 923 INTER-LIGAND FREE ENERGY PREDICTED BY IDOCK:   -5.25 KCAL/MOL
REMARK 924 INTRA-LIGAND FREE ENERGY PREDICTED BY IDOCK:   -3.18 KCAL/MOL
REMARK 927      BINDING AFFINITY PREDICTED BY RF-SCORE:    0.00 PKD
ROOT
HETATM    1  C   UNL     1      -7.420   7.363  63.913  1.00  0.00    -0.100 C  
HETATM    2  C   UNL     1      -8.161   8.507  63.246  1.00  0.00    -0.162 C  
ENDROOT
BRANCH   2   3
HETATM    3  C   UNL     1      -7.972   9.810  64.017  1.00  0.00    -0.147 C  
BRANCH   3   4
HETATM    4  C   UNL     1      -7.280   9.551  65.350  1.00  0.00    -0.095 C  
BRANCH   4   5
HETATM    5  C   UNL     1      -7.129  10.840  66.144  1.00  0.00    -0.122 C  
BRANCH   5   6
HETATM    6  C   UNL     1      -7.180  10.558  67.642  1.00  0.00    -0.086 C  
BRANCH   6   7
HETATM    7  C   UNL     1      -7.750  11.761  68.375  1.00  0.00    -0.131 C  
BRANCH   7   8
HETATM    8  C   UNL     1      -7.776  13.002  67.489  1.00  0.00    -0.168 C  
BRANCH   8   9
HETATM    9  C   UNL     1      -8.838  13.950  68.026  1.00  0.00    -0.184 C  
BRANCH   9  10
HETATM   10  C   UNL     1      -8.914  15.239  67.219  1.00  0.00    -0.195 C  
BRANCH  10  11
HETATM   11  N   UNL     1     -10.370  15.745  67.043  1.00  0.00    -0.286 N  
HETATM   12  C   UNL     1     -10.637  16.928  67.974  1.00  0.00    -0.367 C  
HETATM   13  C   UNL     1     -10.611  16.166  65.591  1.00  0.00    -0.363 C  
BRANCH  11  14
HETATM   14  C   UNL     1     -11.286  14.551  67.415  1.00  0.00    -0.327 C  
BRANCH  14  15
HETATM   15  C   UNL     1     -12.214  14.150  66.278  1.00  0.00    -0.474 C  
BRANCH  15  16
HETATM   16  C   UNL     1     -11.865  12.781  65.710  1.00  0.00    -0.484 C  
BRANCH  16  17
HETATM   17  C   UNL     1     -11.405  11.888  66.857  1.00  0.00    -0.392 C  
BRANCH  17  18
HETATM   18  C   UNL     1     -10.795  10.593  66.349  1.00  0.00    -0.132 C  
BRANCH  18  19
HETATM   19  C   UNL     1     -10.708   9.583  67.486  1.00  0.00    -0.311 C  
BRANCH  19  20
HETATM   20  C   UNL     1     -10.182   8.246  66.975  1.00  0.00    -0.380 C  
BRANCH  20  21
HETATM   21  C   UNL     1      -9.458   7.485  68.081  1.00  0.00    -0.147 C  
BRANCH  21  22
HETATM   22  C   UNL     1      -8.652   6.329  67.500  1.00  0.00    -0.107 C  
HETATM   23  C   UNL     1      -7.169   6.501  67.767  1.00  0.00    -0.090 C  
ENDBRANCH  21  22
ENDBRANCH  20  21
ENDBRANCH  19  20
ENDBRANCH  18  19
ENDBRANCH  17  18
ENDBRANCH  16  17
ENDBRANCH  15  16
ENDBRANCH  14  15
ENDBRANCH  11  14
ENDBRANCH  10  11
ENDBRANCH   9  10
ENDBRANCH   8   9
ENDBRANCH   7   8
ENDBRANCH   6   7
ENDBRANCH   5   6
ENDBRANCH   4   5
ENDBRANCH   3   4
ENDBRANCH   2   3
TORSDOF 18
ENDMDL
MODEL      247
REMARK 921   NORMALIZED FREE ENERGY PREDICTED BY IDOCK:   -2.79 KCAL/MOL
REMARK 922        TOTAL FREE ENERGY PREDICTED BY IDOCK:   -8.43 KCAL/MOL
REMARK 923 INTER-LIGAND FREE ENERGY PREDICTED BY IDOCK:   -6.25 KCAL/MOL
REMARK 924 INTRA-LIGAND FREE ENERGY PREDICTED BY IDOCK:   -2.18 KCAL/MOL
REMARK 927      BINDING AFFINITY PREDICTED BY RF-SCORE:    0.00 PKD
ROOT
HETATM    1  C   UNL     1     -12.173   7.110  70.867  1.00  0.00    -0.354 C  
HETATM    2  C   UNL     1     -12.062   8.169  71.948  1.00  0.00    -0.368 C  
ENDROOT
BRANCH   2   3
HETATM    3  C   UNL     1     -11.209   9.345  71.484  1.00  0.00    -0.457 C  
BRANCH   3   4
HETATM    4  C   UNL     1      -9.764   8.909  71.265  1.00  0.00    -0.359 C  
BRANCH   4   5
HETATM    5  C   UNL     1      -9.210   8.225  72.506  1.00  0.00    -0.339 C  
BRANCH   5   6
HETATM    6  C   UNL     1      -8.153   7.193  72.125  1.00  0.00    -0.098 C  
BRANCH   6   7
HETATM    7  C   UNL     1      -8.638   6.368  70.946  1.00  0.00    -0.135 C  
BRANCH   7   8
HETATM    8  C   UNL     1      -7.478   5.720  70.196  1.00  0.00    -0.081 C  
BRANCH   8   9
HETATM    9  C   UNL     1      -7.577   6.116  68.729  1.00  0.00    -0.092 C  
BRANCH   9  10
HETATM   10  C   UNL     1      -8.041   4.959  67.855  1.00  0.00    -0.093 C  
BRANCH  10  11
HETATM   11  N   UNL     1      -9.060   5.402  66.773  1.00  0.00    -0.115 N  
HETATM   12  C   UNL     1      -8.397   6.358  65.780  1.00  0.00    -0.146 C  
HETATM   13  C   UNL     1      -9.606   4.181  66.029  1.00  0.00    -0.194 C  
BRANCH  11  14
HETATM   14  C   UNL     1     -10.203   6.124  67.532  1.00  0.00    -0.178 C  
BRANCH  14  15
HETATM   15  C   UNL     1     -10.592   7.445  66.885  1.00  0.00    -0.375 C  
BRANCH  15  16
HETATM   16  C   UNL     1     -10.364   8.628  67.815  1.00  0.00    -0.303 C  
BRANCH  16  17
HETATM   17  C   UNL     1     -11.021   9.858  67.198  1.00  0.00    -0.147 C  
BRANCH  17  18
HETATM   18  C   UNL     1     -10.443  11.145  67.762  1.00  0.00    -0.225 C  
BRANCH  18  19
HETATM   19  C   UNL     1     -11.346  12.317  67.403  1.00  0.00    -0.389 C  
BRANCH  19  20
HETATM   20  C   UNL     1     -11.008  12.848  66.015  1.00  0.00    -0.301 C  
BRANCH  20  21
HETATM   21  C   UNL     1     -12.272  13.245  65.258  1.00  0.00    -0.492 C  
BRANCH  21  22
HETATM   22  C   UNL     1     -12.453  12.374  64.020  1.00  0.00    -0.554 C  
HETATM   23  C   UNL     1     -11.211  11.548  63.741  1.00  0.00    -0.456 C  
ENDBRANCH  21  22
ENDBRANCH  20  21
ENDBRANCH  19  20
ENDBRANCH  18  19
ENDBRANCH  17  18
ENDBRANCH  16  17
ENDBRANCH  15  16
ENDBRANCH  14  15
ENDBRANCH  11  14
ENDBRANCH  10  11
ENDBRANCH   9  10
ENDBRANCH   8   9
ENDBRANCH   7   8
ENDBRANCH   6   7
ENDBRANCH   5   6
ENDBRANCH   4   5
ENDBRANCH   3   4
ENDBRANCH   2   3
TORSDOF 18
ENDMDL
MODEL      248
REMARK 921   NORMALIZED FREE ENERGY PREDICTED BY IDOCK:   -2.75 KCAL/MOL
REMARK 922        TOTAL FREE ENERGY PREDICTED BY IDOCK:   -8.35 KCAL/MOL
REMARK 923 INTER-LIGAND FREE ENERGY PREDICTED BY IDOCK:   -6.50 KCAL/MOL
REMARK 924 INTRA-LIGAND FREE ENERGY PREDICTED BY IDOCK:   -1.85 KCAL/MOL
REMARK 927      BINDING AFFINITY PREDICTED BY RF-SCORE:    0.00 PKD
ROOT
HETATM    1  C   UNL     1     -11.720   6.469  70.585  1.00  0.00    -0.436 C  
HETATM    2  C   UNL     1     -12.354   7.394  71.607  1.00  0.00    -0.373 C  
ENDROOT
BRANCH   2   3
HETATM    3  C   UNL     1     -11.693   8.769  71.592  1.00  0.00    -0.402 C  
BRANCH   3   4
HETATM    4  C   UNL     1     -10.180   8.636  71.464  1.00  0.00    -0.345 C  
BRANCH   4   5
HETATM    5  C   UNL     1      -9.539   8.394  72.823  1.00  0.00    -0.308 C  
BRANCH   5   6
HETATM    6  C   UNL     1      -8.190   7.700  72.666  1.00  0.00    -0.153 C  
BRANCH   6   7
HETATM    7  C   UNL     1      -8.215   6.793  71.447  1.00  0.00    -0.111 C  
BRANCH   7   8
HETATM    8  C   UNL     1      -6.813   6.553  70.894  1.00  0.00    -0.063 C  
BRANCH   8   9
HETATM    9  C   UNL     1      -6.795   6.985  69.434  1.00  0.00    -0.054 C  
BRANCH   9  10
HETATM   10  C   UNL     1      -8.030   6.508  68.682  1.00  0.00    -0.114 C  
BRANCH  10  11
HETATM   11  N   UNL     1      -8.439   7.473  67.539  1.00  0.00    -0.119 N  
HETATM   12  C   UNL     1      -7.436   8.621  67.428  1.00  0.00    -0.089 C  
HETATM   13  C   UNL     1      -8.510   6.718  66.209  1.00  0.00    -0.131 C  
BRANCH  11  14
HETATM   14  C   UNL     1      -9.840   8.018  67.921  1.00  0.00    -0.167 C  
BRANCH  14  15
HETATM   15  C   UNL     1     -10.417   8.944  66.860  1.00  0.00    -0.304 C  
BRANCH  15  16
HETATM   16  C   UNL     1     -10.726  10.327  67.414  1.00  0.00    -0.339 C  
BRANCH  16  17
HETATM   17  C   UNL     1     -10.733  11.318  66.255  1.00  0.00    -0.312 C  
BRANCH  17  18
HETATM   18  C   UNL     1      -9.979  10.778  65.052  1.00  0.00    -0.361 C  
BRANCH  18  19
HETATM   19  C   UNL     1     -10.536  11.394  63.775  1.00  0.00    -0.456 C  
BRANCH  19  20
HETATM   20  C   UNL     1     -11.978  11.845  63.983  1.00  0.00    -0.455 C  
BRANCH  20  21
HETATM   21  C   UNL     1     -12.181  13.273  63.485  1.00  0.00    -0.513 C  
BRANCH  21  22
HETATM   22  C   UNL     1     -12.264  14.244  64.657  1.00  0.00    -0.470 C  
HETATM   23  C   UNL     1     -10.951  14.980  64.856  1.00  0.00    -0.427 C  
ENDBRANCH  21  22
ENDBRANCH  20  21
ENDBRANCH  19  20
ENDBRANCH  18  19
ENDBRANCH  17  18
ENDBRANCH  16  17
ENDBRANCH  15  16
ENDBRANCH  14  15
ENDBRANCH  11  14
ENDBRANCH  10  11
ENDBRANCH   9  10
ENDBRANCH   8   9
ENDBRANCH   7   8
ENDBRANCH   6   7
ENDBRANCH   5   6
ENDBRANCH   4   5
ENDBRANCH   3   4
ENDBRANCH   2   3
TORSDOF 18
ENDMDL
MODEL      249
REMARK 921   NORMALIZED FREE ENERGY PREDICTED BY IDOCK:   -2.75 KCAL/MOL
REMARK 922        TOTAL FREE ENERGY PREDICTED BY IDOCK:   -8.35 KCAL/MOL
REMARK 923 INTER-LIGAND FREE ENERGY PREDICTED BY IDOCK:   -6.26 KCAL/MOL
REMARK 924 INTRA-LIGAND FREE ENERGY PREDICTED BY IDOCK:   -2.09 KCAL/MOL
REMARK 927      BINDING AFFINITY PREDICTED BY RF-SCORE:    0.00 PKD
ROOT
HETATM    1  C   UNL     1      -7.230  11.731  68.734  1.00  0.00    -0.113 C  
HETATM    2  C   UNL     1      -6.881  12.050  67.292  1.00  0.00    -0.150 C  
ENDROOT
BRANCH   2   3
HETATM    3  C   UNL     1      -6.238  10.852  66.602  1.00  0.00    -0.113 C  
BRANCH   3   4
HETATM    4  C   UNL     1      -6.925   9.557  67.020  1.00  0.00    -0.085 C  
BRANCH   4   5
HETATM    5  C   UNL     1      -7.163   8.655  65.818  1.00  0.00    -0.080 C  
BRANCH   5   6
HETATM    6  C   UNL     1      -7.224   9.476  64.534  1.00  0.00    -0.110 C  
BRANCH   6   7
HETATM    7  C   UNL     1      -8.131   8.791  63.526  1.00  0.00    -0.170 C  
BRANCH   7   8
HETATM    8  C   UNL     1      -9.075   9.782  62.851  1.00  0.00    -0.275 C  
BRANCH   8   9
HETATM    9  C   UNL     1      -9.417  10.874  63.854  1.00  0.00    -0.295 C  
BRANCH   9  10
HETATM   10  C   UNL     1     -10.252  11.983  63.228  1.00  0.00    -0.361 C  
BRANCH  10  11
HETATM   11  N   UNL     1     -11.292  12.573  64.214  1.00  0.00    -0.336 N  
HETATM   12  C   UNL     1     -11.064  14.075  64.391  1.00  0.00    -0.286 C  
HETATM   13  C   UNL     1     -12.711  12.324  63.697  1.00  0.00    -0.411 C  
BRANCH  11  14
HETATM   14  C   UNL     1     -11.074  11.834  65.559  1.00  0.00    -0.280 C  
BRANCH  14  15
HETATM   15  C   UNL     1     -11.772  12.520  66.724  1.00  0.00    -0.453 C  
BRANCH  15  16
HETATM   16  C   UNL     1     -11.031  12.313  68.038  1.00  0.00    -0.265 C  
BRANCH  16  17
HETATM   17  C   UNL     1     -11.519  11.011  68.664  1.00  0.00    -0.375 C  
BRANCH  17  18
HETATM   18  C   UNL     1     -10.635   9.837  68.276  1.00  0.00    -0.271 C  
BRANCH  18  19
HETATM   19  C   UNL     1     -10.168   9.107  69.528  1.00  0.00    -0.208 C  
BRANCH  19  20
HETATM   20  C   UNL     1     -10.824   9.702  70.770  1.00  0.00    -0.400 C  
BRANCH  20  21
HETATM   21  C   UNL     1     -11.095   8.623  71.815  1.00  0.00    -0.396 C  
BRANCH  21  22
HETATM   22  C   UNL     1     -12.496   8.778  72.396  1.00  0.00    -0.421 C  
HETATM   23  C   UNL     1     -13.451   9.376  71.379  1.00  0.00    -0.403 C  
ENDBRANCH  21  22
ENDBRANCH  20  21
ENDBRANCH  19  20
ENDBRANCH  18  19
ENDBRANCH  17  18
ENDBRANCH  16  17
ENDBRANCH  15  16
ENDBRANCH  14  15
ENDBRANCH  11  14
ENDBRANCH  10  11
ENDBRANCH   9  10
ENDBRANCH   8   9
ENDBRANCH   7   8
ENDBRANCH   6   7
ENDBRANCH   5   6
ENDBRANCH   4   5
ENDBRANCH   3   4
ENDBRANCH   2   3
TORSDOF 18
ENDMDL
MODEL      250
REMARK 921   NORMALIZED FREE ENERGY PREDICTED BY IDOCK:   -2.75 KCAL/MOL
REMARK 922        TOTAL FREE ENERGY PREDICTED BY IDOCK:   -8.35 KCAL/MOL
REMARK 923 INTER-LIGAND FREE ENERGY PREDICTED BY IDOCK:   -6.64 KCAL/MOL
REMARK 924 INTRA-LIGAND FREE ENERGY PREDICTED BY IDOCK:   -1.71 KCAL/MOL
REMARK 927      BINDING AFFINITY PREDICTED BY RF-SCORE:    0.00 PKD
ROOT
HETATM    1  C   UNL     1      -5.995   8.154  66.624  1.00  0.00    -0.045 C  
HETATM    2  C   UNL     1      -6.753   7.967  67.925  1.00  0.00    -0.068 C  
ENDROOT
BRANCH   2   3
HETATM    3  C   UNL     1      -7.672   6.751  67.858  1.00  0.00    -0.112 C  
BRANCH   3   4
HETATM    4  C   UNL     1      -9.052   7.089  68.409  1.00  0.00    -0.127 C  
BRANCH   4   5
HETATM    5  C   UNL     1      -9.070   8.487  69.010  1.00  0.00    -0.146 C  
BRANCH   5   6
HETATM    6  C   UNL     1     -10.077   9.373  68.283  1.00  0.00    -0.210 C  
BRANCH   6   7
HETATM    7  C   UNL     1     -10.498   8.715  66.981  1.00  0.00    -0.354 C  
BRANCH   7   8
HETATM    8  C   UNL     1      -9.764   9.311  65.784  1.00  0.00    -0.339 C  
BRANCH   8   9
HETATM    9  C   UNL     1      -9.754  10.825  65.935  1.00  0.00    -0.272 C  
BRANCH   9  10
HETATM   10  C   UNL     1     -10.426  11.522  64.760  1.00  0.00    -0.299 C  
BRANCH  10  11
HETATM   11  N   UNL     1     -11.345  12.689  65.206  1.00  0.00    -0.305 N  
HETATM   12  C   UNL     1     -12.609  12.727  64.347  1.00  0.00    -0.352 C  
HETATM   13  C   UNL     1     -11.726  12.528  66.680  1.00  0.00    -0.387 C  
BRANCH  11  14
HETATM   14  C   UNL     1     -10.518  13.985  65.004  1.00  0.00    -0.420 C  
BRANCH  14  15
HETATM   15  C   UNL     1     -10.768  15.014  66.096  1.00  0.00    -0.328 C  
BRANCH  15  16
HETATM   16  C   UNL     1      -9.997  16.304  65.854  1.00  0.00    -0.366 C  
BRANCH  16  17
HETATM   17  C   UNL     1      -8.555  16.093  66.306  1.00  0.00    -0.373 C  
BRANCH  17  18
HETATM   18  C   UNL     1      -8.220  16.939  67.523  1.00  0.00    -0.191 C  
BRANCH  18  19
HETATM   19  C   UNL     1      -7.063  17.874  67.199  1.00  0.00    -0.206 C  
BRANCH  19  20
HETATM   20  C   UNL     1      -7.525  19.327  67.223  1.00  0.00    -0.253 C  
BRANCH  20  21
HETATM   21  C   UNL     1      -8.837  19.470  67.989  1.00  0.00    -0.368 C  
BRANCH  21  22
HETATM   22  C   UNL     1      -9.720  20.535  67.348  1.00  0.00    -0.587 C  
HETATM   23  C   UNL     1     -10.556  19.954  66.223  1.00  0.00    -0.534 C  
ENDBRANCH  21  22
ENDBRANCH  20  21
ENDBRANCH  19  20
ENDBRANCH  18  19
ENDBRANCH  17  18
ENDBRANCH  16  17
ENDBRANCH  15  16
ENDBRANCH  14  15
ENDBRANCH  11  14
ENDBRANCH  10  11
ENDBRANCH   9  10
ENDBRANCH   8   9
ENDBRANCH   7   8
ENDBRANCH   6   7
ENDBRANCH   5   6
ENDBRANCH   4   5
ENDBRANCH   3   4
ENDBRANCH   2   3
TORSDOF 18
ENDMDL
MODEL      251
REMARK 921   NORMALIZED FREE ENERGY PREDICTED BY IDOCK:   -2.75 KCAL/MOL
REMARK 922        TOTAL FREE ENERGY PREDICTED BY IDOCK:   -8.35 KCAL/MOL
REMARK 923 INTER-LIGAND FREE ENERGY PREDICTED BY IDOCK:   -6.44 KCAL/MOL
REMARK 924 INTRA-LIGAND FREE ENERGY PREDICTED BY IDOCK:   -1.91 KCAL/MOL
REMARK 927      BINDING AFFINITY PREDICTED BY RF-SCORE:    0.00 PKD
ROOT
HETATM    1  C   UNL     1     -12.709  12.014  63.346  1.00  0.00    -0.527 C  
HETATM    2  C   UNL     1     -11.282  11.783  63.808  1.00  0.00    -0.518 C  
ENDROOT
BRANCH   2   3
HETATM    3  C   UNL     1     -10.603  13.097  64.180  1.00  0.00    -0.384 C  
BRANCH   3   4
HETATM    4  C   UNL     1     -11.029  13.548  65.572  1.00  0.00    -0.295 C  
BRANCH   4   5
HETATM    5  C   UNL     1     -10.955  12.395  66.563  1.00  0.00    -0.312 C  
BRANCH   5   6
HETATM    6  C   UNL     1      -9.893  12.665  67.624  1.00  0.00    -0.210 C  
BRANCH   6   7
HETATM    7  C   UNL     1      -8.519  12.713  66.979  1.00  0.00    -0.150 C  
BRANCH   7   8
HETATM    8  C   UNL     1      -7.535  13.535  67.806  1.00  0.00    -0.168 C  
BRANCH   8   9
HETATM    9  C   UNL     1      -7.539  14.961  67.276  1.00  0.00    -0.213 C  
BRANCH   9  10
HETATM   10  C   UNL     1      -6.195  15.648  67.472  1.00  0.00    -0.131 C  
BRANCH  10  11
HETATM   11  N   UNL     1      -6.161  16.539  68.741  1.00  0.00    -0.133 N  
HETATM   12  C   UNL     1      -7.576  16.739  69.287  1.00  0.00    -0.103 C  
HETATM   13  C   UNL     1      -5.279  15.898  69.815  1.00  0.00    -0.116 C  
BRANCH  11  14
HETATM   14  C   UNL     1      -5.561  17.897  68.294  1.00  0.00    -0.159 C  
BRANCH  14  15
HETATM   15  C   UNL     1      -5.938  18.261  66.865  1.00  0.00    -0.172 C  
BRANCH  15  16
HETATM   16  C   UNL     1      -6.713  19.569  66.793  1.00  0.00    -0.204 C  
BRANCH  16  17
HETATM   17  C   UNL     1      -8.176  19.244  66.507  1.00  0.00    -0.319 C  
BRANCH  17  18
HETATM   18  C   UNL     1      -9.113  20.071  67.371  1.00  0.00    -0.460 C  
BRANCH  18  19
HETATM   19  C   UNL     1     -10.466  19.380  67.472  1.00  0.00    -0.577 C  
BRANCH  19  20
HETATM   20  C   UNL     1     -10.358  18.111  68.309  1.00  0.00    -0.377 C  
BRANCH  20  21
HETATM   21  C   UNL     1     -11.033  16.935  67.610  1.00  0.00    -0.165 C  
BRANCH  21  22
HETATM   22  C   UNL     1     -11.413  15.856  68.617  1.00  0.00    -0.391 C  
HETATM   23  C   UNL     1     -11.072  16.280  70.034  1.00  0.00    -0.351 C  
ENDBRANCH  21  22
ENDBRANCH  20  21
ENDBRANCH  19  20
ENDBRANCH  18  19
ENDBRANCH  17  18
ENDBRANCH  16  17
ENDBRANCH  15  16
ENDBRANCH  14  15
ENDBRANCH  11  14
ENDBRANCH  10  11
ENDBRANCH   9  10
ENDBRANCH   8   9
ENDBRANCH   7   8
ENDBRANCH   6   7
ENDBRANCH   5   6
ENDBRANCH   4   5
ENDBRANCH   3   4
ENDBRANCH   2   3
TORSDOF 18
ENDMDL
MODEL      252
REMARK 921   NORMALIZED FREE ENERGY PREDICTED BY IDOCK:   -2.74 KCAL/MOL
REMARK 922        TOTAL FREE ENERGY PREDICTED BY IDOCK:   -8.32 KCAL/MOL
REMARK 923 INTER-LIGAND FREE ENERGY PREDICTED BY IDOCK:   -6.13 KCAL/MOL
REMARK 924 INTRA-LIGAND FREE ENERGY PREDICTED BY IDOCK:   -2.19 KCAL/MOL
REMARK 927      BINDING AFFINITY PREDICTED BY RF-SCORE:    0.00 PKD
ROOT
HETATM    1  C   UNL     1     -12.416   6.741  71.073  1.00  0.00    -0.318 C  
HETATM    2  C   UNL     1     -11.578   7.997  70.924  1.00  0.00    -0.284 C  
ENDROOT
BRANCH   2   3
HETATM    3  C   UNL     1     -10.368   7.966  71.853  1.00  0.00    -0.271 C  
BRANCH   3   4
HETATM    4  C   UNL     1     -10.798   7.672  73.286  1.00  0.00    -0.379 C  
BRANCH   4   5
HETATM    5  C   UNL     1      -9.719   6.897  74.028  1.00  0.00    -0.326 C  
BRANCH   5   6
HETATM    6  C   UNL     1      -8.935   6.010  73.066  1.00  0.00    -0.127 C  
BRANCH   6   7
HETATM    7  C   UNL     1      -9.428   4.577  73.165  1.00  0.00    -0.138 C  
BRANCH   7   8
HETATM    8  C   UNL     1      -9.840   4.026  71.803  1.00  0.00    -0.249 C  
BRANCH   8   9
HETATM    9  C   UNL     1      -8.930   4.635  70.746  1.00  0.00    -0.166 C  
BRANCH   9  10
HETATM   10  C   UNL     1      -9.608   4.714  69.385  1.00  0.00    -0.187 C  
BRANCH  10  11
HETATM   11  N   UNL     1      -8.591   4.773  68.216  1.00  0.00    -0.101 N  
HETATM   12  C   UNL     1      -7.270   5.379  68.691  1.00  0.00    -0.066 C  
HETATM   13  C   UNL     1      -8.345   3.368  67.659  1.00  0.00    -0.086 C  
BRANCH  11  14
HETATM   14  C   UNL     1      -9.237   5.674  67.132  1.00  0.00    -0.114 C  
BRANCH  14  15
HETATM   15  C   UNL     1     -10.610   6.189  67.541  1.00  0.00    -0.344 C  
BRANCH  15  16
HETATM   16  C   UNL     1     -10.709   7.704  67.434  1.00  0.00    -0.318 C  
BRANCH  16  17
HETATM   17  C   UNL     1      -9.620   8.189  66.482  1.00  0.00    -0.303 C  
BRANCH  17  18
HETATM   18  C   UNL     1      -9.729   9.682  66.221  1.00  0.00    -0.303 C  
BRANCH  18  19
HETATM   19  C   UNL     1      -9.330   9.985  64.784  1.00  0.00    -0.330 C  
BRANCH  19  20
HETATM   20  C   UNL     1     -10.159  11.139  64.229  1.00  0.00    -0.382 C  
BRANCH  20  21
HETATM   21  C   UNL     1     -10.991  11.791  65.329  1.00  0.00    -0.350 C  
BRANCH  21  22
HETATM   22  C   UNL     1     -12.083  12.669  64.728  1.00  0.00    -0.495 C  
HETATM   23  C   UNL     1     -12.302  12.348  63.261  1.00  0.00    -0.497 C  
ENDBRANCH  21  22
ENDBRANCH  20  21
ENDBRANCH  19  20
ENDBRANCH  18  19
ENDBRANCH  17  18
ENDBRANCH  16  17
ENDBRANCH  15  16
ENDBRANCH  14  15
ENDBRANCH  11  14
ENDBRANCH  10  11
ENDBRANCH   9  10
ENDBRANCH   8   9
ENDBRANCH   7   8
ENDBRANCH   6   7
ENDBRANCH   5   6
ENDBRANCH   4   5
ENDBRANCH   3   4
ENDBRANCH   2   3
TORSDOF 18
ENDMDL
MODEL      253
REMARK 921   NORMALIZED FREE ENERGY PREDICTED BY IDOCK:   -2.72 KCAL/MOL
REMARK 922        TOTAL FREE ENERGY PREDICTED BY IDOCK:   -8.28 KCAL/MOL
REMARK 923 INTER-LIGAND FREE ENERGY PREDICTED BY IDOCK:   -6.60 KCAL/MOL
REMARK 924 INTRA-LIGAND FREE ENERGY PREDICTED BY IDOCK:   -1.68 KCAL/MOL
REMARK 927      BINDING AFFINITY PREDICTED BY RF-SCORE:    0.00 PKD
ROOT
HETATM    1  C   UNL     1     -11.564   6.389  70.099  1.00  0.00    -0.449 C  
HETATM    2  C   UNL     1     -12.254   6.633  71.429  1.00  0.00    -0.378 C  
ENDROOT
BRANCH   2   3
HETATM    3  C   UNL     1     -12.417   8.125  71.700  1.00  0.00    -0.349 C  
BRANCH   3   4
HETATM    4  C   UNL     1     -11.074   8.840  71.599  1.00  0.00    -0.398 C  
BRANCH   4   5
HETATM    5  C   UNL     1     -10.109   8.337  72.662  1.00  0.00    -0.365 C  
BRANCH   5   6
HETATM    6  C   UNL     1      -8.665   8.546  72.220  1.00  0.00    -0.261 C  
BRANCH   6   7
HETATM    7  C   UNL     1      -8.587   8.573  70.703  1.00  0.00    -0.163 C  
BRANCH   7   8
HETATM    8  C   UNL     1      -7.736   9.735  70.202  1.00  0.00    -0.188 C  
BRANCH   8   9
HETATM    9  C   UNL     1      -8.491  10.431  69.078  1.00  0.00    -0.155 C  
BRANCH   9  10
HETATM   10  C   UNL     1      -8.533   9.588  67.811  1.00  0.00    -0.119 C  
BRANCH  10  11
HETATM   11  N   UNL     1      -9.347  10.262  66.676  1.00  0.00    -0.159 N  
HETATM   12  C   UNL     1      -8.619  11.506  66.167  1.00  0.00    -0.094 C  
HETATM   13  C   UNL     1      -9.558   9.278  65.522  1.00  0.00    -0.220 C  
BRANCH  11  14
HETATM   14  C   UNL     1     -10.710  10.655  67.302  1.00  0.00    -0.285 C  
BRANCH  14  15
HETATM   15  C   UNL     1     -11.461  11.684  66.470  1.00  0.00    -0.260 C  
BRANCH  15  16
HETATM   16  C   UNL     1     -11.848  12.908  67.287  1.00  0.00    -0.416 C  
BRANCH  16  17
HETATM   17  C   UNL     1     -12.252  14.020  66.324  1.00  0.00    -0.493 C  
BRANCH  17  18
HETATM   18  C   UNL     1     -11.046  14.811  65.845  1.00  0.00    -0.340 C  
BRANCH  18  19
HETATM   19  C   UNL     1      -9.997  14.871  66.947  1.00  0.00    -0.245 C  
BRANCH  19  20
HETATM   20  C   UNL     1     -10.261  16.055  67.872  1.00  0.00    -0.258 C  
BRANCH  20  21
HETATM   21  C   UNL     1      -9.922  15.704  69.318  1.00  0.00    -0.265 C  
BRANCH  21  22
HETATM   22  C   UNL     1     -11.037  16.154  70.256  1.00  0.00    -0.375 C  
HETATM   23  C   UNL     1     -11.974  15.007  70.587  1.00  0.00    -0.370 C  
ENDBRANCH  21  22
ENDBRANCH  20  21
ENDBRANCH  19  20
ENDBRANCH  18  19
ENDBRANCH  17  18
ENDBRANCH  16  17
ENDBRANCH  15  16
ENDBRANCH  14  15
ENDBRANCH  11  14
ENDBRANCH  10  11
ENDBRANCH   9  10
ENDBRANCH   8   9
ENDBRANCH   7   8
ENDBRANCH   6   7
ENDBRANCH   5   6
ENDBRANCH   4   5
ENDBRANCH   3   4
ENDBRANCH   2   3
TORSDOF 18
ENDMDL
MODEL      254
REMARK 921   NORMALIZED FREE ENERGY PREDICTED BY IDOCK:   -2.72 KCAL/MOL
REMARK 922        TOTAL FREE ENERGY PREDICTED BY IDOCK:   -8.28 KCAL/MOL
REMARK 923 INTER-LIGAND FREE ENERGY PREDICTED BY IDOCK:   -6.94 KCAL/MOL
REMARK 924 INTRA-LIGAND FREE ENERGY PREDICTED BY IDOCK:   -1.34 KCAL/MOL
REMARK 927      BINDING AFFINITY PREDICTED BY RF-SCORE:    0.00 PKD
ROOT
HETATM    1  C   UNL     1      -9.393  16.932  66.948  1.00  0.00    -0.254 C  
HETATM    2  C   UNL     1      -9.194  15.874  65.879  1.00  0.00    -0.332 C  
ENDROOT
BRANCH   2   3
HETATM    3  C   UNL     1      -9.851  14.556  66.278  1.00  0.00    -0.322 C  
BRANCH   3   4
HETATM    4  C   UNL     1     -10.980  14.798  67.274  1.00  0.00    -0.318 C  
BRANCH   4   5
HETATM    5  C   UNL     1     -10.799  13.941  68.518  1.00  0.00    -0.274 C  
BRANCH   5   6
HETATM    6  C   UNL     1     -12.127  13.761  69.246  1.00  0.00    -0.374 C  
BRANCH   6   7
HETATM    7  C   UNL     1     -12.083  12.506  70.100  1.00  0.00    -0.368 C  
BRANCH   7   8
HETATM    8  C   UNL     1     -12.031  11.243  69.246  1.00  0.00    -0.411 C  
BRANCH   8   9
HETATM    9  C   UNL     1     -11.307  10.162  70.035  1.00  0.00    -0.351 C  
BRANCH   9  10
HETATM   10  C   UNL     1     -12.169   9.599  71.157  1.00  0.00    -0.350 C  
BRANCH  10  11
HETATM   11  N   UNL     1     -11.895   8.096  71.420  1.00  0.00    -0.289 N  
HETATM   12  C   UNL     1     -13.207   7.311  71.427  1.00  0.00    -0.346 C  
HETATM   13  C   UNL     1     -10.962   7.532  70.345  1.00  0.00    -0.251 C  
BRANCH  11  14
HETATM   14  C   UNL     1     -11.217   8.022  72.812  1.00  0.00    -0.382 C  
BRANCH  14  15
HETATM   15  C   UNL     1      -9.699   7.967  72.721  1.00  0.00    -0.322 C  
BRANCH  15  16
HETATM   16  C   UNL     1      -9.079   7.259  73.918  1.00  0.00    -0.276 C  
BRANCH  16  17
HETATM   17  C   UNL     1     -10.132   6.344  74.533  1.00  0.00    -0.358 C  
BRANCH  17  18
HETATM   18  C   UNL     1      -9.834   4.880  74.255  1.00  0.00    -0.191 C  
BRANCH  18  19
HETATM   19  C   UNL     1     -10.869   4.317  73.290  1.00  0.00    -0.323 C  
BRANCH  19  20
HETATM   20  C   UNL     1     -10.196   3.462  72.222  1.00  0.00    -0.177 C  
BRANCH  20  21
HETATM   21  C   UNL     1      -9.336   4.319  71.298  1.00  0.00    -0.214 C  
BRANCH  21  22
HETATM   22  C   UNL     1      -9.621   3.986  69.837  1.00  0.00    -0.281 C  
HETATM   23  C   UNL     1      -9.404   2.511  69.556  1.00  0.00    -0.172 C  
ENDBRANCH  21  22
ENDBRANCH  20  21
ENDBRANCH  19  20
ENDBRANCH  18  19
ENDBRANCH  17  18
ENDBRANCH  16  17
ENDBRANCH  15  16
ENDBRANCH  14  15
ENDBRANCH  11  14
ENDBRANCH  10  11
ENDBRANCH   9  10
ENDBRANCH   8   9
ENDBRANCH   7   8
ENDBRANCH   6   7
ENDBRANCH   5   6
ENDBRANCH   4   5
ENDBRANCH   3   4
ENDBRANCH   2   3
TORSDOF 18
ENDMDL
MODEL      255
REMARK 921   NORMALIZED FREE ENERGY PREDICTED BY IDOCK:   -2.71 KCAL/MOL
REMARK 922        TOTAL FREE ENERGY PREDICTED BY IDOCK:   -8.27 KCAL/MOL
REMARK 923 INTER-LIGAND FREE ENERGY PREDICTED BY IDOCK:   -6.91 KCAL/MOL
REMARK 924 INTRA-LIGAND FREE ENERGY PREDICTED BY IDOCK:   -1.36 KCAL/MOL
REMARK 927      BINDING AFFINITY PREDICTED BY RF-SCORE:    0.00 PKD
ROOT
HETATM    1  C   UNL     1      -9.427   2.428  68.441  1.00  0.00    -0.219 C  
HETATM    2  C   UNL     1      -9.559   3.179  69.753  1.00  0.00    -0.128 C  
ENDROOT
BRANCH   2   3
HETATM    3  C   UNL     1      -9.238   4.660  69.576  1.00  0.00    -0.182 C  
BRANCH   3   4
HETATM    4  C   UNL     1     -10.298   5.524  70.249  1.00  0.00    -0.349 C  
BRANCH   4   5
HETATM    5  C   UNL     1     -11.242   6.127  69.219  1.00  0.00    -0.438 C  
BRANCH   5   6
HETATM    6  C   UNL     1     -10.826   5.724  67.808  1.00  0.00    -0.259 C  
BRANCH   6   7
HETATM    7  C   UNL     1     -10.564   6.966  66.972  1.00  0.00    -0.403 C  
BRANCH   7   8
HETATM    8  C   UNL     1      -9.125   7.452  67.120  1.00  0.00    -0.146 C  
BRANCH   8   9
HETATM    9  C   UNL     1      -9.156   8.923  67.511  1.00  0.00    -0.146 C  
BRANCH   9  10
HETATM   10  C   UNL     1     -10.502   9.566  67.208  1.00  0.00    -0.262 C  
BRANCH  10  11
HETATM   11  N   UNL     1     -10.368  11.047  66.768  1.00  0.00    -0.229 N  
HETATM   12  C   UNL     1      -8.964  11.568  67.076  1.00  0.00    -0.174 C  
HETATM   13  C   UNL     1     -10.652  11.182  65.270  1.00  0.00    -0.238 C  
BRANCH  11  14
HETATM   14  C   UNL     1     -11.424  11.834  67.588  1.00  0.00    -0.300 C  
BRANCH  14  15
HETATM   15  C   UNL     1     -11.035  13.289  67.800  1.00  0.00    -0.278 C  
BRANCH  15  16
HETATM   16  C   UNL     1     -11.826  14.231  66.904  1.00  0.00    -0.458 C  
BRANCH  16  17
HETATM   17  C   UNL     1     -10.887  14.778  65.834  1.00  0.00    -0.331 C  
BRANCH  17  18
HETATM   18  C   UNL     1      -9.501  15.052  66.393  1.00  0.00    -0.325 C  
BRANCH  18  19
HETATM   19  C   UNL     1      -9.036  16.437  65.964  1.00  0.00    -0.317 C  
BRANCH  19  20
HETATM   20  C   UNL     1     -10.223  17.388  65.850  1.00  0.00    -0.266 C  
BRANCH  20  21
HETATM   21  C   UNL     1     -10.551  18.018  67.200  1.00  0.00    -0.337 C  
BRANCH  21  22
HETATM   22  C   UNL     1     -10.714  19.527  67.064  1.00  0.00    -0.592 C  
HETATM   23  C   UNL     1      -9.548  20.266  67.695  1.00  0.00    -0.530 C  
ENDBRANCH  21  22
ENDBRANCH  20  21
ENDBRANCH  19  20
ENDBRANCH  18  19
ENDBRANCH  17  18
ENDBRANCH  16  17
ENDBRANCH  15  16
ENDBRANCH  14  15
ENDBRANCH  11  14
ENDBRANCH  10  11
ENDBRANCH   9  10
ENDBRANCH   8   9
ENDBRANCH   7   8
ENDBRANCH   6   7
ENDBRANCH   5   6
ENDBRANCH   4   5
ENDBRANCH   3   4
ENDBRANCH   2   3
TORSDOF 18
ENDMDL
MODEL      256
REMARK 921   NORMALIZED FREE ENERGY PREDICTED BY IDOCK:   -2.71 KCAL/MOL
REMARK 922        TOTAL FREE ENERGY PREDICTED BY IDOCK:   -8.26 KCAL/MOL
REMARK 923 INTER-LIGAND FREE ENERGY PREDICTED BY IDOCK:   -6.55 KCAL/MOL
REMARK 924 INTRA-LIGAND FREE ENERGY PREDICTED BY IDOCK:   -1.71 KCAL/MOL
REMARK 927      BINDING AFFINITY PREDICTED BY RF-SCORE:    0.00 PKD
ROOT
HETATM    1  C   UNL     1      -6.238  19.304  64.874  1.00  0.00    -0.308 C  
HETATM    2  C   UNL     1      -6.175  19.727  66.329  1.00  0.00    -0.190 C  
ENDROOT
BRANCH   2   3
HETATM    3  C   UNL     1      -7.519  20.269  66.806  1.00  0.00    -0.333 C  
BRANCH   3   4
HETATM    4  C   UNL     1      -7.730  19.961  68.284  1.00  0.00    -0.295 C  
BRANCH   4   5
HETATM    5  C   UNL     1      -9.178  19.587  68.560  1.00  0.00    -0.413 C  
BRANCH   5   6
HETATM    6  C   UNL     1      -9.406  18.099  68.311  1.00  0.00    -0.312 C  
BRANCH   6   7
HETATM    7  C   UNL     1     -10.657  17.901  67.472  1.00  0.00    -0.386 C  
BRANCH   7   8
HETATM    8  C   UNL     1     -10.377  18.104  65.986  1.00  0.00    -0.360 C  
BRANCH   8   9
HETATM    9  C   UNL     1     -10.893  16.887  65.232  1.00  0.00    -0.113 C  
BRANCH   9  10
HETATM   10  C   UNL     1     -10.040  15.652  65.489  1.00  0.00    -0.362 C  
BRANCH  10  11
HETATM   11  N   UNL     1     -10.893  14.377  65.715  1.00  0.00    -0.298 N  
HETATM   12  C   UNL     1     -11.794  14.550  66.938  1.00  0.00    -0.377 C  
HETATM   13  C   UNL     1     -11.750  14.088  64.479  1.00  0.00    -0.413 C  
BRANCH  11  14
HETATM   14  C   UNL     1      -9.884  13.224  65.949  1.00  0.00    -0.231 C  
BRANCH  14  15
HETATM   15  C   UNL     1     -10.062  12.557  67.305  1.00  0.00    -0.216 C  
BRANCH  15  16
HETATM   16  C   UNL     1     -10.731  11.195  67.190  1.00  0.00    -0.305 C  
BRANCH  16  17
HETATM   17  C   UNL     1     -10.260  10.536  65.898  1.00  0.00    -0.311 C  
BRANCH  17  18
HETATM   18  C   UNL     1      -9.311   9.382  66.171  1.00  0.00    -0.262 C  
BRANCH  18  19
HETATM   19  C   UNL     1     -10.043   8.279  66.924  1.00  0.00    -0.366 C  
BRANCH  19  20
HETATM   20  C   UNL     1      -9.265   7.876  68.172  1.00  0.00    -0.136 C  
BRANCH  20  21
HETATM   21  C   UNL     1      -8.069   8.797  68.392  1.00  0.00    -0.117 C  
BRANCH  21  22
HETATM   22  C   UNL     1      -8.210   9.556  69.707  1.00  0.00    -0.156 C  
HETATM   23  C   UNL     1      -9.568   9.315  70.339  1.00  0.00    -0.292 C  
ENDBRANCH  21  22
ENDBRANCH  20  21
ENDBRANCH  19  20
ENDBRANCH  18  19
ENDBRANCH  17  18
ENDBRANCH  16  17
ENDBRANCH  15  16
ENDBRANCH  14  15
ENDBRANCH  11  14
ENDBRANCH  10  11
ENDBRANCH   9  10
ENDBRANCH   8   9
ENDBRANCH   7   8
ENDBRANCH   6   7
ENDBRANCH   5   6
ENDBRANCH   4   5
ENDBRANCH   3   4
ENDBRANCH   2   3
TORSDOF 18
ENDMDL
MODEL      257
REMARK 921   NORMALIZED FREE ENERGY PREDICTED BY IDOCK:   -2.71 KCAL/MOL
REMARK 922        TOTAL FREE ENERGY PREDICTED BY IDOCK:   -8.26 KCAL/MOL
REMARK 923 INTER-LIGAND FREE ENERGY PREDICTED BY IDOCK:   -6.46 KCAL/MOL
REMARK 924 INTRA-LIGAND FREE ENERGY PREDICTED BY IDOCK:   -1.80 KCAL/MOL
REMARK 927      BINDING AFFINITY PREDICTED BY RF-SCORE:    0.00 PKD
ROOT
HETATM    1  C   UNL     1     -11.092  14.979  64.869  1.00  0.00    -0.425 C  
HETATM    2  C   UNL     1     -12.369  14.199  64.621  1.00  0.00    -0.432 C  
ENDROOT
BRANCH   2   3
HETATM    3  C   UNL     1     -12.299  12.810  65.248  1.00  0.00    -0.546 C  
BRANCH   3   4
HETATM    4  C   UNL     1     -10.892  12.236  65.125  1.00  0.00    -0.340 C  
BRANCH   4   5
HETATM    5  C   UNL     1     -10.457  11.582  66.429  1.00  0.00    -0.292 C  
BRANCH   5   6
HETATM    6  C   UNL     1     -11.388  11.983  67.569  1.00  0.00    -0.387 C  
BRANCH   6   7
HETATM    7  C   UNL     1     -11.487  10.850  68.577  1.00  0.00    -0.380 C  
BRANCH   7   8
HETATM    8  C   UNL     1     -10.227   9.990  68.585  1.00  0.00    -0.198 C  
BRANCH   8   9
HETATM    9  C   UNL     1     -10.627   8.554  68.275  1.00  0.00    -0.173 C  
BRANCH   9  10
HETATM   10  C   UNL     1     -10.023   8.063  66.966  1.00  0.00    -0.254 C  
BRANCH  10  11
HETATM   11  N   UNL     1      -9.016   6.902  67.175  1.00  0.00    -0.118 N  
HETATM   12  C   UNL     1      -8.567   6.339  65.826  1.00  0.00    -0.150 C  
HETATM   13  C   UNL     1      -7.798   7.394  67.961  1.00  0.00    -0.118 C  
BRANCH  11  14
HETATM   14  C   UNL     1      -9.774   5.818  67.984  1.00  0.00    -0.124 C  
BRANCH  14  15
HETATM   15  C   UNL     1      -8.919   5.202  69.081  1.00  0.00    -0.125 C  
BRANCH  15  16
HETATM   16  C   UNL     1      -9.316   3.763  69.377  1.00  0.00    -0.245 C  
BRANCH  16  17
HETATM   17  C   UNL     1      -9.533   3.623  70.880  1.00  0.00    -0.235 C  
BRANCH  17  18
HETATM   18  C   UNL     1      -9.366   4.953  71.596  1.00  0.00    -0.192 C  
BRANCH  18  19
HETATM   19  C   UNL     1     -10.524   5.169  72.560  1.00  0.00    -0.267 C  
BRANCH  19  20
HETATM   20  C   UNL     1     -11.125   6.558  72.373  1.00  0.00    -0.293 C  
BRANCH  20  21
HETATM   21  C   UNL     1     -11.940   6.631  71.085  1.00  0.00    -0.412 C  
BRANCH  21  22
HETATM   22  C   UNL     1     -13.121   7.581  71.249  1.00  0.00    -0.316 C  
HETATM   23  C   UNL     1     -12.793   8.706  72.213  1.00  0.00    -0.438 C  
ENDBRANCH  21  22
ENDBRANCH  20  21
ENDBRANCH  19  20
ENDBRANCH  18  19
ENDBRANCH  17  18
ENDBRANCH  16  17
ENDBRANCH  15  16
ENDBRANCH  14  15
ENDBRANCH  11  14
ENDBRANCH  10  11
ENDBRANCH   9  10
ENDBRANCH   8   9
ENDBRANCH   7   8
ENDBRANCH   6   7
ENDBRANCH   5   6
ENDBRANCH   4   5
ENDBRANCH   3   4
ENDBRANCH   2   3
TORSDOF 18
ENDMDL
MODEL      258
REMARK 921   NORMALIZED FREE ENERGY PREDICTED BY IDOCK:   -2.68 KCAL/MOL
REMARK 922        TOTAL FREE ENERGY PREDICTED BY IDOCK:   -8.21 KCAL/MOL
REMARK 923 INTER-LIGAND FREE ENERGY PREDICTED BY IDOCK:   -5.16 KCAL/MOL
REMARK 924 INTRA-LIGAND FREE ENERGY PREDICTED BY IDOCK:   -3.05 KCAL/MOL
REMARK 927      BINDING AFFINITY PREDICTED BY RF-SCORE:    0.00 PKD
ROOT
HETATM    1  C   UNL     1      -6.482   7.169  65.289  1.00  0.00    -0.047 C  
HETATM    2  C   UNL     1      -6.449   8.028  66.539  1.00  0.00    -0.051 C  
ENDROOT
BRANCH   2   3
HETATM    3  C   UNL     1      -6.587   9.508  66.196  1.00  0.00    -0.070 C  
BRANCH   3   4
HETATM    4  C   UNL     1      -6.733  10.342  67.464  1.00  0.00    -0.071 C  
BRANCH   4   5
HETATM    5  C   UNL     1      -7.161   9.475  68.638  1.00  0.00    -0.074 C  
BRANCH   5   6
HETATM    6  C   UNL     1      -7.855  10.318  69.704  1.00  0.00    -0.168 C  
BRANCH   6   7
HETATM    7  C   UNL     1      -9.012   9.539  70.307  1.00  0.00    -0.288 C  
BRANCH   7   8
HETATM    8  C   UNL     1      -8.539   8.575  71.391  1.00  0.00    -0.224 C  
BRANCH   8   9
HETATM    9  C   UNL     1      -9.763   8.029  72.111  1.00  0.00    -0.283 C  
BRANCH   9  10
HETATM   10  C   UNL     1      -9.514   6.643  72.691  1.00  0.00    -0.142 C  
BRANCH  10  11
HETATM   11  N   UNL     1     -10.461   5.569  72.096  1.00  0.00    -0.213 N  
HETATM   12  C   UNL     1      -9.650   4.459  71.426  1.00  0.00    -0.165 C  
HETATM   13  C   UNL     1     -11.343   4.973  73.196  1.00  0.00    -0.321 C  
BRANCH  11  14
HETATM   14  C   UNL     1     -11.335   6.304  71.047  1.00  0.00    -0.316 C  
BRANCH  14  15
HETATM   15  C   UNL     1     -11.034   5.863  69.622  1.00  0.00    -0.447 C  
BRANCH  15  16
HETATM   16  C   UNL     1     -11.123   7.017  68.634  1.00  0.00    -0.076 C  
BRANCH  16  17
HETATM   17  C   UNL     1      -9.910   6.955  67.712  1.00  0.00    -0.161 C  
BRANCH  17  18
HETATM   18  C   UNL     1      -9.972   8.020  66.631  1.00  0.00    -0.326 C  
BRANCH  18  19
HETATM   19  C   UNL     1     -10.489   9.325  67.222  1.00  0.00    -0.334 C  
BRANCH  19  20
HETATM   20  C   UNL     1     -10.240  10.483  66.262  1.00  0.00    -0.296 C  
BRANCH  20  21
HETATM   21  C   UNL     1     -10.209  11.814  67.007  1.00  0.00    -0.240 C  
BRANCH  21  22
HETATM   22  C   UNL     1     -11.623  12.282  67.330  1.00  0.00    -0.425 C  
HETATM   23  C   UNL     1     -11.696  13.796  67.417  1.00  0.00    -0.417 C  
ENDBRANCH  21  22
ENDBRANCH  20  21
ENDBRANCH  19  20
ENDBRANCH  18  19
ENDBRANCH  17  18
ENDBRANCH  16  17
ENDBRANCH  15  16
ENDBRANCH  14  15
ENDBRANCH  11  14
ENDBRANCH  10  11
ENDBRANCH   9  10
ENDBRANCH   8   9
ENDBRANCH   7   8
ENDBRANCH   6   7
ENDBRANCH   5   6
ENDBRANCH   4   5
ENDBRANCH   3   4
ENDBRANCH   2   3
TORSDOF 18
ENDMDL
MODEL      259
REMARK 921   NORMALIZED FREE ENERGY PREDICTED BY IDOCK:   -2.68 KCAL/MOL
REMARK 922        TOTAL FREE ENERGY PREDICTED BY IDOCK:   -8.20 KCAL/MOL
REMARK 923 INTER-LIGAND FREE ENERGY PREDICTED BY IDOCK:   -6.02 KCAL/MOL
REMARK 924 INTRA-LIGAND FREE ENERGY PREDICTED BY IDOCK:   -2.19 KCAL/MOL
REMARK 927      BINDING AFFINITY PREDICTED BY RF-SCORE:    0.00 PKD
ROOT
HETATM    1  C   UNL     1     -10.993   6.330  69.315  1.00  0.00    -0.435 C  
HETATM    2  C   UNL     1     -11.719   6.523  70.633  1.00  0.00    -0.436 C  
ENDROOT
BRANCH   2   3
HETATM    3  C   UNL     1     -10.989   7.524  71.524  1.00  0.00    -0.256 C  
BRANCH   3   4
HETATM    4  C   UNL     1      -9.540   7.684  71.077  1.00  0.00    -0.169 C  
BRANCH   4   5
HETATM    5  C   UNL     1      -9.261   9.116  70.643  1.00  0.00    -0.310 C  
BRANCH   5   6
HETATM    6  C   UNL     1     -10.554   9.923  70.586  1.00  0.00    -0.341 C  
BRANCH   6   7
HETATM    7  C   UNL     1     -10.585  10.761  69.320  1.00  0.00    -0.261 C  
BRANCH   7   8
HETATM    8  C   UNL     1     -11.110   9.966  68.129  1.00  0.00    -0.215 C  
BRANCH   8   9
HETATM    9  C   UNL     1     -10.013   9.899  67.077  1.00  0.00    -0.254 C  
BRANCH   9  10
HETATM   10  C   UNL     1     -10.531  10.246  65.687  1.00  0.00    -0.082 C  
BRANCH  10  11
HETATM   11  N   UNL     1     -10.031  11.628  65.194  1.00  0.00    -0.252 N  
HETATM   12  C   UNL     1      -8.791  12.056  65.980  1.00  0.00     0.047 C  
HETATM   13  C   UNL     1      -9.700  11.568  63.700  1.00  0.00    -0.309 C  
BRANCH  11  14
HETATM   14  C   UNL     1     -11.196  12.620  65.446  1.00  0.00    -0.299 C  
BRANCH  14  15
HETATM   15  C   UNL     1     -10.870  13.644  66.522  1.00  0.00    -0.283 C  
BRANCH  15  16
HETATM   16  C   UNL     1     -12.124  14.263  67.122  1.00  0.00    -0.412 C  
BRANCH  16  17
HETATM   17  C   UNL     1     -11.829  14.636  68.572  1.00  0.00    -0.346 C  
BRANCH  17  18
HETATM   18  C   UNL     1     -10.345  14.550  68.881  1.00  0.00    -0.237 C  
BRANCH  18  19
HETATM   19  C   UNL     1      -9.774  15.950  69.065  1.00  0.00    -0.243 C  
BRANCH  19  20
HETATM   20  C   UNL     1      -8.251  15.904  69.123  1.00  0.00    -0.240 C  
BRANCH  20  21
HETATM   21  C   UNL     1      -7.664  15.508  67.772  1.00  0.00    -0.156 C  
BRANCH  21  22
HETATM   22  C   UNL     1      -7.106  16.729  67.050  1.00  0.00    -0.238 C  
HETATM   23  C   UNL     1      -8.176  17.416  66.221  1.00  0.00    -0.288 C  
ENDBRANCH  21  22
ENDBRANCH  20  21
ENDBRANCH  19  20
ENDBRANCH  18  19
ENDBRANCH  17  18
ENDBRANCH  16  17
ENDBRANCH  15  16
ENDBRANCH  14  15
ENDBRANCH  11  14
ENDBRANCH  10  11
ENDBRANCH   9  10
ENDBRANCH   8   9
ENDBRANCH   7   8
ENDBRANCH   6   7
ENDBRANCH   5   6
ENDBRANCH   4   5
ENDBRANCH   3   4
ENDBRANCH   2   3
TORSDOF 18
ENDMDL
MODEL      260
REMARK 921   NORMALIZED FREE ENERGY PREDICTED BY IDOCK:   -2.68 KCAL/MOL
REMARK 922        TOTAL FREE ENERGY PREDICTED BY IDOCK:   -8.19 KCAL/MOL
REMARK 923 INTER-LIGAND FREE ENERGY PREDICTED BY IDOCK:   -6.04 KCAL/MOL
REMARK 924 INTRA-LIGAND FREE ENERGY PREDICTED BY IDOCK:   -2.16 KCAL/MOL
REMARK 927      BINDING AFFINITY PREDICTED BY RF-SCORE:    0.00 PKD
ROOT
HETATM    1  C   UNL     1     -10.092  11.283  65.520  1.00  0.00    -0.306 C  
HETATM    2  C   UNL     1      -9.572  10.188  64.606  1.00  0.00    -0.379 C  
ENDROOT
BRANCH   2   3
HETATM    3  C   UNL     1      -8.068   9.995  64.776  1.00  0.00    -0.155 C  
BRANCH   3   4
HETATM    4  C   UNL     1      -7.778   8.957  65.854  1.00  0.00    -0.098 C  
BRANCH   4   5
HETATM    5  C   UNL     1      -8.240   7.575  65.416  1.00  0.00    -0.136 C  
BRANCH   5   6
HETATM    6  C   UNL     1      -8.753   6.776  66.610  1.00  0.00    -0.128 C  
BRANCH   6   7
HETATM    7  C   UNL     1     -10.036   7.396  67.135  1.00  0.00    -0.281 C  
BRANCH   7   8
HETATM    8  C   UNL     1     -10.926   6.362  67.817  1.00  0.00    -0.425 C  
BRANCH   8   9
HETATM    9  C   UNL     1     -10.126   5.704  68.932  1.00  0.00    -0.254 C  
BRANCH   9  10
HETATM   10  C   UNL     1      -9.876   6.655  70.095  1.00  0.00    -0.166 C  
BRANCH  10  11
HETATM   11  N   UNL     1     -10.179   6.007  71.470  1.00  0.00    -0.199 N  
HETATM   12  C   UNL     1      -9.882   4.507  71.427  1.00  0.00    -0.194 C  
HETATM   13  C   UNL     1      -9.337   6.669  72.564  1.00  0.00    -0.137 C  
BRANCH  11  14
HETATM   14  C   UNL     1     -11.688   6.248  71.734  1.00  0.00    -0.299 C  
BRANCH  14  15
HETATM   15  C   UNL     1     -12.149   7.623  71.274  1.00  0.00    -0.337 C  
BRANCH  15  16
HETATM   16  C   UNL     1     -13.360   8.112  72.056  1.00  0.00    -0.309 C  
BRANCH  16  17
HETATM   17  C   UNL     1     -13.309   9.635  72.115  1.00  0.00    -0.545 C  
BRANCH  17  18
HETATM   18  C   UNL     1     -13.294  10.250  70.726  1.00  0.00    -0.164 C  
BRANCH  18  19
HETATM   19  C   UNL     1     -12.096  11.179  70.586  1.00  0.00    -0.477 C  
BRANCH  19  20
HETATM   20  C   UNL     1     -11.764  11.406  69.115  1.00  0.00    -0.410 C  
BRANCH  20  21
HETATM   21  C   UNL     1     -10.296  11.101  68.833  1.00  0.00    -0.220 C  
BRANCH  21  22
HETATM   22  C   UNL     1      -9.762  10.070  69.822  1.00  0.00    -0.259 C  
HETATM   23  C   UNL     1      -8.285   9.805  69.597  1.00  0.00    -0.163 C  
ENDBRANCH  21  22
ENDBRANCH  20  21
ENDBRANCH  19  20
ENDBRANCH  18  19
ENDBRANCH  17  18
ENDBRANCH  16  17
ENDBRANCH  15  16
ENDBRANCH  14  15
ENDBRANCH  11  14
ENDBRANCH  10  11
ENDBRANCH   9  10
ENDBRANCH   8   9
ENDBRANCH   7   8
ENDBRANCH   6   7
ENDBRANCH   5   6
ENDBRANCH   4   5
ENDBRANCH   3   4
ENDBRANCH   2   3
TORSDOF 18
ENDMDL
MODEL      261
REMARK 921   NORMALIZED FREE ENERGY PREDICTED BY IDOCK:   -2.67 KCAL/MOL
REMARK 922        TOTAL FREE ENERGY PREDICTED BY IDOCK:   -8.18 KCAL/MOL
REMARK 923 INTER-LIGAND FREE ENERGY PREDICTED BY IDOCK:   -6.06 KCAL/MOL
REMARK 924 INTRA-LIGAND FREE ENERGY PREDICTED BY IDOCK:   -2.12 KCAL/MOL
REMARK 927      BINDING AFFINITY PREDICTED BY RF-SCORE:    0.00 PKD
ROOT
HETATM    1  C   UNL     1      -6.837  12.360  68.759  1.00  0.00    -0.092 C  
HETATM    2  C   UNL     1      -8.193  12.567  68.110  1.00  0.00    -0.170 C  
ENDROOT
BRANCH   2   3
HETATM    3  C   UNL     1      -8.787  11.244  67.637  1.00  0.00    -0.138 C  
BRANCH   3   4
HETATM    4  C   UNL     1     -10.308  11.271  67.736  1.00  0.00    -0.208 C  
BRANCH   4   5
HETATM    5  C   UNL     1     -10.892   9.885  67.507  1.00  0.00    -0.307 C  
BRANCH   5   6
HETATM    6  C   UNL     1     -10.167   9.177  66.366  1.00  0.00    -0.300 C  
BRANCH   6   7
HETATM    7  C   UNL     1      -9.782   7.771  66.793  1.00  0.00    -0.296 C  
BRANCH   7   8
HETATM    8  C   UNL     1      -8.277   7.638  67.005  1.00  0.00    -0.117 C  
BRANCH   8   9
HETATM    9  C   UNL     1      -8.001   6.275  67.624  1.00  0.00    -0.113 C  
BRANCH   9  10
HETATM   10  C   UNL     1      -9.283   5.496  67.886  1.00  0.00    -0.108 C  
BRANCH  10  11
HETATM   11  N   UNL     1      -9.352   4.930  69.328  1.00  0.00    -0.117 N  
HETATM   12  C   UNL     1      -9.574   3.417  69.295  1.00  0.00    -0.066 C  
HETATM   13  C   UNL     1      -8.058   5.245  70.082  1.00  0.00    -0.087 C  
BRANCH  11  14
HETATM   14  C   UNL     1     -10.554   5.635  70.007  1.00  0.00    -0.318 C  
BRANCH  14  15
HETATM   15  C   UNL     1     -10.123   6.624  71.079  1.00  0.00    -0.207 C  
BRANCH  15  16
HETATM   16  C   UNL     1     -10.125   8.058  70.570  1.00  0.00    -0.195 C  
BRANCH  16  17
HETATM   17  C   UNL     1     -10.617   8.966  71.693  1.00  0.00    -0.422 C  
BRANCH  17  18
HETATM   18  C   UNL     1     -11.987   8.543  72.195  1.00  0.00    -0.451 C  
BRANCH  18  19
HETATM   19  C   UNL     1     -12.893   9.762  72.309  1.00  0.00    -0.379 C  
BRANCH  19  20
HETATM   20  C   UNL     1     -12.944  10.517  70.985  1.00  0.00    -0.475 C  
BRANCH  20  21
HETATM   21  C   UNL     1     -12.620  11.994  71.186  1.00  0.00    -0.372 C  
BRANCH  21  22
HETATM   22  C   UNL     1     -13.517  12.600  72.259  1.00  0.00    -0.541 C  
HETATM   23  C   UNL     1     -13.474  14.117  72.221  1.00  0.00    -0.578 C  
ENDBRANCH  21  22
ENDBRANCH  20  21
ENDBRANCH  19  20
ENDBRANCH  18  19
ENDBRANCH  17  18
ENDBRANCH  16  17
ENDBRANCH  15  16
ENDBRANCH  14  15
ENDBRANCH  11  14
ENDBRANCH  10  11
ENDBRANCH   9  10
ENDBRANCH   8   9
ENDBRANCH   7   8
ENDBRANCH   6   7
ENDBRANCH   5   6
ENDBRANCH   4   5
ENDBRANCH   3   4
ENDBRANCH   2   3
TORSDOF 18
ENDMDL
MODEL      262
REMARK 921   NORMALIZED FREE ENERGY PREDICTED BY IDOCK:   -2.66 KCAL/MOL
REMARK 922        TOTAL FREE ENERGY PREDICTED BY IDOCK:   -8.17 KCAL/MOL
REMARK 923 INTER-LIGAND FREE ENERGY PREDICTED BY IDOCK:   -6.23 KCAL/MOL
REMARK 924 INTRA-LIGAND FREE ENERGY PREDICTED BY IDOCK:   -1.93 KCAL/MOL
REMARK 927      BINDING AFFINITY PREDICTED BY RF-SCORE:    0.00 PKD
ROOT
HETATM    1  C   UNL     1     -11.282   8.156  72.473  1.00  0.00    -0.459 C  
HETATM    2  C   UNL     1     -10.029   7.315  72.630  1.00  0.00    -0.223 C  
ENDROOT
BRANCH   2   3
HETATM    3  C   UNL     1     -10.325   5.836  72.400  1.00  0.00    -0.238 C  
BRANCH   3   4
HETATM    4  C   UNL     1      -9.435   5.276  71.297  1.00  0.00    -0.197 C  
BRANCH   4   5
HETATM    5  C   UNL     1     -10.167   5.260  69.963  1.00  0.00    -0.358 C  
BRANCH   5   6
HETATM    6  C   UNL     1      -9.563   6.283  69.005  1.00  0.00    -0.138 C  
BRANCH   6   7
HETATM    7  C   UNL     1     -10.658   7.173  68.442  1.00  0.00    -0.223 C  
BRANCH   7   8
HETATM    8  C   UNL     1     -10.590   8.584  69.018  1.00  0.00    -0.173 C  
BRANCH   8   9
HETATM    9  C   UNL     1      -9.133   9.022  69.040  1.00  0.00    -0.143 C  
BRANCH   9  10
HETATM   10  C   UNL     1      -8.992  10.533  69.155  1.00  0.00    -0.161 C  
BRANCH  10  11
HETATM   11  N   UNL     1      -8.831  11.223  67.776  1.00  0.00    -0.138 N  
HETATM   12  C   UNL     1      -7.869  12.407  67.883  1.00  0.00    -0.145 C  
HETATM   13  C   UNL     1      -8.306  10.223  66.743  1.00  0.00    -0.124 C  
BRANCH  11  14
HETATM   14  C   UNL     1     -10.246  11.715  67.375  1.00  0.00    -0.203 C  
BRANCH  14  15
HETATM   15  C   UNL     1     -10.755  12.830  68.277  1.00  0.00    -0.257 C  
BRANCH  15  16
HETATM   16  C   UNL     1     -12.074  12.468  68.945  1.00  0.00    -0.167 C  
BRANCH  16  17
HETATM   17  C   UNL     1     -11.802  12.170  70.416  1.00  0.00    -0.277 C  
BRANCH  17  18
HETATM   18  C   UNL     1     -12.939  12.646  71.304  1.00  0.00    -0.306 C  
BRANCH  18  19
HETATM   19  C   UNL     1     -13.447  13.995  70.813  1.00  0.00     0.015 C  
BRANCH  19  20
HETATM   20  C   UNL     1     -13.560  14.979  71.972  1.00  0.00    -0.522 C  
BRANCH  20  21
HETATM   21  C   UNL     1     -12.377  15.943  71.989  1.00  0.00    -0.550 C  
BRANCH  21  22
HETATM   22  C   UNL     1     -12.126  16.461  73.400  1.00  0.00    -0.534 C  
HETATM   23  C   UNL     1     -12.228  15.345  74.423  1.00  0.00    -0.714 C  
ENDBRANCH  21  22
ENDBRANCH  20  21
ENDBRANCH  19  20
ENDBRANCH  18  19
ENDBRANCH  17  18
ENDBRANCH  16  17
ENDBRANCH  15  16
ENDBRANCH  14  15
ENDBRANCH  11  14
ENDBRANCH  10  11
ENDBRANCH   9  10
ENDBRANCH   8   9
ENDBRANCH   7   8
ENDBRANCH   6   7
ENDBRANCH   5   6
ENDBRANCH   4   5
ENDBRANCH   3   4
ENDBRANCH   2   3
TORSDOF 18
ENDMDL
MODEL      263
REMARK 921   NORMALIZED FREE ENERGY PREDICTED BY IDOCK:   -2.66 KCAL/MOL
REMARK 922        TOTAL FREE ENERGY PREDICTED BY IDOCK:   -8.16 KCAL/MOL
REMARK 923 INTER-LIGAND FREE ENERGY PREDICTED BY IDOCK:   -6.51 KCAL/MOL
REMARK 924 INTRA-LIGAND FREE ENERGY PREDICTED BY IDOCK:   -1.65 KCAL/MOL
REMARK 927      BINDING AFFINITY PREDICTED BY RF-SCORE:    0.00 PKD
ROOT
HETATM    1  C   UNL     1      -8.649   9.752  66.495  1.00  0.00    -0.135 C  
HETATM    2  C   UNL     1      -7.272   9.581  65.881  1.00  0.00    -0.096 C  
ENDROOT
BRANCH   2   3
HETATM    3  C   UNL     1      -6.367  10.762  66.217  1.00  0.00    -0.129 C  
BRANCH   3   4
HETATM    4  C   UNL     1      -6.777  11.395  67.541  1.00  0.00    -0.078 C  
BRANCH   4   5
HETATM    5  C   UNL     1      -5.622  11.379  68.532  1.00  0.00    -0.042 C  
BRANCH   5   6
HETATM    6  C   UNL     1      -6.080  10.845  69.885  1.00  0.00    -0.105 C  
BRANCH   6   7
HETATM    7  C   UNL     1      -7.189   9.825  69.690  1.00  0.00    -0.097 C  
BRANCH   7   8
HETATM    8  C   UNL     1      -6.637   8.410  69.549  1.00  0.00    -0.041 C  
BRANCH   8   9
HETATM    9  C   UNL     1      -7.807   7.438  69.553  1.00  0.00    -0.121 C  
BRANCH   9  10
HETATM   10  C   UNL     1      -8.799   7.742  70.668  1.00  0.00    -0.144 C  
BRANCH  10  11
HETATM   11  N   UNL     1     -10.192   7.111  70.414  1.00  0.00    -0.192 N  
HETATM   12  C   UNL     1     -10.546   7.186  68.929  1.00  0.00    -0.201 C  
HETATM   13  C   UNL     1     -10.203   5.651  70.875  1.00  0.00    -0.223 C  
BRANCH  11  14
HETATM   14  C   UNL     1     -11.198   7.945  71.249  1.00  0.00    -0.255 C  
BRANCH  14  15
HETATM   15  C   UNL     1     -10.993   9.443  71.085  1.00  0.00    -0.430 C  
BRANCH  15  16
HETATM   16  C   UNL     1     -12.290  10.221  71.263  1.00  0.00    -0.506 C  
BRANCH  16  17
HETATM   17  C   UNL     1     -12.151  11.557  70.540  1.00  0.00    -0.472 C  
BRANCH  17  18
HETATM   18  C   UNL     1     -12.773  12.692  71.336  1.00  0.00    -0.347 C  
BRANCH  18  19
HETATM   19  C   UNL     1     -12.301  14.030  70.782  1.00  0.00    -0.443 C  
BRANCH  19  20
HETATM   20  C   UNL     1     -13.349  15.110  71.027  1.00  0.00    -0.504 C  
BRANCH  20  21
HETATM   21  C   UNL     1     -13.953  14.980  72.422  1.00  0.00    -0.593 C  
BRANCH  21  22
HETATM   22  C   UNL     1     -13.229  15.890  73.408  1.00  0.00    -0.668 C  
HETATM   23  C   UNL     1     -12.180  15.125  74.194  1.00  0.00    -0.686 C  
ENDBRANCH  21  22
ENDBRANCH  20  21
ENDBRANCH  19  20
ENDBRANCH  18  19
ENDBRANCH  17  18
ENDBRANCH  16  17
ENDBRANCH  15  16
ENDBRANCH  14  15
ENDBRANCH  11  14
ENDBRANCH  10  11
ENDBRANCH   9  10
ENDBRANCH   8   9
ENDBRANCH   7   8
ENDBRANCH   6   7
ENDBRANCH   5   6
ENDBRANCH   4   5
ENDBRANCH   3   4
ENDBRANCH   2   3
TORSDOF 18
ENDMDL
MODEL      264
REMARK 921   NORMALIZED FREE ENERGY PREDICTED BY IDOCK:   -2.66 KCAL/MOL
REMARK 922        TOTAL FREE ENERGY PREDICTED BY IDOCK:   -8.15 KCAL/MOL
REMARK 923 INTER-LIGAND FREE ENERGY PREDICTED BY IDOCK:   -6.08 KCAL/MOL
REMARK 924 INTRA-LIGAND FREE ENERGY PREDICTED BY IDOCK:   -2.07 KCAL/MOL
REMARK 927      BINDING AFFINITY PREDICTED BY RF-SCORE:    0.00 PKD
ROOT
HETATM    1  C   UNL     1      -5.675   8.338  66.721  1.00  0.00    -0.044 C  
HETATM    2  C   UNL     1      -6.418   7.719  67.890  1.00  0.00    -0.051 C  
ENDROOT
BRANCH   2   3
HETATM    3  C   UNL     1      -7.438   6.690  67.413  1.00  0.00    -0.096 C  
BRANCH   3   4
HETATM    4  C   UNL     1      -8.855   7.149  67.735  1.00  0.00    -0.124 C  
BRANCH   4   5
HETATM    5  C   UNL     1      -8.840   8.329  68.694  1.00  0.00    -0.133 C  
BRANCH   5   6
HETATM    6  C   UNL     1      -9.527   9.539  68.070  1.00  0.00    -0.147 C  
BRANCH   6   7
HETATM    7  C   UNL     1     -10.340   9.106  66.862  1.00  0.00    -0.321 C  
BRANCH   7   8
HETATM    8  C   UNL     1      -9.635   9.452  65.554  1.00  0.00    -0.328 C  
BRANCH   8   9
HETATM    9  C   UNL     1      -9.690  10.961  65.366  1.00  0.00    -0.287 C  
BRANCH   9  10
HETATM   10  C   UNL     1     -10.629  11.363  64.237  1.00  0.00    -0.355 C  
BRANCH  10  11
HETATM   11  N   UNL     1     -11.279  12.752  64.469  1.00  0.00    -0.317 N  
HETATM   12  C   UNL     1     -12.046  13.194  63.222  1.00  0.00    -0.386 C  
HETATM   13  C   UNL     1     -12.229  12.697  65.668  1.00  0.00    -0.411 C  
BRANCH  11  14
HETATM   14  C   UNL     1     -10.109  13.729  64.755  1.00  0.00    -0.228 C  
BRANCH  14  15
HETATM   15  C   UNL     1     -10.590  15.112  65.168  1.00  0.00    -0.447 C  
BRANCH  15  16
HETATM   16  C   UNL     1      -9.566  15.842  66.025  1.00  0.00    -0.388 C  
BRANCH  16  17
HETATM   17  C   UNL     1     -10.307  16.818  66.932  1.00  0.00    -0.294 C  
BRANCH  17  18
HETATM   18  C   UNL     1      -9.691  16.872  68.320  1.00  0.00    -0.256 C  
BRANCH  18  19
HETATM   19  C   UNL     1     -10.780  16.724  69.374  1.00  0.00    -0.300 C  
BRANCH  19  20
HETATM   20  C   UNL     1     -10.733  15.335  70.000  1.00  0.00    -0.297 C  
BRANCH  20  21
HETATM   21  C   UNL     1     -11.845  14.448  69.447  1.00  0.00    -0.369 C  
BRANCH  21  22
HETATM   22  C   UNL     1     -11.323  13.045  69.162  1.00  0.00    -0.328 C  
HETATM   23  C   UNL     1      -9.960  13.090  68.495  1.00  0.00    -0.174 C  
ENDBRANCH  21  22
ENDBRANCH  20  21
ENDBRANCH  19  20
ENDBRANCH  18  19
ENDBRANCH  17  18
ENDBRANCH  16  17
ENDBRANCH  15  16
ENDBRANCH  14  15
ENDBRANCH  11  14
ENDBRANCH  10  11
ENDBRANCH   9  10
ENDBRANCH   8   9
ENDBRANCH   7   8
ENDBRANCH   6   7
ENDBRANCH   5   6
ENDBRANCH   4   5
ENDBRANCH   3   4
ENDBRANCH   2   3
TORSDOF 18
ENDMDL
MODEL      265
REMARK 921   NORMALIZED FREE ENERGY PREDICTED BY IDOCK:   -2.65 KCAL/MOL
REMARK 922        TOTAL FREE ENERGY PREDICTED BY IDOCK:   -8.15 KCAL/MOL
REMARK 923 INTER-LIGAND FREE ENERGY PREDICTED BY IDOCK:   -6.44 KCAL/MOL
REMARK 924 INTRA-LIGAND FREE ENERGY PREDICTED BY IDOCK:   -1.71 KCAL/MOL
REMARK 927      BINDING AFFINITY PREDICTED BY RF-SCORE:    0.00 PKD
ROOT
HETATM    1  C   UNL     1     -12.374  15.818  71.564  1.00  0.00    -0.514 C  
HETATM    2  C   UNL     1     -12.135  14.358  71.229  1.00  0.00    -0.405 C  
ENDROOT
BRANCH   2   3
HETATM    3  C   UNL     1     -11.979  14.154  69.725  1.00  0.00    -0.396 C  
BRANCH   3   4
HETATM    4  C   UNL     1     -12.034  12.672  69.374  1.00  0.00    -0.318 C  
BRANCH   4   5
HETATM    5  C   UNL     1     -11.317  12.398  68.061  1.00  0.00    -0.340 C  
BRANCH   5   6
HETATM    6  C   UNL     1     -10.416  13.569  67.684  1.00  0.00    -0.239 C  
BRANCH   6   7
HETATM    7  C   UNL     1      -8.977  13.253  68.054  1.00  0.00    -0.191 C  
BRANCH   7   8
HETATM    8  C   UNL     1      -8.684  11.759  67.959  1.00  0.00    -0.167 C  
BRANCH   8   9
HETATM    9  C   UNL     1      -7.970  11.495  66.641  1.00  0.00    -0.127 C  
BRANCH   9  10
HETATM   10  C   UNL     1      -7.640  10.020  66.456  1.00  0.00    -0.106 C  
BRANCH  10  11
HETATM   11  N   UNL     1      -8.216   9.442  65.137  1.00  0.00    -0.128 N  
HETATM   12  C   UNL     1      -9.443  10.242  64.698  1.00  0.00    -0.293 C  
HETATM   13  C   UNL     1      -7.154   9.479  64.035  1.00  0.00    -0.109 C  
BRANCH  11  14
HETATM   14  C   UNL     1      -8.614   7.977  65.450  1.00  0.00    -0.114 C  
BRANCH  14  15
HETATM   15  C   UNL     1      -9.005   7.776  66.907  1.00  0.00    -0.153 C  
BRANCH  15  16
HETATM   16  C   UNL     1     -10.512   7.648  67.083  1.00  0.00    -0.412 C  
BRANCH  16  17
HETATM   17  C   UNL     1     -10.814   6.261  67.639  1.00  0.00    -0.433 C  
BRANCH  17  18
HETATM   18  C   UNL     1     -11.264   6.324  69.089  1.00  0.00    -0.439 C  
BRANCH  18  19
HETATM   19  C   UNL     1     -10.297   5.537  69.964  1.00  0.00    -0.358 C  
BRANCH  19  20
HETATM   20  C   UNL     1      -9.509   6.476  70.870  1.00  0.00    -0.179 C  
BRANCH  20  21
HETATM   21  C   UNL     1     -10.056   7.898  70.791  1.00  0.00    -0.201 C  
BRANCH  21  22
HETATM   22  C   UNL     1     -10.277   8.467  72.188  1.00  0.00    -0.403 C  
HETATM   23  C   UNL     1     -11.096   7.520  73.045  1.00  0.00    -0.413 C  
ENDBRANCH  21  22
ENDBRANCH  20  21
ENDBRANCH  19  20
ENDBRANCH  18  19
ENDBRANCH  17  18
ENDBRANCH  16  17
ENDBRANCH  15  16
ENDBRANCH  14  15
ENDBRANCH  11  14
ENDBRANCH  10  11
ENDBRANCH   9  10
ENDBRANCH   8   9
ENDBRANCH   7   8
ENDBRANCH   6   7
ENDBRANCH   5   6
ENDBRANCH   4   5
ENDBRANCH   3   4
ENDBRANCH   2   3
TORSDOF 18
ENDMDL
MODEL      266
REMARK 921   NORMALIZED FREE ENERGY PREDICTED BY IDOCK:   -2.65 KCAL/MOL
REMARK 922        TOTAL FREE ENERGY PREDICTED BY IDOCK:   -8.14 KCAL/MOL
REMARK 923 INTER-LIGAND FREE ENERGY PREDICTED BY IDOCK:   -6.04 KCAL/MOL
REMARK 924 INTRA-LIGAND FREE ENERGY PREDICTED BY IDOCK:   -2.10 KCAL/MOL
REMARK 927      BINDING AFFINITY PREDICTED BY RF-SCORE:    0.00 PKD
ROOT
HETATM    1  C   UNL     1      -6.260   8.737  70.635  1.00  0.00    -0.039 C  
HETATM    2  C   UNL     1      -7.454   9.553  70.177  1.00  0.00    -0.137 C  
ENDROOT
BRANCH   2   3
HETATM    3  C   UNL     1      -8.667   9.304  71.069  1.00  0.00    -0.182 C  
BRANCH   3   4
HETATM    4  C   UNL     1      -8.475   8.039  71.897  1.00  0.00    -0.176 C  
BRANCH   4   5
HETATM    5  C   UNL     1      -9.172   8.161  73.244  1.00  0.00    -0.316 C  
BRANCH   5   6
HETATM    6  C   UNL     1     -10.335   7.179  73.339  1.00  0.00    -0.391 C  
BRANCH   6   7
HETATM    7  C   UNL     1     -11.570   7.777  72.686  1.00  0.00    -0.398 C  
BRANCH   7   8
HETATM    8  C   UNL     1     -12.120   6.875  71.586  1.00  0.00    -0.394 C  
BRANCH   8   9
HETATM    9  C   UNL     1     -11.676   7.435  70.242  1.00  0.00    -0.100 C  
BRANCH   9  10
HETATM   10  C   UNL     1     -11.045   6.369  69.358  1.00  0.00    -0.387 C  
BRANCH  10  11
HETATM   11  N   UNL     1     -10.231   6.973  68.184  1.00  0.00    -0.173 N  
HETATM   12  C   UNL     1      -8.734   6.752  68.406  1.00  0.00    -0.123 C  
HETATM   13  C   UNL     1     -10.657   6.334  66.860  1.00  0.00    -0.305 C  
BRANCH  11  14
HETATM   14  C   UNL     1     -10.554   8.490  68.177  1.00  0.00    -0.124 C  
BRANCH  14  15
HETATM   15  C   UNL     1      -9.965   9.208  66.972  1.00  0.00    -0.294 C  
BRANCH  15  16
HETATM   16  C   UNL     1      -9.806  10.702  67.216  1.00  0.00    -0.206 C  
BRANCH  16  17
HETATM   17  C   UNL     1     -10.979  11.176  68.068  1.00  0.00    -0.307 C  
BRANCH  17  18
HETATM   18  C   UNL     1     -10.675  12.496  68.756  1.00  0.00    -0.235 C  
BRANCH  18  19
HETATM   19  C   UNL     1     -11.892  13.408  68.683  1.00  0.00    -0.397 C  
BRANCH  19  20
HETATM   20  C   UNL     1     -11.793  14.517  69.725  1.00  0.00    -0.367 C  
BRANCH  20  21
HETATM   21  C   UNL     1     -12.912  14.401  70.756  1.00  0.00    -0.388 C  
BRANCH  21  22
HETATM   22  C   UNL     1     -12.496  13.481  71.898  1.00  0.00    -0.108 C  
HETATM   23  C   UNL     1     -13.398  12.263  71.981  1.00  0.00    -0.491 C  
ENDBRANCH  21  22
ENDBRANCH  20  21
ENDBRANCH  19  20
ENDBRANCH  18  19
ENDBRANCH  17  18
ENDBRANCH  16  17
ENDBRANCH  15  16
ENDBRANCH  14  15
ENDBRANCH  11  14
ENDBRANCH  10  11
ENDBRANCH   9  10
ENDBRANCH   8   9
ENDBRANCH   7   8
ENDBRANCH   6   7
ENDBRANCH   5   6
ENDBRANCH   4   5
ENDBRANCH   3   4
ENDBRANCH   2   3
TORSDOF 18
ENDMDL
MODEL      267
REMARK 921   NORMALIZED FREE ENERGY PREDICTED BY IDOCK:   -2.65 KCAL/MOL
REMARK 922        TOTAL FREE ENERGY PREDICTED BY IDOCK:   -8.14 KCAL/MOL
REMARK 923 INTER-LIGAND FREE ENERGY PREDICTED BY IDOCK:   -6.56 KCAL/MOL
REMARK 924 INTRA-LIGAND FREE ENERGY PREDICTED BY IDOCK:   -1.58 KCAL/MOL
REMARK 927      BINDING AFFINITY PREDICTED BY RF-SCORE:    0.00 PKD
ROOT
HETATM    1  C   UNL     1      -5.871   9.982  65.756  1.00  0.00    -0.070 C  
HETATM    2  C   UNL     1      -6.677   9.226  66.796  1.00  0.00    -0.076 C  
ENDROOT
BRANCH   2   3
HETATM    3  C   UNL     1      -7.706   8.311  66.139  1.00  0.00    -0.097 C  
BRANCH   3   4
HETATM    4  C   UNL     1      -9.105   8.609  66.668  1.00  0.00    -0.203 C  
BRANCH   4   5
HETATM    5  C   UNL     1      -9.162   9.990  67.305  1.00  0.00    -0.159 C  
BRANCH   5   6
HETATM    6  C   UNL     1      -9.549  11.043  66.272  1.00  0.00    -0.231 C  
BRANCH   6   7
HETATM    7  C   UNL     1     -10.598  10.481  65.328  1.00  0.00    -0.137 C  
BRANCH   7   8
HETATM    8  C   UNL     1     -10.259  10.773  63.869  1.00  0.00    -0.377 C  
BRANCH   8   9
HETATM    9  C   UNL     1     -10.179  12.282  63.690  1.00  0.00    -0.430 C  
BRANCH   9  10
HETATM   10  C   UNL     1     -11.556  12.930  63.679  1.00  0.00    -0.485 C  
BRANCH  10  11
HETATM   11  N   UNL     1     -11.675  14.092  64.700  1.00  0.00    -0.385 N  
HETATM   12  C   UNL     1     -12.270  15.330  64.028  1.00  0.00     0.005 C  
HETATM   13  C   UNL     1     -12.555  13.671  65.880  1.00  0.00    -0.425 C  
BRANCH  11  14
HETATM   14  C   UNL     1     -10.232  14.385  65.185  1.00  0.00    -0.391 C  
BRANCH  14  15
HETATM   15  C   UNL     1     -10.013  15.853  65.516  1.00  0.00    -0.313 C  
BRANCH  15  16
HETATM   16  C   UNL     1      -9.498  16.049  66.935  1.00  0.00    -0.242 C  
BRANCH  16  17
HETATM   17  C   UNL     1      -9.929  17.431  67.416  1.00  0.00    -0.305 C  
BRANCH  17  18
HETATM   18  C   UNL     1     -10.581  17.370  68.786  1.00  0.00    -0.283 C  
BRANCH  18  19
HETATM   19  C   UNL     1     -11.572  16.214  68.835  1.00  0.00    -0.298 C  
BRANCH  19  20
HETATM   20  C   UNL     1     -11.421  15.434  70.136  1.00  0.00    -0.338 C  
BRANCH  20  21
HETATM   21  C   UNL     1     -12.766  14.886  70.603  1.00  0.00    -0.422 C  
BRANCH  21  22
HETATM   22  C   UNL     1     -12.942  15.100  72.103  1.00  0.00    -0.440 C  
HETATM   23  C   UNL     1     -11.612  15.375  72.779  1.00  0.00    -0.464 C  
ENDBRANCH  21  22
ENDBRANCH  20  21
ENDBRANCH  19  20
ENDBRANCH  18  19
ENDBRANCH  17  18
ENDBRANCH  16  17
ENDBRANCH  15  16
ENDBRANCH  14  15
ENDBRANCH  11  14
ENDBRANCH  10  11
ENDBRANCH   9  10
ENDBRANCH   8   9
ENDBRANCH   7   8
ENDBRANCH   6   7
ENDBRANCH   5   6
ENDBRANCH   4   5
ENDBRANCH   3   4
ENDBRANCH   2   3
TORSDOF 18
ENDMDL
MODEL      268
REMARK 921   NORMALIZED FREE ENERGY PREDICTED BY IDOCK:   -2.65 KCAL/MOL
REMARK 922        TOTAL FREE ENERGY PREDICTED BY IDOCK:   -8.14 KCAL/MOL
REMARK 923 INTER-LIGAND FREE ENERGY PREDICTED BY IDOCK:   -5.92 KCAL/MOL
REMARK 924 INTRA-LIGAND FREE ENERGY PREDICTED BY IDOCK:   -2.21 KCAL/MOL
REMARK 927      BINDING AFFINITY PREDICTED BY RF-SCORE:    0.00 PKD
ROOT
HETATM    1  C   UNL     1     -11.010   7.508  72.334  1.00  0.00    -0.333 C  
HETATM    2  C   UNL     1      -9.627   6.887  72.268  1.00  0.00    -0.159 C  
ENDROOT
BRANCH   2   3
HETATM    3  C   UNL     1      -9.708   5.386  72.007  1.00  0.00    -0.198 C  
BRANCH   3   4
HETATM    4  C   UNL     1      -9.265   5.062  70.585  1.00  0.00    -0.195 C  
BRANCH   4   5
HETATM    5  C   UNL     1     -10.445   5.107  69.625  1.00  0.00    -0.262 C  
BRANCH   5   6
HETATM    6  C   UNL     1     -10.165   6.065  68.472  1.00  0.00    -0.227 C  
BRANCH   6   7
HETATM    7  C   UNL     1     -11.105   7.256  68.549  1.00  0.00     0.063 C  
BRANCH   7   8
HETATM    8  C   UNL     1     -10.366   8.535  68.929  1.00  0.00    -0.226 C  
BRANCH   8   9
HETATM    9  C   UNL     1      -8.999   8.514  68.260  1.00  0.00    -0.139 C  
BRANCH   9  10
HETATM   10  C   UNL     1      -8.642   9.861  67.647  1.00  0.00    -0.122 C  
BRANCH  10  11
HETATM   11  N   UNL     1      -8.756   9.860  66.101  1.00  0.00    -0.134 N  
HETATM   12  C   UNL     1      -7.610  10.662  65.483  1.00  0.00    -0.072 C  
HETATM   13  C   UNL     1      -8.729   8.425  65.569  1.00  0.00    -0.162 C  
BRANCH  11  14
HETATM   14  C   UNL     1     -10.116  10.529  65.773  1.00  0.00    -0.265 C  
BRANCH  14  15
HETATM   15  C   UNL     1     -10.195  11.967  66.264  1.00  0.00    -0.247 C  
BRANCH  15  16
HETATM   16  C   UNL     1     -11.495  12.249  67.003  1.00  0.00    -0.419 C  
BRANCH  16  17
HETATM   17  C   UNL     1     -11.155  12.680  68.426  1.00  0.00    -0.297 C  
BRANCH  17  18
HETATM   18  C   UNL     1     -11.872  13.963  68.810  1.00  0.00    -0.396 C  
BRANCH  18  19
HETATM   19  C   UNL     1     -11.043  14.732  69.830  1.00  0.00    -0.288 C  
BRANCH  19  20
HETATM   20  C   UNL     1     -11.726  14.720  71.193  1.00  0.00    -0.360 C  
BRANCH  20  21
HETATM   21  C   UNL     1     -13.167  14.233  71.078  1.00  0.00    -0.367 C  
BRANCH  21  22
HETATM   22  C   UNL     1     -13.470  13.191  72.149  1.00  0.00    -0.653 C  
HETATM   23  C   UNL     1     -12.958  11.821  71.745  1.00  0.00    -0.466 C  
ENDBRANCH  21  22
ENDBRANCH  20  21
ENDBRANCH  19  20
ENDBRANCH  18  19
ENDBRANCH  17  18
ENDBRANCH  16  17
ENDBRANCH  15  16
ENDBRANCH  14  15
ENDBRANCH  11  14
ENDBRANCH  10  11
ENDBRANCH   9  10
ENDBRANCH   8   9
ENDBRANCH   7   8
ENDBRANCH   6   7
ENDBRANCH   5   6
ENDBRANCH   4   5
ENDBRANCH   3   4
ENDBRANCH   2   3
TORSDOF 18
ENDMDL
MODEL      269
REMARK 921   NORMALIZED FREE ENERGY PREDICTED BY IDOCK:   -2.65 KCAL/MOL
REMARK 922        TOTAL FREE ENERGY PREDICTED BY IDOCK:   -8.14 KCAL/MOL
REMARK 923 INTER-LIGAND FREE ENERGY PREDICTED BY IDOCK:   -5.58 KCAL/MOL
REMARK 924 INTRA-LIGAND FREE ENERGY PREDICTED BY IDOCK:   -2.56 KCAL/MOL
REMARK 927      BINDING AFFINITY PREDICTED BY RF-SCORE:    0.00 PKD
ROOT
HETATM    1  C   UNL     1      -6.487   8.824  70.145  1.00  0.00    -0.038 C  
HETATM    2  C   UNL     1      -7.633   9.774  69.846  1.00  0.00    -0.154 C  
ENDROOT
BRANCH   2   3
HETATM    3  C   UNL     1      -8.934   9.284  70.475  1.00  0.00    -0.296 C  
BRANCH   3   4
HETATM    4  C   UNL     1      -8.659   8.177  71.485  1.00  0.00    -0.174 C  
BRANCH   4   5
HETATM    5  C   UNL     1      -9.120   8.584  72.877  1.00  0.00    -0.177 C  
BRANCH   5   6
HETATM    6  C   UNL     1      -9.983   7.491  73.499  1.00  0.00    -0.371 C  
BRANCH   6   7
HETATM    7  C   UNL     1     -11.184   7.212  72.611  1.00  0.00    -0.331 C  
BRANCH   7   8
HETATM    8  C   UNL     1     -11.266   5.740  72.220  1.00  0.00    -0.333 C  
BRANCH   8   9
HETATM    9  C   UNL     1     -10.975   5.624  70.731  1.00  0.00    -0.257 C  
BRANCH   9  10
HETATM   10  C   UNL     1      -9.876   4.611  70.441  1.00  0.00    -0.236 C  
BRANCH  10  11
HETATM   11  N   UNL     1      -9.095   4.936  69.141  1.00  0.00    -0.098 N  
HETATM   12  C   UNL     1      -7.624   5.207  69.458  1.00  0.00    -0.065 C  
HETATM   13  C   UNL     1      -9.205   3.772  68.153  1.00  0.00    -0.163 C  
BRANCH  11  14
HETATM   14  C   UNL     1      -9.761   6.206  68.549  1.00  0.00    -0.127 C  
BRANCH  14  15
HETATM   15  C   UNL     1      -8.832   6.974  67.620  1.00  0.00    -0.119 C  
BRANCH  15  16
HETATM   16  C   UNL     1      -9.592   7.682  66.508  1.00  0.00    -0.254 C  
BRANCH  16  17
HETATM   17  C   UNL     1     -10.063   9.034  67.034  1.00  0.00    -0.318 C  
BRANCH  17  18
HETATM   18  C   UNL     1      -9.998  10.107  65.960  1.00  0.00    -0.322 C  
BRANCH  18  19
HETATM   19  C   UNL     1     -10.047  11.486  66.604  1.00  0.00    -0.242 C  
BRANCH  19  20
HETATM   20  C   UNL     1     -11.484  11.986  66.691  1.00  0.00    -0.411 C  
BRANCH  20  21
HETATM   21  C   UNL     1     -11.707  12.790  67.968  1.00  0.00    -0.405 C  
BRANCH  21  22
HETATM   22  C   UNL     1     -11.080  12.084  69.165  1.00  0.00    -0.272 C  
HETATM   23  C   UNL     1     -12.080  11.174  69.854  1.00  0.00    -0.418 C  
ENDBRANCH  21  22
ENDBRANCH  20  21
ENDBRANCH  19  20
ENDBRANCH  18  19
ENDBRANCH  17  18
ENDBRANCH  16  17
ENDBRANCH  15  16
ENDBRANCH  14  15
ENDBRANCH  11  14
ENDBRANCH  10  11
ENDBRANCH   9  10
ENDBRANCH   8   9
ENDBRANCH   7   8
ENDBRANCH   6   7
ENDBRANCH   5   6
ENDBRANCH   4   5
ENDBRANCH   3   4
ENDBRANCH   2   3
TORSDOF 18
ENDMDL
MODEL      270
REMARK 921   NORMALIZED FREE ENERGY PREDICTED BY IDOCK:   -2.65 KCAL/MOL
REMARK 922        TOTAL FREE ENERGY PREDICTED BY IDOCK:   -8.13 KCAL/MOL
REMARK 923 INTER-LIGAND FREE ENERGY PREDICTED BY IDOCK:   -6.71 KCAL/MOL
REMARK 924 INTRA-LIGAND FREE ENERGY PREDICTED BY IDOCK:   -1.42 KCAL/MOL
REMARK 927      BINDING AFFINITY PREDICTED BY RF-SCORE:    0.00 PKD
ROOT
HETATM    1  C   UNL     1     -10.603   5.802  70.297  1.00  0.00    -0.369 C  
HETATM    2  C   UNL     1      -9.662   6.992  70.317  1.00  0.00    -0.177 C  
ENDROOT
BRANCH   2   3
HETATM    3  C   UNL     1     -10.330   8.235  69.736  1.00  0.00    -0.216 C  
BRANCH   3   4
HETATM    4  C   UNL     1     -10.320   8.188  68.212  1.00  0.00    -0.241 C  
BRANCH   4   5
HETATM    5  C   UNL     1      -8.933   7.847  67.689  1.00  0.00    -0.133 C  
BRANCH   5   6
HETATM    6  C   UNL     1      -8.556   8.761  66.527  1.00  0.00    -0.126 C  
BRANCH   6   7
HETATM    7  C   UNL     1      -9.770   9.006  65.647  1.00  0.00    -0.178 C  
BRANCH   7   8
HETATM    8  C   UNL     1      -9.616  10.275  64.814  1.00  0.00    -0.369 C  
BRANCH   8   9
HETATM    9  C   UNL     1      -9.519  11.461  65.763  1.00  0.00    -0.256 C  
BRANCH   9  10
HETATM   10  C   UNL     1     -10.811  11.679  66.539  1.00  0.00    -0.284 C  
BRANCH  10  11
HETATM   11  N   UNL     1     -10.568  12.312  67.933  1.00  0.00    -0.206 N  
HETATM   12  C   UNL     1     -11.779  12.085  68.838  1.00  0.00    -0.326 C  
HETATM   13  C   UNL     1      -9.319  11.707  68.579  1.00  0.00    -0.167 C  
BRANCH  11  14
HETATM   14  C   UNL     1     -10.361  13.829  67.683  1.00  0.00    -0.239 C  
BRANCH  14  15
HETATM   15  C   UNL     1     -11.387  14.408  66.720  1.00  0.00    -0.360 C  
BRANCH  15  16
HETATM   16  C   UNL     1     -10.747  15.321  65.684  1.00  0.00    -0.376 C  
BRANCH  16  17
HETATM   17  C   UNL     1      -9.528  15.985  66.317  1.00  0.00    -0.347 C  
BRANCH  17  18
HETATM   18  C   UNL     1      -9.909  17.243  67.080  1.00  0.00    -0.281 C  
BRANCH  18  19
HETATM   19  C   UNL     1     -10.469  18.281  66.117  1.00  0.00    -0.403 C  
BRANCH  19  20
HETATM   20  C   UNL     1     -10.843  19.557  66.864  1.00  0.00    -0.523 C  
BRANCH  20  21
HETATM   21  C   UNL     1      -9.958  19.751  68.091  1.00  0.00    -0.557 C  
BRANCH  21  22
HETATM   22  C   UNL     1      -8.616  20.356  67.695  1.00  0.00    -0.302 C  
HETATM   23  C   UNL     1      -7.506  19.884  68.617  1.00  0.00    -0.276 C  
ENDBRANCH  21  22
ENDBRANCH  20  21
ENDBRANCH  19  20
ENDBRANCH  18  19
ENDBRANCH  17  18
ENDBRANCH  16  17
ENDBRANCH  15  16
ENDBRANCH  14  15
ENDBRANCH  11  14
ENDBRANCH  10  11
ENDBRANCH   9  10
ENDBRANCH   8   9
ENDBRANCH   7   8
ENDBRANCH   6   7
ENDBRANCH   5   6
ENDBRANCH   4   5
ENDBRANCH   3   4
ENDBRANCH   2   3
TORSDOF 18
ENDMDL
MODEL      271
REMARK 921   NORMALIZED FREE ENERGY PREDICTED BY IDOCK:   -2.65 KCAL/MOL
REMARK 922        TOTAL FREE ENERGY PREDICTED BY IDOCK:   -8.13 KCAL/MOL
REMARK 923 INTER-LIGAND FREE ENERGY PREDICTED BY IDOCK:   -6.47 KCAL/MOL
REMARK 924 INTRA-LIGAND FREE ENERGY PREDICTED BY IDOCK:   -1.66 KCAL/MOL
REMARK 927      BINDING AFFINITY PREDICTED BY RF-SCORE:    0.00 PKD
ROOT
HETATM    1  C   UNL     1     -12.544  15.403  70.531  1.00  0.00    -0.471 C  
HETATM    2  C   UNL     1     -11.785  15.505  69.221  1.00  0.00    -0.380 C  
ENDROOT
BRANCH   2   3
HETATM    3  C   UNL     1     -10.281  15.381  69.444  1.00  0.00    -0.262 C  
BRANCH   3   4
HETATM    4  C   UNL     1      -9.527  16.416  68.617  1.00  0.00    -0.239 C  
BRANCH   4   5
HETATM    5  C   UNL     1     -10.462  17.120  67.644  1.00  0.00    -0.355 C  
BRANCH   5   6
HETATM    6  C   UNL     1      -9.967  16.960  66.211  1.00  0.00    -0.324 C  
BRANCH   6   7
HETATM    7  C   UNL     1     -11.029  16.272  65.370  1.00  0.00    -0.204 C  
BRANCH   7   8
HETATM    8  C   UNL     1     -10.573  14.894  64.902  1.00  0.00    -0.417 C  
BRANCH   8   9
HETATM    9  C   UNL     1     -10.902  13.885  65.993  1.00  0.00    -0.290 C  
BRANCH   9  10
HETATM   10  C   UNL     1      -9.727  12.966  66.295  1.00  0.00    -0.268 C  
BRANCH  10  11
HETATM   11  N   UNL     1     -10.177  11.560  66.770  1.00  0.00    -0.214 N  
HETATM   12  C   UNL     1     -11.612  11.612  67.296  1.00  0.00    -0.238 C  
HETATM   13  C   UNL     1     -10.085  10.557  65.618  1.00  0.00    -0.268 C  
BRANCH  11  14
HETATM   14  C   UNL     1      -9.203  11.161  67.908  1.00  0.00    -0.154 C  
BRANCH  14  15
HETATM   15  C   UNL     1      -9.916  10.911  69.229  1.00  0.00    -0.137 C  
BRANCH  15  16
HETATM   16  C   UNL     1      -9.681   9.500  69.749  1.00  0.00    -0.234 C  
BRANCH  16  17
HETATM   17  C   UNL     1     -11.001   8.964  70.293  1.00  0.00    -0.266 C  
BRANCH  17  18
HETATM   18  C   UNL     1     -11.096   9.132  71.800  1.00  0.00    -0.437 C  
BRANCH  18  19
HETATM   19  C   UNL     1     -11.589   7.839  72.434  1.00  0.00    -0.410 C  
BRANCH  19  20
HETATM   20  C   UNL     1     -10.642   7.391  73.542  1.00  0.00    -0.388 C  
BRANCH  20  21
HETATM   21  C   UNL     1      -9.556   6.470  72.994  1.00  0.00    -0.161 C  
BRANCH  21  22
HETATM   22  C   UNL     1      -8.419   7.283  72.387  1.00  0.00    -0.127 C  
HETATM   23  C   UNL     1      -7.795   8.211  73.413  1.00  0.00    -0.229 C  
ENDBRANCH  21  22
ENDBRANCH  20  21
ENDBRANCH  19  20
ENDBRANCH  18  19
ENDBRANCH  17  18
ENDBRANCH  16  17
ENDBRANCH  15  16
ENDBRANCH  14  15
ENDBRANCH  11  14
ENDBRANCH  10  11
ENDBRANCH   9  10
ENDBRANCH   8   9
ENDBRANCH   7   8
ENDBRANCH   6   7
ENDBRANCH   5   6
ENDBRANCH   4   5
ENDBRANCH   3   4
ENDBRANCH   2   3
TORSDOF 18
ENDMDL
MODEL      272
REMARK 921   NORMALIZED FREE ENERGY PREDICTED BY IDOCK:   -2.62 KCAL/MOL
REMARK 922        TOTAL FREE ENERGY PREDICTED BY IDOCK:   -8.08 KCAL/MOL
REMARK 923 INTER-LIGAND FREE ENERGY PREDICTED BY IDOCK:   -5.86 KCAL/MOL
REMARK 924 INTRA-LIGAND FREE ENERGY PREDICTED BY IDOCK:   -2.22 KCAL/MOL
REMARK 927      BINDING AFFINITY PREDICTED BY RF-SCORE:    0.00 PKD
ROOT
HETATM    1  C   UNL     1     -12.286   8.360  72.255  1.00  0.00    -0.449 C  
HETATM    2  C   UNL     1     -11.055   7.641  72.774  1.00  0.00    -0.437 C  
ENDROOT
BRANCH   2   3
HETATM    3  C   UNL     1     -11.212   6.127  72.663  1.00  0.00    -0.312 C  
BRANCH   3   4
HETATM    4  C   UNL     1      -9.899   5.481  72.235  1.00  0.00    -0.192 C  
BRANCH   4   5
HETATM    5  C   UNL     1      -9.956   5.047  70.778  1.00  0.00    -0.291 C  
BRANCH   5   6
HETATM    6  C   UNL     1      -9.394   6.137  69.870  1.00  0.00    -0.161 C  
BRANCH   6   7
HETATM    7  C   UNL     1     -10.532   6.901  69.215  1.00  0.00    -0.233 C  
BRANCH   7   8
HETATM    8  C   UNL     1     -10.247   8.399  69.159  1.00  0.00    -0.217 C  
BRANCH   8   9
HETATM    9  C   UNL     1      -8.975   8.673  69.949  1.00  0.00    -0.149 C  
BRANCH   9  10
HETATM   10  C   UNL     1      -8.610  10.151  69.948  1.00  0.00    -0.072 C  
BRANCH  10  11
HETATM   11  N   UNL     1      -7.321  10.446  69.137  1.00  0.00    -0.091 N  
HETATM   12  C   UNL     1      -6.415  11.405  69.909  1.00  0.00    -0.118 C  
HETATM   13  C   UNL     1      -6.569   9.144  68.849  1.00  0.00    -0.048 C  
BRANCH  11  14
HETATM   14  C   UNL     1      -7.790  11.099  67.811  1.00  0.00    -0.114 C  
BRANCH  14  15
HETATM   15  C   UNL     1      -8.559  12.392  68.037  1.00  0.00    -0.180 C  
BRANCH  15  16
HETATM   16  C   UNL     1      -9.623  12.619  66.972  1.00  0.00    -0.219 C  
BRANCH  16  17
HETATM   17  C   UNL     1     -10.990  12.600  67.649  1.00  0.00    -0.275 C  
BRANCH  17  18
HETATM   18  C   UNL     1     -11.820  13.814  67.269  1.00  0.00    -0.436 C  
BRANCH  18  19
HETATM   19  C   UNL     1     -11.015  15.085  67.509  1.00  0.00    -0.307 C  
BRANCH  19  20
HETATM   20  C   UNL     1     -11.561  15.845  68.713  1.00  0.00    -0.389 C  
BRANCH  20  21
HETATM   21  C   UNL     1     -10.759  15.524  69.971  1.00  0.00    -0.331 C  
BRANCH  21  22
HETATM   22  C   UNL     1     -11.685  15.348  71.169  1.00  0.00    -0.418 C  
HETATM   23  C   UNL     1     -12.849  14.434  70.835  1.00  0.00    -0.419 C  
ENDBRANCH  21  22
ENDBRANCH  20  21
ENDBRANCH  19  20
ENDBRANCH  18  19
ENDBRANCH  17  18
ENDBRANCH  16  17
ENDBRANCH  15  16
ENDBRANCH  14  15
ENDBRANCH  11  14
ENDBRANCH  10  11
ENDBRANCH   9  10
ENDBRANCH   8   9
ENDBRANCH   7   8
ENDBRANCH   6   7
ENDBRANCH   5   6
ENDBRANCH   4   5
ENDBRANCH   3   4
ENDBRANCH   2   3
TORSDOF 18
ENDMDL
MODEL      273
REMARK 921   NORMALIZED FREE ENERGY PREDICTED BY IDOCK:   -2.62 KCAL/MOL
REMARK 922        TOTAL FREE ENERGY PREDICTED BY IDOCK:   -8.07 KCAL/MOL
REMARK 923 INTER-LIGAND FREE ENERGY PREDICTED BY IDOCK:   -6.31 KCAL/MOL
REMARK 924 INTRA-LIGAND FREE ENERGY PREDICTED BY IDOCK:   -1.76 KCAL/MOL
REMARK 927      BINDING AFFINITY PREDICTED BY RF-SCORE:    0.00 PKD
ROOT
HETATM    1  C   UNL     1      -8.705   3.675  71.789  1.00  0.00    -0.125 C  
HETATM    2  C   UNL     1      -9.434   3.293  70.514  1.00  0.00    -0.242 C  
ENDROOT
BRANCH   2   3
HETATM    3  C   UNL     1      -8.452   2.907  69.412  1.00  0.00    -0.100 C  
BRANCH   3   4
HETATM    4  C   UNL     1      -7.990   4.142  68.646  1.00  0.00    -0.072 C  
BRANCH   4   5
HETATM    5  C   UNL     1      -8.939   4.456  67.499  1.00  0.00    -0.128 C  
BRANCH   5   6
HETATM    6  C   UNL     1      -8.856   5.931  67.120  1.00  0.00    -0.107 C  
BRANCH   6   7
HETATM    7  C   UNL     1      -9.571   6.774  68.162  1.00  0.00    -0.122 C  
BRANCH   7   8
HETATM    8  C   UNL     1     -11.032   6.361  68.316  1.00  0.00    -0.396 C  
BRANCH   8   9
HETATM    9  C   UNL     1     -11.329   6.200  69.800  1.00  0.00    -0.452 C  
BRANCH   9  10
HETATM   10  C   UNL     1     -10.590   7.227  70.646  1.00  0.00    -0.226 C  
BRANCH  10  11
HETATM   11  N   UNL     1     -11.535   8.006  71.597  1.00  0.00    -0.257 N  
HETATM   12  C   UNL     1     -12.950   7.430  71.529  1.00  0.00    -0.375 C  
HETATM   13  C   UNL     1     -11.016   7.931  73.035  1.00  0.00    -0.333 C  
BRANCH  11  14
HETATM   14  C   UNL     1     -11.528   9.474  71.100  1.00  0.00    -0.360 C  
BRANCH  14  15
HETATM   15  C   UNL     1     -10.391   9.758  70.128  1.00  0.00    -0.335 C  
BRANCH  15  16
HETATM   16  C   UNL     1     -10.901  10.130  68.743  1.00  0.00    -0.259 C  
BRANCH  16  17
HETATM   17  C   UNL     1     -11.906  11.267  68.892  1.00  0.00    -0.413 C  
BRANCH  17  18
HETATM   18  C   UNL     1     -11.664  12.366  67.871  1.00  0.00    -0.421 C  
BRANCH  18  19
HETATM   19  C   UNL     1     -11.990  13.721  68.484  1.00  0.00    -0.402 C  
BRANCH  19  20
HETATM   20  C   UNL     1     -11.363  14.845  67.665  1.00  0.00    -0.348 C  
BRANCH  20  21
HETATM   21  C   UNL     1     -10.937  16.002  68.562  1.00  0.00    -0.326 C  
BRANCH  21  22
HETATM   22  C   UNL     1      -9.901  15.540  69.582  1.00  0.00    -0.281 C  
HETATM   23  C   UNL     1      -8.496  15.617  69.013  1.00  0.00    -0.231 C  
ENDBRANCH  21  22
ENDBRANCH  20  21
ENDBRANCH  19  20
ENDBRANCH  18  19
ENDBRANCH  17  18
ENDBRANCH  16  17
ENDBRANCH  15  16
ENDBRANCH  14  15
ENDBRANCH  11  14
ENDBRANCH  10  11
ENDBRANCH   9  10
ENDBRANCH   8   9
ENDBRANCH   7   8
ENDBRANCH   6   7
ENDBRANCH   5   6
ENDBRANCH   4   5
ENDBRANCH   3   4
ENDBRANCH   2   3
TORSDOF 18
ENDMDL
MODEL      274
REMARK 921   NORMALIZED FREE ENERGY PREDICTED BY IDOCK:   -2.60 KCAL/MOL
REMARK 922        TOTAL FREE ENERGY PREDICTED BY IDOCK:   -8.05 KCAL/MOL
REMARK 923 INTER-LIGAND FREE ENERGY PREDICTED BY IDOCK:   -5.59 KCAL/MOL
REMARK 924 INTRA-LIGAND FREE ENERGY PREDICTED BY IDOCK:   -2.45 KCAL/MOL
REMARK 927      BINDING AFFINITY PREDICTED BY RF-SCORE:    0.00 PKD
ROOT
HETATM    1  C   UNL     1     -11.740   8.501  71.841  1.00  0.00    -0.409 C  
HETATM    2  C   UNL     1     -12.448   7.223  71.432  1.00  0.00    -0.418 C  
ENDROOT
BRANCH   2   3
HETATM    3  C   UNL     1     -11.800   6.603  70.198  1.00  0.00    -0.347 C  
BRANCH   3   4
HETATM    4  C   UNL     1     -10.670   5.662  70.599  1.00  0.00    -0.333 C  
BRANCH   4   5
HETATM    5  C   UNL     1      -9.858   5.238  69.384  1.00  0.00    -0.265 C  
BRANCH   5   6
HETATM    6  C   UNL     1      -8.366   5.253  69.702  1.00  0.00    -0.098 C  
BRANCH   6   7
HETATM    7  C   UNL     1      -7.632   6.121  68.694  1.00  0.00    -0.092 C  
BRANCH   7   8
HETATM    8  C   UNL     1      -7.021   5.289  67.571  1.00  0.00    -0.065 C  
BRANCH   8   9
HETATM    9  C   UNL     1      -6.478   6.239  66.514  1.00  0.00    -0.047 C  
BRANCH   9  10
HETATM   10  C   UNL     1      -7.563   6.704  65.552  1.00  0.00    -0.088 C  
BRANCH  10  11
HETATM   11  N   UNL     1      -7.421   8.201  65.173  1.00  0.00    -0.077 N  
HETATM   12  C   UNL     1      -5.956   8.633  65.256  1.00  0.00    -0.048 C  
HETATM   13  C   UNL     1      -7.950   8.440  63.756  1.00  0.00    -0.159 C  
BRANCH  11  14
HETATM   14  C   UNL     1      -8.273   8.986  66.203  1.00  0.00    -0.115 C  
BRANCH  14  15
HETATM   15  C   UNL     1      -9.754   8.646  66.118  1.00  0.00    -0.292 C  
BRANCH  15  16
HETATM   16  C   UNL     1     -10.404   8.573  67.492  1.00  0.00    -0.334 C  
BRANCH  16  17
HETATM   17  C   UNL     1      -9.475   9.242  68.500  1.00  0.00    -0.150 C  
BRANCH  17  18
HETATM   18  C   UNL     1      -9.996  10.604  68.925  1.00  0.00    -0.213 C  
BRANCH  18  19
HETATM   19  C   UNL     1     -11.437  10.772  68.462  1.00  0.00    -0.362 C  
BRANCH  19  20
HETATM   20  C   UNL     1     -11.616  12.103  67.740  1.00  0.00    -0.410 C  
BRANCH  20  21
HETATM   21  C   UNL     1     -11.063  12.033  66.320  1.00  0.00    -0.363 C  
BRANCH  21  22
HETATM   22  C   UNL     1     -11.848  12.952  65.391  1.00  0.00    -0.444 C  
HETATM   23  C   UNL     1     -12.401  14.151  66.141  1.00  0.00    -0.463 C  
ENDBRANCH  21  22
ENDBRANCH  20  21
ENDBRANCH  19  20
ENDBRANCH  18  19
ENDBRANCH  17  18
ENDBRANCH  16  17
ENDBRANCH  15  16
ENDBRANCH  14  15
ENDBRANCH  11  14
ENDBRANCH  10  11
ENDBRANCH   9  10
ENDBRANCH   8   9
ENDBRANCH   7   8
ENDBRANCH   6   7
ENDBRANCH   5   6
ENDBRANCH   4   5
ENDBRANCH   3   4
ENDBRANCH   2   3
TORSDOF 18
ENDMDL
MODEL      275
REMARK 921   NORMALIZED FREE ENERGY PREDICTED BY IDOCK:   -2.59 KCAL/MOL
REMARK 922        TOTAL FREE ENERGY PREDICTED BY IDOCK:   -8.01 KCAL/MOL
REMARK 923 INTER-LIGAND FREE ENERGY PREDICTED BY IDOCK:   -6.01 KCAL/MOL
REMARK 924 INTRA-LIGAND FREE ENERGY PREDICTED BY IDOCK:   -2.00 KCAL/MOL
REMARK 927      BINDING AFFINITY PREDICTED BY RF-SCORE:    0.00 PKD
ROOT
HETATM    1  C   UNL     1      -5.626  19.025  69.897  1.00  0.00    -0.239 C  
HETATM    2  C   UNL     1      -6.059  17.926  68.944  1.00  0.00    -0.208 C  
ENDROOT
BRANCH   2   3
HETATM    3  C   UNL     1      -7.455  18.195  68.390  1.00  0.00    -0.287 C  
BRANCH   3   4
HETATM    4  C   UNL     1      -8.346  16.970  68.557  1.00  0.00    -0.260 C  
BRANCH   4   5
HETATM    5  C   UNL     1      -9.774  17.274  68.131  1.00  0.00    -0.284 C  
BRANCH   5   6
HETATM    6  C   UNL     1     -10.763  16.414  68.912  1.00  0.00    -0.319 C  
BRANCH   6   7
HETATM    7  C   UNL     1     -10.255  14.985  68.991  1.00  0.00    -0.242 C  
BRANCH   7   8
HETATM    8  C   UNL     1     -10.952  14.081  67.979  1.00  0.00    -0.266 C  
BRANCH   8   9
HETATM    9  C   UNL     1      -9.888  13.434  67.105  1.00  0.00    -0.237 C  
BRANCH   9  10
HETATM   10  C   UNL     1     -10.164  13.639  65.622  1.00  0.00    -0.304 C  
BRANCH  10  11
HETATM   11  N   UNL     1     -10.812  12.396  64.959  1.00  0.00    -0.285 N  
HETATM   12  C   UNL     1     -12.334  12.538  64.939  1.00  0.00    -0.470 C  
HETATM   13  C   UNL     1     -10.290  12.226  63.530  1.00  0.00    -0.410 C  
BRANCH  11  14
HETATM   14  C   UNL     1     -10.396  11.182  65.830  1.00  0.00    -0.259 C  
BRANCH  14  15
HETATM   15  C   UNL     1      -9.109  10.529  65.348  1.00  0.00    -0.215 C  
BRANCH  15  16
HETATM   16  C   UNL     1      -8.921   9.136  65.931  1.00  0.00    -0.231 C  
BRANCH  16  17
HETATM   17  C   UNL     1     -10.237   8.700  66.568  1.00  0.00    -0.295 C  
BRANCH  17  18
HETATM   18  C   UNL     1     -10.046   7.505  67.486  1.00  0.00    -0.261 C  
BRANCH  18  19
HETATM   19  C   UNL     1     -10.017   7.967  68.937  1.00  0.00    -0.199 C  
BRANCH  19  20
HETATM   20  C   UNL     1     -10.854   9.230  69.113  1.00  0.00    -0.154 C  
BRANCH  20  21
HETATM   21  C   UNL     1      -9.979  10.412  69.519  1.00  0.00    -0.229 C  
BRANCH  21  22
HETATM   22  C   UNL     1      -8.541   9.963  69.752  1.00  0.00    -0.219 C  
HETATM   23  C   UNL     1      -7.560  10.842  68.998  1.00  0.00    -0.135 C  
ENDBRANCH  21  22
ENDBRANCH  20  21
ENDBRANCH  19  20
ENDBRANCH  18  19
ENDBRANCH  17  18
ENDBRANCH  16  17
ENDBRANCH  15  16
ENDBRANCH  14  15
ENDBRANCH  11  14
ENDBRANCH  10  11
ENDBRANCH   9  10
ENDBRANCH   8   9
ENDBRANCH   7   8
ENDBRANCH   6   7
ENDBRANCH   5   6
ENDBRANCH   4   5
ENDBRANCH   3   4
ENDBRANCH   2   3
TORSDOF 18
ENDMDL
MODEL      276
REMARK 921   NORMALIZED FREE ENERGY PREDICTED BY IDOCK:   -2.59 KCAL/MOL
REMARK 922        TOTAL FREE ENERGY PREDICTED BY IDOCK:   -8.01 KCAL/MOL
REMARK 923 INTER-LIGAND FREE ENERGY PREDICTED BY IDOCK:   -6.61 KCAL/MOL
REMARK 924 INTRA-LIGAND FREE ENERGY PREDICTED BY IDOCK:   -1.40 KCAL/MOL
REMARK 927      BINDING AFFINITY PREDICTED BY RF-SCORE:    0.00 PKD
ROOT
HETATM    1  C   UNL     1      -7.726  19.567  68.221  1.00  0.00    -0.356 C  
HETATM    2  C   UNL     1      -9.047  18.979  67.759  1.00  0.00    -0.331 C  
ENDROOT
BRANCH   2   3
HETATM    3  C   UNL     1      -9.397  17.721  68.547  1.00  0.00    -0.295 C  
BRANCH   3   4
HETATM    4  C   UNL     1      -9.926  16.634  67.618  1.00  0.00    -0.264 C  
BRANCH   4   5
HETATM    5  C   UNL     1     -11.187  16.000  68.185  1.00  0.00    -0.325 C  
BRANCH   5   6
HETATM    6  C   UNL     1     -11.091  15.876  69.702  1.00  0.00    -0.320 C  
BRANCH   6   7
HETATM    7  C   UNL     1     -11.845  14.642  70.168  1.00  0.00    -0.365 C  
BRANCH   7   8
HETATM    8  C   UNL     1     -12.239  13.746  68.998  1.00  0.00    -0.259 C  
BRANCH   8   9
HETATM    9  C   UNL     1     -11.488  12.428  69.132  1.00  0.00    -0.358 C  
BRANCH   9  10
HETATM   10  C   UNL     1     -10.049  12.539  68.648  1.00  0.00    -0.130 C  
BRANCH  10  11
HETATM   11  N   UNL     1      -9.820  11.823  67.292  1.00  0.00    -0.185 N  
HETATM   12  C   UNL     1     -10.380  12.666  66.145  1.00  0.00    -0.256 C  
HETATM   13  C   UNL     1      -8.326  11.577  67.069  1.00  0.00    -0.165 C  
BRANCH  11  14
HETATM   14  C   UNL     1     -10.578  10.474  67.387  1.00  0.00    -0.263 C  
BRANCH  14  15
HETATM   15  C   UNL     1      -9.995   9.409  66.471  1.00  0.00    -0.339 C  
BRANCH  15  16
HETATM   16  C   UNL     1     -10.478   8.012  66.836  1.00  0.00    -0.387 C  
BRANCH  16  17
HETATM   17  C   UNL     1     -10.263   7.806  68.332  1.00  0.00    -0.230 C  
BRANCH  17  18
HETATM   18  C   UNL     1     -10.555   6.374  68.747  1.00  0.00    -0.295 C  
BRANCH  18  19
HETATM   19  C   UNL     1      -9.873   6.073  70.075  1.00  0.00    -0.215 C  
BRANCH  19  20
HETATM   20  C   UNL     1     -10.910   5.817  71.163  1.00  0.00    -0.316 C  
BRANCH  20  21
HETATM   21  C   UNL     1     -11.541   7.123  71.636  1.00  0.00    -0.309 C  
BRANCH  21  22
HETATM   22  C   UNL     1     -10.484   8.048  72.227  1.00  0.00    -0.344 C  
HETATM   23  C   UNL     1     -10.472   9.392  71.522  1.00  0.00    -0.299 C  
ENDBRANCH  21  22
ENDBRANCH  20  21
ENDBRANCH  19  20
ENDBRANCH  18  19
ENDBRANCH  17  18
ENDBRANCH  16  17
ENDBRANCH  15  16
ENDBRANCH  14  15
ENDBRANCH  11  14
ENDBRANCH  10  11
ENDBRANCH   9  10
ENDBRANCH   8   9
ENDBRANCH   7   8
ENDBRANCH   6   7
ENDBRANCH   5   6
ENDBRANCH   4   5
ENDBRANCH   3   4
ENDBRANCH   2   3
TORSDOF 18
ENDMDL
MODEL      277
REMARK 921   NORMALIZED FREE ENERGY PREDICTED BY IDOCK:   -2.57 KCAL/MOL
REMARK 922        TOTAL FREE ENERGY PREDICTED BY IDOCK:   -7.99 KCAL/MOL
REMARK 923 INTER-LIGAND FREE ENERGY PREDICTED BY IDOCK:   -5.53 KCAL/MOL
REMARK 924 INTRA-LIGAND FREE ENERGY PREDICTED BY IDOCK:   -2.46 KCAL/MOL
REMARK 927      BINDING AFFINITY PREDICTED BY RF-SCORE:    0.00 PKD
ROOT
HETATM    1  C   UNL     1     -12.143  13.543  63.590  1.00  0.00    -0.459 C  
HETATM    2  C   UNL     1     -12.637  12.806  64.821  1.00  0.00    -0.518 C  
ENDROOT
BRANCH   2   3
HETATM    3  C   UNL     1     -12.488  13.664  66.074  1.00  0.00    -0.477 C  
BRANCH   3   4
HETATM    4  C   UNL     1     -11.894  12.848  67.217  1.00  0.00    -0.416 C  
BRANCH   4   5
HETATM    5  C   UNL     1     -11.288  11.551  66.701  1.00  0.00    -0.285 C  
BRANCH   5   6
HETATM    6  C   UNL     1     -11.058  10.571  67.847  1.00  0.00    -0.367 C  
BRANCH   6   7
HETATM    7  C   UNL     1     -10.053  11.150  68.828  1.00  0.00    -0.211 C  
BRANCH   7   8
HETATM    8  C   UNL     1      -9.516  10.085  69.779  1.00  0.00    -0.239 C  
BRANCH   8   9
HETATM    9  C   UNL     1     -10.409   8.857  69.676  1.00  0.00    -0.214 C  
BRANCH   9  10
HETATM   10  C   UNL     1     -10.025   7.785  70.686  1.00  0.00    -0.186 C  
BRANCH  10  11
HETATM   11  N   UNL     1     -10.954   6.545  70.621  1.00  0.00    -0.267 N  
HETATM   12  C   UNL     1     -12.248   6.810  71.392  1.00  0.00    -0.363 C  
HETATM   13  C   UNL     1     -11.281   6.206  69.164  1.00  0.00    -0.339 C  
BRANCH  11  14
HETATM   14  C   UNL     1     -10.165   5.384  71.278  1.00  0.00    -0.223 C  
BRANCH  14  15
HETATM   15  C   UNL     1      -8.705   5.352  70.850  1.00  0.00    -0.140 C  
BRANCH  15  16
HETATM   16  C   UNL     1      -8.372   4.105  70.044  1.00  0.00    -0.079 C  
BRANCH  16  17
HETATM   17  C   UNL     1      -7.388   4.492  68.945  1.00  0.00    -0.056 C  
BRANCH  17  18
HETATM   18  C   UNL     1      -6.886   5.916  69.118  1.00  0.00    -0.062 C  
BRANCH  18  19
HETATM   19  C   UNL     1      -6.678   6.559  67.754  1.00  0.00    -0.071 C  
BRANCH  19  20
HETATM   20  C   UNL     1      -7.507   7.833  67.631  1.00  0.00    -0.104 C  
BRANCH  20  21
HETATM   21  C   UNL     1      -8.596   7.677  66.573  1.00  0.00    -0.142 C  
BRANCH  21  22
HETATM   22  C   UNL     1      -8.717   8.945  65.735  1.00  0.00    -0.205 C  
HETATM   23  C   UNL     1      -7.767  10.022  66.225  1.00  0.00    -0.105 C  
ENDBRANCH  21  22
ENDBRANCH  20  21
ENDBRANCH  19  20
ENDBRANCH  18  19
ENDBRANCH  17  18
ENDBRANCH  16  17
ENDBRANCH  15  16
ENDBRANCH  14  15
ENDBRANCH  11  14
ENDBRANCH  10  11
ENDBRANCH   9  10
ENDBRANCH   8   9
ENDBRANCH   7   8
ENDBRANCH   6   7
ENDBRANCH   5   6
ENDBRANCH   4   5
ENDBRANCH   3   4
ENDBRANCH   2   3
TORSDOF 18
ENDMDL
MODEL      278
REMARK 921   NORMALIZED FREE ENERGY PREDICTED BY IDOCK:   -2.57 KCAL/MOL
REMARK 922        TOTAL FREE ENERGY PREDICTED BY IDOCK:   -7.97 KCAL/MOL
REMARK 923 INTER-LIGAND FREE ENERGY PREDICTED BY IDOCK:   -5.76 KCAL/MOL
REMARK 924 INTRA-LIGAND FREE ENERGY PREDICTED BY IDOCK:   -2.21 KCAL/MOL
REMARK 927      BINDING AFFINITY PREDICTED BY RF-SCORE:    0.00 PKD
ROOT
HETATM    1  C   UNL     1      -6.208   7.182  70.061  1.00  0.00    -0.027 C  
HETATM    2  C   UNL     1      -6.640   8.637  70.046  1.00  0.00    -0.038 C  
ENDROOT
BRANCH   2   3
HETATM    3  C   UNL     1      -7.094   9.091  71.430  1.00  0.00    -0.069 C  
BRANCH   3   4
HETATM    4  C   UNL     1      -8.481   8.543  71.748  1.00  0.00    -0.236 C  
BRANCH   4   5
HETATM    5  C   UNL     1      -9.555   9.311  70.993  1.00  0.00    -0.329 C  
BRANCH   5   6
HETATM    6  C   UNL     1     -10.907   9.165  71.683  1.00  0.00    -0.442 C  
BRANCH   6   7
HETATM    7  C   UNL     1     -11.771  10.379  71.391  1.00  0.00    -0.230 C  
BRANCH   7   8
HETATM    8  C   UNL     1     -12.159  10.455  69.917  1.00  0.00    -0.252 C  
BRANCH   8   9
HETATM    9  C   UNL     1     -11.790  11.836  69.396  1.00  0.00    -0.398 C  
BRANCH   9  10
HETATM   10  C   UNL     1     -10.436  11.841  68.700  1.00  0.00    -0.222 C  
BRANCH  10  11
HETATM   11  N   UNL     1     -10.544  11.520  67.187  1.00  0.00    -0.226 N  
HETATM   12  C   UNL     1     -11.668  12.338  66.549  1.00  0.00    -0.352 C  
HETATM   13  C   UNL     1      -9.219  11.828  66.485  1.00  0.00    -0.201 C  
BRANCH  11  14
HETATM   14  C   UNL     1     -10.861  10.005  67.092  1.00  0.00    -0.170 C  
BRANCH  14  15
HETATM   15  C   UNL     1      -9.747   9.215  66.423  1.00  0.00    -0.330 C  
BRANCH  15  16
HETATM   16  C   UNL     1      -9.888   7.717  66.655  1.00  0.00    -0.283 C  
BRANCH  16  17
HETATM   17  C   UNL     1      -9.053   7.340  67.874  1.00  0.00    -0.132 C  
BRANCH  17  18
HETATM   18  C   UNL     1      -9.560   6.065  68.528  1.00  0.00    -0.134 C  
BRANCH  18  19
HETATM   19  C   UNL     1     -11.008   6.250  68.963  1.00  0.00    -0.437 C  
BRANCH  19  20
HETATM   20  C   UNL     1     -11.141   6.072  70.471  1.00  0.00    -0.385 C  
BRANCH  20  21
HETATM   21  C   UNL     1     -10.062   5.137  71.009  1.00  0.00    -0.297 C  
BRANCH  21  22
HETATM   22  C   UNL     1      -9.799   5.412  72.485  1.00  0.00    -0.192 C  
HETATM   23  C   UNL     1     -11.034   5.143  73.324  1.00  0.00    -0.375 C  
ENDBRANCH  21  22
ENDBRANCH  20  21
ENDBRANCH  19  20
ENDBRANCH  18  19
ENDBRANCH  17  18
ENDBRANCH  16  17
ENDBRANCH  15  16
ENDBRANCH  14  15
ENDBRANCH  11  14
ENDBRANCH  10  11
ENDBRANCH   9  10
ENDBRANCH   8   9
ENDBRANCH   7   8
ENDBRANCH   6   7
ENDBRANCH   5   6
ENDBRANCH   4   5
ENDBRANCH   3   4
ENDBRANCH   2   3
TORSDOF 18
ENDMDL
MODEL      279
REMARK 921   NORMALIZED FREE ENERGY PREDICTED BY IDOCK:   -2.56 KCAL/MOL
REMARK 922        TOTAL FREE ENERGY PREDICTED BY IDOCK:   -7.96 KCAL/MOL
REMARK 923 INTER-LIGAND FREE ENERGY PREDICTED BY IDOCK:   -5.57 KCAL/MOL
REMARK 924 INTRA-LIGAND FREE ENERGY PREDICTED BY IDOCK:   -2.40 KCAL/MOL
REMARK 927      BINDING AFFINITY PREDICTED BY RF-SCORE:    0.00 PKD
ROOT
HETATM    1  C   UNL     1      -8.559  10.676  66.329  1.00  0.00    -0.156 C  
HETATM    2  C   UNL     1      -7.193  10.108  65.991  1.00  0.00    -0.118 C  
ENDROOT
BRANCH   2   3
HETATM    3  C   UNL     1      -6.086  11.107  66.310  1.00  0.00    -0.117 C  
BRANCH   3   4
HETATM    4  C   UNL     1      -6.551  12.107  67.363  1.00  0.00    -0.147 C  
BRANCH   4   5
HETATM    5  C   UNL     1      -5.470  12.336  68.410  1.00  0.00    -0.055 C  
BRANCH   5   6
HETATM    6  C   UNL     1      -6.008  12.056  69.809  1.00  0.00    -0.136 C  
BRANCH   6   7
HETATM    7  C   UNL     1      -7.128  11.032  69.737  1.00  0.00    -0.052 C  
BRANCH   7   8
HETATM    8  C   UNL     1      -6.600   9.607  69.872  1.00  0.00    -0.065 C  
BRANCH   8   9
HETATM    9  C   UNL     1      -7.790   8.661  69.940  1.00  0.00    -0.093 C  
BRANCH   9  10
HETATM   10  C   UNL     1      -9.051   9.363  70.423  1.00  0.00    -0.256 C  
BRANCH  10  11
HETATM   11  N   UNL     1     -10.343   8.592  70.046  1.00  0.00    -0.201 N  
HETATM   12  C   UNL     1     -10.099   7.717  68.817  1.00  0.00    -0.194 C  
HETATM   13  C   UNL     1     -10.800   7.721  71.219  1.00  0.00    -0.231 C  
BRANCH  11  14
HETATM   14  C   UNL     1     -11.410   9.674  69.733  1.00  0.00    -0.120 C  
BRANCH  14  15
HETATM   15  C   UNL     1     -10.794  11.029  69.419  1.00  0.00    -0.278 C  
BRANCH  15  16
HETATM   16  C   UNL     1     -11.849  12.116  69.266  1.00  0.00    -0.370 C  
BRANCH  16  17
HETATM   17  C   UNL     1     -11.140  13.439  69.001  1.00  0.00    -0.293 C  
BRANCH  17  18
HETATM   18  C   UNL     1     -10.934  13.677  67.515  1.00  0.00    -0.282 C  
BRANCH  18  19
HETATM   19  C   UNL     1     -12.283  13.768  66.815  1.00  0.00    -0.440 C  
BRANCH  19  20
HETATM   20  C   UNL     1     -12.096  13.968  65.315  1.00  0.00    -0.415 C  
BRANCH  20  21
HETATM   21  C   UNL     1     -10.772  13.372  64.846  1.00  0.00    -0.381 C  
BRANCH  21  22
HETATM   22  C   UNL     1     -11.002  12.374  63.716  1.00  0.00    -0.501 C  
HETATM   23  C   UNL     1     -12.483  12.115  63.504  1.00  0.00    -0.666 C  
ENDBRANCH  21  22
ENDBRANCH  20  21
ENDBRANCH  19  20
ENDBRANCH  18  19
ENDBRANCH  17  18
ENDBRANCH  16  17
ENDBRANCH  15  16
ENDBRANCH  14  15
ENDBRANCH  11  14
ENDBRANCH  10  11
ENDBRANCH   9  10
ENDBRANCH   8   9
ENDBRANCH   7   8
ENDBRANCH   6   7
ENDBRANCH   5   6
ENDBRANCH   4   5
ENDBRANCH   3   4
ENDBRANCH   2   3
TORSDOF 18
ENDMDL
MODEL      280
REMARK 921   NORMALIZED FREE ENERGY PREDICTED BY IDOCK:   -2.56 KCAL/MOL
REMARK 922        TOTAL FREE ENERGY PREDICTED BY IDOCK:   -7.96 KCAL/MOL
REMARK 923 INTER-LIGAND FREE ENERGY PREDICTED BY IDOCK:   -5.95 KCAL/MOL
REMARK 924 INTRA-LIGAND FREE ENERGY PREDICTED BY IDOCK:   -2.02 KCAL/MOL
REMARK 927      BINDING AFFINITY PREDICTED BY RF-SCORE:    0.00 PKD
ROOT
HETATM    1  C   UNL     1     -12.388   7.355  71.495  1.00  0.00    -0.385 C  
HETATM    2  C   UNL     1     -11.470   8.523  71.803  1.00  0.00    -0.378 C  
ENDROOT
BRANCH   2   3
HETATM    3  C   UNL     1     -10.255   8.073  72.609  1.00  0.00    -0.385 C  
BRANCH   3   4
HETATM    4  C   UNL     1     -10.624   6.924  73.540  1.00  0.00    -0.378 C  
BRANCH   4   5
HETATM    5  C   UNL     1      -9.503   5.897  73.608  1.00  0.00    -0.140 C  
BRANCH   5   6
HETATM    6  C   UNL     1      -8.779   5.802  72.268  1.00  0.00    -0.132 C  
BRANCH   6   7
HETATM    7  C   UNL     1      -9.223   4.552  71.529  1.00  0.00    -0.186 C  
BRANCH   7   8
HETATM    8  C   UNL     1      -9.883   4.889  70.195  1.00  0.00    -0.309 C  
BRANCH   8   9
HETATM    9  C   UNL     1      -9.233   6.150  69.646  1.00  0.00    -0.148 C  
BRANCH   9  10
HETATM   10  C   UNL     1     -10.150   6.893  68.684  1.00  0.00    -0.162 C  
BRANCH  10  11
HETATM   11  N   UNL     1      -9.384   7.497  67.478  1.00  0.00    -0.137 N  
HETATM   12  C   UNL     1      -8.051   8.089  67.939  1.00  0.00    -0.129 C  
HETATM   13  C   UNL     1      -9.132   6.422  66.419  1.00  0.00    -0.154 C  
BRANCH  11  14
HETATM   14  C   UNL     1     -10.298   8.612  66.906  1.00  0.00    -0.285 C  
BRANCH  14  15
HETATM   15  C   UNL     1     -10.927   9.469  67.995  1.00  0.00    -0.155 C  
BRANCH  15  16
HETATM   16  C   UNL     1     -10.710  10.955  67.750  1.00  0.00    -0.279 C  
BRANCH  16  17
HETATM   17  C   UNL     1     -10.931  11.234  66.267  1.00  0.00    -0.265 C  
BRANCH  17  18
HETATM   18  C   UNL     1     -10.427  12.613  65.875  1.00  0.00    -0.295 C  
BRANCH  18  19
HETATM   19  C   UNL     1     -11.562  13.423  65.263  1.00  0.00    -0.329 C  
BRANCH  19  20
HETATM   20  C   UNL     1     -12.020  14.515  66.224  1.00  0.00    -0.335 C  
BRANCH  20  21
HETATM   21  C   UNL     1     -10.905  14.890  67.195  1.00  0.00    -0.311 C  
BRANCH  21  22
HETATM   22  C   UNL     1     -10.464  16.333  66.976  1.00  0.00    -0.306 C  
HETATM   23  C   UNL     1     -10.696  17.175  68.217  1.00  0.00    -0.363 C  
ENDBRANCH  21  22
ENDBRANCH  20  21
ENDBRANCH  19  20
ENDBRANCH  18  19
ENDBRANCH  17  18
ENDBRANCH  16  17
ENDBRANCH  15  16
ENDBRANCH  14  15
ENDBRANCH  11  14
ENDBRANCH  10  11
ENDBRANCH   9  10
ENDBRANCH   8   9
ENDBRANCH   7   8
ENDBRANCH   6   7
ENDBRANCH   5   6
ENDBRANCH   4   5
ENDBRANCH   3   4
ENDBRANCH   2   3
TORSDOF 18
ENDMDL
MODEL      281
REMARK 921   NORMALIZED FREE ENERGY PREDICTED BY IDOCK:   -2.56 KCAL/MOL
REMARK 922        TOTAL FREE ENERGY PREDICTED BY IDOCK:   -7.95 KCAL/MOL
REMARK 923 INTER-LIGAND FREE ENERGY PREDICTED BY IDOCK:   -5.16 KCAL/MOL
REMARK 924 INTRA-LIGAND FREE ENERGY PREDICTED BY IDOCK:   -2.79 KCAL/MOL
REMARK 927      BINDING AFFINITY PREDICTED BY RF-SCORE:    0.00 PKD
ROOT
HETATM    1  C   UNL     1      -7.799   7.275  65.845  1.00  0.00    -0.106 C  
HETATM    2  C   UNL     1      -8.194   8.099  64.634  1.00  0.00    -0.128 C  
ENDROOT
BRANCH   2   3
HETATM    3  C   UNL     1      -9.099   9.262  65.029  1.00  0.00    -0.245 C  
BRANCH   3   4
HETATM    4  C   UNL     1      -8.974   9.559  66.519  1.00  0.00    -0.173 C  
BRANCH   4   5
HETATM    5  C   UNL     1      -8.228  10.864  66.753  1.00  0.00    -0.140 C  
BRANCH   5   6
HETATM    6  C   UNL     1      -7.371  10.777  68.011  1.00  0.00    -0.088 C  
BRANCH   6   7
HETATM    7  C   UNL     1      -7.164  12.165  68.594  1.00  0.00    -0.109 C  
BRANCH   7   8
HETATM    8  C   UNL     1      -7.241  13.245  67.519  1.00  0.00    -0.157 C  
BRANCH   8   9
HETATM    9  C   UNL     1      -8.186  14.335  68.004  1.00  0.00    -0.153 C  
BRANCH   9  10
HETATM   10  C   UNL     1      -9.233  14.690  66.956  1.00  0.00    -0.239 C  
BRANCH  10  11
HETATM   11  N   UNL     1     -10.678  14.629  67.515  1.00  0.00    -0.265 N  
HETATM   12  C   UNL     1     -11.060  15.969  68.146  1.00  0.00    -0.344 C  
HETATM   13  C   UNL     1     -11.664  14.285  66.396  1.00  0.00    -0.391 C  
BRANCH  11  14
HETATM   14  C   UNL     1     -10.674  13.511  68.589  1.00  0.00    -0.253 C  
BRANCH  14  15
HETATM   15  C   UNL     1     -11.887  12.598  68.488  1.00  0.00    -0.342 C  
BRANCH  15  16
HETATM   16  C   UNL     1     -11.501  11.126  68.531  1.00  0.00    -0.371 C  
BRANCH  16  17
HETATM   17  C   UNL     1     -10.929  10.820  69.911  1.00  0.00    -0.304 C  
BRANCH  17  18
HETATM   18  C   UNL     1     -10.605   9.344  70.069  1.00  0.00    -0.267 C  
BRANCH  18  19
HETATM   19  C   UNL     1      -9.372   9.178  70.946  1.00  0.00    -0.335 C  
BRANCH  19  20
HETATM   20  C   UNL     1      -8.440   8.120  70.365  1.00  0.00    -0.129 C  
BRANCH  20  21
HETATM   21  C   UNL     1      -9.184   7.211  69.392  1.00  0.00    -0.148 C  
BRANCH  21  22
HETATM   22  C   UNL     1      -8.929   5.745  69.723  1.00  0.00    -0.137 C  
HETATM   23  C   UNL     1     -10.230   4.974  69.850  1.00  0.00    -0.340 C  
ENDBRANCH  21  22
ENDBRANCH  20  21
ENDBRANCH  19  20
ENDBRANCH  18  19
ENDBRANCH  17  18
ENDBRANCH  16  17
ENDBRANCH  15  16
ENDBRANCH  14  15
ENDBRANCH  11  14
ENDBRANCH  10  11
ENDBRANCH   9  10
ENDBRANCH   8   9
ENDBRANCH   7   8
ENDBRANCH   6   7
ENDBRANCH   5   6
ENDBRANCH   4   5
ENDBRANCH   3   4
ENDBRANCH   2   3
TORSDOF 18
ENDMDL
MODEL      282
REMARK 921   NORMALIZED FREE ENERGY PREDICTED BY IDOCK:   -2.55 KCAL/MOL
REMARK 922        TOTAL FREE ENERGY PREDICTED BY IDOCK:   -7.94 KCAL/MOL
REMARK 923 INTER-LIGAND FREE ENERGY PREDICTED BY IDOCK:   -5.42 KCAL/MOL
REMARK 924 INTRA-LIGAND FREE ENERGY PREDICTED BY IDOCK:   -2.52 KCAL/MOL
REMARK 927      BINDING AFFINITY PREDICTED BY RF-SCORE:    0.00 PKD
ROOT
HETATM    1  C   UNL     1      -7.423   7.773  70.369  1.00  0.00    -0.078 C  
HETATM    2  C   UNL     1      -8.120   9.020  70.880  1.00  0.00    -0.203 C  
ENDROOT
BRANCH   2   3
HETATM    3  C   UNL     1      -9.052   8.694  72.043  1.00  0.00    -0.311 C  
BRANCH   3   4
HETATM    4  C   UNL     1     -10.492   9.055  71.696  1.00  0.00    -0.426 C  
BRANCH   4   5
HETATM    5  C   UNL     1     -10.551   9.893  70.427  1.00  0.00    -0.364 C  
BRANCH   5   6
HETATM    6  C   UNL     1     -11.627  10.968  70.542  1.00  0.00    -0.344 C  
BRANCH   6   7
HETATM    7  C   UNL     1     -11.621  11.841  69.300  1.00  0.00    -0.378 C  
BRANCH   7   8
HETATM    8  C   UNL     1     -10.980  11.129  68.113  1.00  0.00    -0.292 C  
BRANCH   8   9
HETATM    9  C   UNL     1     -11.356  11.882  66.844  1.00  0.00    -0.392 C  
BRANCH   9  10
HETATM   10  C   UNL     1     -11.269  10.998  65.608  1.00  0.00     0.169 C  
BRANCH  10  11
HETATM   11  N   UNL     1     -10.940  11.801  64.323  1.00  0.00    -0.336 N  
HETATM   12  C   UNL     1     -12.212  12.053  63.513  1.00  0.00    -0.547 C  
HETATM   13  C   UNL     1     -10.287  13.137  64.688  1.00  0.00    -0.361 C  
BRANCH  11  14
HETATM   14  C   UNL     1      -9.951  10.924  63.513  1.00  0.00    -0.363 C  
BRANCH  14  15
HETATM   15  C   UNL     1      -9.059  10.071  64.404  1.00  0.00    -0.289 C  
BRANCH  15  16
HETATM   16  C   UNL     1      -7.611  10.074  63.935  1.00  0.00    -0.138 C  
BRANCH  16  17
HETATM   17  C   UNL     1      -6.772   9.323  64.964  1.00  0.00    -0.078 C  
BRANCH  17  18
HETATM   18  C   UNL     1      -6.209  10.261  66.019  1.00  0.00    -0.097 C  
BRANCH  18  19
HETATM   19  C   UNL     1      -6.809   9.928  67.378  1.00  0.00    -0.082 C  
BRANCH  19  20
HETATM   20  C   UNL     1      -7.336  11.190  68.054  1.00  0.00    -0.088 C  
BRANCH  20  21
HETATM   21  C   UNL     1      -7.657  12.268  67.023  1.00  0.00    -0.071 C  
BRANCH  21  22
HETATM   22  C   UNL     1      -7.821  13.625  67.698  1.00  0.00    -0.178 C  
HETATM   23  C   UNL     1      -6.478  14.294  67.923  1.00  0.00    -0.175 C  
ENDBRANCH  21  22
ENDBRANCH  20  21
ENDBRANCH  19  20
ENDBRANCH  18  19
ENDBRANCH  17  18
ENDBRANCH  16  17
ENDBRANCH  15  16
ENDBRANCH  14  15
ENDBRANCH  11  14
ENDBRANCH  10  11
ENDBRANCH   9  10
ENDBRANCH   8   9
ENDBRANCH   7   8
ENDBRANCH   6   7
ENDBRANCH   5   6
ENDBRANCH   4   5
ENDBRANCH   3   4
ENDBRANCH   2   3
TORSDOF 18
ENDMDL
MODEL      283
REMARK 921   NORMALIZED FREE ENERGY PREDICTED BY IDOCK:   -2.55 KCAL/MOL
REMARK 922        TOTAL FREE ENERGY PREDICTED BY IDOCK:   -7.93 KCAL/MOL
REMARK 923 INTER-LIGAND FREE ENERGY PREDICTED BY IDOCK:   -6.46 KCAL/MOL
REMARK 924 INTRA-LIGAND FREE ENERGY PREDICTED BY IDOCK:   -1.48 KCAL/MOL
REMARK 927      BINDING AFFINITY PREDICTED BY RF-SCORE:    0.00 PKD
ROOT
HETATM    1  C   UNL     1      -6.813   9.197  66.800  1.00  0.00    -0.080 C  
HETATM    2  C   UNL     1      -8.296   8.876  66.783  1.00  0.00    -0.111 C  
ENDROOT
BRANCH   2   3
HETATM    3  C   UNL     1      -9.125  10.072  67.243  1.00  0.00    -0.152 C  
BRANCH   3   4
HETATM    4  C   UNL     1     -10.252   9.621  68.165  1.00  0.00    -0.225 C  
BRANCH   4   5
HETATM    5  C   UNL     1     -10.260  10.435  69.451  1.00  0.00    -0.257 C  
BRANCH   5   6
HETATM    6  C   UNL     1     -11.688  10.779  69.862  1.00  0.00    -0.412 C  
BRANCH   6   7
HETATM    7  C   UNL     1     -11.819  12.278  70.071  1.00  0.00    -0.372 C  
BRANCH   7   8
HETATM    8  C   UNL     1     -11.843  13.033  68.745  1.00  0.00    -0.355 C  
BRANCH   8   9
HETATM    9  C   UNL     1     -10.915  14.234  68.863  1.00  0.00    -0.275 C  
BRANCH   9  10
HETATM   10  C   UNL     1     -11.326  15.366  67.931  1.00  0.00    -0.325 C  
BRANCH  10  11
HETATM   11  N   UNL     1     -10.148  15.880  67.064  1.00  0.00    -0.262 N  
HETATM   12  C   UNL     1      -9.000  14.870  67.075  1.00  0.00    -0.236 C  
HETATM   13  C   UNL     1     -10.614  16.116  65.625  1.00  0.00    -0.363 C  
BRANCH  11  14
HETATM   14  C   UNL     1      -9.694  17.216  67.707  1.00  0.00    -0.271 C  
BRANCH  14  15
HETATM   15  C   UNL     1     -10.786  18.276  67.686  1.00  0.00    -0.373 C  
BRANCH  15  16
HETATM   16  C   UNL     1     -10.264  19.644  68.102  1.00  0.00    -0.580 C  
BRANCH  16  17
HETATM   17  C   UNL     1      -8.752  19.547  68.279  1.00  0.00    -0.380 C  
BRANCH  17  18
HETATM   18  C   UNL     1      -8.017  20.497  67.349  1.00  0.00    -0.349 C  
BRANCH  18  19
HETATM   19  C   UNL     1      -6.662  19.908  66.977  1.00  0.00    -0.231 C  
BRANCH  19  20
HETATM   20  C   UNL     1      -6.762  19.116  65.678  1.00  0.00    -0.313 C  
BRANCH  20  21
HETATM   21  C   UNL     1      -6.512  17.631  65.923  1.00  0.00    -0.223 C  
BRANCH  21  22
HETATM   22  C   UNL     1      -5.408  17.435  66.957  1.00  0.00    -0.176 C  
HETATM   23  C   UNL     1      -5.463  16.045  67.565  1.00  0.00    -0.136 C  
ENDBRANCH  21  22
ENDBRANCH  20  21
ENDBRANCH  19  20
ENDBRANCH  18  19
ENDBRANCH  17  18
ENDBRANCH  16  17
ENDBRANCH  15  16
ENDBRANCH  14  15
ENDBRANCH  11  14
ENDBRANCH  10  11
ENDBRANCH   9  10
ENDBRANCH   8   9
ENDBRANCH   7   8
ENDBRANCH   6   7
ENDBRANCH   5   6
ENDBRANCH   4   5
ENDBRANCH   3   4
ENDBRANCH   2   3
TORSDOF 18
ENDMDL
MODEL      284
REMARK 921   NORMALIZED FREE ENERGY PREDICTED BY IDOCK:   -2.55 KCAL/MOL
REMARK 922        TOTAL FREE ENERGY PREDICTED BY IDOCK:   -7.93 KCAL/MOL
REMARK 923 INTER-LIGAND FREE ENERGY PREDICTED BY IDOCK:   -4.67 KCAL/MOL
REMARK 924 INTRA-LIGAND FREE ENERGY PREDICTED BY IDOCK:   -3.26 KCAL/MOL
REMARK 927      BINDING AFFINITY PREDICTED BY RF-SCORE:    0.00 PKD
ROOT
HETATM    1  C   UNL     1      -7.162   6.834  65.004  1.00  0.00    -0.074 C  
HETATM    2  C   UNL     1      -6.446   8.063  65.532  1.00  0.00    -0.045 C  
ENDROOT
BRANCH   2   3
HETATM    3  C   UNL     1      -6.567   9.233  64.559  1.00  0.00    -0.081 C  
BRANCH   3   4
HETATM    4  C   UNL     1      -6.326  10.556  65.276  1.00  0.00    -0.080 C  
BRANCH   4   5
HETATM    5  C   UNL     1      -6.478  10.394  66.781  1.00  0.00    -0.076 C  
BRANCH   5   6
HETATM    6  C   UNL     1      -6.948  11.698  67.418  1.00  0.00    -0.117 C  
BRANCH   6   7
HETATM    7  C   UNL     1      -7.862  11.400  68.594  1.00  0.00    -0.139 C  
BRANCH   7   8
HETATM    8  C   UNL     1      -7.584  10.023  69.190  1.00  0.00    -0.096 C  
BRANCH   8   9
HETATM    9  C   UNL     1      -8.800   9.600  70.001  1.00  0.00    -0.259 C  
BRANCH   9  10
HETATM   10  C   UNL     1      -8.966   8.086  70.035  1.00  0.00    -0.144 C  
BRANCH  10  11
HETATM   11  N   UNL     1     -10.324   7.623  69.446  1.00  0.00    -0.211 N  
HETATM   12  C   UNL     1     -10.203   6.205  68.887  1.00  0.00    -0.188 C  
HETATM   13  C   UNL     1     -11.409   7.663  70.524  1.00  0.00    -0.250 C  
BRANCH  11  14
HETATM   14  C   UNL     1     -10.659   8.622  68.308  1.00  0.00    -0.128 C  
BRANCH  14  15
HETATM   15  C   UNL     1     -10.230   8.116  66.939  1.00  0.00    -0.387 C  
BRANCH  15  16
HETATM   16  C   UNL     1      -9.872   9.254  65.994  1.00  0.00    -0.363 C  
BRANCH  16  17
HETATM   17  C   UNL     1     -10.472  10.543  66.547  1.00  0.00    -0.276 C  
BRANCH  17  18
HETATM   18  C   UNL     1     -10.096  11.745  65.697  1.00  0.00    -0.278 C  
BRANCH  18  19
HETATM   19  C   UNL     1     -10.823  12.983  66.205  1.00  0.00    -0.296 C  
BRANCH  19  20
HETATM   20  C   UNL     1      -9.827  14.078  66.569  1.00  0.00    -0.298 C  
BRANCH  20  21
HETATM   21  C   UNL     1      -9.897  14.409  68.056  1.00  0.00    -0.221 C  
BRANCH  21  22
HETATM   22  C   UNL     1     -10.934  13.535  68.753  1.00  0.00    -0.291 C  
HETATM   23  C   UNL     1     -11.972  14.378  69.471  1.00  0.00    -0.376 C  
ENDBRANCH  21  22
ENDBRANCH  20  21
ENDBRANCH  19  20
ENDBRANCH  18  19
ENDBRANCH  17  18
ENDBRANCH  16  17
ENDBRANCH  15  16
ENDBRANCH  14  15
ENDBRANCH  11  14
ENDBRANCH  10  11
ENDBRANCH   9  10
ENDBRANCH   8   9
ENDBRANCH   7   8
ENDBRANCH   6   7
ENDBRANCH   5   6
ENDBRANCH   4   5
ENDBRANCH   3   4
ENDBRANCH   2   3
TORSDOF 18
ENDMDL
MODEL      285
REMARK 921   NORMALIZED FREE ENERGY PREDICTED BY IDOCK:   -2.54 KCAL/MOL
REMARK 922        TOTAL FREE ENERGY PREDICTED BY IDOCK:   -7.92 KCAL/MOL
REMARK 923 INTER-LIGAND FREE ENERGY PREDICTED BY IDOCK:   -5.48 KCAL/MOL
REMARK 924 INTRA-LIGAND FREE ENERGY PREDICTED BY IDOCK:   -2.44 KCAL/MOL
REMARK 927      BINDING AFFINITY PREDICTED BY RF-SCORE:    0.00 PKD
ROOT
HETATM    1  C   UNL     1      -8.195  14.079  67.414  1.00  0.00    -0.203 C  
HETATM    2  C   UNL     1      -6.793  13.546  67.641  1.00  0.00    -0.178 C  
ENDROOT
BRANCH   2   3
HETATM    3  C   UNL     1      -6.531  13.296  69.123  1.00  0.00    -0.106 C  
BRANCH   3   4
HETATM    4  C   UNL     1      -5.727  12.016  69.319  1.00  0.00    -0.072 C  
BRANCH   4   5
HETATM    5  C   UNL     1      -6.612  10.894  69.843  1.00  0.00    -0.148 C  
BRANCH   5   6
HETATM    6  C   UNL     1      -6.309   9.587  69.118  1.00  0.00    -0.041 C  
BRANCH   6   7
HETATM    7  C   UNL     1      -5.832   9.877  67.706  1.00  0.00    -0.039 C  
BRANCH   7   8
HETATM    8  C   UNL     1      -6.913   9.577  66.672  1.00  0.00    -0.085 C  
BRANCH   8   9
HETATM    9  C   UNL     1      -7.526   8.224  67.000  1.00  0.00    -0.088 C  
BRANCH   9  10
HETATM   10  C   UNL     1      -8.925   8.074  66.419  1.00  0.00    -0.169 C  
BRANCH  10  11
HETATM   11  N   UNL     1      -9.969   7.645  67.482  1.00  0.00    -0.163 N  
HETATM   12  C   UNL     1     -10.892   6.565  66.915  1.00  0.00    -0.357 C  
HETATM   13  C   UNL     1      -9.263   7.116  68.733  1.00  0.00    -0.136 C  
BRANCH  11  14
HETATM   14  C   UNL     1     -10.782   8.921  67.823  1.00  0.00    -0.137 C  
BRANCH  14  15
HETATM   15  C   UNL     1     -10.192   9.695  68.993  1.00  0.00    -0.209 C  
BRANCH  15  16
HETATM   16  C   UNL     1     -10.095  11.186  68.702  1.00  0.00    -0.208 C  
BRANCH  16  17
HETATM   17  C   UNL     1     -11.494  11.785  68.797  1.00  0.00    -0.350 C  
BRANCH  17  18
HETATM   18  C   UNL     1     -11.754  12.781  67.679  1.00  0.00    -0.422 C  
BRANCH  18  19
HETATM   19  C   UNL     1     -11.911  14.180  68.260  1.00  0.00    -0.391 C  
BRANCH  19  20
HETATM   20  C   UNL     1     -12.150  14.111  69.764  1.00  0.00    -0.409 C  
BRANCH  20  21
HETATM   21  C   UNL     1     -12.351  15.505  70.350  1.00  0.00    -0.451 C  
BRANCH  21  22
HETATM   22  C   UNL     1     -12.570  15.428  71.857  1.00  0.00    -0.455 C  
HETATM   23  C   UNL     1     -14.046  15.336  72.195  1.00  0.00    -0.658 C  
ENDBRANCH  21  22
ENDBRANCH  20  21
ENDBRANCH  19  20
ENDBRANCH  18  19
ENDBRANCH  17  18
ENDBRANCH  16  17
ENDBRANCH  15  16
ENDBRANCH  14  15
ENDBRANCH  11  14
ENDBRANCH  10  11
ENDBRANCH   9  10
ENDBRANCH   8   9
ENDBRANCH   7   8
ENDBRANCH   6   7
ENDBRANCH   5   6
ENDBRANCH   4   5
ENDBRANCH   3   4
ENDBRANCH   2   3
TORSDOF 18
ENDMDL
MODEL      286
REMARK 921   NORMALIZED FREE ENERGY PREDICTED BY IDOCK:   -2.54 KCAL/MOL
REMARK 922        TOTAL FREE ENERGY PREDICTED BY IDOCK:   -7.91 KCAL/MOL
REMARK 923 INTER-LIGAND FREE ENERGY PREDICTED BY IDOCK:   -6.38 KCAL/MOL
REMARK 924 INTRA-LIGAND FREE ENERGY PREDICTED BY IDOCK:   -1.52 KCAL/MOL
REMARK 927      BINDING AFFINITY PREDICTED BY RF-SCORE:    0.00 PKD
ROOT
HETATM    1  C   UNL     1      -8.682  19.803  66.198  1.00  0.00    -0.368 C  
HETATM    2  C   UNL     1      -7.225  19.887  65.783  1.00  0.00    -0.329 C  
ENDROOT
BRANCH   2   3
HETATM    3  C   UNL     1      -6.300  19.750  66.989  1.00  0.00    -0.202 C  
BRANCH   3   4
HETATM    4  C   UNL     1      -7.047  20.068  68.279  1.00  0.00    -0.323 C  
BRANCH   4   5
HETATM    5  C   UNL     1      -7.003  18.887  69.237  1.00  0.00    -0.273 C  
BRANCH   5   6
HETATM    6  C   UNL     1      -6.149  17.761  68.665  1.00  0.00    -0.192 C  
BRANCH   6   7
HETATM    7  C   UNL     1      -6.929  16.458  68.684  1.00  0.00    -0.159 C  
BRANCH   7   8
HETATM    8  C   UNL     1      -8.423  16.691  68.480  1.00  0.00    -0.233 C  
BRANCH   8   9
HETATM    9  C   UNL     1      -8.891  15.811  67.330  1.00  0.00    -0.212 C  
BRANCH   9  10
HETATM   10  C   UNL     1     -10.328  15.344  67.516  1.00  0.00    -0.264 C  
BRANCH  10  11
HETATM   11  N   UNL     1     -10.742  14.265  66.482  1.00  0.00    -0.294 N  
HETATM   12  C   UNL     1     -12.257  14.059  66.507  1.00  0.00    -0.451 C  
HETATM   13  C   UNL     1     -10.300  14.683  65.077  1.00  0.00    -0.402 C  
BRANCH  11  14
HETATM   14  C   UNL     1     -10.015  12.964  66.908  1.00  0.00    -0.238 C  
BRANCH  14  15
HETATM   15  C   UNL     1     -10.914  11.738  66.826  1.00  0.00    -0.336 C  
BRANCH  15  16
HETATM   16  C   UNL     1     -10.195  10.471  67.265  1.00  0.00    -0.260 C  
BRANCH  16  17
HETATM   17  C   UNL     1      -9.919   9.623  66.028  1.00  0.00    -0.344 C  
BRANCH  17  18
HETATM   18  C   UNL     1      -9.536   8.200  66.398  1.00  0.00    -0.286 C  
BRANCH  18  19
HETATM   19  C   UNL     1      -8.910   8.178  67.785  1.00  0.00    -0.130 C  
BRANCH  19  20
HETATM   20  C   UNL     1      -9.382   6.957  68.567  1.00  0.00    -0.134 C  
BRANCH  20  21
HETATM   21  C   UNL     1     -10.884   6.748  68.399  1.00  0.00    -0.284 C  
BRANCH  21  22
HETATM   22  C   UNL     1     -11.571   6.664  69.757  1.00  0.00    -0.354 C  
HETATM   23  C   UNL     1     -10.656   6.049  70.800  1.00  0.00    -0.316 C  
ENDBRANCH  21  22
ENDBRANCH  20  21
ENDBRANCH  19  20
ENDBRANCH  18  19
ENDBRANCH  17  18
ENDBRANCH  16  17
ENDBRANCH  15  16
ENDBRANCH  14  15
ENDBRANCH  11  14
ENDBRANCH  10  11
ENDBRANCH   9  10
ENDBRANCH   8   9
ENDBRANCH   7   8
ENDBRANCH   6   7
ENDBRANCH   5   6
ENDBRANCH   4   5
ENDBRANCH   3   4
ENDBRANCH   2   3
TORSDOF 18
ENDMDL
MODEL      287
REMARK 921   NORMALIZED FREE ENERGY PREDICTED BY IDOCK:   -2.53 KCAL/MOL
REMARK 922        TOTAL FREE ENERGY PREDICTED BY IDOCK:   -7.90 KCAL/MOL
REMARK 923 INTER-LIGAND FREE ENERGY PREDICTED BY IDOCK:   -5.72 KCAL/MOL
REMARK 924 INTRA-LIGAND FREE ENERGY PREDICTED BY IDOCK:   -2.18 KCAL/MOL
REMARK 927      BINDING AFFINITY PREDICTED BY RF-SCORE:    0.00 PKD
ROOT
HETATM    1  C   UNL     1      -6.215   7.114  70.063  1.00  0.00    -0.027 C  
HETATM    2  C   UNL     1      -6.759   8.527  70.167  1.00  0.00    -0.039 C  
ENDROOT
BRANCH   2   3
HETATM    3  C   UNL     1      -7.287   8.813  71.570  1.00  0.00    -0.109 C  
BRANCH   3   4
HETATM    4  C   UNL     1      -8.741   8.373  71.697  1.00  0.00    -0.240 C  
BRANCH   4   5
HETATM    5  C   UNL     1      -9.661   9.307  70.925  1.00  0.00    -0.339 C  
BRANCH   5   6
HETATM    6  C   UNL     1     -11.104   9.150  71.394  1.00  0.00    -0.415 C  
BRANCH   6   7
HETATM    7  C   UNL     1     -11.895  10.403  71.060  1.00  0.00    -0.458 C  
BRANCH   7   8
HETATM    8  C   UNL     1     -12.036  10.597  69.554  1.00  0.00    -0.285 C  
BRANCH   8   9
HETATM    9  C   UNL     1     -11.975  12.088  69.255  1.00  0.00    -0.329 C  
BRANCH   9  10
HETATM   10  C   UNL     1     -10.659  12.486  68.601  1.00  0.00    -0.216 C  
BRANCH  10  11
HETATM   11  N   UNL     1     -10.806  12.746  67.079  1.00  0.00    -0.253 N  
HETATM   12  C   UNL     1     -12.010  13.650  66.809  1.00  0.00    -0.414 C  
HETATM   13  C   UNL     1      -9.536  13.399  66.529  1.00  0.00    -0.272 C  
BRANCH  11  14
HETATM   14  C   UNL     1     -11.021  11.356  66.426  1.00  0.00    -0.260 C  
BRANCH  14  15
HETATM   15  C   UNL     1      -9.800  10.877  65.655  1.00  0.00    -0.292 C  
BRANCH  15  16
HETATM   16  C   UNL     1      -9.563   9.383  65.828  1.00  0.00    -0.340 C  
BRANCH  16  17
HETATM   17  C   UNL     1      -8.687   9.175  67.059  1.00  0.00    -0.131 C  
BRANCH  17  18
HETATM   18  C   UNL     1      -8.695   7.726  67.515  1.00  0.00    -0.125 C  
BRANCH  18  19
HETATM   19  C   UNL     1      -9.932   7.022  66.972  1.00  0.00    -0.273 C  
BRANCH  19  20
HETATM   20  C   UNL     1     -10.520   6.087  68.023  1.00  0.00    -0.291 C  
BRANCH  20  21
HETATM   21  C   UNL     1      -9.427   5.523  68.926  1.00  0.00    -0.165 C  
BRANCH  21  22
HETATM   22  C   UNL     1      -9.489   4.000  68.959  1.00  0.00    -0.243 C  
HETATM   23  C   UNL     1      -9.157   3.406  67.603  1.00  0.00    -0.204 C  
ENDBRANCH  21  22
ENDBRANCH  20  21
ENDBRANCH  19  20
ENDBRANCH  18  19
ENDBRANCH  17  18
ENDBRANCH  16  17
ENDBRANCH  15  16
ENDBRANCH  14  15
ENDBRANCH  11  14
ENDBRANCH  10  11
ENDBRANCH   9  10
ENDBRANCH   8   9
ENDBRANCH   7   8
ENDBRANCH   6   7
ENDBRANCH   5   6
ENDBRANCH   4   5
ENDBRANCH   3   4
ENDBRANCH   2   3
TORSDOF 18
ENDMDL
MODEL      288
REMARK 921   NORMALIZED FREE ENERGY PREDICTED BY IDOCK:   -2.53 KCAL/MOL
REMARK 922        TOTAL FREE ENERGY PREDICTED BY IDOCK:   -7.89 KCAL/MOL
REMARK 923 INTER-LIGAND FREE ENERGY PREDICTED BY IDOCK:   -6.68 KCAL/MOL
REMARK 924 INTRA-LIGAND FREE ENERGY PREDICTED BY IDOCK:   -1.22 KCAL/MOL
REMARK 927      BINDING AFFINITY PREDICTED BY RF-SCORE:    0.00 PKD
ROOT
HETATM    1  C   UNL     1      -7.396  16.189  69.173  1.00  0.00    -0.215 C  
HETATM    2  C   UNL     1      -8.047  16.303  67.807  1.00  0.00    -0.160 C  
ENDROOT
BRANCH   2   3
HETATM    3  C   UNL     1      -9.381  17.038  67.892  1.00  0.00    -0.240 C  
BRANCH   3   4
HETATM    4  C   UNL     1     -10.367  16.483  66.870  1.00  0.00    -0.300 C  
BRANCH   4   5
HETATM    5  C   UNL     1      -9.717  15.401  66.020  1.00  0.00    -0.370 C  
BRANCH   5   6
HETATM    6  C   UNL     1     -10.639  14.986  64.879  1.00  0.00    -0.400 C  
BRANCH   6   7
HETATM    7  C   UNL     1     -11.998  14.590  65.430  1.00  0.00    -0.332 C  
BRANCH   7   8
HETATM    8  C   UNL     1     -12.268  13.099  65.251  1.00  0.00    -0.502 C  
BRANCH   8   9
HETATM    9  C   UNL     1     -11.191  12.326  65.998  1.00  0.00    -0.375 C  
BRANCH   9  10
HETATM   10  C   UNL     1     -11.734  11.661  67.256  1.00  0.00    -0.175 C  
BRANCH  10  11
HETATM   11  N   UNL     1     -11.063  12.196  68.548  1.00  0.00    -0.234 N  
HETATM   12  C   UNL     1      -9.543  12.230  68.382  1.00  0.00    -0.183 C  
HETATM   13  C   UNL     1     -11.579  13.600  68.870  1.00  0.00    -0.322 C  
BRANCH  11  14
HETATM   14  C   UNL     1     -11.458  11.207  69.675  1.00  0.00    -0.310 C  
BRANCH  14  15
HETATM   15  C   UNL     1     -10.906   9.808  69.447  1.00  0.00    -0.256 C  
BRANCH  15  16
HETATM   16  C   UNL     1     -10.592   9.095  70.754  1.00  0.00    -0.324 C  
BRANCH  16  17
HETATM   17  C   UNL     1     -11.720   9.383  71.740  1.00  0.00    -0.444 C  
BRANCH  17  18
HETATM   18  C   UNL     1     -12.013   8.182  72.623  1.00  0.00    -0.353 C  
BRANCH  18  19
HETATM   19  C   UNL     1     -11.021   7.066  72.322  1.00  0.00    -0.279 C  
BRANCH  19  20
HETATM   20  C   UNL     1     -11.625   5.708  72.661  1.00  0.00    -0.307 C  
BRANCH  20  21
HETATM   21  C   UNL     1     -10.633   4.583  72.382  1.00  0.00    -0.205 C  
BRANCH  21  22
HETATM   22  C   UNL     1      -9.988   4.763  71.012  1.00  0.00    -0.279 C  
HETATM   23  C   UNL     1      -8.474   4.791  71.115  1.00  0.00    -0.112 C  
ENDBRANCH  21  22
ENDBRANCH  20  21
ENDBRANCH  19  20
ENDBRANCH  18  19
ENDBRANCH  17  18
ENDBRANCH  16  17
ENDBRANCH  15  16
ENDBRANCH  14  15
ENDBRANCH  11  14
ENDBRANCH  10  11
ENDBRANCH   9  10
ENDBRANCH   8   9
ENDBRANCH   7   8
ENDBRANCH   6   7
ENDBRANCH   5   6
ENDBRANCH   4   5
ENDBRANCH   3   4
ENDBRANCH   2   3
TORSDOF 18
ENDMDL
MODEL      289
REMARK 921   NORMALIZED FREE ENERGY PREDICTED BY IDOCK:   -2.52 KCAL/MOL
REMARK 922        TOTAL FREE ENERGY PREDICTED BY IDOCK:   -7.88 KCAL/MOL
REMARK 923 INTER-LIGAND FREE ENERGY PREDICTED BY IDOCK:   -6.79 KCAL/MOL
REMARK 924 INTRA-LIGAND FREE ENERGY PREDICTED BY IDOCK:   -1.09 KCAL/MOL
REMARK 927      BINDING AFFINITY PREDICTED BY RF-SCORE:    0.00 PKD
ROOT
HETATM    1  C   UNL     1      -5.164  18.063  70.646  1.00  0.00    -0.274 C  
HETATM    2  C   UNL     1      -5.679  16.708  70.197  1.00  0.00    -0.203 C  
ENDROOT
BRANCH   2   3
HETATM    3  C   UNL     1      -6.062  16.724  68.720  1.00  0.00    -0.147 C  
BRANCH   3   4
HETATM    4  C   UNL     1      -7.471  16.178  68.524  1.00  0.00    -0.167 C  
BRANCH   4   5
HETATM    5  C   UNL     1      -7.712  15.806  67.068  1.00  0.00    -0.267 C  
BRANCH   5   6
HETATM    6  C   UNL     1      -8.779  16.705  66.452  1.00  0.00    -0.345 C  
BRANCH   6   7
HETATM    7  C   UNL     1     -10.154  16.285  66.941  1.00  0.00    -0.278 C  
BRANCH   7   8
HETATM    8  C   UNL     1     -10.902  15.471  65.890  1.00  0.00    -0.317 C  
BRANCH   8   9
HETATM    9  C   UNL     1     -10.381  14.041  65.934  1.00  0.00    -0.327 C  
BRANCH   9  10
HETATM   10  C   UNL     1     -10.131  13.481  64.540  1.00  0.00    -0.149 C  
BRANCH  10  11
HETATM   11  N   UNL     1     -10.972  12.212  64.249  1.00  0.00    -0.314 N  
HETATM   12  C   UNL     1     -12.280  12.589  63.552  1.00  0.00    -0.558 C  
HETATM   13  C   UNL     1     -10.179  11.242  63.369  1.00  0.00    -0.403 C  
BRANCH  11  14
HETATM   14  C   UNL     1     -11.265  11.567  65.629  1.00  0.00    -0.148 C  
BRANCH  14  15
HETATM   15  C   UNL     1     -10.265  10.480  65.991  1.00  0.00    -0.310 C  
BRANCH  15  16
HETATM   16  C   UNL     1     -10.443   9.992  67.422  1.00  0.00    -0.316 C  
BRANCH  16  17
HETATM   17  C   UNL     1     -10.841  11.182  68.288  1.00  0.00    -0.258 C  
BRANCH  17  18
HETATM   18  C   UNL     1     -12.160  10.938  69.002  1.00  0.00    -0.240 C  
BRANCH  18  19
HETATM   19  C   UNL     1     -12.049  11.383  70.455  1.00  0.00    -0.473 C  
BRANCH  19  20
HETATM   20  C   UNL     1     -11.489  10.257  71.318  1.00  0.00    -0.233 C  
BRANCH  20  21
HETATM   21  C   UNL     1     -12.466   9.088  71.394  1.00  0.00    -0.378 C  
BRANCH  21  22
HETATM   22  C   UNL     1     -11.780   7.787  70.995  1.00  0.00    -0.299 C  
HETATM   23  C   UNL     1     -12.390   6.599  71.717  1.00  0.00    -0.385 C  
ENDBRANCH  21  22
ENDBRANCH  20  21
ENDBRANCH  19  20
ENDBRANCH  18  19
ENDBRANCH  17  18
ENDBRANCH  16  17
ENDBRANCH  15  16
ENDBRANCH  14  15
ENDBRANCH  11  14
ENDBRANCH  10  11
ENDBRANCH   9  10
ENDBRANCH   8   9
ENDBRANCH   7   8
ENDBRANCH   6   7
ENDBRANCH   5   6
ENDBRANCH   4   5
ENDBRANCH   3   4
ENDBRANCH   2   3
TORSDOF 18
ENDMDL
MODEL      290
REMARK 921   NORMALIZED FREE ENERGY PREDICTED BY IDOCK:   -2.52 KCAL/MOL
REMARK 922        TOTAL FREE ENERGY PREDICTED BY IDOCK:   -7.88 KCAL/MOL
REMARK 923 INTER-LIGAND FREE ENERGY PREDICTED BY IDOCK:   -6.54 KCAL/MOL
REMARK 924 INTRA-LIGAND FREE ENERGY PREDICTED BY IDOCK:   -1.34 KCAL/MOL
REMARK 927      BINDING AFFINITY PREDICTED BY RF-SCORE:    0.00 PKD
ROOT
HETATM    1  C   UNL     1      -9.587   2.093  62.803  1.00  0.00    -0.089 C  
HETATM    2  C   UNL     1      -9.500   3.556  63.198  1.00  0.00    -0.104 C  
ENDROOT
BRANCH   2   3
HETATM    3  C   UNL     1     -10.235   3.818  64.509  1.00  0.00    -0.209 C  
BRANCH   3   4
HETATM    4  C   UNL     1      -9.406   3.338  65.695  1.00  0.00    -0.128 C  
BRANCH   4   5
HETATM    5  C   UNL     1      -9.179   4.466  66.691  1.00  0.00    -0.143 C  
BRANCH   5   6
HETATM    6  C   UNL     1      -9.977   5.704  66.293  1.00  0.00    -0.154 C  
BRANCH   6   7
HETATM    7  C   UNL     1     -10.873   6.132  67.443  1.00  0.00    -0.431 C  
BRANCH   7   8
HETATM    8  C   UNL     1     -10.385   5.577  68.777  1.00  0.00    -0.271 C  
BRANCH   8   9
HETATM    9  C   UNL     1     -11.303   6.094  69.874  1.00  0.00    -0.454 C  
BRANCH   9  10
HETATM   10  C   UNL     1     -10.523   6.629  71.067  1.00  0.00    -0.214 C  
BRANCH  10  11
HETATM   11  N   UNL     1     -10.915   8.085  71.430  1.00  0.00    -0.230 N  
HETATM   12  C   UNL     1     -11.898   8.094  72.602  1.00  0.00    -0.326 C  
HETATM   13  C   UNL     1      -9.668   8.893  71.796  1.00  0.00    -0.295 C  
BRANCH  11  14
HETATM   14  C   UNL     1     -11.585   8.676  70.163  1.00  0.00     0.087 C  
BRANCH  14  15
HETATM   15  C   UNL     1     -10.920   9.962  69.695  1.00  0.00    -0.285 C  
BRANCH  15  16
HETATM   16  C   UNL     1     -11.939  11.023  69.303  1.00  0.00    -0.410 C  
BRANCH  16  17
HETATM   17  C   UNL     1     -11.447  11.716  68.037  1.00  0.00    -0.385 C  
BRANCH  17  18
HETATM   18  C   UNL     1     -11.553  13.227  68.147  1.00  0.00    -0.373 C  
BRANCH  18  19
HETATM   19  C   UNL     1     -11.502  13.851  66.759  1.00  0.00    -0.369 C  
BRANCH  19  20
HETATM   20  C   UNL     1     -12.014  12.869  65.712  1.00  0.00    -0.496 C  
BRANCH  20  21
HETATM   21  C   UNL     1     -11.387  13.146  64.349  1.00  0.00    -0.400 C  
BRANCH  21  22
HETATM   22  C   UNL     1     -11.005  11.842  63.658  1.00  0.00    -0.511 C  
HETATM   23  C   UNL     1     -10.466  10.829  64.651  1.00  0.00    -0.346 C  
ENDBRANCH  21  22
ENDBRANCH  20  21
ENDBRANCH  19  20
ENDBRANCH  18  19
ENDBRANCH  17  18
ENDBRANCH  16  17
ENDBRANCH  15  16
ENDBRANCH  14  15
ENDBRANCH  11  14
ENDBRANCH  10  11
ENDBRANCH   9  10
ENDBRANCH   8   9
ENDBRANCH   7   8
ENDBRANCH   6   7
ENDBRANCH   5   6
ENDBRANCH   4   5
ENDBRANCH   3   4
ENDBRANCH   2   3
TORSDOF 18
ENDMDL
MODEL      291
REMARK 921   NORMALIZED FREE ENERGY PREDICTED BY IDOCK:   -2.51 KCAL/MOL
REMARK 922        TOTAL FREE ENERGY PREDICTED BY IDOCK:   -7.85 KCAL/MOL
REMARK 923 INTER-LIGAND FREE ENERGY PREDICTED BY IDOCK:   -5.53 KCAL/MOL
REMARK 924 INTRA-LIGAND FREE ENERGY PREDICTED BY IDOCK:   -2.31 KCAL/MOL
REMARK 927      BINDING AFFINITY PREDICTED BY RF-SCORE:    0.00 PKD
ROOT
HETATM    1  C   UNL     1      -8.902  10.596  66.265  1.00  0.00    -0.172 C  
HETATM    2  C   UNL     1      -7.552  10.153  65.733  1.00  0.00    -0.134 C  
ENDROOT
BRANCH   2   3
HETATM    3  C   UNL     1      -6.431  11.040  66.265  1.00  0.00    -0.112 C  
BRANCH   3   4
HETATM    4  C   UNL     1      -6.813  11.639  67.614  1.00  0.00    -0.094 C  
BRANCH   4   5
HETATM    5  C   UNL     1      -5.738  11.364  68.654  1.00  0.00    -0.042 C  
BRANCH   5   6
HETATM    6  C   UNL     1      -6.367  10.979  69.989  1.00  0.00    -0.146 C  
BRANCH   6   7
HETATM    7  C   UNL     1      -7.690  10.272  69.752  1.00  0.00    -0.159 C  
BRANCH   7   8
HETATM    8  C   UNL     1      -7.509   8.762  69.625  1.00  0.00    -0.071 C  
BRANCH   8   9
HETATM    9  C   UNL     1      -8.742   8.082  70.203  1.00  0.00    -0.135 C  
BRANCH   9  10
HETATM   10  C   UNL     1      -9.467   8.970  71.206  1.00  0.00    -0.269 C  
BRANCH  10  11
HETATM   11  N   UNL     1     -10.969   8.609  71.343  1.00  0.00    -0.251 N  
HETATM   12  C   UNL     1     -11.364   7.571  70.292  1.00  0.00    -0.199 C  
HETATM   13  C   UNL     1     -11.255   8.062  72.744  1.00  0.00    -0.382 C  
BRANCH  11  14
HETATM   14  C   UNL     1     -11.748   9.930  71.113  1.00  0.00    -0.396 C  
BRANCH  14  15
HETATM   15  C   UNL     1     -11.385  10.602  69.797  1.00  0.00    -0.371 C  
BRANCH  15  16
HETATM   16  C   UNL     1     -11.757  12.077  69.785  1.00  0.00    -0.390 C  
BRANCH  16  17
HETATM   17  C   UNL     1     -11.498  12.627  68.386  1.00  0.00    -0.350 C  
BRANCH  17  18
HETATM   18  C   UNL     1     -10.180  13.378  68.315  1.00  0.00    -0.250 C  
BRANCH  18  19
HETATM   19  C   UNL     1      -9.996  13.966  66.922  1.00  0.00    -0.264 C  
BRANCH  19  20
HETATM   20  C   UNL     1      -8.778  14.883  66.884  1.00  0.00    -0.276 C  
BRANCH  20  21
HETATM   21  C   UNL     1      -9.082  16.163  66.113  1.00  0.00    -0.382 C  
BRANCH  21  22
HETATM   22  C   UNL     1      -9.623  17.239  67.048  1.00  0.00    -0.262 C  
HETATM   23  C   UNL     1     -10.213  18.400  66.268  1.00  0.00    -0.427 C  
ENDBRANCH  21  22
ENDBRANCH  20  21
ENDBRANCH  19  20
ENDBRANCH  18  19
ENDBRANCH  17  18
ENDBRANCH  16  17
ENDBRANCH  15  16
ENDBRANCH  14  15
ENDBRANCH  11  14
ENDBRANCH  10  11
ENDBRANCH   9  10
ENDBRANCH   8   9
ENDBRANCH   7   8
ENDBRANCH   6   7
ENDBRANCH   5   6
ENDBRANCH   4   5
ENDBRANCH   3   4
ENDBRANCH   2   3
TORSDOF 18
ENDMDL
MODEL      292
REMARK 921   NORMALIZED FREE ENERGY PREDICTED BY IDOCK:   -2.48 KCAL/MOL
REMARK 922        TOTAL FREE ENERGY PREDICTED BY IDOCK:   -7.80 KCAL/MOL
REMARK 923 INTER-LIGAND FREE ENERGY PREDICTED BY IDOCK:   -5.12 KCAL/MOL
REMARK 924 INTRA-LIGAND FREE ENERGY PREDICTED BY IDOCK:   -2.68 KCAL/MOL
REMARK 927      BINDING AFFINITY PREDICTED BY RF-SCORE:    0.00 PKD
ROOT
HETATM    1  C   UNL     1      -6.480  13.351  67.804  1.00  0.00    -0.165 C  
HETATM    2  C   UNL     1      -7.899  13.727  67.420  1.00  0.00    -0.167 C  
ENDROOT
BRANCH   2   3
HETATM    3  C   UNL     1      -8.804  12.499  67.383  1.00  0.00    -0.187 C  
BRANCH   3   4
HETATM    4  C   UNL     1     -10.061  12.782  66.568  1.00  0.00    -0.264 C  
BRANCH   4   5
HETATM    5  C   UNL     1     -10.732  11.487  66.136  1.00  0.00    -0.324 C  
BRANCH   5   6
HETATM    6  C   UNL     1     -10.392  11.162  64.685  1.00  0.00    -0.393 C  
BRANCH   6   7
HETATM    7  C   UNL     1      -9.505   9.930  64.625  1.00  0.00    -0.343 C  
BRANCH   7   8
HETATM    8  C   UNL     1      -8.026  10.294  64.715  1.00  0.00    -0.141 C  
BRANCH   8   9
HETATM    9  C   UNL     1      -7.254   9.053  65.141  1.00  0.00    -0.088 C  
BRANCH   9  10
HETATM   10  C   UNL     1      -8.089   7.787  65.006  1.00  0.00    -0.139 C  
BRANCH  10  11
HETATM   11  N   UNL     1      -7.976   6.865  66.249  1.00  0.00    -0.104 N  
HETATM   12  C   UNL     1      -7.662   5.432  65.819  1.00  0.00    -0.087 C  
HETATM   13  C   UNL     1      -6.880   7.375  67.188  1.00  0.00    -0.074 C  
BRANCH  11  14
HETATM   14  C   UNL     1      -9.357   6.926  66.952  1.00  0.00    -0.148 C  
BRANCH  14  15
HETATM   15  C   UNL     1      -9.290   7.599  68.315  1.00  0.00    -0.145 C  
BRANCH  15  16
HETATM   16  C   UNL     1     -10.185   8.828  68.391  1.00  0.00    -0.228 C  
BRANCH  16  17
HETATM   17  C   UNL     1      -9.769   9.650  69.606  1.00  0.00    -0.230 C  
BRANCH  17  18
HETATM   18  C   UNL     1      -8.737   8.921  70.449  1.00  0.00    -0.200 C  
BRANCH  18  19
HETATM   19  C   UNL     1      -9.195   8.877  71.901  1.00  0.00    -0.240 C  
BRANCH  19  20
HETATM   20  C   UNL     1      -9.985   7.602  72.175  1.00  0.00    -0.232 C  
BRANCH  20  21
HETATM   21  C   UNL     1     -11.413   7.926  72.605  1.00  0.00    -0.454 C  
BRANCH  21  22
HETATM   22  C   UNL     1     -12.400   7.580  71.497  1.00  0.00    -0.367 C  
HETATM   23  C   UNL     1     -11.854   6.489  70.593  1.00  0.00    -0.398 C  
ENDBRANCH  21  22
ENDBRANCH  20  21
ENDBRANCH  19  20
ENDBRANCH  18  19
ENDBRANCH  17  18
ENDBRANCH  16  17
ENDBRANCH  15  16
ENDBRANCH  14  15
ENDBRANCH  11  14
ENDBRANCH  10  11
ENDBRANCH   9  10
ENDBRANCH   8   9
ENDBRANCH   7   8
ENDBRANCH   6   7
ENDBRANCH   5   6
ENDBRANCH   4   5
ENDBRANCH   3   4
ENDBRANCH   2   3
TORSDOF 18
ENDMDL
MODEL      293
REMARK 921   NORMALIZED FREE ENERGY PREDICTED BY IDOCK:   -2.48 KCAL/MOL
REMARK 922        TOTAL FREE ENERGY PREDICTED BY IDOCK:   -7.78 KCAL/MOL
REMARK 923 INTER-LIGAND FREE ENERGY PREDICTED BY IDOCK:   -6.25 KCAL/MOL
REMARK 924 INTRA-LIGAND FREE ENERGY PREDICTED BY IDOCK:   -1.53 KCAL/MOL
REMARK 927      BINDING AFFINITY PREDICTED BY RF-SCORE:    0.00 PKD
ROOT
HETATM    1  C   UNL     1      -8.247   1.753  68.422  1.00  0.00    -0.071 C  
HETATM    2  C   UNL     1      -9.199   2.273  69.483  1.00  0.00    -0.185 C  
ENDROOT
BRANCH   2   3
HETATM    3  C   UNL     1      -9.552   3.737  69.238  1.00  0.00    -0.209 C  
BRANCH   3   4
HETATM    4  C   UNL     1      -9.952   4.419  70.541  1.00  0.00    -0.256 C  
BRANCH   4   5
HETATM    5  C   UNL     1     -10.012   3.416  71.683  1.00  0.00    -0.177 C  
BRANCH   5   6
HETATM    6  C   UNL     1      -9.944   4.129  73.030  1.00  0.00    -0.193 C  
BRANCH   6   7
HETATM    7  C   UNL     1      -9.661   5.606  72.819  1.00  0.00    -0.164 C  
BRANCH   7   8
HETATM    8  C   UNL     1     -10.260   6.461  73.932  1.00  0.00    -0.330 C  
BRANCH   8   9
HETATM    9  C   UNL     1     -10.920   7.676  73.298  1.00  0.00    -0.331 C  
BRANCH   9  10
HETATM   10  C   UNL     1     -10.151   8.175  72.082  1.00  0.00    -0.253 C  
BRANCH  10  11
HETATM   11  N   UNL     1     -11.085   8.572  70.909  1.00  0.00    -0.249 N  
HETATM   12  C   UNL     1     -12.278   7.618  70.833  1.00  0.00    -0.168 C  
HETATM   13  C   UNL     1     -11.583  10.008  71.093  1.00  0.00    -0.378 C  
BRANCH  11  14
HETATM   14  C   UNL     1     -10.226   8.462  69.623  1.00  0.00    -0.209 C  
BRANCH  14  15
HETATM   15  C   UNL     1     -10.626   9.479  68.564  1.00  0.00    -0.247 C  
BRANCH  15  16
HETATM   16  C   UNL     1      -9.441   9.917  67.714  1.00  0.00    -0.158 C  
BRANCH  16  17
HETATM   17  C   UNL     1      -9.751   9.594  66.256  1.00  0.00    -0.303 C  
BRANCH  17  18
HETATM   18  C   UNL     1      -9.175  10.639  65.316  1.00  0.00    -0.230 C  
BRANCH  18  19
HETATM   19  C   UNL     1     -10.076  10.790  64.098  1.00  0.00    -0.418 C  
BRANCH  19  20
HETATM   20  C   UNL     1     -10.516  12.241  63.934  1.00  0.00    -0.458 C  
BRANCH  20  21
HETATM   21  C   UNL     1     -11.965  12.426  64.375  1.00  0.00    -0.482 C  
BRANCH  21  22
HETATM   22  C   UNL     1     -12.032  12.844  65.839  1.00  0.00    -0.504 C  
HETATM   23  C   UNL     1     -10.902  13.794  66.193  1.00  0.00    -0.279 C  
ENDBRANCH  21  22
ENDBRANCH  20  21
ENDBRANCH  19  20
ENDBRANCH  18  19
ENDBRANCH  17  18
ENDBRANCH  16  17
ENDBRANCH  15  16
ENDBRANCH  14  15
ENDBRANCH  11  14
ENDBRANCH  10  11
ENDBRANCH   9  10
ENDBRANCH   8   9
ENDBRANCH   7   8
ENDBRANCH   6   7
ENDBRANCH   5   6
ENDBRANCH   4   5
ENDBRANCH   3   4
ENDBRANCH   2   3
TORSDOF 18
ENDMDL
MODEL      294
REMARK 921   NORMALIZED FREE ENERGY PREDICTED BY IDOCK:   -2.47 KCAL/MOL
REMARK 922        TOTAL FREE ENERGY PREDICTED BY IDOCK:   -7.78 KCAL/MOL
REMARK 923 INTER-LIGAND FREE ENERGY PREDICTED BY IDOCK:   -6.03 KCAL/MOL
REMARK 924 INTRA-LIGAND FREE ENERGY PREDICTED BY IDOCK:   -1.75 KCAL/MOL
REMARK 927      BINDING AFFINITY PREDICTED BY RF-SCORE:    0.00 PKD
ROOT
HETATM    1  C   UNL     1      -6.258   4.086  65.878  1.00  0.00    -0.032 C  
HETATM    2  C   UNL     1      -7.216   3.163  65.148  1.00  0.00    -0.066 C  
ENDROOT
BRANCH   2   3
HETATM    3  C   UNL     1      -7.617   3.743  63.795  1.00  0.00    -0.070 C  
BRANCH   3   4
HETATM    4  C   UNL     1      -9.002   4.374  63.869  1.00  0.00    -0.143 C  
BRANCH   4   5
HETATM    5  C   UNL     1      -9.860   3.680  64.917  1.00  0.00    -0.164 C  
BRANCH   5   6
HETATM    6  C   UNL     1     -10.739   4.690  65.647  1.00  0.00    -0.193 C  
BRANCH   6   7
HETATM    7  C   UNL     1      -9.895   5.513  66.604  1.00  0.00    -0.190 C  
BRANCH   7   8
HETATM    8  C   UNL     1     -10.757   6.392  67.505  1.00  0.00    -0.396 C  
BRANCH   8   9
HETATM    9  C   UNL     1     -10.517   5.979  68.949  1.00  0.00    -0.309 C  
BRANCH   9  10
HETATM   10  C   UNL     1     -11.491   6.651  69.906  1.00  0.00    -0.354 C  
BRANCH  10  11
HETATM   11  N   UNL     1     -11.024   6.575  71.383  1.00  0.00    -0.248 N  
HETATM   12  C   UNL     1     -10.490   5.177  71.699  1.00  0.00    -0.185 C  
HETATM   13  C   UNL     1      -9.934   7.616  71.647  1.00  0.00    -0.176 C  
BRANCH  11  14
HETATM   14  C   UNL     1     -12.277   6.879  72.244  1.00  0.00    -0.138 C  
BRANCH  14  15
HETATM   15  C   UNL     1     -13.533   7.065  71.405  1.00  0.00    -0.323 C  
BRANCH  15  16
HETATM   16  C   UNL     1     -14.181   8.422  71.637  1.00  0.00    -0.516 C  
BRANCH  16  17
HETATM   17  C   UNL     1     -13.280   9.232  72.564  1.00  0.00    -0.439 C  
BRANCH  17  18
HETATM   18  C   UNL     1     -12.791  10.506  71.897  1.00  0.00    -0.509 C  
BRANCH  18  19
HETATM   19  C   UNL     1     -13.009  10.418  70.393  1.00  0.00    -0.188 C  
BRANCH  19  20
HETATM   20  C   UNL     1     -11.951  11.225  69.650  1.00  0.00    -0.423 C  
BRANCH  20  21
HETATM   21  C   UNL     1     -10.758  10.351  69.277  1.00  0.00    -0.270 C  
BRANCH  21  22
HETATM   22  C   UNL     1     -10.679  10.165  67.766  1.00  0.00    -0.328 C  
HETATM   23  C   UNL     1     -11.082  11.432  67.034  1.00  0.00    -0.364 C  
ENDBRANCH  21  22
ENDBRANCH  20  21
ENDBRANCH  19  20
ENDBRANCH  18  19
ENDBRANCH  17  18
ENDBRANCH  16  17
ENDBRANCH  15  16
ENDBRANCH  14  15
ENDBRANCH  11  14
ENDBRANCH  10  11
ENDBRANCH   9  10
ENDBRANCH   8   9
ENDBRANCH   7   8
ENDBRANCH   6   7
ENDBRANCH   5   6
ENDBRANCH   4   5
ENDBRANCH   3   4
ENDBRANCH   2   3
TORSDOF 18
ENDMDL
MODEL      295
REMARK 921   NORMALIZED FREE ENERGY PREDICTED BY IDOCK:   -2.47 KCAL/MOL
REMARK 922        TOTAL FREE ENERGY PREDICTED BY IDOCK:   -7.78 KCAL/MOL
REMARK 923 INTER-LIGAND FREE ENERGY PREDICTED BY IDOCK:   -6.04 KCAL/MOL
REMARK 924 INTRA-LIGAND FREE ENERGY PREDICTED BY IDOCK:   -1.74 KCAL/MOL
REMARK 927      BINDING AFFINITY PREDICTED BY RF-SCORE:    0.00 PKD
ROOT
HETATM    1  C   UNL     1      -9.429   6.825  71.072  1.00  0.00    -0.165 C  
HETATM    2  C   UNL     1     -10.875   6.774  70.616  1.00  0.00    -0.292 C  
ENDROOT
BRANCH   2   3
HETATM    3  C   UNL     1     -11.817   6.534  71.793  1.00  0.00    -0.384 C  
BRANCH   3   4
HETATM    4  C   UNL     1     -12.653   7.777  72.074  1.00  0.00    -0.298 C  
BRANCH   4   5
HETATM    5  C   UNL     1     -11.773   9.015  72.163  1.00  0.00    -0.366 C  
BRANCH   5   6
HETATM    6  C   UNL     1     -12.522  10.244  71.658  1.00  0.00    -0.491 C  
BRANCH   6   7
HETATM    7  C   UNL     1     -12.285  10.418  70.168  1.00  0.00    -0.305 C  
BRANCH   7   8
HETATM    8  C   UNL     1     -10.803  10.335  69.818  1.00  0.00    -0.332 C  
BRANCH   8   9
HETATM    9  C   UNL     1     -10.676  10.135  68.315  1.00  0.00    -0.277 C  
BRANCH   9  10
HETATM   10  C   UNL     1      -9.365   9.461  67.936  1.00  0.00    -0.129 C  
BRANCH  10  11
HETATM   11  N   UNL     1      -8.866   9.878  66.529  1.00  0.00    -0.138 N  
HETATM   12  C   UNL     1      -7.363   9.626  66.402  1.00  0.00    -0.094 C  
HETATM   13  C   UNL     1      -9.614   9.093  65.448  1.00  0.00    -0.096 C  
BRANCH  11  14
HETATM   14  C   UNL     1      -9.169  11.393  66.399  1.00  0.00    -0.197 C  
BRANCH  14  15
HETATM   15  C   UNL     1      -8.080  12.262  67.010  1.00  0.00    -0.141 C  
BRANCH  15  16
HETATM   16  C   UNL     1      -8.625  13.194  68.082  1.00  0.00    -0.181 C  
BRANCH  16  17
HETATM   17  C   UNL     1     -10.007  13.670  67.647  1.00  0.00    -0.239 C  
BRANCH  17  18
HETATM   18  C   UNL     1     -10.088  15.187  67.598  1.00  0.00    -0.231 C  
BRANCH  18  19
HETATM   19  C   UNL     1     -10.565  15.633  66.222  1.00  0.00    -0.310 C  
BRANCH  19  20
HETATM   20  C   UNL     1     -10.525  17.154  66.110  1.00  0.00    -0.277 C  
BRANCH  20  21
HETATM   21  C   UNL     1      -9.378  17.733  66.933  1.00  0.00    -0.272 C  
BRANCH  21  22
HETATM   22  C   UNL     1      -9.784  19.062  67.560  1.00  0.00    -0.371 C  
HETATM   23  C   UNL     1      -8.981  20.212  66.981  1.00  0.00    -0.453 C  
ENDBRANCH  21  22
ENDBRANCH  20  21
ENDBRANCH  19  20
ENDBRANCH  18  19
ENDBRANCH  17  18
ENDBRANCH  16  17
ENDBRANCH  15  16
ENDBRANCH  14  15
ENDBRANCH  11  14
ENDBRANCH  10  11
ENDBRANCH   9  10
ENDBRANCH   8   9
ENDBRANCH   7   8
ENDBRANCH   6   7
ENDBRANCH   5   6
ENDBRANCH   4   5
ENDBRANCH   3   4
ENDBRANCH   2   3
TORSDOF 18
ENDMDL
MODEL      296
REMARK 921   NORMALIZED FREE ENERGY PREDICTED BY IDOCK:   -2.47 KCAL/MOL
REMARK 922        TOTAL FREE ENERGY PREDICTED BY IDOCK:   -7.76 KCAL/MOL
REMARK 923 INTER-LIGAND FREE ENERGY PREDICTED BY IDOCK:   -5.56 KCAL/MOL
REMARK 924 INTRA-LIGAND FREE ENERGY PREDICTED BY IDOCK:   -2.20 KCAL/MOL
REMARK 927      BINDING AFFINITY PREDICTED BY RF-SCORE:    0.00 PKD
ROOT
HETATM    1  C   UNL     1      -9.159  16.800  67.233  1.00  0.00    -0.228 C  
HETATM    2  C   UNL     1      -9.312  15.896  66.024  1.00  0.00    -0.385 C  
ENDROOT
BRANCH   2   3
HETATM    3  C   UNL     1      -9.839  14.522  66.426  1.00  0.00    -0.306 C  
BRANCH   3   4
HETATM    4  C   UNL     1     -10.907  14.650  67.506  1.00  0.00    -0.286 C  
BRANCH   4   5
HETATM    5  C   UNL     1     -10.802  13.513  68.512  1.00  0.00    -0.283 C  
BRANCH   5   6
HETATM    6  C   UNL     1     -12.106  13.358  69.287  1.00  0.00    -0.312 C  
BRANCH   6   7
HETATM    7  C   UNL     1     -11.987  12.210  70.274  1.00  0.00    -0.389 C  
BRANCH   7   8
HETATM    8  C   UNL     1     -12.453  10.891  69.665  1.00  0.00    -0.198 C  
BRANCH   8   9
HETATM    9  C   UNL     1     -11.247   9.972  69.537  1.00  0.00    -0.254 C  
BRANCH   9  10
HETATM   10  C   UNL     1     -10.600   9.686  70.885  1.00  0.00    -0.316 C  
BRANCH  10  11
HETATM   11  N   UNL     1     -10.735   8.199  71.306  1.00  0.00    -0.223 N  
HETATM   12  C   UNL     1     -11.578   8.082  72.577  1.00  0.00    -0.403 C  
HETATM   13  C   UNL     1     -11.381   7.387  70.181  1.00  0.00    -0.177 C  
BRANCH  11  14
HETATM   14  C   UNL     1      -9.292   7.697  71.570  1.00  0.00    -0.136 C  
BRANCH  14  15
HETATM   15  C   UNL     1      -8.234   8.678  71.088  1.00  0.00    -0.187 C  
BRANCH  15  16
HETATM   16  C   UNL     1      -7.195   8.009  70.200  1.00  0.00    -0.056 C  
BRANCH  16  17
HETATM   17  C   UNL     1      -7.920   7.314  69.052  1.00  0.00    -0.119 C  
BRANCH  17  18
HETATM   18  C   UNL     1      -7.457   7.833  67.701  1.00  0.00    -0.104 C  
BRANCH  18  19
HETATM   19  C   UNL     1      -8.430   7.387  66.617  1.00  0.00    -0.124 C  
BRANCH  19  20
HETATM   20  C   UNL     1      -9.699   8.230  66.657  1.00  0.00    -0.321 C  
BRANCH  20  21
HETATM   21  C   UNL     1      -9.636   9.362  65.637  1.00  0.00    -0.345 C  
BRANCH  21  22
HETATM   22  C   UNL     1      -9.773  10.716  66.325  1.00  0.00    -0.245 C  
HETATM   23  C   UNL     1      -8.417  11.271  66.722  1.00  0.00    -0.161 C  
ENDBRANCH  21  22
ENDBRANCH  20  21
ENDBRANCH  19  20
ENDBRANCH  18  19
ENDBRANCH  17  18
ENDBRANCH  16  17
ENDBRANCH  15  16
ENDBRANCH  14  15
ENDBRANCH  11  14
ENDBRANCH  10  11
ENDBRANCH   9  10
ENDBRANCH   8   9
ENDBRANCH   7   8
ENDBRANCH   6   7
ENDBRANCH   5   6
ENDBRANCH   4   5
ENDBRANCH   3   4
ENDBRANCH   2   3
TORSDOF 18
ENDMDL
MODEL      297
REMARK 921   NORMALIZED FREE ENERGY PREDICTED BY IDOCK:   -2.47 KCAL/MOL
REMARK 922        TOTAL FREE ENERGY PREDICTED BY IDOCK:   -7.76 KCAL/MOL
REMARK 923 INTER-LIGAND FREE ENERGY PREDICTED BY IDOCK:   -6.33 KCAL/MOL
REMARK 924 INTRA-LIGAND FREE ENERGY PREDICTED BY IDOCK:   -1.44 KCAL/MOL
REMARK 927      BINDING AFFINITY PREDICTED BY RF-SCORE:    0.00 PKD
ROOT
HETATM    1  C   UNL     1      -9.208   3.210  70.470  1.00  0.00    -0.210 C  
HETATM    2  C   UNL     1      -9.899   4.257  71.324  1.00  0.00    -0.257 C  
ENDROOT
BRANCH   2   3
HETATM    3  C   UNL     1      -9.722   5.653  70.736  1.00  0.00    -0.228 C  
BRANCH   3   4
HETATM    4  C   UNL     1     -11.008   6.460  70.869  1.00  0.00    -0.335 C  
BRANCH   4   5
HETATM    5  C   UNL     1     -11.129   7.479  69.745  1.00  0.00    -0.143 C  
BRANCH   5   6
HETATM    6  C   UNL     1     -10.177   7.137  68.604  1.00  0.00    -0.186 C  
BRANCH   6   7
HETATM    7  C   UNL     1     -10.345   8.137  67.473  1.00  0.00    -0.330 C  
BRANCH   7   8
HETATM    8  C   UNL     1      -9.086   8.974  67.268  1.00  0.00    -0.151 C  
BRANCH   8   9
HETATM    9  C   UNL     1      -9.444  10.437  67.484  1.00  0.00    -0.167 C  
BRANCH   9  10
HETATM   10  C   UNL     1     -10.763  10.806  66.819  1.00  0.00    -0.231 C  
BRANCH  10  11
HETATM   11  N   UNL     1     -10.586  11.845  65.681  1.00  0.00    -0.259 N  
HETATM   12  C   UNL     1      -9.958  11.184  64.453  1.00  0.00    -0.301 C  
HETATM   13  C   UNL     1     -11.939  12.453  65.305  1.00  0.00    -0.404 C  
BRANCH  11  14
HETATM   14  C   UNL     1      -9.643  12.939  66.244  1.00  0.00    -0.243 C  
BRANCH  14  15
HETATM   15  C   UNL     1     -10.130  14.347  65.934  1.00  0.00    -0.344 C  
BRANCH  15  16
HETATM   16  C   UNL     1      -9.733  15.341  67.016  1.00  0.00    -0.232 C  
BRANCH  16  17
HETATM   17  C   UNL     1      -8.288  15.765  66.772  1.00  0.00    -0.309 C  
BRANCH  17  18
HETATM   18  C   UNL     1      -7.677  16.408  68.005  1.00  0.00    -0.159 C  
BRANCH  18  19
HETATM   19  C   UNL     1      -6.903  17.657  67.604  1.00  0.00    -0.185 C  
BRANCH  19  20
HETATM   20  C   UNL     1      -7.860  18.786  67.237  1.00  0.00    -0.243 C  
BRANCH  20  21
HETATM   21  C   UNL     1      -8.683  19.219  68.447  1.00  0.00    -0.395 C  
BRANCH  21  22
HETATM   22  C   UNL     1     -10.136  19.460  68.050  1.00  0.00    -0.516 C  
HETATM   23  C   UNL     1     -10.423  18.926  66.659  1.00  0.00    -0.496 C  
ENDBRANCH  21  22
ENDBRANCH  20  21
ENDBRANCH  19  20
ENDBRANCH  18  19
ENDBRANCH  17  18
ENDBRANCH  16  17
ENDBRANCH  15  16
ENDBRANCH  14  15
ENDBRANCH  11  14
ENDBRANCH  10  11
ENDBRANCH   9  10
ENDBRANCH   8   9
ENDBRANCH   7   8
ENDBRANCH   6   7
ENDBRANCH   5   6
ENDBRANCH   4   5
ENDBRANCH   3   4
ENDBRANCH   2   3
TORSDOF 18
ENDMDL
MODEL      298
REMARK 921   NORMALIZED FREE ENERGY PREDICTED BY IDOCK:   -2.45 KCAL/MOL
REMARK 922        TOTAL FREE ENERGY PREDICTED BY IDOCK:   -7.73 KCAL/MOL
REMARK 923 INTER-LIGAND FREE ENERGY PREDICTED BY IDOCK:   -5.60 KCAL/MOL
REMARK 924 INTRA-LIGAND FREE ENERGY PREDICTED BY IDOCK:   -2.12 KCAL/MOL
REMARK 927      BINDING AFFINITY PREDICTED BY RF-SCORE:    0.00 PKD
ROOT
HETATM    1  C   UNL     1     -10.945   5.870  66.718  1.00  0.00    -0.280 C  
HETATM    2  C   UNL     1      -9.470   5.539  66.596  1.00  0.00    -0.154 C  
ENDROOT
BRANCH   2   3
HETATM    3  C   UNL     1      -8.609   6.789  66.755  1.00  0.00    -0.119 C  
BRANCH   3   4
HETATM    4  C   UNL     1      -9.451   8.048  66.581  1.00  0.00    -0.273 C  
BRANCH   4   5
HETATM    5  C   UNL     1      -8.967   9.157  67.503  1.00  0.00    -0.131 C  
BRANCH   5   6
HETATM    6  C   UNL     1      -7.448   9.118  67.642  1.00  0.00    -0.084 C  
BRANCH   6   7
HETATM    7  C   UNL     1      -7.052   9.415  69.078  1.00  0.00    -0.066 C  
BRANCH   7   8
HETATM    8  C   UNL     1      -8.249   9.339  70.021  1.00  0.00    -0.160 C  
BRANCH   8   9
HETATM    9  C   UNL     1      -8.171   8.025  70.786  1.00  0.00    -0.113 C  
BRANCH   9  10
HETATM   10  C   UNL     1      -9.489   7.264  70.748  1.00  0.00    -0.164 C  
BRANCH  10  11
HETATM   11  N   UNL     1     -10.084   7.033  72.162  1.00  0.00    -0.180 N  
HETATM   12  C   UNL     1      -9.960   5.561  72.556  1.00  0.00    -0.169 C  
HETATM   13  C   UNL     1      -9.359   7.906  73.189  1.00  0.00    -0.272 C  
BRANCH  11  14
HETATM   14  C   UNL     1     -11.577   7.441  72.069  1.00  0.00    -0.284 C  
BRANCH  14  15
HETATM   15  C   UNL     1     -11.863   8.348  70.882  1.00  0.00    -0.237 C  
BRANCH  15  16
HETATM   16  C   UNL     1     -12.108   9.789  71.308  1.00  0.00    -0.470 C  
BRANCH  16  17
HETATM   17  C   UNL     1     -11.358  10.707  70.348  1.00  0.00    -0.389 C  
BRANCH  17  18
HETATM   18  C   UNL     1     -12.250  11.179  69.212  1.00  0.00    -0.295 C  
BRANCH  18  19
HETATM   19  C   UNL     1     -11.398  11.539  68.002  1.00  0.00    -0.368 C  
BRANCH  19  20
HETATM   20  C   UNL     1     -11.742  12.937  67.501  1.00  0.00    -0.422 C  
BRANCH  20  21
HETATM   21  C   UNL     1     -11.787  13.935  68.655  1.00  0.00    -0.407 C  
BRANCH  21  22
HETATM   22  C   UNL     1     -10.395  14.488  68.941  1.00  0.00    -0.237 C  
HETATM   23  C   UNL     1     -10.457  15.666  69.896  1.00  0.00    -0.327 C  
ENDBRANCH  21  22
ENDBRANCH  20  21
ENDBRANCH  19  20
ENDBRANCH  18  19
ENDBRANCH  17  18
ENDBRANCH  16  17
ENDBRANCH  15  16
ENDBRANCH  14  15
ENDBRANCH  11  14
ENDBRANCH  10  11
ENDBRANCH   9  10
ENDBRANCH   8   9
ENDBRANCH   7   8
ENDBRANCH   6   7
ENDBRANCH   5   6
ENDBRANCH   4   5
ENDBRANCH   3   4
ENDBRANCH   2   3
TORSDOF 18
ENDMDL
MODEL      299
REMARK 921   NORMALIZED FREE ENERGY PREDICTED BY IDOCK:   -2.44 KCAL/MOL
REMARK 922        TOTAL FREE ENERGY PREDICTED BY IDOCK:   -7.71 KCAL/MOL
REMARK 923 INTER-LIGAND FREE ENERGY PREDICTED BY IDOCK:   -6.07 KCAL/MOL
REMARK 924 INTRA-LIGAND FREE ENERGY PREDICTED BY IDOCK:   -1.64 KCAL/MOL
REMARK 927      BINDING AFFINITY PREDICTED BY RF-SCORE:    0.00 PKD
ROOT
HETATM    1  C   UNL     1      -8.776  11.784  68.071  1.00  0.00    -0.167 C  
HETATM    2  C   UNL     1      -7.802  12.074  66.944  1.00  0.00    -0.095 C  
ENDROOT
BRANCH   2   3
HETATM    3  C   UNL     1      -6.788  10.945  66.787  1.00  0.00    -0.121 C  
BRANCH   3   4
HETATM    4  C   UNL     1      -7.363   9.630  67.302  1.00  0.00    -0.087 C  
BRANCH   4   5
HETATM    5  C   UNL     1      -7.043   8.488  66.350  1.00  0.00    -0.079 C  
BRANCH   5   6
HETATM    6  C   UNL     1      -6.825   9.012  64.934  1.00  0.00    -0.076 C  
BRANCH   6   7
HETATM    7  C   UNL     1      -7.630   8.185  63.947  1.00  0.00    -0.127 C  
BRANCH   7   8
HETATM    8  C   UNL     1      -8.526   9.060  63.076  1.00  0.00    -0.190 C  
BRANCH   8   9
HETATM    9  C   UNL     1      -9.014  10.231  63.917  1.00  0.00    -0.259 C  
BRANCH   9  10
HETATM   10  C   UNL     1      -9.969  11.131  63.145  1.00  0.00    -0.356 C  
BRANCH  10  11
HETATM   11  N   UNL     1     -10.936  11.908  64.075  1.00  0.00    -0.348 N  
HETATM   12  C   UNL     1     -12.270  12.153  63.367  1.00  0.00    -0.530 C  
HETATM   13  C   UNL     1     -11.174  11.123  65.367  1.00  0.00     0.091 C  
BRANCH  11  14
HETATM   14  C   UNL     1     -10.238  13.257  64.387  1.00  0.00    -0.277 C  
BRANCH  14  15
HETATM   15  C   UNL     1     -11.060  14.141  65.313  1.00  0.00    -0.331 C  
BRANCH  15  16
HETATM   16  C   UNL     1     -10.645  15.603  65.227  1.00  0.00    -0.448 C  
BRANCH  16  17
HETATM   17  C   UNL     1     -10.050  16.013  66.570  1.00  0.00    -0.297 C  
BRANCH  17  18
HETATM   18  C   UNL     1      -8.534  16.102  66.508  1.00  0.00    -0.346 C  
BRANCH  18  19
HETATM   19  C   UNL     1      -8.106  17.562  66.454  1.00  0.00    -0.309 C  
BRANCH  19  20
HETATM   20  C   UNL     1      -9.310  18.465  66.208  1.00  0.00    -0.231 C  
BRANCH  20  21
HETATM   21  C   UNL     1      -8.930  19.935  66.355  1.00  0.00    -0.434 C  
BRANCH  21  22
HETATM   22  C   UNL     1      -9.841  20.627  67.363  1.00  0.00    -0.527 C  
HETATM   23  C   UNL     1     -10.236  19.686  68.485  1.00  0.00    -0.529 C  
ENDBRANCH  21  22
ENDBRANCH  20  21
ENDBRANCH  19  20
ENDBRANCH  18  19
ENDBRANCH  17  18
ENDBRANCH  16  17
ENDBRANCH  15  16
ENDBRANCH  14  15
ENDBRANCH  11  14
ENDBRANCH  10  11
ENDBRANCH   9  10
ENDBRANCH   8   9
ENDBRANCH   7   8
ENDBRANCH   6   7
ENDBRANCH   5   6
ENDBRANCH   4   5
ENDBRANCH   3   4
ENDBRANCH   2   3
TORSDOF 18
ENDMDL
MODEL      300
REMARK 921   NORMALIZED FREE ENERGY PREDICTED BY IDOCK:   -2.43 KCAL/MOL
REMARK 922        TOTAL FREE ENERGY PREDICTED BY IDOCK:   -7.69 KCAL/MOL
REMARK 923 INTER-LIGAND FREE ENERGY PREDICTED BY IDOCK:   -6.21 KCAL/MOL
REMARK 924 INTRA-LIGAND FREE ENERGY PREDICTED BY IDOCK:   -1.48 KCAL/MOL
REMARK 927      BINDING AFFINITY PREDICTED BY RF-SCORE:    0.00 PKD
ROOT
HETATM    1  C   UNL     1      -8.641  17.020  68.204  1.00  0.00    -0.228 C  
HETATM    2  C   UNL     1      -9.433  16.517  67.012  1.00  0.00    -0.249 C  
ENDROOT
BRANCH   2   3
HETATM    3  C   UNL     1     -10.763  15.910  67.449  1.00  0.00    -0.313 C  
BRANCH   3   4
HETATM    4  C   UNL     1     -11.152  14.753  66.536  1.00  0.00    -0.334 C  
BRANCH   4   5
HETATM    5  C   UNL     1     -11.007  15.144  65.072  1.00  0.00    -0.443 C  
BRANCH   5   6
HETATM    6  C   UNL     1     -11.926  14.298  64.196  1.00  0.00    -0.401 C  
BRANCH   6   7
HETATM    7  C   UNL     1     -11.952  12.867  64.706  1.00  0.00    -0.445 C  
BRANCH   7   8
HETATM    8  C   UNL     1     -11.688  11.864  63.587  1.00  0.00    -0.572 C  
BRANCH   8   9
HETATM    9  C   UNL     1     -10.335  11.215  63.836  1.00  0.00    -0.441 C  
BRANCH   9  10
HETATM   10  C   UNL     1      -9.793  11.538  65.222  1.00  0.00    -0.250 C  
BRANCH  10  11
HETATM   11  N   UNL     1      -9.307  10.275  65.980  1.00  0.00    -0.172 N  
HETATM   12  C   UNL     1      -8.748   9.247  64.995  1.00  0.00    -0.190 C  
HETATM   13  C   UNL     1      -8.230  10.652  67.000  1.00  0.00    -0.124 C  
BRANCH  11  14
HETATM   14  C   UNL     1     -10.554   9.704  66.702  1.00  0.00    -0.103 C  
BRANCH  14  15
HETATM   15  C   UNL     1     -10.523   8.187  66.812  1.00  0.00    -0.316 C  
BRANCH  15  16
HETATM   16  C   UNL     1     -10.455   7.719  68.259  1.00  0.00    -0.215 C  
BRANCH  16  17
HETATM   17  C   UNL     1     -10.152   8.926  69.140  1.00  0.00    -0.202 C  
BRANCH  17  18
HETATM   18  C   UNL     1     -10.255   8.583  70.616  1.00  0.00    -0.230 C  
BRANCH  18  19
HETATM   19  C   UNL     1      -9.294   7.450  70.951  1.00  0.00    -0.155 C  
BRANCH  19  20
HETATM   20  C   UNL     1      -9.890   6.541  72.020  1.00  0.00    -0.169 C  
BRANCH  20  21
HETATM   21  C   UNL     1     -10.054   5.117  71.498  1.00  0.00    -0.257 C  
BRANCH  21  22
HETATM   22  C   UNL     1      -9.013   4.814  70.426  1.00  0.00    -0.147 C  
HETATM   23  C   UNL     1      -9.644   4.147  69.218  1.00  0.00    -0.256 C  
ENDBRANCH  21  22
ENDBRANCH  20  21
ENDBRANCH  19  20
ENDBRANCH  18  19
ENDBRANCH  17  18
ENDBRANCH  16  17
ENDBRANCH  15  16
ENDBRANCH  14  15
ENDBRANCH  11  14
ENDBRANCH  10  11
ENDBRANCH   9  10
ENDBRANCH   8   9
ENDBRANCH   7   8
ENDBRANCH   6   7
ENDBRANCH   5   6
ENDBRANCH   4   5
ENDBRANCH   3   4
ENDBRANCH   2   3
TORSDOF 18
ENDMDL
MODEL      301
REMARK 921   NORMALIZED FREE ENERGY PREDICTED BY IDOCK:   -2.43 KCAL/MOL
REMARK 922        TOTAL FREE ENERGY PREDICTED BY IDOCK:   -7.69 KCAL/MOL
REMARK 923 INTER-LIGAND FREE ENERGY PREDICTED BY IDOCK:   -5.92 KCAL/MOL
REMARK 924 INTRA-LIGAND FREE ENERGY PREDICTED BY IDOCK:   -1.77 KCAL/MOL
REMARK 927      BINDING AFFINITY PREDICTED BY RF-SCORE:    0.00 PKD
ROOT
HETATM    1  C   UNL     1     -12.995  15.382  70.999  1.00  0.00    -0.556 C  
HETATM    2  C   UNL     1     -12.162  15.339  69.731  1.00  0.00    -0.326 C  
ENDROOT
BRANCH   2   3
HETATM    3  C   UNL     1     -10.694  15.634  70.025  1.00  0.00    -0.345 C  
BRANCH   3   4
HETATM    4  C   UNL     1     -10.060  16.408  68.876  1.00  0.00    -0.255 C  
BRANCH   4   5
HETATM    5  C   UNL     1     -10.933  16.344  67.631  1.00  0.00    -0.225 C  
BRANCH   5   6
HETATM    6  C   UNL     1     -10.142  15.798  66.447  1.00  0.00    -0.305 C  
BRANCH   6   7
HETATM    7  C   UNL     1     -10.754  14.490  65.975  1.00  0.00    -0.306 C  
BRANCH   7   8
HETATM    8  C   UNL     1      -9.947  13.285  66.449  1.00  0.00    -0.288 C  
BRANCH   8   9
HETATM    9  C   UNL     1     -10.874  12.367  67.232  1.00  0.00    -0.279 C  
BRANCH   9  10
HETATM   10  C   UNL     1     -10.231  11.870  68.520  1.00  0.00    -0.215 C  
BRANCH  10  11
HETATM   11  N   UNL     1      -9.898  10.356  68.473  1.00  0.00    -0.161 N  
HETATM   12  C   UNL     1     -10.680   9.675  67.348  1.00  0.00    -0.241 C  
HETATM   13  C   UNL     1      -8.397  10.151  68.256  1.00  0.00    -0.115 C  
BRANCH  11  14
HETATM   14  C   UNL     1     -10.326   9.781  69.848  1.00  0.00    -0.254 C  
BRANCH  14  15
HETATM   15  C   UNL     1      -9.988   8.305  69.996  1.00  0.00    -0.188 C  
BRANCH  15  16
HETATM   16  C   UNL     1     -11.203   7.477  70.390  1.00  0.00    -0.270 C  
BRANCH  16  17
HETATM   17  C   UNL     1     -11.691   7.959  71.753  1.00  0.00    -0.329 C  
BRANCH  17  18
HETATM   18  C   UNL     1     -11.008   7.214  72.888  1.00  0.00    -0.359 C  
BRANCH  18  19
HETATM   19  C   UNL     1     -11.494   5.771  72.924  1.00  0.00    -0.261 C  
BRANCH  19  20
HETATM   20  C   UNL     1     -10.343   4.827  73.252  1.00  0.00    -0.233 C  
BRANCH  20  21
HETATM   21  C   UNL     1      -9.636   4.366  71.981  1.00  0.00    -0.209 C  
BRANCH  21  22
HETATM   22  C   UNL     1      -8.286   5.060  71.835  1.00  0.00    -0.120 C  
HETATM   23  C   UNL     1      -7.273   4.508  72.822  1.00  0.00    -0.081 C  
ENDBRANCH  21  22
ENDBRANCH  20  21
ENDBRANCH  19  20
ENDBRANCH  18  19
ENDBRANCH  17  18
ENDBRANCH  16  17
ENDBRANCH  15  16
ENDBRANCH  14  15
ENDBRANCH  11  14
ENDBRANCH  10  11
ENDBRANCH   9  10
ENDBRANCH   8   9
ENDBRANCH   7   8
ENDBRANCH   6   7
ENDBRANCH   5   6
ENDBRANCH   4   5
ENDBRANCH   3   4
ENDBRANCH   2   3
TORSDOF 18
ENDMDL
MODEL      302
REMARK 921   NORMALIZED FREE ENERGY PREDICTED BY IDOCK:   -2.43 KCAL/MOL
REMARK 922        TOTAL FREE ENERGY PREDICTED BY IDOCK:   -7.68 KCAL/MOL
REMARK 923 INTER-LIGAND FREE ENERGY PREDICTED BY IDOCK:   -6.38 KCAL/MOL
REMARK 924 INTRA-LIGAND FREE ENERGY PREDICTED BY IDOCK:   -1.30 KCAL/MOL
REMARK 927      BINDING AFFINITY PREDICTED BY RF-SCORE:    0.00 PKD
ROOT
HETATM    1  C   UNL     1     -12.038  12.877  63.467  1.00  0.00    -0.633 C  
HETATM    2  C   UNL     1     -12.533  12.487  64.848  1.00  0.00    -0.524 C  
ENDROOT
BRANCH   2   3
HETATM    3  C   UNL     1     -12.346  13.629  65.843  1.00  0.00    -0.516 C  
BRANCH   3   4
HETATM    4  C   UNL     1     -11.768  13.109  67.154  1.00  0.00    -0.430 C  
BRANCH   4   5
HETATM    5  C   UNL     1     -11.055  11.782  66.946  1.00  0.00    -0.361 C  
BRANCH   5   6
HETATM    6  C   UNL     1     -11.310  10.843  68.121  1.00  0.00    -0.383 C  
BRANCH   6   7
HETATM    7  C   UNL     1     -12.061  11.580  69.217  1.00  0.00    -0.344 C  
BRANCH   7   8
HETATM    8  C   UNL     1     -11.977  10.845  70.551  1.00  0.00    -0.466 C  
BRANCH   8   9
HETATM    9  C   UNL     1     -11.395   9.462  70.299  1.00  0.00    -0.261 C  
BRANCH   9  10
HETATM   10  C   UNL     1     -11.375   8.612  71.562  1.00  0.00    -0.289 C  
BRANCH  10  11
HETATM   11  N   UNL     1     -12.060   7.235  71.364  1.00  0.00    -0.317 N  
HETATM   12  C   UNL     1     -13.570   7.358  71.571  1.00  0.00    -0.370 C  
HETATM   13  C   UNL     1     -11.773   6.699  69.959  1.00  0.00    -0.317 C  
BRANCH  11  14
HETATM   14  C   UNL     1     -11.446   6.294  72.433  1.00  0.00    -0.293 C  
BRANCH  14  15
HETATM   15  C   UNL     1      -9.948   6.501  72.604  1.00  0.00    -0.185 C  
BRANCH  15  16
HETATM   16  C   UNL     1      -9.556   6.667  74.065  1.00  0.00    -0.257 C  
BRANCH  16  17
HETATM   17  C   UNL     1      -8.928   5.362  74.544  1.00  0.00    -0.117 C  
BRANCH  17  18
HETATM   18  C   UNL     1      -8.295   4.591  73.398  1.00  0.00    -0.102 C  
BRANCH  18  19
HETATM   19  C   UNL     1      -8.060   3.146  73.816  1.00  0.00    -0.073 C  
BRANCH  19  20
HETATM   20  C   UNL     1      -7.165   2.435  72.807  1.00  0.00    -0.032 C  
BRANCH  20  21
HETATM   21  C   UNL     1      -7.790   2.451  71.416  1.00  0.00    -0.040 C  
BRANCH  21  22
HETATM   22  C   UNL     1      -6.748   2.812  70.363  1.00  0.00    -0.033 C  
HETATM   23  C   UNL     1      -6.979   4.209  69.816  1.00  0.00    -0.042 C  
ENDBRANCH  21  22
ENDBRANCH  20  21
ENDBRANCH  19  20
ENDBRANCH  18  19
ENDBRANCH  17  18
ENDBRANCH  16  17
ENDBRANCH  15  16
ENDBRANCH  14  15
ENDBRANCH  11  14
ENDBRANCH  10  11
ENDBRANCH   9  10
ENDBRANCH   8   9
ENDBRANCH   7   8
ENDBRANCH   6   7
ENDBRANCH   5   6
ENDBRANCH   4   5
ENDBRANCH   3   4
ENDBRANCH   2   3
TORSDOF 18
ENDMDL
MODEL      303
REMARK 921   NORMALIZED FREE ENERGY PREDICTED BY IDOCK:   -2.43 KCAL/MOL
REMARK 922        TOTAL FREE ENERGY PREDICTED BY IDOCK:   -7.68 KCAL/MOL
REMARK 923 INTER-LIGAND FREE ENERGY PREDICTED BY IDOCK:   -6.14 KCAL/MOL
REMARK 924 INTRA-LIGAND FREE ENERGY PREDICTED BY IDOCK:   -1.54 KCAL/MOL
REMARK 927      BINDING AFFINITY PREDICTED BY RF-SCORE:    0.00 PKD
ROOT
HETATM    1  C   UNL     1      -7.750   3.341  62.867  1.00  0.00    -0.066 C  
HETATM    2  C   UNL     1      -8.246   4.724  63.245  1.00  0.00    -0.106 C  
ENDROOT
BRANCH   2   3
HETATM    3  C   UNL     1      -9.301   4.650  64.344  1.00  0.00    -0.055 C  
BRANCH   3   4
HETATM    4  C   UNL     1      -8.693   4.124  65.639  1.00  0.00    -0.119 C  
BRANCH   4   5
HETATM    5  C   UNL     1      -8.655   5.212  66.703  1.00  0.00    -0.110 C  
BRANCH   5   6
HETATM    6  C   UNL     1      -9.641   6.327  66.368  1.00  0.00    -0.159 C  
BRANCH   6   7
HETATM    7  C   UNL     1     -10.794   6.311  67.357  1.00  0.00    -0.448 C  
BRANCH   7   8
HETATM    8  C   UNL     1     -10.472   5.468  68.587  1.00  0.00    -0.240 C  
BRANCH   8   9
HETATM    9  C   UNL     1     -11.114   6.127  69.799  1.00  0.00    -0.486 C  
BRANCH   9  10
HETATM   10  C   UNL     1     -10.111   6.364  70.919  1.00  0.00    -0.187 C  
BRANCH  10  11
HETATM   11  N   UNL     1     -10.353   7.704  71.661  1.00  0.00    -0.189 N  
HETATM   12  C   UNL     1     -10.894   7.442  73.067  1.00  0.00    -0.375 C  
HETATM   13  C   UNL     1      -9.050   8.503  71.749  1.00  0.00    -0.235 C  
BRANCH  11  14
HETATM   14  C   UNL     1     -11.400   8.477  70.818  1.00  0.00    -0.266 C  
BRANCH  14  15
HETATM   15  C   UNL     1     -11.162   9.979  70.822  1.00  0.00    -0.428 C  
BRANCH  15  16
HETATM   16  C   UNL     1     -12.390  10.756  70.369  1.00  0.00    -0.438 C  
BRANCH  16  17
HETATM   17  C   UNL     1     -12.073  11.418  69.033  1.00  0.00    -0.316 C  
BRANCH  17  18
HETATM   18  C   UNL     1     -10.576  11.483  68.780  1.00  0.00    -0.241 C  
BRANCH  18  19
HETATM   19  C   UNL     1     -10.281  11.116  67.332  1.00  0.00    -0.221 C  
BRANCH  19  20
HETATM   20  C   UNL     1     -11.301  11.759  66.398  1.00  0.00    -0.361 C  
BRANCH  20  21
HETATM   21  C   UNL     1     -10.894  13.186  66.044  1.00  0.00    -0.287 C  
BRANCH  21  22
HETATM   22  C   UNL     1     -11.923  14.184  66.563  1.00  0.00    -0.466 C  
HETATM   23  C   UNL     1     -11.406  14.924  67.783  1.00  0.00    -0.341 C  
ENDBRANCH  21  22
ENDBRANCH  20  21
ENDBRANCH  19  20
ENDBRANCH  18  19
ENDBRANCH  17  18
ENDBRANCH  16  17
ENDBRANCH  15  16
ENDBRANCH  14  15
ENDBRANCH  11  14
ENDBRANCH  10  11
ENDBRANCH   9  10
ENDBRANCH   8   9
ENDBRANCH   7   8
ENDBRANCH   6   7
ENDBRANCH   5   6
ENDBRANCH   4   5
ENDBRANCH   3   4
ENDBRANCH   2   3
TORSDOF 18
ENDMDL
MODEL      304
REMARK 921   NORMALIZED FREE ENERGY PREDICTED BY IDOCK:   -2.42 KCAL/MOL
REMARK 922        TOTAL FREE ENERGY PREDICTED BY IDOCK:   -7.67 KCAL/MOL
REMARK 923 INTER-LIGAND FREE ENERGY PREDICTED BY IDOCK:   -5.63 KCAL/MOL
REMARK 924 INTRA-LIGAND FREE ENERGY PREDICTED BY IDOCK:   -2.04 KCAL/MOL
REMARK 927      BINDING AFFINITY PREDICTED BY RF-SCORE:    0.00 PKD
ROOT
HETATM    1  C   UNL     1      -6.520  17.211  68.445  1.00  0.00    -0.158 C  
HETATM    2  C   UNL     1      -7.436  17.009  67.252  1.00  0.00    -0.190 C  
ENDROOT
BRANCH   2   3
HETATM    3  C   UNL     1      -7.811  15.540  67.086  1.00  0.00    -0.256 C  
BRANCH   3   4
HETATM    4  C   UNL     1      -8.275  14.950  68.413  1.00  0.00    -0.151 C  
BRANCH   4   5
HETATM    5  C   UNL     1      -7.615  13.604  68.670  1.00  0.00    -0.115 C  
BRANCH   5   6
HETATM    6  C   UNL     1      -7.999  12.600  67.588  1.00  0.00    -0.169 C  
BRANCH   6   7
HETATM    7  C   UNL     1      -8.785  11.455  68.201  1.00  0.00    -0.154 C  
BRANCH   7   8
HETATM    8  C   UNL     1     -10.159  11.908  68.686  1.00  0.00    -0.186 C  
BRANCH   8   9
HETATM    9  C   UNL     1     -11.051  12.111  67.470  1.00  0.00    -0.328 C  
BRANCH   9  10
HETATM   10  C   UNL     1     -11.631  13.518  67.415  1.00  0.00    -0.356 C  
BRANCH  10  11
HETATM   11  N   UNL     1     -11.550  14.141  65.997  1.00  0.00    -0.350 N  
HETATM   12  C   UNL     1     -12.936  14.180  65.354  1.00  0.00    -0.270 C  
HETATM   13  C   UNL     1     -10.976  15.558  66.074  1.00  0.00    -0.251 C  
BRANCH  11  14
HETATM   14  C   UNL     1     -10.604  13.222  65.181  1.00  0.00    -0.330 C  
BRANCH  14  15
HETATM   15  C   UNL     1     -11.307  12.554  64.008  1.00  0.00    -0.467 C  
BRANCH  15  16
HETATM   16  C   UNL     1     -10.520  11.367  63.471  1.00  0.00    -0.477 C  
BRANCH  16  17
HETATM   17  C   UNL     1      -9.487  10.962  64.517  1.00  0.00    -0.284 C  
BRANCH  17  18
HETATM   18  C   UNL     1      -8.946   9.566  64.260  1.00  0.00    -0.248 C  
BRANCH  18  19
HETATM   19  C   UNL     1      -7.863   9.237  65.278  1.00  0.00    -0.105 C  
BRANCH  19  20
HETATM   20  C   UNL     1      -7.460   7.770  65.176  1.00  0.00    -0.083 C  
BRANCH  20  21
HETATM   21  C   UNL     1      -8.510   6.869  65.821  1.00  0.00    -0.150 C  
BRANCH  21  22
HETATM   22  C   UNL     1      -9.072   7.516  67.082  1.00  0.00    -0.144 C  
HETATM   23  C   UNL     1     -10.589   7.535  67.061  1.00  0.00    -0.409 C  
ENDBRANCH  21  22
ENDBRANCH  20  21
ENDBRANCH  19  20
ENDBRANCH  18  19
ENDBRANCH  17  18
ENDBRANCH  16  17
ENDBRANCH  15  16
ENDBRANCH  14  15
ENDBRANCH  11  14
ENDBRANCH  10  11
ENDBRANCH   9  10
ENDBRANCH   8   9
ENDBRANCH   7   8
ENDBRANCH   6   7
ENDBRANCH   5   6
ENDBRANCH   4   5
ENDBRANCH   3   4
ENDBRANCH   2   3
TORSDOF 18
ENDMDL
MODEL      305
REMARK 921   NORMALIZED FREE ENERGY PREDICTED BY IDOCK:   -2.41 KCAL/MOL
REMARK 922        TOTAL FREE ENERGY PREDICTED BY IDOCK:   -7.64 KCAL/MOL
REMARK 923 INTER-LIGAND FREE ENERGY PREDICTED BY IDOCK:   -6.12 KCAL/MOL
REMARK 924 INTRA-LIGAND FREE ENERGY PREDICTED BY IDOCK:   -1.52 KCAL/MOL
REMARK 927      BINDING AFFINITY PREDICTED BY RF-SCORE:    0.00 PKD
ROOT
HETATM    1  C   UNL     1      -6.717   6.306  73.814  1.00  0.00    -0.075 C  
HETATM    2  C   UNL     1      -7.425   7.648  73.792  1.00  0.00    -0.152 C  
ENDROOT
BRANCH   2   3
HETATM    3  C   UNL     1      -8.751   7.584  74.544  1.00  0.00    -0.173 C  
BRANCH   3   4
HETATM    4  C   UNL     1      -9.899   7.290  73.585  1.00  0.00    -0.353 C  
BRANCH   4   5
HETATM    5  C   UNL     1     -10.432   5.879  73.791  1.00  0.00    -0.288 C  
BRANCH   5   6
HETATM    6  C   UNL     1     -11.257   5.435  72.588  1.00  0.00    -0.333 C  
BRANCH   6   7
HETATM    7  C   UNL     1     -12.146   6.575  72.121  1.00  0.00    -0.309 C  
BRANCH   7   8
HETATM    8  C   UNL     1     -12.025   6.806  70.618  1.00  0.00    -0.418 C  
BRANCH   8   9
HETATM    9  C   UNL     1     -10.933   5.893  70.080  1.00  0.00    -0.412 C  
BRANCH   9  10
HETATM   10  C   UNL     1     -10.279   6.460  68.828  1.00  0.00    -0.177 C  
BRANCH  10  11
HETATM   11  N   UNL     1      -8.730   6.455  68.910  1.00  0.00    -0.126 N  
HETATM   12  C   UNL     1      -8.275   6.090  70.323  1.00  0.00    -0.119 C  
HETATM   13  C   UNL     1      -8.151   5.455  67.906  1.00  0.00    -0.100 C  
BRANCH  11  14
HETATM   14  C   UNL     1      -8.278   7.895  68.555  1.00  0.00    -0.127 C  
BRANCH  14  15
HETATM   15  C   UNL     1      -9.325   8.941  68.909  1.00  0.00    -0.140 C  
BRANCH  15  16
HETATM   16  C   UNL     1      -9.123  10.237  68.137  1.00  0.00    -0.136 C  
BRANCH  16  17
HETATM   17  C   UNL     1     -10.209  10.334  67.069  1.00  0.00    -0.282 C  
BRANCH  17  18
HETATM   18  C   UNL     1      -9.666  10.011  65.687  1.00  0.00    -0.336 C  
BRANCH  18  19
HETATM   19  C   UNL     1     -10.458  10.771  64.632  1.00  0.00    -0.346 C  
BRANCH  19  20
HETATM   20  C   UNL     1     -10.792  12.176  65.122  1.00  0.00    -0.343 C  
BRANCH  20  21
HETATM   21  C   UNL     1     -11.312  13.044  63.979  1.00  0.00    -0.458 C  
BRANCH  21  22
HETATM   22  C   UNL     1     -12.214  14.151  64.513  1.00  0.00    -0.468 C  
HETATM   23  C   UNL     1     -12.719  13.826  65.907  1.00  0.00    -0.452 C  
ENDBRANCH  21  22
ENDBRANCH  20  21
ENDBRANCH  19  20
ENDBRANCH  18  19
ENDBRANCH  17  18
ENDBRANCH  16  17
ENDBRANCH  15  16
ENDBRANCH  14  15
ENDBRANCH  11  14
ENDBRANCH  10  11
ENDBRANCH   9  10
ENDBRANCH   8   9
ENDBRANCH   7   8
ENDBRANCH   6   7
ENDBRANCH   5   6
ENDBRANCH   4   5
ENDBRANCH   3   4
ENDBRANCH   2   3
TORSDOF 18
ENDMDL
MODEL      306
REMARK 921   NORMALIZED FREE ENERGY PREDICTED BY IDOCK:   -2.40 KCAL/MOL
REMARK 922        TOTAL FREE ENERGY PREDICTED BY IDOCK:   -7.63 KCAL/MOL
REMARK 923 INTER-LIGAND FREE ENERGY PREDICTED BY IDOCK:   -5.34 KCAL/MOL
REMARK 924 INTRA-LIGAND FREE ENERGY PREDICTED BY IDOCK:   -2.29 KCAL/MOL
REMARK 927      BINDING AFFINITY PREDICTED BY RF-SCORE:    0.00 PKD
ROOT
HETATM    1  C   UNL     1     -10.713   7.776  67.043  1.00  0.00    -0.316 C  
HETATM    2  C   UNL     1      -9.697   8.812  66.602  1.00  0.00    -0.309 C  
ENDROOT
BRANCH   2   3
HETATM    3  C   UNL     1      -9.773  10.065  67.469  1.00  0.00    -0.189 C  
BRANCH   3   4
HETATM    4  C   UNL     1     -10.720  11.088  66.854  1.00  0.00    -0.325 C  
BRANCH   4   5
HETATM    5  C   UNL     1     -11.511  11.814  67.932  1.00  0.00    -0.387 C  
BRANCH   5   6
HETATM    6  C   UNL     1     -11.304  11.151  69.290  1.00  0.00    -0.349 C  
BRANCH   6   7
HETATM    7  C   UNL     1     -12.645  10.747  69.878  1.00  0.00    -0.199 C  
BRANCH   7   8
HETATM    8  C   UNL     1     -12.564  10.551  71.388  1.00  0.00    -0.539 C  
BRANCH   8   9
HETATM    9  C   UNL     1     -12.396   9.065  71.669  1.00  0.00    -0.416 C  
BRANCH   9  10
HETATM   10  C   UNL     1     -10.938   8.685  71.887  1.00  0.00    -0.342 C  
BRANCH  10  11
HETATM   11  N   UNL     1     -10.762   7.193  72.272  1.00  0.00    -0.214 N  
HETATM   12  C   UNL     1     -10.292   7.071  73.722  1.00  0.00    -0.369 C  
HETATM   13  C   UNL     1     -12.083   6.442  72.092  1.00  0.00    -0.268 C  
BRANCH  11  14
HETATM   14  C   UNL     1      -9.687   6.628  71.308  1.00  0.00    -0.173 C  
BRANCH  14  15
HETATM   15  C   UNL     1      -9.159   7.676  70.340  1.00  0.00    -0.152 C  
BRANCH  15  16
HETATM   16  C   UNL     1      -7.638   7.680  70.274  1.00  0.00    -0.089 C  
BRANCH  16  17
HETATM   17  C   UNL     1      -7.217   7.205  68.887  1.00  0.00    -0.090 C  
BRANCH  17  18
HETATM   18  C   UNL     1      -7.583   5.749  68.658  1.00  0.00    -0.089 C  
BRANCH  18  19
HETATM   19  C   UNL     1      -7.151   5.322  67.262  1.00  0.00    -0.070 C  
BRANCH  19  20
HETATM   20  C   UNL     1      -8.358   4.891  66.436  1.00  0.00    -0.107 C  
BRANCH  20  21
HETATM   21  C   UNL     1      -8.383   5.609  65.090  1.00  0.00    -0.146 C  
BRANCH  21  22
HETATM   22  C   UNL     1      -8.965   4.704  64.009  1.00  0.00    -0.117 C  
HETATM   23  C   UNL     1      -7.930   3.717  63.501  1.00  0.00    -0.087 C  
ENDBRANCH  21  22
ENDBRANCH  20  21
ENDBRANCH  19  20
ENDBRANCH  18  19
ENDBRANCH  17  18
ENDBRANCH  16  17
ENDBRANCH  15  16
ENDBRANCH  14  15
ENDBRANCH  11  14
ENDBRANCH  10  11
ENDBRANCH   9  10
ENDBRANCH   8   9
ENDBRANCH   7   8
ENDBRANCH   6   7
ENDBRANCH   5   6
ENDBRANCH   4   5
ENDBRANCH   3   4
ENDBRANCH   2   3
TORSDOF 18
ENDMDL
MODEL      307
REMARK 921   NORMALIZED FREE ENERGY PREDICTED BY IDOCK:   -2.40 KCAL/MOL
REMARK 922        TOTAL FREE ENERGY PREDICTED BY IDOCK:   -7.62 KCAL/MOL
REMARK 923 INTER-LIGAND FREE ENERGY PREDICTED BY IDOCK:   -6.00 KCAL/MOL
REMARK 924 INTRA-LIGAND FREE ENERGY PREDICTED BY IDOCK:   -1.63 KCAL/MOL
REMARK 927      BINDING AFFINITY PREDICTED BY RF-SCORE:    0.00 PKD
ROOT
HETATM    1  C   UNL     1     -10.892  19.041  66.969  1.00  0.00    -0.438 C  
HETATM    2  C   UNL     1     -10.112  19.928  67.922  1.00  0.00    -0.571 C  
ENDROOT
BRANCH   2   3
HETATM    3  C   UNL     1      -8.917  20.571  67.225  1.00  0.00    -0.431 C  
BRANCH   3   4
HETATM    4  C   UNL     1      -7.942  19.507  66.737  1.00  0.00    -0.307 C  
BRANCH   4   5
HETATM    5  C   UNL     1      -7.228  18.847  67.908  1.00  0.00    -0.260 C  
BRANCH   5   6
HETATM    6  C   UNL     1      -7.240  17.329  67.758  1.00  0.00    -0.169 C  
BRANCH   6   7
HETATM    7  C   UNL     1      -8.070  16.935  66.549  1.00  0.00    -0.327 C  
BRANCH   7   8
HETATM    8  C   UNL     1      -8.941  15.715  66.835  1.00  0.00    -0.267 C  
BRANCH   8   9
HETATM    9  C   UNL     1      -9.781  15.428  65.599  1.00  0.00    -0.366 C  
BRANCH   9  10
HETATM   10  C   UNL     1     -11.204  15.022  65.958  1.00  0.00    -0.310 C  
BRANCH  10  11
HETATM   11  N   UNL     1     -11.447  13.499  65.797  1.00  0.00    -0.310 N  
HETATM   12  C   UNL     1     -12.807  13.243  65.147  1.00  0.00    -0.310 C  
HETATM   13  C   UNL     1     -10.340  12.874  64.944  1.00  0.00    -0.308 C  
BRANCH  11  14
HETATM   14  C   UNL     1     -11.418  12.908  67.231  1.00  0.00    -0.336 C  
BRANCH  14  15
HETATM   15  C   UNL     1     -10.306  11.887  67.420  1.00  0.00    -0.228 C  
BRANCH  15  16
HETATM   16  C   UNL     1      -9.146  12.446  68.232  1.00  0.00    -0.183 C  
BRANCH  16  17
HETATM   17  C   UNL     1      -8.151  11.319  68.487  1.00  0.00    -0.148 C  
BRANCH  17  18
HETATM   18  C   UNL     1      -8.761  10.214  69.332  1.00  0.00    -0.186 C  
BRANCH  18  19
HETATM   19  C   UNL     1      -8.796   8.916  68.536  1.00  0.00    -0.134 C  
BRANCH  19  20
HETATM   20  C   UNL     1      -7.749   8.939  67.428  1.00  0.00    -0.096 C  
BRANCH  20  21
HETATM   21  C   UNL     1      -8.407   9.054  66.056  1.00  0.00    -0.126 C  
BRANCH  21  22
HETATM   22  C   UNL     1      -8.532   7.682  65.404  1.00  0.00    -0.110 C  
HETATM   23  C   UNL     1      -7.173   7.032  65.222  1.00  0.00    -0.074 C  
ENDBRANCH  21  22
ENDBRANCH  20  21
ENDBRANCH  19  20
ENDBRANCH  18  19
ENDBRANCH  17  18
ENDBRANCH  16  17
ENDBRANCH  15  16
ENDBRANCH  14  15
ENDBRANCH  11  14
ENDBRANCH  10  11
ENDBRANCH   9  10
ENDBRANCH   8   9
ENDBRANCH   7   8
ENDBRANCH   6   7
ENDBRANCH   5   6
ENDBRANCH   4   5
ENDBRANCH   3   4
ENDBRANCH   2   3
TORSDOF 18
ENDMDL
MODEL      308
REMARK 921   NORMALIZED FREE ENERGY PREDICTED BY IDOCK:   -2.40 KCAL/MOL
REMARK 922        TOTAL FREE ENERGY PREDICTED BY IDOCK:   -7.62 KCAL/MOL
REMARK 923 INTER-LIGAND FREE ENERGY PREDICTED BY IDOCK:   -6.09 KCAL/MOL
REMARK 924 INTRA-LIGAND FREE ENERGY PREDICTED BY IDOCK:   -1.54 KCAL/MOL
REMARK 927      BINDING AFFINITY PREDICTED BY RF-SCORE:    0.00 PKD
ROOT
HETATM    1  C   UNL     1      -9.376  16.727  68.882  1.00  0.00    -0.233 C  
HETATM    2  C   UNL     1      -8.844  16.243  67.547  1.00  0.00    -0.194 C  
ENDROOT
BRANCH   2   3
HETATM    3  C   UNL     1      -7.623  17.048  67.113  1.00  0.00    -0.205 C  
BRANCH   3   4
HETATM    4  C   UNL     1      -6.368  16.185  67.153  1.00  0.00    -0.160 C  
BRANCH   4   5
HETATM    5  C   UNL     1      -6.451  15.156  68.270  1.00  0.00    -0.117 C  
BRANCH   5   6
HETATM    6  C   UNL     1      -6.033  13.778  67.766  1.00  0.00    -0.124 C  
BRANCH   6   7
HETATM    7  C   UNL     1      -6.720  12.698  68.583  1.00  0.00    -0.088 C  
BRANCH   7   8
HETATM    8  C   UNL     1      -7.493  11.725  67.698  1.00  0.00    -0.123 C  
BRANCH   8   9
HETATM    9  C   UNL     1      -8.692  12.459  67.115  1.00  0.00    -0.195 C  
BRANCH   9  10
HETATM   10  C   UNL     1      -9.664  12.914  68.195  1.00  0.00    -0.227 C  
BRANCH  10  11
HETATM   11  N   UNL     1     -11.130  12.964  67.692  1.00  0.00    -0.253 N  
HETATM   12  C   UNL     1     -11.940  13.967  68.516  1.00  0.00    -0.359 C  
HETATM   13  C   UNL     1     -11.169  13.359  66.214  1.00  0.00    -0.305 C  
BRANCH  11  14
HETATM   14  C   UNL     1     -11.696  11.533  67.881  1.00  0.00    -0.247 C  
BRANCH  14  15
HETATM   15  C   UNL     1     -11.413  10.970  69.266  1.00  0.00    -0.370 C  
BRANCH  15  16
HETATM   16  C   UNL     1     -12.685  10.795  70.084  1.00  0.00    -0.232 C  
BRANCH  16  17
HETATM   17  C   UNL     1     -12.291  10.548  71.536  1.00  0.00    -0.443 C  
BRANCH  17  18
HETATM   18  C   UNL     1     -11.665   9.176  71.722  1.00  0.00    -0.456 C  
BRANCH  18  19
HETATM   19  C   UNL     1     -12.757   8.118  71.798  1.00  0.00    -0.356 C  
BRANCH  19  20
HETATM   20  C   UNL     1     -12.213   6.756  71.378  1.00  0.00    -0.413 C  
BRANCH  20  21
HETATM   21  C   UNL     1     -11.323   6.880  70.145  1.00  0.00    -0.364 C  
BRANCH  21  22
HETATM   22  C   UNL     1     -10.653   5.548  69.831  1.00  0.00    -0.387 C  
HETATM   23  C   UNL     1     -10.086   5.535  68.423  1.00  0.00    -0.234 C  
ENDBRANCH  21  22
ENDBRANCH  20  21
ENDBRANCH  19  20
ENDBRANCH  18  19
ENDBRANCH  17  18
ENDBRANCH  16  17
ENDBRANCH  15  16
ENDBRANCH  14  15
ENDBRANCH  11  14
ENDBRANCH  10  11
ENDBRANCH   9  10
ENDBRANCH   8   9
ENDBRANCH   7   8
ENDBRANCH   6   7
ENDBRANCH   5   6
ENDBRANCH   4   5
ENDBRANCH   3   4
ENDBRANCH   2   3
TORSDOF 18
ENDMDL
MODEL      309
REMARK 921   NORMALIZED FREE ENERGY PREDICTED BY IDOCK:   -2.39 KCAL/MOL
REMARK 922        TOTAL FREE ENERGY PREDICTED BY IDOCK:   -7.61 KCAL/MOL
REMARK 923 INTER-LIGAND FREE ENERGY PREDICTED BY IDOCK:   -5.59 KCAL/MOL
REMARK 924 INTRA-LIGAND FREE ENERGY PREDICTED BY IDOCK:   -2.02 KCAL/MOL
REMARK 927      BINDING AFFINITY PREDICTED BY RF-SCORE:    0.00 PKD
ROOT
HETATM    1  C   UNL     1     -10.238   8.764  66.610  1.00  0.00    -0.340 C  
HETATM    2  C   UNL     1      -9.128   8.234  65.722  1.00  0.00    -0.169 C  
ENDROOT
BRANCH   2   3
HETATM    3  C   UNL     1      -8.548   9.338  64.844  1.00  0.00    -0.204 C  
BRANCH   3   4
HETATM    4  C   UNL     1      -8.326  10.609  65.655  1.00  0.00    -0.162 C  
BRANCH   4   5
HETATM    5  C   UNL     1      -6.940  10.617  66.283  1.00  0.00    -0.133 C  
BRANCH   5   6
HETATM    6  C   UNL     1      -6.942  11.416  67.583  1.00  0.00    -0.081 C  
BRANCH   6   7
HETATM    7  C   UNL     1      -7.642  10.625  68.675  1.00  0.00    -0.103 C  
BRANCH   7   8
HETATM    8  C   UNL     1      -6.769   9.487  69.195  1.00  0.00    -0.049 C  
BRANCH   8   9
HETATM    9  C   UNL     1      -7.680   8.393  69.732  1.00  0.00    -0.093 C  
BRANCH   9  10
HETATM   10  C   UNL     1      -8.553   8.887  70.878  1.00  0.00    -0.199 C  
BRANCH  10  11
HETATM   11  N   UNL     1      -9.347   7.742  71.558  1.00  0.00    -0.135 N  
HETATM   12  C   UNL     1      -9.256   6.464  70.723  1.00  0.00    -0.158 C  
HETATM   13  C   UNL     1      -8.800   7.481  72.964  1.00  0.00    -0.154 C  
BRANCH  11  14
HETATM   14  C   UNL     1     -10.817   8.230  71.637  1.00  0.00    -0.256 C  
BRANCH  14  15
HETATM   15  C   UNL     1     -10.985   9.661  71.150  1.00  0.00    -0.430 C  
BRANCH  15  16
HETATM   16  C   UNL     1     -12.437   9.991  70.832  1.00  0.00    -0.431 C  
BRANCH  16  17
HETATM   17  C   UNL     1     -12.528  11.474  70.487  1.00  0.00    -0.367 C  
BRANCH  17  18
HETATM   18  C   UNL     1     -11.558  11.853  69.381  1.00  0.00    -0.388 C  
BRANCH  18  19
HETATM   19  C   UNL     1     -11.766  13.309  68.988  1.00  0.00    -0.368 C  
BRANCH  19  20
HETATM   20  C   UNL     1     -12.362  14.097  70.150  1.00  0.00    -0.413 C  
BRANCH  20  21
HETATM   21  C   UNL     1     -11.699  15.464  70.281  1.00  0.00    -0.355 C  
BRANCH  21  22
HETATM   22  C   UNL     1     -11.179  15.941  68.929  1.00  0.00    -0.343 C  
HETATM   23  C   UNL     1      -9.761  16.469  69.039  1.00  0.00    -0.258 C  
ENDBRANCH  21  22
ENDBRANCH  20  21
ENDBRANCH  19  20
ENDBRANCH  18  19
ENDBRANCH  17  18
ENDBRANCH  16  17
ENDBRANCH  15  16
ENDBRANCH  14  15
ENDBRANCH  11  14
ENDBRANCH  10  11
ENDBRANCH   9  10
ENDBRANCH   8   9
ENDBRANCH   7   8
ENDBRANCH   6   7
ENDBRANCH   5   6
ENDBRANCH   4   5
ENDBRANCH   3   4
ENDBRANCH   2   3
TORSDOF 18
ENDMDL
MODEL      310
REMARK 921   NORMALIZED FREE ENERGY PREDICTED BY IDOCK:   -2.39 KCAL/MOL
REMARK 922        TOTAL FREE ENERGY PREDICTED BY IDOCK:   -7.61 KCAL/MOL
REMARK 923 INTER-LIGAND FREE ENERGY PREDICTED BY IDOCK:   -5.86 KCAL/MOL
REMARK 924 INTRA-LIGAND FREE ENERGY PREDICTED BY IDOCK:   -1.74 KCAL/MOL
REMARK 927      BINDING AFFINITY PREDICTED BY RF-SCORE:    0.00 PKD
ROOT
HETATM    1  C   UNL     1     -10.477   7.905  73.171  1.00  0.00    -0.348 C  
HETATM    2  C   UNL     1      -9.161   7.172  73.348  1.00  0.00    -0.193 C  
ENDROOT
BRANCH   2   3
HETATM    3  C   UNL     1      -9.387   5.681  73.583  1.00  0.00    -0.137 C  
BRANCH   3   4
HETATM    4  C   UNL     1      -8.981   4.875  72.354  1.00  0.00    -0.140 C  
BRANCH   4   5
HETATM    5  C   UNL     1     -10.191   4.563  71.486  1.00  0.00    -0.195 C  
BRANCH   5   6
HETATM    6  C   UNL     1      -9.824   4.632  70.007  1.00  0.00    -0.294 C  
BRANCH   6   7
HETATM    7  C   UNL     1     -10.514   5.819  69.358  1.00  0.00    -0.360 C  
BRANCH   7   8
HETATM    8  C   UNL     1      -9.684   7.093  69.481  1.00  0.00    -0.157 C  
BRANCH   8   9
HETATM    9  C   UNL     1      -8.373   6.882  68.738  1.00  0.00    -0.121 C  
BRANCH   9  10
HETATM   10  C   UNL     1      -8.114   7.978  67.713  1.00  0.00    -0.128 C  
BRANCH  10  11
HETATM   11  N   UNL     1      -8.754   7.667  66.336  1.00  0.00    -0.144 N  
HETATM   12  C   UNL     1      -7.965   8.348  65.217  1.00  0.00    -0.125 C  
HETATM   13  C   UNL     1      -8.789   6.155  66.097  1.00  0.00    -0.152 C  
BRANCH  11  14
HETATM   14  C   UNL     1     -10.197   8.233  66.397  1.00  0.00    -0.072 C  
BRANCH  14  15
HETATM   15  C   UNL     1     -10.225   9.748  66.535  1.00  0.00    -0.289 C  
BRANCH  15  16
HETATM   16  C   UNL     1     -10.600  10.188  67.943  1.00  0.00    -0.294 C  
BRANCH  16  17
HETATM   17  C   UNL     1      -9.875  11.495  68.246  1.00  0.00    -0.203 C  
BRANCH  17  18
HETATM   18  C   UNL     1     -10.840  12.580  68.695  1.00  0.00    -0.280 C  
BRANCH  18  19
HETATM   19  C   UNL     1     -11.993  12.686  67.706  1.00  0.00    -0.303 C  
BRANCH  19  20
HETATM   20  C   UNL     1     -11.794  13.879  66.778  1.00  0.00    -0.452 C  
BRANCH  20  21
HETATM   21  C   UNL     1     -12.846  13.893  65.673  1.00  0.00    -0.467 C  
BRANCH  21  22
HETATM   22  C   UNL     1     -12.725  12.650  64.799  1.00  0.00    -0.460 C  
HETATM   23  C   UNL     1     -11.574  12.776  63.818  1.00  0.00    -0.548 C  
ENDBRANCH  21  22
ENDBRANCH  20  21
ENDBRANCH  19  20
ENDBRANCH  18  19
ENDBRANCH  17  18
ENDBRANCH  16  17
ENDBRANCH  15  16
ENDBRANCH  14  15
ENDBRANCH  11  14
ENDBRANCH  10  11
ENDBRANCH   9  10
ENDBRANCH   8   9
ENDBRANCH   7   8
ENDBRANCH   6   7
ENDBRANCH   5   6
ENDBRANCH   4   5
ENDBRANCH   3   4
ENDBRANCH   2   3
TORSDOF 18
ENDMDL
MODEL      311
REMARK 921   NORMALIZED FREE ENERGY PREDICTED BY IDOCK:   -2.39 KCAL/MOL
REMARK 922        TOTAL FREE ENERGY PREDICTED BY IDOCK:   -7.60 KCAL/MOL
REMARK 923 INTER-LIGAND FREE ENERGY PREDICTED BY IDOCK:   -6.00 KCAL/MOL
REMARK 924 INTRA-LIGAND FREE ENERGY PREDICTED BY IDOCK:   -1.60 KCAL/MOL
REMARK 927      BINDING AFFINITY PREDICTED BY RF-SCORE:    0.00 PKD
ROOT
HETATM    1  C   UNL     1     -12.099  13.259  63.451  1.00  0.00    -0.508 C  
HETATM    2  C   UNL     1     -12.483  12.525  64.723  1.00  0.00    -0.532 C  
ENDROOT
BRANCH   2   3
HETATM    3  C   UNL     1     -12.470  13.463  65.926  1.00  0.00    -0.468 C  
BRANCH   3   4
HETATM    4  C   UNL     1     -11.761  12.811  67.108  1.00  0.00    -0.443 C  
BRANCH   4   5
HETATM    5  C   UNL     1     -11.282  11.412  66.750  1.00  0.00    -0.319 C  
BRANCH   5   6
HETATM    6  C   UNL     1     -11.208  10.534  67.995  1.00  0.00    -0.361 C  
BRANCH   6   7
HETATM    7  C   UNL     1      -9.882  10.751  68.703  1.00  0.00    -0.187 C  
BRANCH   7   8
HETATM    8  C   UNL     1      -9.778   9.916  69.975  1.00  0.00    -0.274 C  
BRANCH   8   9
HETATM    9  C   UNL     1     -10.904   8.893  69.969  1.00  0.00    -0.239 C  
BRANCH   9  10
HETATM   10  C   UNL     1     -11.210   8.371  71.367  1.00  0.00    -0.261 C  
BRANCH  10  11
HETATM   11  N   UNL     1     -12.053   7.070  71.345  1.00  0.00    -0.334 N  
HETATM   12  C   UNL     1     -13.532   7.391  71.568  1.00  0.00    -0.372 C  
HETATM   13  C   UNL     1     -11.878   6.348  70.006  1.00  0.00    -0.138 C  
BRANCH  11  14
HETATM   14  C   UNL     1     -11.514   6.192  72.503  1.00  0.00    -0.276 C  
BRANCH  14  15
HETATM   15  C   UNL     1     -10.012   5.960  72.412  1.00  0.00    -0.194 C  
BRANCH  15  16
HETATM   16  C   UNL     1      -9.600   4.628  73.021  1.00  0.00    -0.151 C  
BRANCH  16  17
HETATM   17  C   UNL     1      -8.446   4.062  72.200  1.00  0.00    -0.109 C  
BRANCH  17  18
HETATM   18  C   UNL     1      -7.759   5.141  71.380  1.00  0.00    -0.105 C  
BRANCH  18  19
HETATM   19  C   UNL     1      -7.601   4.673  69.940  1.00  0.00    -0.054 C  
BRANCH  19  20
HETATM   20  C   UNL     1      -8.529   5.455  69.018  1.00  0.00    -0.100 C  
BRANCH  20  21
HETATM   21  C   UNL     1      -9.408   4.514  68.200  1.00  0.00    -0.186 C  
BRANCH  21  22
HETATM   22  C   UNL     1      -9.700   5.108  66.827  1.00  0.00    -0.178 C  
HETATM   23  C   UNL     1      -9.782   6.622  66.888  1.00  0.00    -0.209 C  
ENDBRANCH  21  22
ENDBRANCH  20  21
ENDBRANCH  19  20
ENDBRANCH  18  19
ENDBRANCH  17  18
ENDBRANCH  16  17
ENDBRANCH  15  16
ENDBRANCH  14  15
ENDBRANCH  11  14
ENDBRANCH  10  11
ENDBRANCH   9  10
ENDBRANCH   8   9
ENDBRANCH   7   8
ENDBRANCH   6   7
ENDBRANCH   5   6
ENDBRANCH   4   5
ENDBRANCH   3   4
ENDBRANCH   2   3
TORSDOF 18
ENDMDL
MODEL      312
REMARK 921   NORMALIZED FREE ENERGY PREDICTED BY IDOCK:   -2.37 KCAL/MOL
REMARK 922        TOTAL FREE ENERGY PREDICTED BY IDOCK:   -7.57 KCAL/MOL
REMARK 923 INTER-LIGAND FREE ENERGY PREDICTED BY IDOCK:   -6.25 KCAL/MOL
REMARK 924 INTRA-LIGAND FREE ENERGY PREDICTED BY IDOCK:   -1.32 KCAL/MOL
REMARK 927      BINDING AFFINITY PREDICTED BY RF-SCORE:    0.00 PKD
ROOT
HETATM    1  C   UNL     1      -8.324   8.888  67.874  1.00  0.00    -0.118 C  
HETATM    2  C   UNL     1      -8.516   7.688  68.783  1.00  0.00    -0.129 C  
ENDROOT
BRANCH   2   3
HETATM    3  C   UNL     1      -9.927   7.122  68.658  1.00  0.00    -0.161 C  
BRANCH   3   4
HETATM    4  C   UNL     1     -10.443   6.659  70.016  1.00  0.00    -0.250 C  
BRANCH   4   5
HETATM    5  C   UNL     1     -10.413   7.797  71.025  1.00  0.00    -0.216 C  
BRANCH   5   6
HETATM    6  C   UNL     1     -11.491   8.828  70.706  1.00  0.00    -0.309 C  
BRANCH   6   7
HETATM    7  C   UNL     1     -10.849  10.101  70.182  1.00  0.00    -0.368 C  
BRANCH   7   8
HETATM    8  C   UNL     1     -11.819  10.914  69.331  1.00  0.00    -0.400 C  
BRANCH   8   9
HETATM    9  C   UNL     1     -11.139  11.237  68.008  1.00  0.00    -0.325 C  
BRANCH   9  10
HETATM   10  C   UNL     1     -11.678  12.518  67.387  1.00  0.00    -0.366 C  
BRANCH  10  11
HETATM   11  N   UNL     1     -11.370  12.620  65.870  1.00  0.00    -0.317 N  
HETATM   12  C   UNL     1     -10.765  11.310  65.363  1.00  0.00    -0.227 C  
HETATM   13  C   UNL     1     -12.648  12.935  65.090  1.00  0.00    -0.471 C  
BRANCH  11  14
HETATM   14  C   UNL     1     -10.349  13.777  65.719  1.00  0.00    -0.307 C  
BRANCH  14  15
HETATM   15  C   UNL     1     -10.981  15.146  65.928  1.00  0.00    -0.339 C  
BRANCH  15  16
HETATM   16  C   UNL     1     -10.053  16.097  66.671  1.00  0.00    -0.283 C  
BRANCH  16  17
HETATM   17  C   UNL     1      -8.725  15.384  66.908  1.00  0.00    -0.285 C  
BRANCH  17  18
HETATM   18  C   UNL     1      -7.848  16.146  67.887  1.00  0.00    -0.151 C  
BRANCH  18  19
HETATM   19  C   UNL     1      -6.459  16.339  67.293  1.00  0.00    -0.223 C  
BRANCH  19  20
HETATM   20  C   UNL     1      -6.047  17.806  67.362  1.00  0.00    -0.164 C  
BRANCH  20  21
HETATM   21  C   UNL     1      -6.484  18.435  68.681  1.00  0.00    -0.237 C  
BRANCH  21  22
HETATM   22  C   UNL     1      -5.341  19.230  69.303  1.00  0.00    -0.208 C  
HETATM   23  C   UNL     1      -5.693  20.701  69.419  1.00  0.00    -0.394 C  
ENDBRANCH  21  22
ENDBRANCH  20  21
ENDBRANCH  19  20
ENDBRANCH  18  19
ENDBRANCH  17  18
ENDBRANCH  16  17
ENDBRANCH  15  16
ENDBRANCH  14  15
ENDBRANCH  11  14
ENDBRANCH  10  11
ENDBRANCH   9  10
ENDBRANCH   8   9
ENDBRANCH   7   8
ENDBRANCH   6   7
ENDBRANCH   5   6
ENDBRANCH   4   5
ENDBRANCH   3   4
ENDBRANCH   2   3
TORSDOF 18
ENDMDL
MODEL      313
REMARK 921   NORMALIZED FREE ENERGY PREDICTED BY IDOCK:   -2.37 KCAL/MOL
REMARK 922        TOTAL FREE ENERGY PREDICTED BY IDOCK:   -7.57 KCAL/MOL
REMARK 923 INTER-LIGAND FREE ENERGY PREDICTED BY IDOCK:   -5.11 KCAL/MOL
REMARK 924 INTRA-LIGAND FREE ENERGY PREDICTED BY IDOCK:   -2.45 KCAL/MOL
REMARK 927      BINDING AFFINITY PREDICTED BY RF-SCORE:    0.00 PKD
ROOT
HETATM    1  C   UNL     1     -10.981   6.088  67.503  1.00  0.00    -0.335 C  
HETATM    2  C   UNL     1      -9.708   5.304  67.764  1.00  0.00    -0.170 C  
ENDROOT
BRANCH   2   3
HETATM    3  C   UNL     1      -8.471   6.166  67.528  1.00  0.00    -0.108 C  
BRANCH   3   4
HETATM    4  C   UNL     1      -8.870   7.570  67.089  1.00  0.00    -0.127 C  
BRANCH   4   5
HETATM    5  C   UNL     1      -8.225   8.622  67.980  1.00  0.00    -0.115 C  
BRANCH   5   6
HETATM    6  C   UNL     1      -6.897   8.117  68.535  1.00  0.00    -0.068 C  
BRANCH   6   7
HETATM    7  C   UNL     1      -6.728   8.579  69.972  1.00  0.00    -0.042 C  
BRANCH   7   8
HETATM    8  C   UNL     1      -8.073   8.819  70.650  1.00  0.00    -0.145 C  
BRANCH   8   9
HETATM    9  C   UNL     1      -8.394   7.610  71.516  1.00  0.00    -0.114 C  
BRANCH   9  10
HETATM   10  C   UNL     1      -9.747   7.002  71.170  1.00  0.00    -0.172 C  
BRANCH  10  11
HETATM   11  N   UNL     1     -10.724   7.001  72.374  1.00  0.00    -0.222 N  
HETATM   12  C   UNL     1     -11.254   5.589  72.627  1.00  0.00    -0.295 C  
HETATM   13  C   UNL     1     -10.018   7.520  73.629  1.00  0.00    -0.291 C  
BRANCH  11  14
HETATM   14  C   UNL     1     -11.887   7.950  71.981  1.00  0.00    -0.318 C  
BRANCH  14  15
HETATM   15  C   UNL     1     -11.690   8.579  70.610  1.00  0.00    -0.161 C  
BRANCH  15  16
HETATM   16  C   UNL     1     -11.375  10.066  70.703  1.00  0.00    -0.425 C  
BRANCH  16  17
HETATM   17  C   UNL     1     -11.492  10.669  69.307  1.00  0.00    -0.351 C  
BRANCH  17  18
HETATM   18  C   UNL     1     -10.164  11.227  68.825  1.00  0.00    -0.215 C  
BRANCH  18  19
HETATM   19  C   UNL     1     -10.316  12.706  68.494  1.00  0.00    -0.232 C  
BRANCH  19  20
HETATM   20  C   UNL     1      -9.974  12.965  67.031  1.00  0.00    -0.244 C  
BRANCH  20  21
HETATM   21  C   UNL     1     -11.239  13.170  66.203  1.00  0.00    -0.320 C  
BRANCH  21  22
HETATM   22  C   UNL     1     -11.575  11.910  65.413  1.00  0.00    -0.284 C  
HETATM   23  C   UNL     1     -10.320  11.141  65.043  1.00  0.00    -0.362 C  
ENDBRANCH  21  22
ENDBRANCH  20  21
ENDBRANCH  19  20
ENDBRANCH  18  19
ENDBRANCH  17  18
ENDBRANCH  16  17
ENDBRANCH  15  16
ENDBRANCH  14  15
ENDBRANCH  11  14
ENDBRANCH  10  11
ENDBRANCH   9  10
ENDBRANCH   8   9
ENDBRANCH   7   8
ENDBRANCH   6   7
ENDBRANCH   5   6
ENDBRANCH   4   5
ENDBRANCH   3   4
ENDBRANCH   2   3
TORSDOF 18
ENDMDL
MODEL      314
REMARK 921   NORMALIZED FREE ENERGY PREDICTED BY IDOCK:   -2.37 KCAL/MOL
REMARK 922        TOTAL FREE ENERGY PREDICTED BY IDOCK:   -7.57 KCAL/MOL
REMARK 923 INTER-LIGAND FREE ENERGY PREDICTED BY IDOCK:   -6.25 KCAL/MOL
REMARK 924 INTRA-LIGAND FREE ENERGY PREDICTED BY IDOCK:   -1.32 KCAL/MOL
REMARK 927      BINDING AFFINITY PREDICTED BY RF-SCORE:    0.00 PKD
ROOT
HETATM    1  C   UNL     1     -12.127   8.395  72.077  1.00  0.00    -0.417 C  
HETATM    2  C   UNL     1     -12.498   6.982  71.666  1.00  0.00    -0.413 C  
ENDROOT
BRANCH   2   3
HETATM    3  C   UNL     1     -11.717   6.544  70.431  1.00  0.00    -0.439 C  
BRANCH   3   4
HETATM    4  C   UNL     1     -10.289   6.164  70.804  1.00  0.00    -0.266 C  
BRANCH   4   5
HETATM    5  C   UNL     1      -9.283   6.976  70.000  1.00  0.00    -0.148 C  
BRANCH   5   6
HETATM    6  C   UNL     1      -7.903   6.915  70.646  1.00  0.00    -0.101 C  
BRANCH   6   7
HETATM    7  C   UNL     1      -7.088   8.131  70.239  1.00  0.00    -0.047 C  
BRANCH   7   8
HETATM    8  C   UNL     1      -5.874   7.742  69.402  1.00  0.00    -0.030 C  
BRANCH   8   9
HETATM    9  C   UNL     1      -5.939   8.502  68.085  1.00  0.00    -0.046 C  
BRANCH   9  10
HETATM   10  C   UNL     1      -6.940   7.884  67.118  1.00  0.00    -0.074 C  
BRANCH  10  11
HETATM   11  N   UNL     1      -7.768   8.952  66.357  1.00  0.00    -0.094 N  
HETATM   12  C   UNL     1      -6.873  10.116  65.934  1.00  0.00    -0.115 C  
HETATM   13  C   UNL     1      -8.425   8.330  65.122  1.00  0.00    -0.146 C  
BRANCH  11  14
HETATM   14  C   UNL     1      -8.852   9.441  67.352  1.00  0.00    -0.128 C  
BRANCH  14  15
HETATM   15  C   UNL     1      -9.932  10.275  66.678  1.00  0.00    -0.270 C  
BRANCH  15  16
HETATM   16  C   UNL     1     -11.110  10.543  67.604  1.00  0.00    -0.375 C  
BRANCH  16  17
HETATM   17  C   UNL     1     -10.629  11.430  68.748  1.00  0.00    -0.235 C  
BRANCH  17  18
HETATM   18  C   UNL     1     -11.791  12.077  69.482  1.00  0.00    -0.390 C  
BRANCH  18  19
HETATM   19  C   UNL     1     -11.698  13.592  69.361  1.00  0.00    -0.381 C  
BRANCH  19  20
HETATM   20  C   UNL     1     -12.227  14.263  70.624  1.00  0.00    -0.427 C  
BRANCH  20  21
HETATM   21  C   UNL     1     -13.023  13.277  71.475  1.00  0.00    -0.426 C  
BRANCH  21  22
HETATM   22  C   UNL     1     -13.944  14.019  72.437  1.00  0.00    -0.622 C  
HETATM   23  C   UNL     1     -13.755  15.521  72.333  1.00  0.00    -0.655 C  
ENDBRANCH  21  22
ENDBRANCH  20  21
ENDBRANCH  19  20
ENDBRANCH  18  19
ENDBRANCH  17  18
ENDBRANCH  16  17
ENDBRANCH  15  16
ENDBRANCH  14  15
ENDBRANCH  11  14
ENDBRANCH  10  11
ENDBRANCH   9  10
ENDBRANCH   8   9
ENDBRANCH   7   8
ENDBRANCH   6   7
ENDBRANCH   5   6
ENDBRANCH   4   5
ENDBRANCH   3   4
ENDBRANCH   2   3
TORSDOF 18
ENDMDL
MODEL      315
REMARK 921   NORMALIZED FREE ENERGY PREDICTED BY IDOCK:   -2.36 KCAL/MOL
REMARK 922        TOTAL FREE ENERGY PREDICTED BY IDOCK:   -7.55 KCAL/MOL
REMARK 923 INTER-LIGAND FREE ENERGY PREDICTED BY IDOCK:   -4.99 KCAL/MOL
REMARK 924 INTRA-LIGAND FREE ENERGY PREDICTED BY IDOCK:   -2.56 KCAL/MOL
REMARK 927      BINDING AFFINITY PREDICTED BY RF-SCORE:    0.00 PKD
ROOT
HETATM    1  C   UNL     1      -7.266   9.711  64.221  1.00  0.00    -0.122 C  
HETATM    2  C   UNL     1      -7.522   9.446  65.693  1.00  0.00    -0.095 C  
ENDROOT
BRANCH   2   3
HETATM    3  C   UNL     1      -8.996   9.632  66.039  1.00  0.00    -0.195 C  
BRANCH   3   4
HETATM    4  C   UNL     1      -9.148  10.367  67.366  1.00  0.00    -0.144 C  
BRANCH   4   5
HETATM    5  C   UNL     1     -10.498  11.062  67.451  1.00  0.00    -0.255 C  
BRANCH   5   6
HETATM    6  C   UNL     1     -10.794  11.490  68.885  1.00  0.00    -0.263 C  
BRANCH   6   7
HETATM    7  C   UNL     1     -12.010  10.743  69.407  1.00  0.00    -0.353 C  
BRANCH   7   8
HETATM    8  C   UNL     1     -12.317  11.107  70.856  1.00  0.00    -0.500 C  
BRANCH   8   9
HETATM    9  C   UNL     1     -12.385   9.821  71.668  1.00  0.00    -0.495 C  
BRANCH   9  10
HETATM   10  C   UNL     1     -11.918   8.614  70.865  1.00  0.00    -0.191 C  
BRANCH  10  11
HETATM   11  N   UNL     1     -10.752   7.857  71.553  1.00  0.00    -0.224 N  
HETATM   12  C   UNL     1      -9.532   8.770  71.686  1.00  0.00    -0.288 C  
HETATM   13  C   UNL     1     -11.184   7.367  72.937  1.00  0.00    -0.319 C  
BRANCH  11  14
HETATM   14  C   UNL     1     -10.424   6.652  70.634  1.00  0.00    -0.217 C  
BRANCH  14  15
HETATM   15  C   UNL     1     -11.524   6.373  69.621  1.00  0.00    -0.446 C  
BRANCH  15  16
HETATM   16  C   UNL     1     -10.976   6.215  68.210  1.00  0.00    -0.397 C  
BRANCH  16  17
HETATM   17  C   UNL     1      -9.513   6.645  68.212  1.00  0.00    -0.123 C  
BRANCH  17  18
HETATM   18  C   UNL     1      -8.723   5.953  67.114  1.00  0.00    -0.108 C  
BRANCH  18  19
HETATM   19  C   UNL     1      -7.542   5.207  67.719  1.00  0.00    -0.087 C  
BRANCH  19  20
HETATM   20  C   UNL     1      -7.178   5.793  69.079  1.00  0.00    -0.078 C  
BRANCH  20  21
HETATM   21  C   UNL     1      -5.721   6.243  69.108  1.00  0.00    -0.020 C  
BRANCH  21  22
HETATM   22  C   UNL     1      -5.560   7.592  68.415  1.00  0.00    -0.027 C  
HETATM   23  C   UNL     1      -6.334   8.678  69.139  1.00  0.00    -0.043 C  
ENDBRANCH  21  22
ENDBRANCH  20  21
ENDBRANCH  19  20
ENDBRANCH  18  19
ENDBRANCH  17  18
ENDBRANCH  16  17
ENDBRANCH  15  16
ENDBRANCH  14  15
ENDBRANCH  11  14
ENDBRANCH  10  11
ENDBRANCH   9  10
ENDBRANCH   8   9
ENDBRANCH   7   8
ENDBRANCH   6   7
ENDBRANCH   5   6
ENDBRANCH   4   5
ENDBRANCH   3   4
ENDBRANCH   2   3
TORSDOF 18
ENDMDL
MODEL      316
REMARK 921   NORMALIZED FREE ENERGY PREDICTED BY IDOCK:   -2.36 KCAL/MOL
REMARK 922        TOTAL FREE ENERGY PREDICTED BY IDOCK:   -7.54 KCAL/MOL
REMARK 923 INTER-LIGAND FREE ENERGY PREDICTED BY IDOCK:   -5.72 KCAL/MOL
REMARK 924 INTRA-LIGAND FREE ENERGY PREDICTED BY IDOCK:   -1.82 KCAL/MOL
REMARK 927      BINDING AFFINITY PREDICTED BY RF-SCORE:    0.00 PKD
ROOT
HETATM    1  C   UNL     1     -11.452  11.905  63.458  1.00  0.00    -0.523 C  
HETATM    2  C   UNL     1      -9.957  11.724  63.641  1.00  0.00    -0.404 C  
ENDROOT
BRANCH   2   3
HETATM    3  C   UNL     1      -9.391  10.738  62.624  1.00  0.00    -0.340 C  
BRANCH   3   4
HETATM    4  C   UNL     1      -8.798   9.522  63.325  1.00  0.00    -0.233 C  
BRANCH   4   5
HETATM    5  C   UNL     1      -7.578   9.005  62.578  1.00  0.00    -0.107 C  
BRANCH   5   6
HETATM    6  C   UNL     1      -6.566   8.406  63.549  1.00  0.00    -0.084 C  
BRANCH   6   7
HETATM    7  C   UNL     1      -7.156   8.359  64.947  1.00  0.00    -0.079 C  
BRANCH   7   8
HETATM    8  C   UNL     1      -6.234   9.014  65.971  1.00  0.00    -0.059 C  
BRANCH   8   9
HETATM    9  C   UNL     1      -6.977   9.101  67.297  1.00  0.00    -0.078 C  
BRANCH   9  10
HETATM   10  C   UNL     1      -8.148   8.130  67.360  1.00  0.00    -0.122 C  
BRANCH  10  11
HETATM   11  N   UNL     1      -9.501   8.844  67.615  1.00  0.00    -0.136 N  
HETATM   12  C   UNL     1      -9.423  10.304  67.167  1.00  0.00    -0.158 C  
HETATM   13  C   UNL     1     -10.626   8.132  66.860  1.00  0.00    -0.241 C  
BRANCH  11  14
HETATM   14  C   UNL     1      -9.746   8.763  69.144  1.00  0.00    -0.175 C  
BRANCH  14  15
HETATM   15  C   UNL     1      -9.924  10.133  69.781  1.00  0.00    -0.258 C  
BRANCH  15  16
HETATM   16  C   UNL     1     -11.291  10.288  70.433  1.00  0.00    -0.410 C  
BRANCH  16  17
HETATM   17  C   UNL     1     -12.063  11.365  69.679  1.00  0.00    -0.373 C  
BRANCH  17  18
HETATM   18  C   UNL     1     -11.229  12.620  69.484  1.00  0.00    -0.152 C  
BRANCH  18  19
HETATM   19  C   UNL     1     -11.974  13.601  68.589  1.00  0.00    -0.395 C  
BRANCH  19  20
HETATM   20  C   UNL     1     -12.089  13.052  67.171  1.00  0.00    -0.325 C  
BRANCH  20  21
HETATM   21  C   UNL     1     -11.568  14.060  66.151  1.00  0.00    -0.374 C  
BRANCH  21  22
HETATM   22  C   UNL     1     -10.990  15.284  66.852  1.00  0.00    -0.315 C  
HETATM   23  C   UNL     1     -10.392  16.259  65.854  1.00  0.00    -0.381 C  
ENDBRANCH  21  22
ENDBRANCH  20  21
ENDBRANCH  19  20
ENDBRANCH  18  19
ENDBRANCH  17  18
ENDBRANCH  16  17
ENDBRANCH  15  16
ENDBRANCH  14  15
ENDBRANCH  11  14
ENDBRANCH  10  11
ENDBRANCH   9  10
ENDBRANCH   8   9
ENDBRANCH   7   8
ENDBRANCH   6   7
ENDBRANCH   5   6
ENDBRANCH   4   5
ENDBRANCH   3   4
ENDBRANCH   2   3
TORSDOF 18
ENDMDL
MODEL      317
REMARK 921   NORMALIZED FREE ENERGY PREDICTED BY IDOCK:   -2.36 KCAL/MOL
REMARK 922        TOTAL FREE ENERGY PREDICTED BY IDOCK:   -7.53 KCAL/MOL
REMARK 923 INTER-LIGAND FREE ENERGY PREDICTED BY IDOCK:   -6.52 KCAL/MOL
REMARK 924 INTRA-LIGAND FREE ENERGY PREDICTED BY IDOCK:   -1.01 KCAL/MOL
REMARK 927      BINDING AFFINITY PREDICTED BY RF-SCORE:    0.00 PKD
ROOT
HETATM    1  C   UNL     1      -5.684   9.898  66.313  1.00  0.00    -0.058 C  
HETATM    2  C   UNL     1      -6.859   8.950  66.161  1.00  0.00    -0.074 C  
ENDROOT
BRANCH   2   3
HETATM    3  C   UNL     1      -8.103   9.498  66.852  1.00  0.00    -0.109 C  
BRANCH   3   4
HETATM    4  C   UNL     1      -8.725   8.442  67.758  1.00  0.00    -0.137 C  
BRANCH   4   5
HETATM    5  C   UNL     1      -8.721   8.900  69.209  1.00  0.00    -0.138 C  
BRANCH   5   6
HETATM    6  C   UNL     1     -10.116   8.779  69.815  1.00  0.00    -0.198 C  
BRANCH   6   7
HETATM    7  C   UNL     1     -10.682  10.161  70.089  1.00  0.00    -0.355 C  
BRANCH   7   8
HETATM    8  C   UNL     1     -11.495  10.683  68.909  1.00  0.00    -0.334 C  
BRANCH   8   9
HETATM    9  C   UNL     1     -11.080  12.122  68.641  1.00  0.00    -0.297 C  
BRANCH   9  10
HETATM   10  C   UNL     1     -12.034  12.823  67.683  1.00  0.00    -0.273 C  
BRANCH  10  11
HETATM   11  N   UNL     1     -11.328  13.309  66.390  1.00  0.00    -0.303 N  
HETATM   12  C   UNL     1     -10.127  12.418  66.074  1.00  0.00    -0.251 C  
HETATM   13  C   UNL     1     -12.309  13.291  65.215  1.00  0.00    -0.476 C  
BRANCH  11  14
HETATM   14  C   UNL     1     -10.861  14.759  66.678  1.00  0.00    -0.319 C  
BRANCH  14  15
HETATM   15  C   UNL     1     -10.560  15.540  65.406  1.00  0.00    -0.428 C  
BRANCH  15  16
HETATM   16  C   UNL     1     -10.454  17.036  65.665  1.00  0.00    -0.229 C  
BRANCH  16  17
HETATM   17  C   UNL     1     -10.380  17.259  67.172  1.00  0.00    -0.321 C  
BRANCH  17  18
HETATM   18  C   UNL     1     -10.518  18.729  67.528  1.00  0.00    -0.495 C  
BRANCH  18  19
HETATM   19  C   UNL     1      -9.712  19.033  68.784  1.00  0.00    -0.473 C  
BRANCH  19  20
HETATM   20  C   UNL     1      -8.444  19.802  68.433  1.00  0.00    -0.295 C  
BRANCH  20  21
HETATM   21  C   UNL     1      -7.211  19.120  69.019  1.00  0.00    -0.370 C  
BRANCH  21  22
HETATM   22  C   UNL     1      -6.506  20.040  70.009  1.00  0.00    -0.347 C  
HETATM   23  C   UNL     1      -5.378  19.320  70.723  1.00  0.00    -0.243 C  
ENDBRANCH  21  22
ENDBRANCH  20  21
ENDBRANCH  19  20
ENDBRANCH  18  19
ENDBRANCH  17  18
ENDBRANCH  16  17
ENDBRANCH  15  16
ENDBRANCH  14  15
ENDBRANCH  11  14
ENDBRANCH  10  11
ENDBRANCH   9  10
ENDBRANCH   8   9
ENDBRANCH   7   8
ENDBRANCH   6   7
ENDBRANCH   5   6
ENDBRANCH   4   5
ENDBRANCH   3   4
ENDBRANCH   2   3
TORSDOF 18
ENDMDL
MODEL      318
REMARK 921   NORMALIZED FREE ENERGY PREDICTED BY IDOCK:   -2.35 KCAL/MOL
REMARK 922        TOTAL FREE ENERGY PREDICTED BY IDOCK:   -7.53 KCAL/MOL
REMARK 923 INTER-LIGAND FREE ENERGY PREDICTED BY IDOCK:   -6.37 KCAL/MOL
REMARK 924 INTRA-LIGAND FREE ENERGY PREDICTED BY IDOCK:   -1.16 KCAL/MOL
REMARK 927      BINDING AFFINITY PREDICTED BY RF-SCORE:    0.00 PKD
ROOT
HETATM    1  C   UNL     1      -6.596  18.487  65.671  1.00  0.00    -0.310 C  
HETATM    2  C   UNL     1      -6.750  19.641  66.643  1.00  0.00    -0.202 C  
ENDROOT
BRANCH   2   3
HETATM    3  C   UNL     1      -8.218  20.005  66.839  1.00  0.00    -0.368 C  
BRANCH   3   4
HETATM    4  C   UNL     1      -8.669  19.679  68.259  1.00  0.00    -0.361 C  
BRANCH   4   5
HETATM    5  C   UNL     1      -9.879  18.757  68.247  1.00  0.00    -0.418 C  
BRANCH   5   6
HETATM    6  C   UNL     1      -9.453  17.313  68.000  1.00  0.00    -0.271 C  
BRANCH   6   7
HETATM    7  C   UNL     1     -10.459  16.625  67.093  1.00  0.00    -0.300 C  
BRANCH   7   8
HETATM    8  C   UNL     1      -9.794  16.048  65.848  1.00  0.00    -0.380 C  
BRANCH   8   9
HETATM    9  C   UNL     1     -10.079  14.554  65.803  1.00  0.00    -0.365 C  
BRANCH   9  10
HETATM   10  C   UNL     1      -9.825  13.883  67.147  1.00  0.00    -0.241 C  
BRANCH  10  11
HETATM   11  N   UNL     1     -10.982  12.941  67.569  1.00  0.00    -0.249 N  
HETATM   12  C   UNL     1     -12.213  13.756  67.965  1.00  0.00    -0.144 C  
HETATM   13  C   UNL     1     -11.337  11.992  66.422  1.00  0.00    -0.354 C  
BRANCH  11  14
HETATM   14  C   UNL     1     -10.455  12.137  68.787  1.00  0.00    -0.176 C  
BRANCH  14  15
HETATM   15  C   UNL     1     -11.541  11.304  69.451  1.00  0.00    -0.390 C  
BRANCH  15  16
HETATM   16  C   UNL     1     -10.985  10.032  70.076  1.00  0.00    -0.352 C  
BRANCH  16  17
HETATM   17  C   UNL     1      -9.511   9.918  69.700  1.00  0.00    -0.252 C  
BRANCH  17  18
HETATM   18  C   UNL     1      -9.272   8.794  68.706  1.00  0.00    -0.141 C  
BRANCH  18  19
HETATM   19  C   UNL     1     -10.074   7.565  69.114  1.00  0.00    -0.192 C  
BRANCH  19  20
HETATM   20  C   UNL     1     -10.883   7.038  67.934  1.00  0.00    -0.252 C  
BRANCH  20  21
HETATM   21  C   UNL     1      -9.970   6.649  66.775  1.00  0.00    -0.238 C  
BRANCH  21  22
HETATM   22  C   UNL     1     -10.343   5.274  66.235  1.00  0.00    -0.287 C  
HETATM   23  C   UNL     1      -9.119   4.388  66.091  1.00  0.00    -0.130 C  
ENDBRANCH  21  22
ENDBRANCH  20  21
ENDBRANCH  19  20
ENDBRANCH  18  19
ENDBRANCH  17  18
ENDBRANCH  16  17
ENDBRANCH  15  16
ENDBRANCH  14  15
ENDBRANCH  11  14
ENDBRANCH  10  11
ENDBRANCH   9  10
ENDBRANCH   8   9
ENDBRANCH   7   8
ENDBRANCH   6   7
ENDBRANCH   5   6
ENDBRANCH   4   5
ENDBRANCH   3   4
ENDBRANCH   2   3
TORSDOF 18
ENDMDL
MODEL      319
REMARK 921   NORMALIZED FREE ENERGY PREDICTED BY IDOCK:   -2.33 KCAL/MOL
REMARK 922        TOTAL FREE ENERGY PREDICTED BY IDOCK:   -7.48 KCAL/MOL
REMARK 923 INTER-LIGAND FREE ENERGY PREDICTED BY IDOCK:   -5.77 KCAL/MOL
REMARK 924 INTRA-LIGAND FREE ENERGY PREDICTED BY IDOCK:   -1.71 KCAL/MOL
REMARK 927      BINDING AFFINITY PREDICTED BY RF-SCORE:    0.00 PKD
ROOT
HETATM    1  C   UNL     1     -10.349  10.530  66.338  1.00  0.00    -0.283 C  
HETATM    2  C   UNL     1      -9.436   9.527  65.658  1.00  0.00    -0.326 C  
ENDROOT
BRANCH   2   3
HETATM    3  C   UNL     1      -7.979   9.752  66.050  1.00  0.00    -0.111 C  
BRANCH   3   4
HETATM    4  C   UNL     1      -7.608   8.898  67.257  1.00  0.00    -0.089 C  
BRANCH   4   5
HETATM    5  C   UNL     1      -7.579   7.422  66.889  1.00  0.00    -0.102 C  
BRANCH   5   6
HETATM    6  C   UNL     1      -7.813   6.555  68.123  1.00  0.00    -0.106 C  
BRANCH   6   7
HETATM    7  C   UNL     1      -9.278   6.607  68.520  1.00  0.00    -0.127 C  
BRANCH   7   8
HETATM    8  C   UNL     1      -9.717   5.328  69.227  1.00  0.00    -0.235 C  
BRANCH   8   9
HETATM    9  C   UNL     1      -9.197   5.369  70.656  1.00  0.00    -0.183 C  
BRANCH   9  10
HETATM   10  C   UNL     1      -9.624   6.637  71.383  1.00  0.00    -0.168 C  
BRANCH  10  11
HETATM   11  N   UNL     1     -10.464   6.341  72.653  1.00  0.00    -0.203 N  
HETATM   12  C   UNL     1      -9.890   5.137  73.400  1.00  0.00    -0.154 C  
HETATM   13  C   UNL     1     -10.478   7.563  73.574  1.00  0.00    -0.306 C  
BRANCH  11  14
HETATM   14  C   UNL     1     -11.898   6.030  72.153  1.00  0.00    -0.247 C  
BRANCH  14  15
HETATM   15  C   UNL     1     -12.442   7.107  71.226  1.00  0.00    -0.425 C  
BRANCH  15  16
HETATM   16  C   UNL     1     -13.871   7.495  71.575  1.00  0.00    -0.487 C  
BRANCH  16  17
HETATM   17  C   UNL     1     -13.942   9.014  71.690  1.00  0.00    -0.386 C  
BRANCH  17  18
HETATM   18  C   UNL     1     -13.309   9.697  70.489  1.00  0.00     0.182 C  
BRANCH  18  19
HETATM   19  C   UNL     1     -12.465  10.876  70.952  1.00  0.00    -0.507 C  
BRANCH  19  20
HETATM   20  C   UNL     1     -11.390  11.203  69.921  1.00  0.00    -0.348 C  
BRANCH  20  21
HETATM   21  C   UNL     1     -11.577  12.610  69.363  1.00  0.00    -0.369 C  
BRANCH  21  22
HETATM   22  C   UNL     1     -12.208  13.523  70.409  1.00  0.00    -0.426 C  
HETATM   23  C   UNL     1     -11.952  14.985  70.090  1.00  0.00    -0.366 C  
ENDBRANCH  21  22
ENDBRANCH  20  21
ENDBRANCH  19  20
ENDBRANCH  18  19
ENDBRANCH  17  18
ENDBRANCH  16  17
ENDBRANCH  15  16
ENDBRANCH  14  15
ENDBRANCH  11  14
ENDBRANCH  10  11
ENDBRANCH   9  10
ENDBRANCH   8   9
ENDBRANCH   7   8
ENDBRANCH   6   7
ENDBRANCH   5   6
ENDBRANCH   4   5
ENDBRANCH   3   4
ENDBRANCH   2   3
TORSDOF 18
ENDMDL
MODEL      320
REMARK 921   NORMALIZED FREE ENERGY PREDICTED BY IDOCK:   -2.33 KCAL/MOL
REMARK 922        TOTAL FREE ENERGY PREDICTED BY IDOCK:   -7.47 KCAL/MOL
REMARK 923 INTER-LIGAND FREE ENERGY PREDICTED BY IDOCK:   -5.33 KCAL/MOL
REMARK 924 INTRA-LIGAND FREE ENERGY PREDICTED BY IDOCK:   -2.14 KCAL/MOL
REMARK 927      BINDING AFFINITY PREDICTED BY RF-SCORE:    0.00 PKD
ROOT
HETATM    1  C   UNL     1      -5.495   9.584  66.128  1.00  0.00    -0.044 C  
HETATM    2  C   UNL     1      -6.062   8.998  67.407  1.00  0.00    -0.054 C  
ENDROOT
BRANCH   2   3
HETATM    3  C   UNL     1      -6.690   7.630  67.156  1.00  0.00    -0.067 C  
BRANCH   3   4
HETATM    4  C   UNL     1      -8.164   7.636  67.544  1.00  0.00    -0.121 C  
BRANCH   4   5
HETATM    5  C   UNL     1      -8.488   8.827  68.434  1.00  0.00    -0.130 C  
BRANCH   5   6
HETATM    6  C   UNL     1      -9.076   9.969  67.611  1.00  0.00    -0.142 C  
BRANCH   6   7
HETATM    7  C   UNL     1      -9.906   9.409  66.469  1.00  0.00    -0.325 C  
BRANCH   7   8
HETATM    8  C   UNL     1      -9.477   9.985  65.123  1.00  0.00    -0.331 C  
BRANCH   8   9
HETATM    9  C   UNL     1      -9.670  11.494  65.166  1.00  0.00    -0.268 C  
BRANCH   9  10
HETATM   10  C   UNL     1     -11.115  11.893  64.900  1.00  0.00    -0.307 C  
BRANCH  10  11
HETATM   11  N   UNL     1     -11.488  13.250  65.552  1.00  0.00    -0.306 N  
HETATM   12  C   UNL     1     -12.822  13.755  65.001  1.00  0.00    -0.272 C  
HETATM   13  C   UNL     1     -11.580  13.099  67.072  1.00  0.00    -0.359 C  
BRANCH  11  14
HETATM   14  C   UNL     1     -10.346  14.231  65.178  1.00  0.00    -0.415 C  
BRANCH  14  15
HETATM   15  C   UNL     1     -10.796  15.684  65.194  1.00  0.00    -0.448 C  
BRANCH  15  16
HETATM   16  C   UNL     1      -9.850  16.568  65.994  1.00  0.00    -0.348 C  
BRANCH  16  17
HETATM   17  C   UNL     1     -10.450  16.783  67.380  1.00  0.00    -0.310 C  
BRANCH  17  18
HETATM   18  C   UNL     1      -9.375  16.876  68.449  1.00  0.00    -0.255 C  
BRANCH  18  19
HETATM   19  C   UNL     1      -9.252  15.544  69.175  1.00  0.00    -0.246 C  
BRANCH  19  20
HETATM   20  C   UNL     1      -7.904  14.895  68.880  1.00  0.00    -0.161 C  
BRANCH  20  21
HETATM   21  C   UNL     1      -8.042  13.806  67.820  1.00  0.00    -0.176 C  
BRANCH  21  22
HETATM   22  C   UNL     1      -6.828  12.885  67.835  1.00  0.00    -0.120 C  
HETATM   23  C   UNL     1      -5.542  13.671  68.012  1.00  0.00    -0.125 C  
ENDBRANCH  21  22
ENDBRANCH  20  21
ENDBRANCH  19  20
ENDBRANCH  18  19
ENDBRANCH  17  18
ENDBRANCH  16  17
ENDBRANCH  15  16
ENDBRANCH  14  15
ENDBRANCH  11  14
ENDBRANCH  10  11
ENDBRANCH   9  10
ENDBRANCH   8   9
ENDBRANCH   7   8
ENDBRANCH   6   7
ENDBRANCH   5   6
ENDBRANCH   4   5
ENDBRANCH   3   4
ENDBRANCH   2   3
TORSDOF 18
ENDMDL
MODEL      321
REMARK 921   NORMALIZED FREE ENERGY PREDICTED BY IDOCK:   -2.32 KCAL/MOL
REMARK 922        TOTAL FREE ENERGY PREDICTED BY IDOCK:   -7.47 KCAL/MOL
REMARK 923 INTER-LIGAND FREE ENERGY PREDICTED BY IDOCK:   -5.87 KCAL/MOL
REMARK 924 INTRA-LIGAND FREE ENERGY PREDICTED BY IDOCK:   -1.60 KCAL/MOL
REMARK 927      BINDING AFFINITY PREDICTED BY RF-SCORE:    0.00 PKD
ROOT
HETATM    1  C   UNL     1      -5.494   7.942  70.472  1.00  0.00    -0.023 C  
HETATM    2  C   UNL     1      -5.636   8.736  71.757  1.00  0.00    -0.051 C  
ENDROOT
BRANCH   2   3
HETATM    3  C   UNL     1      -6.322   7.913  72.843  1.00  0.00    -0.070 C  
BRANCH   3   4
HETATM    4  C   UNL     1      -7.004   6.690  72.240  1.00  0.00    -0.068 C  
BRANCH   4   5
HETATM    5  C   UNL     1      -7.502   5.753  73.330  1.00  0.00    -0.095 C  
BRANCH   5   6
HETATM    6  C   UNL     1      -8.709   4.956  72.845  1.00  0.00    -0.117 C  
BRANCH   6   7
HETATM    7  C   UNL     1      -9.936   5.331  73.657  1.00  0.00    -0.194 C  
BRANCH   7   8
HETATM    8  C   UNL     1     -11.002   5.999  72.794  1.00  0.00    -0.299 C  
BRANCH   8   9
HETATM    9  C   UNL     1     -10.970   7.496  73.066  1.00  0.00    -0.443 C  
BRANCH   9  10
HETATM   10  C   UNL     1     -11.817   8.276  72.071  1.00  0.00    -0.347 C  
BRANCH  10  11
HETATM   11  N   UNL     1     -10.970   8.912  70.938  1.00  0.00    -0.250 N  
HETATM   12  C   UNL     1      -9.534   9.139  71.413  1.00  0.00    -0.209 C  
HETATM   13  C   UNL     1     -10.969   8.005  69.705  1.00  0.00    -0.137 C  
BRANCH  11  14
HETATM   14  C   UNL     1     -11.647  10.267  70.607  1.00  0.00    -0.347 C  
BRANCH  14  15
HETATM   15  C   UNL     1     -11.847  10.471  69.112  1.00  0.00    -0.218 C  
BRANCH  15  16
HETATM   16  C   UNL     1     -10.945  11.565  68.559  1.00  0.00    -0.268 C  
BRANCH  16  17
HETATM   17  C   UNL     1     -11.461  12.911  69.059  1.00  0.00    -0.358 C  
BRANCH  17  18
HETATM   18  C   UNL     1     -10.759  14.070  68.373  1.00  0.00    -0.261 C  
BRANCH  18  19
HETATM   19  C   UNL     1     -11.736  14.798  67.459  1.00  0.00    -0.370 C  
BRANCH  19  20
HETATM   20  C   UNL     1     -11.540  14.363  66.011  1.00  0.00    -0.364 C  
BRANCH  20  21
HETATM   21  C   UNL     1     -12.765  13.616  65.493  1.00  0.00    -0.514 C  
BRANCH  21  22
HETATM   22  C   UNL     1     -12.347  12.404  64.669  1.00  0.00    -0.518 C  
HETATM   23  C   UNL     1     -10.849  12.172  64.750  1.00  0.00    -0.351 C  
ENDBRANCH  21  22
ENDBRANCH  20  21
ENDBRANCH  19  20
ENDBRANCH  18  19
ENDBRANCH  17  18
ENDBRANCH  16  17
ENDBRANCH  15  16
ENDBRANCH  14  15
ENDBRANCH  11  14
ENDBRANCH  10  11
ENDBRANCH   9  10
ENDBRANCH   8   9
ENDBRANCH   7   8
ENDBRANCH   6   7
ENDBRANCH   5   6
ENDBRANCH   4   5
ENDBRANCH   3   4
ENDBRANCH   2   3
TORSDOF 18
ENDMDL
MODEL      322
REMARK 921   NORMALIZED FREE ENERGY PREDICTED BY IDOCK:   -2.32 KCAL/MOL
REMARK 922        TOTAL FREE ENERGY PREDICTED BY IDOCK:   -7.46 KCAL/MOL
REMARK 923 INTER-LIGAND FREE ENERGY PREDICTED BY IDOCK:   -5.41 KCAL/MOL
REMARK 924 INTRA-LIGAND FREE ENERGY PREDICTED BY IDOCK:   -2.05 KCAL/MOL
REMARK 927      BINDING AFFINITY PREDICTED BY RF-SCORE:    0.00 PKD
ROOT
HETATM    1  C   UNL     1      -6.349   8.122  67.238  1.00  0.00    -0.056 C  
HETATM    2  C   UNL     1      -6.759   7.927  68.686  1.00  0.00    -0.058 C  
ENDROOT
BRANCH   2   3
HETATM    3  C   UNL     1      -7.507   6.611  68.875  1.00  0.00    -0.096 C  
BRANCH   3   4
HETATM    4  C   UNL     1      -8.971   6.867  69.212  1.00  0.00    -0.137 C  
BRANCH   4   5
HETATM    5  C   UNL     1      -9.217   8.346  69.476  1.00  0.00    -0.154 C  
BRANCH   5   6
HETATM    6  C   UNL     1     -10.157   8.931  68.427  1.00  0.00    -0.215 C  
BRANCH   6   7
HETATM    7  C   UNL     1     -10.277   7.977  67.251  1.00  0.00    -0.345 C  
BRANCH   7   8
HETATM    8  C   UNL     1      -9.882   8.647  65.938  1.00  0.00    -0.073 C  
BRANCH   8   9
HETATM    9  C   UNL     1      -9.783  10.147  66.178  1.00  0.00    -0.275 C  
BRANCH   9  10
HETATM   10  C   UNL     1     -10.358  10.950  65.019  1.00  0.00    -0.288 C  
BRANCH  10  11
HETATM   11  N   UNL     1     -10.833  12.361  65.450  1.00  0.00    -0.277 N  
HETATM   12  C   UNL     1     -10.132  13.435  64.618  1.00  0.00    -0.229 C  
HETATM   13  C   UNL     1     -12.350  12.483  65.279  1.00  0.00    -0.403 C  
BRANCH  11  14
HETATM   14  C   UNL     1     -10.449  12.503  66.946  1.00  0.00    -0.228 C  
BRANCH  14  15
HETATM   15  C   UNL     1     -11.615  12.963  67.808  1.00  0.00    -0.391 C  
BRANCH  15  16
HETATM   16  C   UNL     1     -11.312  12.838  69.295  1.00  0.00    -0.307 C  
BRANCH  16  17
HETATM   17  C   UNL     1     -12.013  11.591  69.825  1.00  0.00    -0.415 C  
BRANCH  17  18
HETATM   18  C   UNL     1     -13.333  11.933  70.493  1.00  0.00     0.929 C  
BRANCH  18  19
HETATM   19  C   UNL     1     -13.208  11.759  72.001  1.00  0.00    -0.460 C  
BRANCH  19  20
HETATM   20  C   UNL     1     -13.184  13.115  72.696  1.00  0.00    -0.293 C  
BRANCH  20  21
HETATM   21  C   UNL     1     -14.140  14.093  72.019  1.00  0.00    -0.619 C  
BRANCH  21  22
HETATM   22  C   UNL     1     -13.469  15.446  71.814  1.00  0.00    -0.581 C  
HETATM   23  C   UNL     1     -12.778  15.519  70.464  1.00  0.00    -0.436 C  
ENDBRANCH  21  22
ENDBRANCH  20  21
ENDBRANCH  19  20
ENDBRANCH  18  19
ENDBRANCH  17  18
ENDBRANCH  16  17
ENDBRANCH  15  16
ENDBRANCH  14  15
ENDBRANCH  11  14
ENDBRANCH  10  11
ENDBRANCH   9  10
ENDBRANCH   8   9
ENDBRANCH   7   8
ENDBRANCH   6   7
ENDBRANCH   5   6
ENDBRANCH   4   5
ENDBRANCH   3   4
ENDBRANCH   2   3
TORSDOF 18
ENDMDL
MODEL      323
REMARK 921   NORMALIZED FREE ENERGY PREDICTED BY IDOCK:   -2.31 KCAL/MOL
REMARK 922        TOTAL FREE ENERGY PREDICTED BY IDOCK:   -7.45 KCAL/MOL
REMARK 923 INTER-LIGAND FREE ENERGY PREDICTED BY IDOCK:   -4.77 KCAL/MOL
REMARK 924 INTRA-LIGAND FREE ENERGY PREDICTED BY IDOCK:   -2.68 KCAL/MOL
REMARK 927      BINDING AFFINITY PREDICTED BY RF-SCORE:    0.00 PKD
ROOT
HETATM    1  C   UNL     1     -10.462  14.548  65.148  1.00  0.00    -0.439 C  
HETATM    2  C   UNL     1     -11.815  14.112  64.617  1.00  0.00    -0.443 C  
ENDROOT
BRANCH   2   3
HETATM    3  C   UNL     1     -12.065  12.632  64.891  1.00  0.00    -0.494 C  
BRANCH   3   4
HETATM    4  C   UNL     1     -10.817  11.811  64.588  1.00  0.00    -0.363 C  
BRANCH   4   5
HETATM    5  C   UNL     1     -10.517  10.841  65.721  1.00  0.00    -0.256 C  
BRANCH   5   6
HETATM    6  C   UNL     1     -11.215  11.279  67.005  1.00  0.00    -0.324 C  
BRANCH   6   7
HETATM    7  C   UNL     1     -10.935  10.279  68.113  1.00  0.00    -0.328 C  
BRANCH   7   8
HETATM    8  C   UNL     1      -9.988   9.176  67.652  1.00  0.00    -0.245 C  
BRANCH   8   9
HETATM    9  C   UNL     1     -10.589   7.835  68.045  1.00  0.00    -0.201 C  
BRANCH   9  10
HETATM   10  C   UNL     1     -10.844   6.946  66.835  1.00  0.00    -0.310 C  
BRANCH  10  11
HETATM   11  N   UNL     1      -9.741   5.874  66.641  1.00  0.00    -0.152 N  
HETATM   12  C   UNL     1     -10.345   4.587  66.078  1.00  0.00    -0.243 C  
HETATM   13  C   UNL     1      -8.659   6.395  65.692  1.00  0.00    -0.133 C  
BRANCH  11  14
HETATM   14  C   UNL     1      -9.143   5.617  68.048  1.00  0.00    -0.107 C  
BRANCH  14  15
HETATM   15  C   UNL     1      -7.711   6.116  68.175  1.00  0.00    -0.103 C  
BRANCH  15  16
HETATM   16  C   UNL     1      -7.489   6.898  69.462  1.00  0.00    -0.096 C  
BRANCH  16  17
HETATM   17  C   UNL     1      -6.563   8.071  69.157  1.00  0.00    -0.040 C  
BRANCH  17  18
HETATM   18  C   UNL     1      -6.336   8.232  67.664  1.00  0.00    -0.053 C  
BRANCH  18  19
HETATM   19  C   UNL     1      -5.237   9.257  67.417  1.00  0.00    -0.037 C  
BRANCH  19  20
HETATM   20  C   UNL     1      -5.754  10.669  67.669  1.00  0.00    -0.043 C  
BRANCH  20  21
HETATM   21  C   UNL     1      -6.875  11.021  66.695  1.00  0.00    -0.137 C  
BRANCH  21  22
HETATM   22  C   UNL     1      -7.533  12.339  67.088  1.00  0.00    -0.113 C  
HETATM   23  C   UNL     1      -7.864  12.370  68.569  1.00  0.00    -0.112 C  
ENDBRANCH  21  22
ENDBRANCH  20  21
ENDBRANCH  19  20
ENDBRANCH  18  19
ENDBRANCH  17  18
ENDBRANCH  16  17
ENDBRANCH  15  16
ENDBRANCH  14  15
ENDBRANCH  11  14
ENDBRANCH  10  11
ENDBRANCH   9  10
ENDBRANCH   8   9
ENDBRANCH   7   8
ENDBRANCH   6   7
ENDBRANCH   5   6
ENDBRANCH   4   5
ENDBRANCH   3   4
ENDBRANCH   2   3
TORSDOF 18
ENDMDL
MODEL      324
REMARK 921   NORMALIZED FREE ENERGY PREDICTED BY IDOCK:   -2.31 KCAL/MOL
REMARK 922        TOTAL FREE ENERGY PREDICTED BY IDOCK:   -7.45 KCAL/MOL
REMARK 923 INTER-LIGAND FREE ENERGY PREDICTED BY IDOCK:   -5.68 KCAL/MOL
REMARK 924 INTRA-LIGAND FREE ENERGY PREDICTED BY IDOCK:   -1.77 KCAL/MOL
REMARK 927      BINDING AFFINITY PREDICTED BY RF-SCORE:    0.00 PKD
ROOT
HETATM    1  C   UNL     1      -9.174   7.578  73.773  1.00  0.00    -0.327 C  
HETATM    2  C   UNL     1      -8.207   6.416  73.635  1.00  0.00    -0.113 C  
ENDROOT
BRANCH   2   3
HETATM    3  C   UNL     1      -8.951   5.106  73.394  1.00  0.00    -0.119 C  
BRANCH   3   4
HETATM    4  C   UNL     1      -9.083   4.829  71.901  1.00  0.00    -0.163 C  
BRANCH   4   5
HETATM    5  C   UNL     1     -10.489   5.142  71.412  1.00  0.00    -0.249 C  
BRANCH   5   6
HETATM    6  C   UNL     1     -10.482   5.463  69.921  1.00  0.00    -0.378 C  
BRANCH   6   7
HETATM    7  C   UNL     1     -11.393   6.646  69.643  1.00  0.00    -0.387 C  
BRANCH   7   8
HETATM    8  C   UNL     1     -10.920   7.905  70.363  1.00  0.00    -0.251 C  
BRANCH   8   9
HETATM    9  C   UNL     1      -9.695   8.439  69.635  1.00  0.00    -0.173 C  
BRANCH   9  10
HETATM   10  C   UNL     1      -9.904   9.860  69.130  1.00  0.00    -0.198 C  
BRANCH  10  11
HETATM   11  N   UNL     1      -9.715   9.980  67.596  1.00  0.00    -0.155 N  
HETATM   12  C   UNL     1      -8.376  10.646  67.276  1.00  0.00    -0.120 C  
HETATM   13  C   UNL     1      -9.771   8.595  66.946  1.00  0.00    -0.214 C  
BRANCH  11  14
HETATM   14  C   UNL     1     -10.887  10.859  67.088  1.00  0.00    -0.280 C  
BRANCH  14  15
HETATM   15  C   UNL     1     -10.750  12.315  67.507  1.00  0.00    -0.255 C  
BRANCH  15  16
HETATM   16  C   UNL     1     -11.987  12.819  68.237  1.00  0.00    -0.276 C  
BRANCH  16  17
HETATM   17  C   UNL     1     -11.587  13.185  69.663  1.00  0.00    -0.321 C  
BRANCH  17  18
HETATM   18  C   UNL     1     -12.442  14.315  70.212  1.00  0.00    -0.422 C  
BRANCH  18  19
HETATM   19  C   UNL     1     -11.780  15.654  69.915  1.00  0.00    -0.372 C  
BRANCH  19  20
HETATM   20  C   UNL     1     -10.262  15.531  70.000  1.00  0.00    -0.286 C  
BRANCH  20  21
HETATM   21  C   UNL     1      -9.580  16.538  69.080  1.00  0.00    -0.255 C  
BRANCH  21  22
HETATM   22  C   UNL     1      -9.191  15.882  67.760  1.00  0.00    -0.201 C  
HETATM   23  C   UNL     1      -7.745  15.421  67.779  1.00  0.00    -0.160 C  
ENDBRANCH  21  22
ENDBRANCH  20  21
ENDBRANCH  19  20
ENDBRANCH  18  19
ENDBRANCH  17  18
ENDBRANCH  16  17
ENDBRANCH  15  16
ENDBRANCH  14  15
ENDBRANCH  11  14
ENDBRANCH  10  11
ENDBRANCH   9  10
ENDBRANCH   8   9
ENDBRANCH   7   8
ENDBRANCH   6   7
ENDBRANCH   5   6
ENDBRANCH   4   5
ENDBRANCH   3   4
ENDBRANCH   2   3
TORSDOF 18
ENDMDL
MODEL      325
REMARK 921   NORMALIZED FREE ENERGY PREDICTED BY IDOCK:   -2.31 KCAL/MOL
REMARK 922        TOTAL FREE ENERGY PREDICTED BY IDOCK:   -7.45 KCAL/MOL
REMARK 923 INTER-LIGAND FREE ENERGY PREDICTED BY IDOCK:   -5.90 KCAL/MOL
REMARK 924 INTRA-LIGAND FREE ENERGY PREDICTED BY IDOCK:   -1.55 KCAL/MOL
REMARK 927      BINDING AFFINITY PREDICTED BY RF-SCORE:    0.00 PKD
ROOT
HETATM    1  C   UNL     1      -6.044   8.203  66.580  1.00  0.00    -0.049 C  
HETATM    2  C   UNL     1      -6.835   7.690  67.769  1.00  0.00    -0.068 C  
ENDROOT
BRANCH   2   3
HETATM    3  C   UNL     1      -7.751   6.538  67.367  1.00  0.00    -0.101 C  
BRANCH   3   4
HETATM    4  C   UNL     1      -9.213   6.913  67.581  1.00  0.00    -0.119 C  
BRANCH   4   5
HETATM    5  C   UNL     1      -9.342   8.038  68.597  1.00  0.00    -0.146 C  
BRANCH   5   6
HETATM    6  C   UNL     1     -10.181   9.180  68.032  1.00  0.00    -0.258 C  
BRANCH   6   7
HETATM    7  C   UNL     1     -10.304   9.034  66.525  1.00  0.00    -0.263 C  
BRANCH   7   8
HETATM    8  C   UNL     1      -9.457  10.067  65.787  1.00  0.00    -0.270 C  
BRANCH   8   9
HETATM    9  C   UNL     1      -9.565  11.391  66.529  1.00  0.00    -0.220 C  
BRANCH   9  10
HETATM   10  C   UNL     1     -10.207  12.475  65.673  1.00  0.00    -0.267 C  
BRANCH  10  11
HETATM   11  N   UNL     1     -11.309  13.258  66.434  1.00  0.00    -0.303 N  
HETATM   12  C   UNL     1     -12.520  13.485  65.528  1.00  0.00    -0.491 C  
HETATM   13  C   UNL     1     -11.737  12.488  67.685  1.00  0.00    -0.361 C  
BRANCH  11  14
HETATM   14  C   UNL     1     -10.672  14.615  66.830  1.00  0.00    -0.294 C  
BRANCH  14  15
HETATM   15  C   UNL     1     -11.446  15.324  67.932  1.00  0.00    -0.325 C  
BRANCH  15  16
HETATM   16  C   UNL     1     -10.699  16.539  68.464  1.00  0.00    -0.336 C  
BRANCH  16  17
HETATM   17  C   UNL     1     -10.881  17.686  67.475  1.00  0.00    -0.205 C  
BRANCH  17  18
HETATM   18  C   UNL     1      -9.546  18.211  66.975  1.00  0.00    -0.287 C  
BRANCH  18  19
HETATM   19  C   UNL     1      -9.290  19.598  67.550  1.00  0.00    -0.422 C  
BRANCH  19  20
HETATM   20  C   UNL     1      -8.253  19.530  68.666  1.00  0.00    -0.369 C  
BRANCH  20  21
HETATM   21  C   UNL     1      -7.408  18.265  68.552  1.00  0.00    -0.297 C  
BRANCH  21  22
HETATM   22  C   UNL     1      -5.924  18.597  68.660  1.00  0.00    -0.211 C  
HETATM   23  C   UNL     1      -5.467  18.613  70.106  1.00  0.00    -0.232 C  
ENDBRANCH  21  22
ENDBRANCH  20  21
ENDBRANCH  19  20
ENDBRANCH  18  19
ENDBRANCH  17  18
ENDBRANCH  16  17
ENDBRANCH  15  16
ENDBRANCH  14  15
ENDBRANCH  11  14
ENDBRANCH  10  11
ENDBRANCH   9  10
ENDBRANCH   8   9
ENDBRANCH   7   8
ENDBRANCH   6   7
ENDBRANCH   5   6
ENDBRANCH   4   5
ENDBRANCH   3   4
ENDBRANCH   2   3
TORSDOF 18
ENDMDL
MODEL      326
REMARK 921   NORMALIZED FREE ENERGY PREDICTED BY IDOCK:   -2.31 KCAL/MOL
REMARK 922        TOTAL FREE ENERGY PREDICTED BY IDOCK:   -7.44 KCAL/MOL
REMARK 923 INTER-LIGAND FREE ENERGY PREDICTED BY IDOCK:   -6.09 KCAL/MOL
REMARK 924 INTRA-LIGAND FREE ENERGY PREDICTED BY IDOCK:   -1.34 KCAL/MOL
REMARK 927      BINDING AFFINITY PREDICTED BY RF-SCORE:    0.00 PKD
ROOT
HETATM    1  C   UNL     1     -10.674   6.587  71.012  1.00  0.00    -0.289 C  
HETATM    2  C   UNL     1     -10.015   7.894  70.614  1.00  0.00    -0.188 C  
ENDROOT
BRANCH   2   3
HETATM    3  C   UNL     1     -10.632   8.458  69.338  1.00  0.00    -0.204 C  
BRANCH   3   4
HETATM    4  C   UNL     1     -10.058   7.760  68.110  1.00  0.00    -0.220 C  
BRANCH   4   5
HETATM    5  C   UNL     1      -8.537   7.759  68.146  1.00  0.00    -0.123 C  
BRANCH   5   6
HETATM    6  C   UNL     1      -7.972   8.640  67.037  1.00  0.00    -0.096 C  
BRANCH   6   7
HETATM    7  C   UNL     1      -8.953   8.707  65.880  1.00  0.00    -0.245 C  
BRANCH   7   8
HETATM    8  C   UNL     1      -8.755   9.968  65.044  1.00  0.00    -0.192 C  
BRANCH   8   9
HETATM    9  C   UNL     1      -9.106  11.172  65.906  1.00  0.00    -0.218 C  
BRANCH   9  10
HETATM   10  C   UNL     1     -10.020  12.149  65.178  1.00  0.00    -0.228 C  
BRANCH  10  11
HETATM   11  N   UNL     1     -11.355  12.388  65.929  1.00  0.00    -0.339 N  
HETATM   12  C   UNL     1     -12.524  12.396  64.943  1.00  0.00    -0.361 C  
HETATM   13  C   UNL     1     -11.573  11.296  66.980  1.00  0.00     0.027 C  
BRANCH  11  14
HETATM   14  C   UNL     1     -11.220  13.772  66.613  1.00  0.00    -0.318 C  
BRANCH  14  15
HETATM   15  C   UNL     1     -11.588  14.922  65.687  1.00  0.00    -0.245 C  
BRANCH  15  16
HETATM   16  C   UNL     1     -10.460  15.936  65.557  1.00  0.00    -0.425 C  
BRANCH  16  17
HETATM   17  C   UNL     1      -9.841  16.145  66.935  1.00  0.00    -0.247 C  
BRANCH  17  18
HETATM   18  C   UNL     1     -10.837  16.749  67.910  1.00  0.00    -0.311 C  
BRANCH  18  19
HETATM   19  C   UNL     1     -10.254  16.736  69.317  1.00  0.00    -0.278 C  
BRANCH  19  20
HETATM   20  C   UNL     1     -11.277  16.209  70.317  1.00  0.00    -0.389 C  
BRANCH  20  21
HETATM   21  C   UNL     1     -11.364  14.687  70.258  1.00  0.00    -0.253 C  
BRANCH  21  22
HETATM   22  C   UNL     1     -12.741  14.209  70.706  1.00  0.00    -0.414 C  
HETATM   23  C   UNL     1     -13.623  15.376  71.113  1.00  0.00    -0.536 C  
ENDBRANCH  21  22
ENDBRANCH  20  21
ENDBRANCH  19  20
ENDBRANCH  18  19
ENDBRANCH  17  18
ENDBRANCH  16  17
ENDBRANCH  15  16
ENDBRANCH  14  15
ENDBRANCH  11  14
ENDBRANCH  10  11
ENDBRANCH   9  10
ENDBRANCH   8   9
ENDBRANCH   7   8
ENDBRANCH   6   7
ENDBRANCH   5   6
ENDBRANCH   4   5
ENDBRANCH   3   4
ENDBRANCH   2   3
TORSDOF 18
ENDMDL
MODEL      327
REMARK 921   NORMALIZED FREE ENERGY PREDICTED BY IDOCK:   -2.31 KCAL/MOL
REMARK 922        TOTAL FREE ENERGY PREDICTED BY IDOCK:   -7.44 KCAL/MOL
REMARK 923 INTER-LIGAND FREE ENERGY PREDICTED BY IDOCK:   -6.26 KCAL/MOL
REMARK 924 INTRA-LIGAND FREE ENERGY PREDICTED BY IDOCK:   -1.18 KCAL/MOL
REMARK 927      BINDING AFFINITY PREDICTED BY RF-SCORE:    0.00 PKD
ROOT
HETATM    1  C   UNL     1     -10.530  20.032  67.424  1.00  0.00    -0.490 C  
HETATM    2  C   UNL     1      -9.408  19.272  68.107  1.00  0.00    -0.400 C  
ENDROOT
BRANCH   2   3
HETATM    3  C   UNL     1      -8.179  19.177  67.208  1.00  0.00    -0.299 C  
BRANCH   3   4
HETATM    4  C   UNL     1      -7.540  17.797  67.315  1.00  0.00    -0.217 C  
BRANCH   4   5
HETATM    5  C   UNL     1      -7.695  17.234  68.720  1.00  0.00    -0.261 C  
BRANCH   5   6
HETATM    6  C   UNL     1      -7.374  15.743  68.741  1.00  0.00    -0.141 C  
BRANCH   6   7
HETATM    7  C   UNL     1      -7.544  15.158  67.349  1.00  0.00    -0.232 C  
BRANCH   7   8
HETATM    8  C   UNL     1      -7.922  13.681  67.400  1.00  0.00    -0.177 C  
BRANCH   8   9
HETATM    9  C   UNL     1      -9.434  13.570  67.274  1.00  0.00    -0.230 C  
BRANCH   9  10
HETATM   10  C   UNL     1     -10.021  12.587  68.278  1.00  0.00    -0.229 C  
BRANCH  10  11
HETATM   11  N   UNL     1     -10.296  11.194  67.655  1.00  0.00    -0.186 N  
HETATM   12  C   UNL     1     -10.779  11.342  66.212  1.00  0.00    -0.270 C  
HETATM   13  C   UNL     1      -9.026  10.340  67.689  1.00  0.00    -0.134 C  
BRANCH  11  14
HETATM   14  C   UNL     1     -11.401  10.546  68.528  1.00  0.00    -0.257 C  
BRANCH  14  15
HETATM   15  C   UNL     1     -11.255  10.885  70.004  1.00  0.00    -0.340 C  
BRANCH  15  16
HETATM   16  C   UNL     1     -10.877   9.668  70.836  1.00  0.00    -0.409 C  
BRANCH  16  17
HETATM   17  C   UNL     1     -12.160   8.976  71.284  1.00  0.00    -0.375 C  
BRANCH  17  18
HETATM   18  C   UNL     1     -12.191   7.519  70.854  1.00  0.00    -0.224 C  
BRANCH  18  19
HETATM   19  C   UNL     1     -12.325   6.622  72.078  1.00  0.00    -0.316 C  
BRANCH  19  20
HETATM   20  C   UNL     1     -11.133   5.677  72.182  1.00  0.00    -0.300 C  
BRANCH  20  21
HETATM   21  C   UNL     1     -10.146   5.914  71.043  1.00  0.00    -0.252 C  
BRANCH  21  22
HETATM   22  C   UNL     1     -10.017   4.667  70.176  1.00  0.00    -0.304 C  
HETATM   23  C   UNL     1      -9.714   3.440  71.016  1.00  0.00    -0.216 C  
ENDBRANCH  21  22
ENDBRANCH  20  21
ENDBRANCH  19  20
ENDBRANCH  18  19
ENDBRANCH  17  18
ENDBRANCH  16  17
ENDBRANCH  15  16
ENDBRANCH  14  15
ENDBRANCH  11  14
ENDBRANCH  10  11
ENDBRANCH   9  10
ENDBRANCH   8   9
ENDBRANCH   7   8
ENDBRANCH   6   7
ENDBRANCH   5   6
ENDBRANCH   4   5
ENDBRANCH   3   4
ENDBRANCH   2   3
TORSDOF 18
ENDMDL
MODEL      328
REMARK 921   NORMALIZED FREE ENERGY PREDICTED BY IDOCK:   -2.29 KCAL/MOL
REMARK 922        TOTAL FREE ENERGY PREDICTED BY IDOCK:   -7.40 KCAL/MOL
REMARK 923 INTER-LIGAND FREE ENERGY PREDICTED BY IDOCK:   -5.44 KCAL/MOL
REMARK 924 INTRA-LIGAND FREE ENERGY PREDICTED BY IDOCK:   -1.96 KCAL/MOL
REMARK 927      BINDING AFFINITY PREDICTED BY RF-SCORE:    0.00 PKD
ROOT
HETATM    1  C   UNL     1     -14.411   7.552  71.476  1.00  0.00    -0.603 C  
HETATM    2  C   UNL     1     -13.844   8.723  72.257  1.00  0.00    -0.505 C  
ENDROOT
BRANCH   2   3
HETATM    3  C   UNL     1     -12.446   9.088  71.766  1.00  0.00    -0.438 C  
BRANCH   3   4
HETATM    4  C   UNL     1     -12.295  10.600  71.647  1.00  0.00    -0.336 C  
BRANCH   4   5
HETATM    5  C   UNL     1     -12.716  11.081  70.266  1.00  0.00    -0.256 C  
BRANCH   5   6
HETATM    6  C   UNL     1     -11.493  11.356  69.397  1.00  0.00    -0.378 C  
BRANCH   6   7
HETATM    7  C   UNL     1     -11.828  11.097  67.938  1.00  0.00    -0.162 C  
BRANCH   7   8
HETATM    8  C   UNL     1     -11.327  12.221  67.036  1.00  0.00    -0.395 C  
BRANCH   8   9
HETATM    9  C   UNL     1     -10.061  12.799  67.650  1.00  0.00    -0.220 C  
BRANCH   9  10
HETATM   10  C   UNL     1      -8.900  12.810  66.665  1.00  0.00    -0.108 C  
BRANCH  10  11
HETATM   11  N   UNL     1      -7.609  12.188  67.258  1.00  0.00    -0.153 N  
HETATM   12  C   UNL     1      -7.116  11.043  66.373  1.00  0.00    -0.120 C  
HETATM   13  C   UNL     1      -6.517  13.253  67.381  1.00  0.00    -0.034 C  
BRANCH  11  14
HETATM   14  C   UNL     1      -7.998  11.654  68.661  1.00  0.00    -0.127 C  
BRANCH  14  15
HETATM   15  C   UNL     1      -7.476  10.247  68.917  1.00  0.00    -0.094 C  
BRANCH  15  16
HETATM   16  C   UNL     1      -6.806  10.124  70.278  1.00  0.00    -0.150 C  
BRANCH  16  17
HETATM   17  C   UNL     1      -7.554   9.070  71.087  1.00  0.00    -0.130 C  
BRANCH  17  18
HETATM   18  C   UNL     1      -7.966   7.889  70.225  1.00  0.00    -0.102 C  
BRANCH  18  19
HETATM   19  C   UNL     1      -9.479   7.880  70.051  1.00  0.00    -0.157 C  
BRANCH  19  20
HETATM   20  C   UNL     1      -9.967   6.483  69.683  1.00  0.00    -0.186 C  
BRANCH  20  21
HETATM   21  C   UNL     1     -11.176   6.087  70.525  1.00  0.00    -0.363 C  
BRANCH  21  22
HETATM   22  C   UNL     1     -10.781   5.921  71.988  1.00  0.00    -0.282 C  
HETATM   23  C   UNL     1     -11.767   5.036  72.728  1.00  0.00    -0.144 C  
ENDBRANCH  21  22
ENDBRANCH  20  21
ENDBRANCH  19  20
ENDBRANCH  18  19
ENDBRANCH  17  18
ENDBRANCH  16  17
ENDBRANCH  15  16
ENDBRANCH  14  15
ENDBRANCH  11  14
ENDBRANCH  10  11
ENDBRANCH   9  10
ENDBRANCH   8   9
ENDBRANCH   7   8
ENDBRANCH   6   7
ENDBRANCH   5   6
ENDBRANCH   4   5
ENDBRANCH   3   4
ENDBRANCH   2   3
TORSDOF 18
ENDMDL
MODEL      329
REMARK 921   NORMALIZED FREE ENERGY PREDICTED BY IDOCK:   -2.28 KCAL/MOL
REMARK 922        TOTAL FREE ENERGY PREDICTED BY IDOCK:   -7.39 KCAL/MOL
REMARK 923 INTER-LIGAND FREE ENERGY PREDICTED BY IDOCK:   -5.14 KCAL/MOL
REMARK 924 INTRA-LIGAND FREE ENERGY PREDICTED BY IDOCK:   -2.24 KCAL/MOL
REMARK 927      BINDING AFFINITY PREDICTED BY RF-SCORE:    0.00 PKD
ROOT
HETATM    1  C   UNL     1      -6.887   7.970  69.648  1.00  0.00    -0.042 C  
HETATM    2  C   UNL     1      -7.560   9.321  69.805  1.00  0.00    -0.082 C  
ENDROOT
BRANCH   2   3
HETATM    3  C   UNL     1      -8.942   9.180  70.435  1.00  0.00    -0.263 C  
BRANCH   3   4
HETATM    4  C   UNL     1     -10.015   9.738  69.507  1.00  0.00    -0.230 C  
BRANCH   4   5
HETATM    5  C   UNL     1     -10.827   8.616  68.878  1.00  0.00    -0.024 C  
BRANCH   5   6
HETATM    6  C   UNL     1     -10.774   7.362  69.745  1.00  0.00    -0.252 C  
BRANCH   6   7
HETATM    7  C   UNL     1     -11.282   6.167  68.957  1.00  0.00    -0.375 C  
BRANCH   7   8
HETATM    8  C   UNL     1     -11.200   6.406  67.453  1.00  0.00    -0.283 C  
BRANCH   8   9
HETATM    9  C   UNL     1     -10.396   5.274  66.832  1.00  0.00    -0.303 C  
BRANCH   9  10
HETATM   10  C   UNL     1      -8.977   5.212  67.381  1.00  0.00    -0.109 C  
BRANCH  10  11
HETATM   11  N   UNL     1      -7.903   5.398  66.278  1.00  0.00    -0.099 N  
HETATM   12  C   UNL     1      -6.666   4.555  66.594  1.00  0.00    -0.051 C  
HETATM   13  C   UNL     1      -8.469   4.994  64.915  1.00  0.00    -0.147 C  
BRANCH  11  14
HETATM   14  C   UNL     1      -7.541   6.906  66.284  1.00  0.00    -0.088 C  
BRANCH  14  15
HETATM   15  C   UNL     1      -8.232   7.677  65.170  1.00  0.00    -0.130 C  
BRANCH  15  16
HETATM   16  C   UNL     1      -9.053   8.843  65.704  1.00  0.00    -0.269 C  
BRANCH  16  17
HETATM   17  C   UNL     1      -9.009   9.971  64.679  1.00  0.00    -0.249 C  
BRANCH  17  18
HETATM   18  C   UNL     1     -10.327  10.724  64.617  1.00  0.00    -0.394 C  
BRANCH  18  19
HETATM   19  C   UNL     1     -10.222  12.013  65.422  1.00  0.00    -0.295 C  
BRANCH  19  20
HETATM   20  C   UNL     1     -11.441  12.183  66.322  1.00  0.00    -0.433 C  
BRANCH  20  21
HETATM   21  C   UNL     1     -11.367  13.493  67.100  1.00  0.00    -0.346 C  
BRANCH  21  22
HETATM   22  C   UNL     1     -11.010  13.232  68.559  1.00  0.00    -0.291 C  
HETATM   23  C   UNL     1     -12.054  13.815  69.494  1.00  0.00    -0.386 C  
ENDBRANCH  21  22
ENDBRANCH  20  21
ENDBRANCH  19  20
ENDBRANCH  18  19
ENDBRANCH  17  18
ENDBRANCH  16  17
ENDBRANCH  15  16
ENDBRANCH  14  15
ENDBRANCH  11  14
ENDBRANCH  10  11
ENDBRANCH   9  10
ENDBRANCH   8   9
ENDBRANCH   7   8
ENDBRANCH   6   7
ENDBRANCH   5   6
ENDBRANCH   4   5
ENDBRANCH   3   4
ENDBRANCH   2   3
TORSDOF 18
ENDMDL
MODEL      330
REMARK 921   NORMALIZED FREE ENERGY PREDICTED BY IDOCK:   -2.28 KCAL/MOL
REMARK 922        TOTAL FREE ENERGY PREDICTED BY IDOCK:   -7.38 KCAL/MOL
REMARK 923 INTER-LIGAND FREE ENERGY PREDICTED BY IDOCK:   -6.20 KCAL/MOL
REMARK 924 INTRA-LIGAND FREE ENERGY PREDICTED BY IDOCK:   -1.18 KCAL/MOL
REMARK 927      BINDING AFFINITY PREDICTED BY RF-SCORE:    0.00 PKD
ROOT
HETATM    1  C   UNL     1     -10.759  19.797  67.372  1.00  0.00    -0.515 C  
HETATM    2  C   UNL     1     -10.213  19.217  66.081  1.00  0.00    -0.535 C  
ENDROOT
BRANCH   2   3
HETATM    3  C   UNL     1      -9.341  17.994  66.351  1.00  0.00    -0.267 C  
BRANCH   3   4
HETATM    4  C   UNL     1      -8.887  17.969  67.806  1.00  0.00    -0.255 C  
BRANCH   4   5
HETATM    5  C   UNL     1      -7.377  17.808  67.901  1.00  0.00    -0.215 C  
BRANCH   5   6
HETATM    6  C   UNL     1      -6.901  16.663  67.012  1.00  0.00    -0.244 C  
BRANCH   6   7
HETATM    7  C   UNL     1      -7.087  15.338  67.732  1.00  0.00    -0.180 C  
BRANCH   7   8
HETATM    8  C   UNL     1      -8.181  14.494  67.085  1.00  0.00    -0.214 C  
BRANCH   8   9
HETATM    9  C   UNL     1      -9.276  14.261  68.116  1.00  0.00    -0.202 C  
BRANCH   9  10
HETATM   10  C   UNL     1      -9.767  12.820  68.112  1.00  0.00    -0.223 C  
BRANCH  10  11
HETATM   11  N   UNL     1     -11.314  12.717  68.125  1.00  0.00    -0.267 N  
HETATM   12  C   UNL     1     -11.865  13.173  69.477  1.00  0.00    -0.322 C  
HETATM   13  C   UNL     1     -11.910  13.577  67.008  1.00  0.00    -0.402 C  
BRANCH  11  14
HETATM   14  C   UNL     1     -11.646  11.222  67.887  1.00  0.00    -0.256 C  
BRANCH  14  15
HETATM   15  C   UNL     1     -10.456  10.436  67.355  1.00  0.00    -0.299 C  
BRANCH  15  16
HETATM   16  C   UNL     1     -10.285   9.103  68.070  1.00  0.00    -0.258 C  
BRANCH  16  17
HETATM   17  C   UNL     1     -10.532   7.984  67.064  1.00  0.00    -0.410 C  
BRANCH  17  18
HETATM   18  C   UNL     1     -10.766   6.651  67.755  1.00  0.00    -0.352 C  
BRANCH  18  19
HETATM   19  C   UNL     1      -9.548   5.755  67.572  1.00  0.00    -0.118 C  
BRANCH  19  20
HETATM   20  C   UNL     1      -9.953   4.421  66.956  1.00  0.00    -0.197 C  
BRANCH  20  21
HETATM   21  C   UNL     1      -8.779   3.777  66.226  1.00  0.00    -0.118 C  
BRANCH  21  22
HETATM   22  C   UNL     1      -8.896   3.996  64.721  1.00  0.00    -0.130 C  
HETATM   23  C   UNL     1     -10.278   3.626  64.217  1.00  0.00    -0.223 C  
ENDBRANCH  21  22
ENDBRANCH  20  21
ENDBRANCH  19  20
ENDBRANCH  18  19
ENDBRANCH  17  18
ENDBRANCH  16  17
ENDBRANCH  15  16
ENDBRANCH  14  15
ENDBRANCH  11  14
ENDBRANCH  10  11
ENDBRANCH   9  10
ENDBRANCH   8   9
ENDBRANCH   7   8
ENDBRANCH   6   7
ENDBRANCH   5   6
ENDBRANCH   4   5
ENDBRANCH   3   4
ENDBRANCH   2   3
TORSDOF 18
ENDMDL
MODEL      331
REMARK 921   NORMALIZED FREE ENERGY PREDICTED BY IDOCK:   -2.28 KCAL/MOL
REMARK 922        TOTAL FREE ENERGY PREDICTED BY IDOCK:   -7.38 KCAL/MOL
REMARK 923 INTER-LIGAND FREE ENERGY PREDICTED BY IDOCK:   -5.83 KCAL/MOL
REMARK 924 INTRA-LIGAND FREE ENERGY PREDICTED BY IDOCK:   -1.55 KCAL/MOL
REMARK 927      BINDING AFFINITY PREDICTED BY RF-SCORE:    0.00 PKD
ROOT
HETATM    1  C   UNL     1     -12.392  12.702  64.793  1.00  0.00    -0.556 C  
HETATM    2  C   UNL     1     -10.920  12.920  64.495  1.00  0.00    -0.377 C  
ENDROOT
BRANCH   2   3
HETATM    3  C   UNL     1     -10.427  11.959  63.418  1.00  0.00    -0.487 C  
BRANCH   3   4
HETATM    4  C   UNL     1      -9.891  10.677  64.045  1.00  0.00    -0.399 C  
BRANCH   4   5
HETATM    5  C   UNL     1      -8.913   9.982  63.109  1.00  0.00    -0.273 C  
BRANCH   5   6
HETATM    6  C   UNL     1      -7.688   9.495  63.876  1.00  0.00    -0.123 C  
BRANCH   6   7
HETATM    7  C   UNL     1      -8.026   8.225  64.638  1.00  0.00    -0.145 C  
BRANCH   7   8
HETATM    8  C   UNL     1      -7.982   8.444  66.147  1.00  0.00    -0.100 C  
BRANCH   8   9
HETATM    9  C   UNL     1      -9.226   7.814  66.758  1.00  0.00    -0.202 C  
BRANCH   9  10
HETATM   10  C   UNL     1      -8.885   6.869  67.902  1.00  0.00    -0.123 C  
BRANCH  10  11
HETATM   11  N   UNL     1      -9.391   5.425  67.653  1.00  0.00    -0.113 N  
HETATM   12  C   UNL     1     -10.385   5.403  66.492  1.00  0.00    -0.269 C  
HETATM   13  C   UNL     1      -8.213   4.498  67.341  1.00  0.00    -0.101 C  
BRANCH  11  14
HETATM   14  C   UNL     1     -10.088   4.984  68.966  1.00  0.00    -0.168 C  
BRANCH  14  15
HETATM   15  C   UNL     1     -10.368   6.151  69.901  1.00  0.00    -0.272 C  
BRANCH  15  16
HETATM   16  C   UNL     1     -11.825   6.589  69.848  1.00  0.00    -0.223 C  
BRANCH  16  17
HETATM   17  C   UNL     1     -12.206   7.152  71.214  1.00  0.00    -0.403 C  
BRANCH  17  18
HETATM   18  C   UNL     1     -11.172   8.142  71.721  1.00  0.00    -0.329 C  
BRANCH  18  19
HETATM   19  C   UNL     1     -10.823   7.827  73.169  1.00  0.00    -0.401 C  
BRANCH  19  20
HETATM   20  C   UNL     1      -9.310   7.816  73.365  1.00  0.00    -0.346 C  
BRANCH  20  21
HETATM   21  C   UNL     1      -8.756   6.399  73.262  1.00  0.00    -0.128 C  
BRANCH  21  22
HETATM   22  C   UNL     1      -9.843   5.373  73.565  1.00  0.00    -0.173 C  
HETATM   23  C   UNL     1      -9.329   3.957  73.382  1.00  0.00    -0.121 C  
ENDBRANCH  21  22
ENDBRANCH  20  21
ENDBRANCH  19  20
ENDBRANCH  18  19
ENDBRANCH  17  18
ENDBRANCH  16  17
ENDBRANCH  15  16
ENDBRANCH  14  15
ENDBRANCH  11  14
ENDBRANCH  10  11
ENDBRANCH   9  10
ENDBRANCH   8   9
ENDBRANCH   7   8
ENDBRANCH   6   7
ENDBRANCH   5   6
ENDBRANCH   4   5
ENDBRANCH   3   4
ENDBRANCH   2   3
TORSDOF 18
ENDMDL
MODEL      332
REMARK 921   NORMALIZED FREE ENERGY PREDICTED BY IDOCK:   -2.28 KCAL/MOL
REMARK 922        TOTAL FREE ENERGY PREDICTED BY IDOCK:   -7.37 KCAL/MOL
REMARK 923 INTER-LIGAND FREE ENERGY PREDICTED BY IDOCK:   -5.38 KCAL/MOL
REMARK 924 INTRA-LIGAND FREE ENERGY PREDICTED BY IDOCK:   -1.99 KCAL/MOL
REMARK 927      BINDING AFFINITY PREDICTED BY RF-SCORE:    0.00 PKD
ROOT
HETATM    1  C   UNL     1     -14.075   7.885  71.483  1.00  0.00    -0.489 C  
HETATM    2  C   UNL     1     -13.533   9.250  71.863  1.00  0.00    -0.497 C  
ENDROOT
BRANCH   2   3
HETATM    3  C   UNL     1     -12.096   9.427  71.381  1.00  0.00    -0.442 C  
BRANCH   3   4
HETATM    4  C   UNL     1     -11.905  10.802  70.753  1.00  0.00    -0.443 C  
BRANCH   4   5
HETATM    5  C   UNL     1     -12.034  10.731  69.238  1.00  0.00    -0.334 C  
BRANCH   5   6
HETATM    6  C   UNL     1     -10.664  10.557  68.590  1.00  0.00    -0.247 C  
BRANCH   6   7
HETATM    7  C   UNL     1     -10.745   9.522  67.481  1.00  0.00    -0.311 C  
BRANCH   7   8
HETATM    8  C   UNL     1     -10.309  10.098  66.138  1.00  0.00    -0.237 C  
BRANCH   8   9
HETATM    9  C   UNL     1      -8.889  10.626  66.282  1.00  0.00    -0.172 C  
BRANCH   9  10
HETATM   10  C   UNL     1      -8.017  10.255  65.090  1.00  0.00    -0.147 C  
BRANCH  10  11
HETATM   11  N   UNL     1      -6.772   9.425  65.499  1.00  0.00    -0.073 N  
HETATM   12  C   UNL     1      -6.701   8.136  64.680  1.00  0.00    -0.067 C  
HETATM   13  C   UNL     1      -5.497  10.245  65.285  1.00  0.00    -0.093 C  
BRANCH  11  14
HETATM   14  C   UNL     1      -6.953   9.097  67.004  1.00  0.00    -0.081 C  
BRANCH  14  15
HETATM   15  C   UNL     1      -7.217   7.619  67.253  1.00  0.00    -0.090 C  
BRANCH  15  16
HETATM   16  C   UNL     1      -6.433   7.090  68.446  1.00  0.00    -0.040 C  
BRANCH  16  17
HETATM   17  C   UNL     1      -7.416   6.450  69.420  1.00  0.00    -0.094 C  
BRANCH  17  18
HETATM   18  C   UNL     1      -8.568   5.778  68.693  1.00  0.00    -0.109 C  
BRANCH  18  19
HETATM   19  C   UNL     1      -9.893   6.308  69.224  1.00  0.00    -0.167 C  
BRANCH  19  20
HETATM   20  C   UNL     1     -10.494   5.334  70.232  1.00  0.00    -0.332 C  
BRANCH  20  21
HETATM   21  C   UNL     1     -11.042   6.075  71.448  1.00  0.00    -0.336 C  
BRANCH  21  22
HETATM   22  C   UNL     1      -9.905   6.562  72.338  1.00  0.00    -0.169 C  
HETATM   23  C   UNL     1     -10.396   6.867  73.741  1.00  0.00    -0.409 C  
ENDBRANCH  21  22
ENDBRANCH  20  21
ENDBRANCH  19  20
ENDBRANCH  18  19
ENDBRANCH  17  18
ENDBRANCH  16  17
ENDBRANCH  15  16
ENDBRANCH  14  15
ENDBRANCH  11  14
ENDBRANCH  10  11
ENDBRANCH   9  10
ENDBRANCH   8   9
ENDBRANCH   7   8
ENDBRANCH   6   7
ENDBRANCH   5   6
ENDBRANCH   4   5
ENDBRANCH   3   4
ENDBRANCH   2   3
TORSDOF 18
ENDMDL
MODEL      333
REMARK 921   NORMALIZED FREE ENERGY PREDICTED BY IDOCK:   -2.27 KCAL/MOL
REMARK 922        TOTAL FREE ENERGY PREDICTED BY IDOCK:   -7.37 KCAL/MOL
REMARK 923 INTER-LIGAND FREE ENERGY PREDICTED BY IDOCK:   -5.69 KCAL/MOL
REMARK 924 INTRA-LIGAND FREE ENERGY PREDICTED BY IDOCK:   -1.68 KCAL/MOL
REMARK 927      BINDING AFFINITY PREDICTED BY RF-SCORE:    0.00 PKD
ROOT
HETATM    1  C   UNL     1      -7.526   9.358  64.764  1.00  0.00    -0.107 C  
HETATM    2  C   UNL     1      -8.270   9.692  66.044  1.00  0.00    -0.119 C  
ENDROOT
BRANCH   2   3
HETATM    3  C   UNL     1      -9.663  10.237  65.746  1.00  0.00    -0.297 C  
BRANCH   3   4
HETATM    4  C   UNL     1      -9.918  11.520  66.530  1.00  0.00    -0.240 C  
BRANCH   4   5
HETATM    5  C   UNL     1     -11.410  11.789  66.662  1.00  0.00    -0.381 C  
BRANCH   5   6
HETATM    6  C   UNL     1     -11.758  12.198  68.089  1.00  0.00    -0.402 C  
BRANCH   6   7
HETATM    7  C   UNL     1     -11.671  10.992  69.009  1.00  0.00    -0.402 C  
BRANCH   7   8
HETATM    8  C   UNL     1     -12.241  11.293  70.391  1.00  0.00    -0.453 C  
BRANCH   8   9
HETATM    9  C   UNL     1     -11.886  10.139  71.317  1.00  0.00    -0.448 C  
BRANCH   9  10
HETATM   10  C   UNL     1     -11.243   8.981  70.565  1.00  0.00    -0.260 C  
BRANCH  10  11
HETATM   11  N   UNL     1     -10.523   7.984  71.510  1.00  0.00    -0.212 N  
HETATM   12  C   UNL     1      -9.113   8.481  71.831  1.00  0.00    -0.244 C  
HETATM   13  C   UNL     1     -11.319   7.817  72.807  1.00  0.00    -0.389 C  
BRANCH  11  14
HETATM   14  C   UNL     1     -10.458   6.638  70.743  1.00  0.00    -0.216 C  
BRANCH  14  15
HETATM   15  C   UNL     1     -11.288   6.651  69.468  1.00  0.00    -0.358 C  
BRANCH  15  16
HETATM   16  C   UNL     1     -10.688   5.765  68.386  1.00  0.00    -0.283 C  
BRANCH  16  17
HETATM   17  C   UNL     1      -9.312   5.303  68.852  1.00  0.00    -0.163 C  
BRANCH  17  18
HETATM   18  C   UNL     1      -8.488   4.746  67.703  1.00  0.00    -0.104 C  
BRANCH  18  19
HETATM   19  C   UNL     1      -7.941   5.890  66.860  1.00  0.00    -0.102 C  
BRANCH  19  20
HETATM   20  C   UNL     1      -8.549   5.863  65.462  1.00  0.00    -0.150 C  
BRANCH  20  21
HETATM   21  C   UNL     1      -9.235   4.528  65.190  1.00  0.00    -0.157 C  
BRANCH  21  22
HETATM   22  C   UNL     1      -8.340   3.625  64.347  1.00  0.00    -0.093 C  
HETATM   23  C   UNL     1      -8.816   2.185  64.388  1.00  0.00    -0.106 C  
ENDBRANCH  21  22
ENDBRANCH  20  21
ENDBRANCH  19  20
ENDBRANCH  18  19
ENDBRANCH  17  18
ENDBRANCH  16  17
ENDBRANCH  15  16
ENDBRANCH  14  15
ENDBRANCH  11  14
ENDBRANCH  10  11
ENDBRANCH   9  10
ENDBRANCH   8   9
ENDBRANCH   7   8
ENDBRANCH   6   7
ENDBRANCH   5   6
ENDBRANCH   4   5
ENDBRANCH   3   4
ENDBRANCH   2   3
TORSDOF 18
ENDMDL
MODEL      334
REMARK 921   NORMALIZED FREE ENERGY PREDICTED BY IDOCK:   -2.27 KCAL/MOL
REMARK 922        TOTAL FREE ENERGY PREDICTED BY IDOCK:   -7.36 KCAL/MOL
REMARK 923 INTER-LIGAND FREE ENERGY PREDICTED BY IDOCK:   -6.34 KCAL/MOL
REMARK 924 INTRA-LIGAND FREE ENERGY PREDICTED BY IDOCK:   -1.03 KCAL/MOL
REMARK 927      BINDING AFFINITY PREDICTED BY RF-SCORE:    0.00 PKD
ROOT
HETATM    1  C   UNL     1     -11.832  11.969  63.412  1.00  0.00    -0.542 C  
HETATM    2  C   UNL     1     -10.328  12.010  63.608  1.00  0.00    -0.482 C  
ENDROOT
BRANCH   2   3
HETATM    3  C   UNL     1      -9.623  11.039  62.665  1.00  0.00    -0.285 C  
BRANCH   3   4
HETATM    4  C   UNL     1      -8.915   9.942  63.452  1.00  0.00    -0.278 C  
BRANCH   4   5
HETATM    5  C   UNL     1      -7.898   9.219  62.582  1.00  0.00    -0.122 C  
BRANCH   5   6
HETATM    6  C   UNL     1      -6.711   8.751  63.418  1.00  0.00    -0.089 C  
BRANCH   6   7
HETATM    7  C   UNL     1      -7.200   7.905  64.581  1.00  0.00    -0.079 C  
BRANCH   7   8
HETATM    8  C   UNL     1      -6.766   8.486  65.924  1.00  0.00    -0.057 C  
BRANCH   8   9
HETATM    9  C   UNL     1      -7.790   8.079  66.973  1.00  0.00    -0.104 C  
BRANCH   9  10
HETATM   10  C   UNL     1      -8.011   6.573  67.004  1.00  0.00    -0.112 C  
BRANCH  10  11
HETATM   11  N   UNL     1      -9.493   6.194  67.256  1.00  0.00    -0.113 N  
HETATM   12  C   UNL     1     -10.396   7.409  67.042  1.00  0.00    -0.314 C  
HETATM   13  C   UNL     1      -9.917   5.062  66.316  1.00  0.00    -0.224 C  
BRANCH  11  14
HETATM   14  C   UNL     1      -9.568   5.722  68.731  1.00  0.00    -0.127 C  
BRANCH  14  15
HETATM   15  C   UNL     1     -10.238   6.743  69.639  1.00  0.00    -0.207 C  
BRANCH  15  16
HETATM   16  C   UNL     1      -9.225   7.622  70.358  1.00  0.00    -0.156 C  
BRANCH  16  17
HETATM   17  C   UNL     1      -9.985   8.613  71.232  1.00  0.00    -0.315 C  
BRANCH  17  18
HETATM   18  C   UNL     1     -11.296   9.036  70.591  1.00  0.00    -0.311 C  
BRANCH  18  19
HETATM   19  C   UNL     1     -12.099   9.885  71.568  1.00  0.00    -0.496 C  
BRANCH  19  20
HETATM   20  C   UNL     1     -12.556  11.178  70.903  1.00  0.00    -0.483 C  
BRANCH  20  21
HETATM   21  C   UNL     1     -13.149  12.140  71.928  1.00  0.00    -0.475 C  
BRANCH  21  22
HETATM   22  C   UNL     1     -12.701  13.570  71.646  1.00  0.00    -0.380 C  
HETATM   23  C   UNL     1     -13.333  14.547  72.621  1.00  0.00    -0.588 C  
ENDBRANCH  21  22
ENDBRANCH  20  21
ENDBRANCH  19  20
ENDBRANCH  18  19
ENDBRANCH  17  18
ENDBRANCH  16  17
ENDBRANCH  15  16
ENDBRANCH  14  15
ENDBRANCH  11  14
ENDBRANCH  10  11
ENDBRANCH   9  10
ENDBRANCH   8   9
ENDBRANCH   7   8
ENDBRANCH   6   7
ENDBRANCH   5   6
ENDBRANCH   4   5
ENDBRANCH   3   4
ENDBRANCH   2   3
TORSDOF 18
ENDMDL
MODEL      335
REMARK 921   NORMALIZED FREE ENERGY PREDICTED BY IDOCK:   -2.26 KCAL/MOL
REMARK 922        TOTAL FREE ENERGY PREDICTED BY IDOCK:   -7.34 KCAL/MOL
REMARK 923 INTER-LIGAND FREE ENERGY PREDICTED BY IDOCK:   -5.13 KCAL/MOL
REMARK 924 INTRA-LIGAND FREE ENERGY PREDICTED BY IDOCK:   -2.21 KCAL/MOL
REMARK 927      BINDING AFFINITY PREDICTED BY RF-SCORE:    0.00 PKD
ROOT
HETATM    1  C   UNL     1     -10.655   5.563  70.952  1.00  0.00    -0.309 C  
HETATM    2  C   UNL     1     -10.515   7.073  71.012  1.00  0.00    -0.231 C  
ENDROOT
BRANCH   2   3
HETATM    3  C   UNL     1     -11.607   7.695  71.878  1.00  0.00    -0.321 C  
BRANCH   3   4
HETATM    4  C   UNL     1     -11.850   9.145  71.476  1.00  0.00    -0.428 C  
BRANCH   4   5
HETATM    5  C   UNL     1     -10.627   9.730  70.785  1.00  0.00    -0.371 C  
BRANCH   5   6
HETATM    6  C   UNL     1     -11.025  10.893  69.882  1.00  0.00    -0.266 C  
BRANCH   6   7
HETATM    7  C   UNL     1     -10.268  10.809  68.567  1.00  0.00    -0.192 C  
BRANCH   7   8
HETATM    8  C   UNL     1      -8.779  11.080  68.754  1.00  0.00    -0.146 C  
BRANCH   8   9
HETATM    9  C   UNL     1      -8.571  12.586  68.811  1.00  0.00     0.153 C  
BRANCH   9  10
HETATM   10  C   UNL     1      -8.587  13.218  67.425  1.00  0.00    -0.204 C  
BRANCH  10  11
HETATM   11  N   UNL     1      -9.588  14.397  67.321  1.00  0.00    -0.222 N  
HETATM   12  C   UNL     1     -10.026  14.847  68.715  1.00  0.00    -0.228 C  
HETATM   13  C   UNL     1      -8.947  15.571  66.577  1.00  0.00    -0.312 C  
BRANCH  11  14
HETATM   14  C   UNL     1     -10.804  13.856  66.524  1.00  0.00    -0.295 C  
BRANCH  14  15
HETATM   15  C   UNL     1     -10.390  13.023  65.320  1.00  0.00    -0.318 C  
BRANCH  15  16
HETATM   16  C   UNL     1     -11.430  11.968  64.970  1.00  0.00    -0.343 C  
BRANCH  16  17
HETATM   17  C   UNL     1     -10.758  10.896  64.117  1.00  0.00    -0.231 C  
BRANCH  17  18
HETATM   18  C   UNL     1      -9.282  10.758  64.453  1.00  0.00    -0.250 C  
BRANCH  18  19
HETATM   19  C   UNL     1      -9.042   9.449  65.193  1.00  0.00    -0.280 C  
BRANCH  19  20
HETATM   20  C   UNL     1      -7.739   9.511  65.982  1.00  0.00    -0.100 C  
BRANCH  20  21
HETATM   21  C   UNL     1      -7.430   8.167  66.634  1.00  0.00    -0.089 C  
BRANCH  21  22
HETATM   22  C   UNL     1      -6.624   8.362  67.913  1.00  0.00    -0.061 C  
HETATM   23  C   UNL     1      -7.491   8.171  69.144  1.00  0.00    -0.087 C  
ENDBRANCH  21  22
ENDBRANCH  20  21
ENDBRANCH  19  20
ENDBRANCH  18  19
ENDBRANCH  17  18
ENDBRANCH  16  17
ENDBRANCH  15  16
ENDBRANCH  14  15
ENDBRANCH  11  14
ENDBRANCH  10  11
ENDBRANCH   9  10
ENDBRANCH   8   9
ENDBRANCH   7   8
ENDBRANCH   6   7
ENDBRANCH   5   6
ENDBRANCH   4   5
ENDBRANCH   3   4
ENDBRANCH   2   3
TORSDOF 18
ENDMDL
MODEL      336
REMARK 921   NORMALIZED FREE ENERGY PREDICTED BY IDOCK:   -2.26 KCAL/MOL
REMARK 922        TOTAL FREE ENERGY PREDICTED BY IDOCK:   -7.34 KCAL/MOL
REMARK 923 INTER-LIGAND FREE ENERGY PREDICTED BY IDOCK:   -6.37 KCAL/MOL
REMARK 924 INTRA-LIGAND FREE ENERGY PREDICTED BY IDOCK:   -0.97 KCAL/MOL
REMARK 927      BINDING AFFINITY PREDICTED BY RF-SCORE:    0.00 PKD
ROOT
HETATM    1  C   UNL     1      -6.953   6.357  67.013  1.00  0.00    -0.071 C  
HETATM    2  C   UNL     1      -6.418   7.772  67.129  1.00  0.00    -0.055 C  
ENDROOT
BRANCH   2   3
HETATM    3  C   UNL     1      -6.686   8.569  65.855  1.00  0.00    -0.057 C  
BRANCH   3   4
HETATM    4  C   UNL     1      -7.963   8.086  65.177  1.00  0.00    -0.127 C  
BRANCH   4   5
HETATM    5  C   UNL     1      -9.194   8.634  65.885  1.00  0.00    -0.264 C  
BRANCH   5   6
HETATM    6  C   UNL     1      -9.776   9.815  65.116  1.00  0.00    -0.338 C  
BRANCH   6   7
HETATM    7  C   UNL     1      -9.149   9.893  63.735  1.00  0.00    -0.293 C  
BRANCH   7   8
HETATM    8  C   UNL     1      -9.981  10.747  62.784  1.00  0.00    -0.161 C  
BRANCH   8   9
HETATM    9  C   UNL     1     -11.006  11.516  63.605  1.00  0.00    -0.482 C  
BRANCH   9  10
HETATM   10  C   UNL     1     -10.744  13.016  63.586  1.00  0.00    -0.063 C  
BRANCH  10  11
HETATM   11  N   UNL     1     -11.082  13.697  64.938  1.00  0.00    -0.334 N  
HETATM   12  C   UNL     1     -11.345  15.189  64.730  1.00  0.00    -0.395 C  
HETATM   13  C   UNL     1     -12.311  13.038  65.569  1.00  0.00    -0.472 C  
BRANCH  11  14
HETATM   14  C   UNL     1      -9.839  13.491  65.842  1.00  0.00    -0.241 C  
BRANCH  14  15
HETATM   15  C   UNL     1      -9.376  14.781  66.503  1.00  0.00    -0.316 C  
BRANCH  15  16
HETATM   16  C   UNL     1      -9.174  14.616  68.002  1.00  0.00    -0.197 C  
BRANCH  16  17
HETATM   17  C   UNL     1      -8.881  15.988  68.600  1.00  0.00    -0.210 C  
BRANCH  17  18
HETATM   18  C   UNL     1     -10.111  16.879  68.591  1.00  0.00    -0.291 C  
BRANCH  18  19
HETATM   19  C   UNL     1      -9.706  18.321  68.864  1.00  0.00    -0.302 C  
BRANCH  19  20
HETATM   20  C   UNL     1      -8.345  18.621  68.246  1.00  0.00    -0.350 C  
BRANCH  20  21
HETATM   21  C   UNL     1      -8.486  19.522  67.023  1.00  0.00    -0.327 C  
BRANCH  21  22
HETATM   22  C   UNL     1      -9.923  20.011  66.878  1.00  0.00    -0.584 C  
HETATM   23  C   UNL     1     -10.694  19.168  65.879  1.00  0.00    -0.435 C  
ENDBRANCH  21  22
ENDBRANCH  20  21
ENDBRANCH  19  20
ENDBRANCH  18  19
ENDBRANCH  17  18
ENDBRANCH  16  17
ENDBRANCH  15  16
ENDBRANCH  14  15
ENDBRANCH  11  14
ENDBRANCH  10  11
ENDBRANCH   9  10
ENDBRANCH   8   9
ENDBRANCH   7   8
ENDBRANCH   6   7
ENDBRANCH   5   6
ENDBRANCH   4   5
ENDBRANCH   3   4
ENDBRANCH   2   3
TORSDOF 18
ENDMDL
MODEL      337
REMARK 921   NORMALIZED FREE ENERGY PREDICTED BY IDOCK:   -2.26 KCAL/MOL
REMARK 922        TOTAL FREE ENERGY PREDICTED BY IDOCK:   -7.33 KCAL/MOL
REMARK 923 INTER-LIGAND FREE ENERGY PREDICTED BY IDOCK:   -4.42 KCAL/MOL
REMARK 924 INTRA-LIGAND FREE ENERGY PREDICTED BY IDOCK:   -2.91 KCAL/MOL
REMARK 927      BINDING AFFINITY PREDICTED BY RF-SCORE:    0.00 PKD
ROOT
HETATM    1  C   UNL     1     -12.090   6.722  70.635  1.00  0.00    -0.371 C  
HETATM    2  C   UNL     1     -12.040   8.165  71.101  1.00  0.00    -0.281 C  
ENDROOT
BRANCH   2   3
HETATM    3  C   UNL     1     -10.647   8.758  70.911  1.00  0.00    -0.276 C  
BRANCH   3   4
HETATM    4  C   UNL     1     -10.730  10.116  70.223  1.00  0.00    -0.352 C  
BRANCH   4   5
HETATM    5  C   UNL     1     -11.204   9.968  68.784  1.00  0.00    -0.173 C  
BRANCH   5   6
HETATM    6  C   UNL     1     -10.388   8.905  68.056  1.00  0.00    -0.271 C  
BRANCH   6   7
HETATM    7  C   UNL     1      -9.519   9.557  66.994  1.00  0.00    -0.197 C  
BRANCH   7   8
HETATM    8  C   UNL     1      -8.219  10.098  67.582  1.00  0.00    -0.110 C  
BRANCH   8   9
HETATM    9  C   UNL     1      -7.377   8.918  68.044  1.00  0.00    -0.084 C  
BRANCH   9  10
HETATM   10  C   UNL     1      -7.291   7.827  66.985  1.00  0.00    -0.091 C  
BRANCH  10  11
HETATM   11  N   UNL     1      -7.405   6.403  67.588  1.00  0.00    -0.086 N  
HETATM   12  C   UNL     1      -8.661   5.704  67.066  1.00  0.00    -0.108 C  
HETATM   13  C   UNL     1      -6.168   5.576  67.229  1.00  0.00    -0.031 C  
BRANCH  11  14
HETATM   14  C   UNL     1      -7.496   6.594  69.124  1.00  0.00    -0.095 C  
BRANCH  14  15
HETATM   15  C   UNL     1      -8.769   6.004  69.713  1.00  0.00    -0.130 C  
BRANCH  15  16
HETATM   16  C   UNL     1      -8.481   4.837  70.646  1.00  0.00    -0.106 C  
BRANCH  16  17
HETATM   17  C   UNL     1      -9.766   4.034  70.821  1.00  0.00    -0.263 C  
BRANCH  17  18
HETATM   18  C   UNL     1      -9.881   3.458  72.222  1.00  0.00    -0.231 C  
BRANCH  18  19
HETATM   19  C   UNL     1     -10.850   4.294  73.046  1.00  0.00    -0.267 C  
BRANCH  19  20
HETATM   20  C   UNL     1     -10.119   4.994  74.186  1.00  0.00    -0.248 C  
BRANCH  20  21
HETATM   21  C   UNL     1     -10.515   6.465  74.268  1.00  0.00    -0.218 C  
BRANCH  21  22
HETATM   22  C   UNL     1      -9.381   7.355  73.772  1.00  0.00    -0.316 C  
HETATM   23  C   UNL     1      -8.041   6.649  73.873  1.00  0.00    -0.119 C  
ENDBRANCH  21  22
ENDBRANCH  20  21
ENDBRANCH  19  20
ENDBRANCH  18  19
ENDBRANCH  17  18
ENDBRANCH  16  17
ENDBRANCH  15  16
ENDBRANCH  14  15
ENDBRANCH  11  14
ENDBRANCH  10  11
ENDBRANCH   9  10
ENDBRANCH   8   9
ENDBRANCH   7   8
ENDBRANCH   6   7
ENDBRANCH   5   6
ENDBRANCH   4   5
ENDBRANCH   3   4
ENDBRANCH   2   3
TORSDOF 18
ENDMDL
MODEL      338
REMARK 921   NORMALIZED FREE ENERGY PREDICTED BY IDOCK:   -2.24 KCAL/MOL
REMARK 922        TOTAL FREE ENERGY PREDICTED BY IDOCK:   -7.30 KCAL/MOL
REMARK 923 INTER-LIGAND FREE ENERGY PREDICTED BY IDOCK:   -5.44 KCAL/MOL
REMARK 924 INTRA-LIGAND FREE ENERGY PREDICTED BY IDOCK:   -1.87 KCAL/MOL
REMARK 927      BINDING AFFINITY PREDICTED BY RF-SCORE:    0.00 PKD
ROOT
HETATM    1  C   UNL     1      -6.784  19.229  68.030  1.00  0.00    -0.267 C  
HETATM    2  C   UNL     1      -7.462  18.739  66.765  1.00  0.00    -0.237 C  
ENDROOT
BRANCH   2   3
HETATM    3  C   UNL     1      -7.756  17.243  66.841  1.00  0.00    -0.250 C  
BRANCH   3   4
HETATM    4  C   UNL     1      -8.160  16.846  68.256  1.00  0.00    -0.217 C  
BRANCH   4   5
HETATM    5  C   UNL     1      -7.347  15.655  68.739  1.00  0.00    -0.144 C  
BRANCH   5   6
HETATM    6  C   UNL     1      -6.773  14.880  67.557  1.00  0.00    -0.167 C  
BRANCH   6   7
HETATM    7  C   UNL     1      -6.983  13.390  67.766  1.00  0.00    -0.159 C  
BRANCH   7   8
HETATM    8  C   UNL     1      -8.424  13.070  68.150  1.00  0.00    -0.176 C  
BRANCH   8   9
HETATM    9  C   UNL     1      -9.108  12.431  66.951  1.00  0.00    -0.211 C  
BRANCH   9  10
HETATM   10  C   UNL     1      -9.836  13.457  66.094  1.00  0.00    -0.281 C  
BRANCH  10  11
HETATM   11  N   UNL     1     -11.323  13.626  66.502  1.00  0.00    -0.311 N  
HETATM   12  C   UNL     1     -11.517  14.932  67.273  1.00  0.00    -0.340 C  
HETATM   13  C   UNL     1     -12.216  13.622  65.259  1.00  0.00    -0.439 C  
BRANCH  11  14
HETATM   14  C   UNL     1     -11.658  12.412  67.407  1.00  0.00    -0.365 C  
BRANCH  14  15
HETATM   15  C   UNL     1     -12.130  12.828  68.792  1.00  0.00    -0.165 C  
BRANCH  15  16
HETATM   16  C   UNL     1     -11.486  11.995  69.891  1.00  0.00    -0.239 C  
BRANCH  16  17
HETATM   17  C   UNL     1     -11.171  10.614  69.324  1.00  0.00    -0.332 C  
BRANCH  17  18
HETATM   18  C   UNL     1     -10.673   9.666  70.401  1.00  0.00    -0.356 C  
BRANCH  18  19
HETATM   19  C   UNL     1     -10.882   8.225  69.957  1.00  0.00    -0.232 C  
BRANCH  19  20
HETATM   20  C   UNL     1      -9.842   7.311  70.597  1.00  0.00    -0.179 C  
BRANCH  20  21
HETATM   21  C   UNL     1      -8.440   7.643  70.096  1.00  0.00    -0.138 C  
BRANCH  21  22
HETATM   22  C   UNL     1      -8.403   7.658  68.572  1.00  0.00    -0.129 C  
HETATM   23  C   UNL     1      -7.853   8.971  68.047  1.00  0.00    -0.101 C  
ENDBRANCH  21  22
ENDBRANCH  20  21
ENDBRANCH  19  20
ENDBRANCH  18  19
ENDBRANCH  17  18
ENDBRANCH  16  17
ENDBRANCH  15  16
ENDBRANCH  14  15
ENDBRANCH  11  14
ENDBRANCH  10  11
ENDBRANCH   9  10
ENDBRANCH   8   9
ENDBRANCH   7   8
ENDBRANCH   6   7
ENDBRANCH   5   6
ENDBRANCH   4   5
ENDBRANCH   3   4
ENDBRANCH   2   3
TORSDOF 18
ENDMDL
MODEL      339
REMARK 921   NORMALIZED FREE ENERGY PREDICTED BY IDOCK:   -2.23 KCAL/MOL
REMARK 922        TOTAL FREE ENERGY PREDICTED BY IDOCK:   -7.29 KCAL/MOL
REMARK 923 INTER-LIGAND FREE ENERGY PREDICTED BY IDOCK:   -5.98 KCAL/MOL
REMARK 924 INTRA-LIGAND FREE ENERGY PREDICTED BY IDOCK:   -1.31 KCAL/MOL
REMARK 927      BINDING AFFINITY PREDICTED BY RF-SCORE:    0.00 PKD
ROOT
HETATM    1  C   UNL     1     -14.056  15.251  71.198  1.00  0.00    -0.438 C  
HETATM    2  C   UNL     1     -14.295  14.095  72.152  1.00  0.00    -0.606 C  
ENDROOT
BRANCH   2   3
HETATM    3  C   UNL     1     -12.998  13.348  72.450  1.00  0.00    -0.372 C  
BRANCH   3   4
HETATM    4  C   UNL     1     -13.165  11.856  72.187  1.00  0.00    -0.366 C  
BRANCH   4   5
HETATM    5  C   UNL     1     -13.012  11.544  70.706  1.00  0.00    -0.103 C  
BRANCH   5   6
HETATM    6  C   UNL     1     -11.859  12.341  70.104  1.00  0.00    -0.352 C  
BRANCH   6   7
HETATM    7  C   UNL     1     -11.178  11.525  69.019  1.00  0.00    -0.324 C  
BRANCH   7   8
HETATM    8  C   UNL     1     -11.253  10.029  69.306  1.00  0.00    -0.213 C  
BRANCH   8   9
HETATM    9  C   UNL     1      -9.966   9.382  68.813  1.00  0.00    -0.191 C  
BRANCH   9  10
HETATM   10  C   UNL     1     -10.222   8.039  68.143  1.00  0.00    -0.207 C  
BRANCH  10  11
HETATM   11  N   UNL     1      -9.953   6.841  69.090  1.00  0.00    -0.157 N  
HETATM   12  C   UNL     1      -9.189   7.304  70.330  1.00  0.00    -0.155 C  
HETATM   13  C   UNL     1     -11.275   6.193  69.510  1.00  0.00    -0.411 C  
BRANCH  11  14
HETATM   14  C   UNL     1      -9.098   5.836  68.275  1.00  0.00    -0.117 C  
BRANCH  14  15
HETATM   15  C   UNL     1      -7.814   5.444  68.992  1.00  0.00    -0.090 C  
BRANCH  15  16
HETATM   16  C   UNL     1      -7.845   4.000  69.473  1.00  0.00    -0.052 C  
BRANCH  16  17
HETATM   17  C   UNL     1      -8.304   3.988  70.927  1.00  0.00    -0.087 C  
BRANCH  17  18
HETATM   18  C   UNL     1      -9.652   3.305  71.084  1.00  0.00    -0.230 C  
BRANCH  18  19
HETATM   19  C   UNL     1     -10.139   3.447  72.519  1.00  0.00    -0.232 C  
BRANCH  19  20
HETATM   20  C   UNL     1     -10.845   4.785  72.715  1.00  0.00    -0.280 C  
BRANCH  20  21
HETATM   21  C   UNL     1     -10.332   5.497  73.963  1.00  0.00    -0.297 C  
BRANCH  21  22
HETATM   22  C   UNL     1     -10.305   7.006  73.748  1.00  0.00    -0.408 C  
HETATM   23  C   UNL     1      -8.910   7.566  73.952  1.00  0.00    -0.291 C  
ENDBRANCH  21  22
ENDBRANCH  20  21
ENDBRANCH  19  20
ENDBRANCH  18  19
ENDBRANCH  17  18
ENDBRANCH  16  17
ENDBRANCH  15  16
ENDBRANCH  14  15
ENDBRANCH  11  14
ENDBRANCH  10  11
ENDBRANCH   9  10
ENDBRANCH   8   9
ENDBRANCH   7   8
ENDBRANCH   6   7
ENDBRANCH   5   6
ENDBRANCH   4   5
ENDBRANCH   3   4
ENDBRANCH   2   3
TORSDOF 18
ENDMDL
MODEL      340
REMARK 921   NORMALIZED FREE ENERGY PREDICTED BY IDOCK:   -2.22 KCAL/MOL
REMARK 922        TOTAL FREE ENERGY PREDICTED BY IDOCK:   -7.25 KCAL/MOL
REMARK 923 INTER-LIGAND FREE ENERGY PREDICTED BY IDOCK:   -5.37 KCAL/MOL
REMARK 924 INTRA-LIGAND FREE ENERGY PREDICTED BY IDOCK:   -1.88 KCAL/MOL
REMARK 927      BINDING AFFINITY PREDICTED BY RF-SCORE:    0.00 PKD
ROOT
HETATM    1  C   UNL     1     -11.410   6.280  69.754  1.00  0.00    -0.506 C  
HETATM    2  C   UNL     1     -10.759   7.598  70.132  1.00  0.00    -0.245 C  
ENDROOT
BRANCH   2   3
HETATM    3  C   UNL     1     -11.494   8.263  71.292  1.00  0.00    -0.314 C  
BRANCH   3   4
HETATM    4  C   UNL     1     -11.593   9.769  71.073  1.00  0.00    -0.455 C  
BRANCH   4   5
HETATM    5  C   UNL     1     -11.661  10.098  69.589  1.00  0.00    -0.216 C  
BRANCH   5   6
HETATM    6  C   UNL     1     -10.545  11.063  69.200  1.00  0.00    -0.253 C  
BRANCH   6   7
HETATM    7  C   UNL     1     -10.286  10.979  67.705  1.00  0.00    -0.218 C  
BRANCH   7   8
HETATM    8  C   UNL     1     -10.883   9.713  67.100  1.00  0.00    -0.184 C  
BRANCH   8   9
HETATM    9  C   UNL     1      -9.767   8.939  66.413  1.00  0.00    -0.332 C  
BRANCH   9  10
HETATM   10  C   UNL     1      -8.749   9.864  65.760  1.00  0.00    -0.141 C  
BRANCH  10  11
HETATM   11  N   UNL     1      -7.287   9.418  66.020  1.00  0.00    -0.091 N  
HETATM   12  C   UNL     1      -7.170   8.755  67.393  1.00  0.00    -0.080 C  
HETATM   13  C   UNL     1      -6.831   8.440  64.934  1.00  0.00    -0.071 C  
BRANCH  11  14
HETATM   14  C   UNL     1      -6.431  10.710  65.972  1.00  0.00    -0.129 C  
BRANCH  14  15
HETATM   15  C   UNL     1      -6.940  11.784  66.922  1.00  0.00    -0.101 C  
BRANCH  15  16
HETATM   16  C   UNL     1      -5.802  12.537  67.598  1.00  0.00    -0.134 C  
BRANCH  16  17
HETATM   17  C   UNL     1      -6.290  13.942  67.935  1.00  0.00    -0.167 C  
BRANCH  17  18
HETATM   18  C   UNL     1      -7.721  13.931  68.444  1.00  0.00    -0.139 C  
BRANCH  18  19
HETATM   19  C   UNL     1      -8.349  15.305  68.248  1.00  0.00    -0.148 C  
BRANCH  19  20
HETATM   20  C   UNL     1      -8.568  15.586  66.765  1.00  0.00    -0.307 C  
BRANCH  20  21
HETATM   21  C   UNL     1      -8.725  17.082  66.510  1.00  0.00    -0.297 C  
BRANCH  21  22
HETATM   22  C   UNL     1     -10.154  17.530  66.798  1.00  0.00    -0.320 C  
HETATM   23  C   UNL     1     -10.444  18.881  66.172  1.00  0.00    -0.521 C  
ENDBRANCH  21  22
ENDBRANCH  20  21
ENDBRANCH  19  20
ENDBRANCH  18  19
ENDBRANCH  17  18
ENDBRANCH  16  17
ENDBRANCH  15  16
ENDBRANCH  14  15
ENDBRANCH  11  14
ENDBRANCH  10  11
ENDBRANCH   9  10
ENDBRANCH   8   9
ENDBRANCH   7   8
ENDBRANCH   6   7
ENDBRANCH   5   6
ENDBRANCH   4   5
ENDBRANCH   3   4
ENDBRANCH   2   3
TORSDOF 18
ENDMDL
MODEL      341
REMARK 921   NORMALIZED FREE ENERGY PREDICTED BY IDOCK:   -2.21 KCAL/MOL
REMARK 922        TOTAL FREE ENERGY PREDICTED BY IDOCK:   -7.23 KCAL/MOL
REMARK 923 INTER-LIGAND FREE ENERGY PREDICTED BY IDOCK:   -5.58 KCAL/MOL
REMARK 924 INTRA-LIGAND FREE ENERGY PREDICTED BY IDOCK:   -1.65 KCAL/MOL
REMARK 927      BINDING AFFINITY PREDICTED BY RF-SCORE:    0.00 PKD
ROOT
HETATM    1  C   UNL     1      -8.672   4.505  70.370  1.00  0.00    -0.116 C  
HETATM    2  C   UNL     1      -9.967   4.097  71.048  1.00  0.00    -0.206 C  
ENDROOT
BRANCH   2   3
HETATM    3  C   UNL     1      -9.715   3.611  72.472  1.00  0.00    -0.207 C  
BRANCH   3   4
HETATM    4  C   UNL     1     -10.474   4.471  73.476  1.00  0.00    -0.272 C  
BRANCH   4   5
HETATM    5  C   UNL     1     -11.618   5.214  72.800  1.00  0.00    -0.241 C  
BRANCH   5   6
HETATM    6  C   UNL     1     -11.461   6.721  72.979  1.00  0.00    -0.026 C  
BRANCH   6   7
HETATM    7  C   UNL     1     -10.254   7.015  73.853  1.00  0.00    -0.388 C  
BRANCH   7   8
HETATM    8  C   UNL     1      -9.259   7.933  73.151  1.00  0.00    -0.331 C  
BRANCH   8   9
HETATM    9  C   UNL     1      -9.979   8.633  72.007  1.00  0.00    -0.399 C  
BRANCH   9  10
HETATM   10  C   UNL     1      -9.010   9.163  70.960  1.00  0.00    -0.214 C  
BRANCH  10  11
HETATM   11  N   UNL     1      -9.433   8.792  69.515  1.00  0.00    -0.164 N  
HETATM   12  C   UNL     1      -8.288   8.082  68.792  1.00  0.00    -0.127 C  
HETATM   13  C   UNL     1     -10.667   7.888  69.541  1.00  0.00    -0.192 C  
BRANCH  11  14
HETATM   14  C   UNL     1      -9.765  10.133  68.809  1.00  0.00    -0.172 C  
BRANCH  14  15
HETATM   15  C   UNL     1     -11.225  10.529  68.964  1.00  0.00    -0.316 C  
BRANCH  15  16
HETATM   16  C   UNL     1     -11.738  11.307  67.760  1.00  0.00    -0.254 C  
BRANCH  16  17
HETATM   17  C   UNL     1     -11.481  12.790  68.002  1.00  0.00    -0.364 C  
BRANCH  17  18
HETATM   18  C   UNL     1     -10.848  13.454  66.790  1.00  0.00    -0.286 C  
BRANCH  18  19
HETATM   19  C   UNL     1     -10.056  14.679  67.228  1.00  0.00    -0.236 C  
BRANCH  19  20
HETATM   20  C   UNL     1      -9.986  14.755  68.749  1.00  0.00    -0.234 C  
BRANCH  20  21
HETATM   21  C   UNL     1     -10.707  15.996  69.268  1.00  0.00    -0.275 C  
BRANCH  21  22
HETATM   22  C   UNL     1     -11.141  16.888  68.111  1.00  0.00    -0.205 C  
HETATM   23  C   UNL     1     -10.446  18.237  68.164  1.00  0.00    -0.359 C  
ENDBRANCH  21  22
ENDBRANCH  20  21
ENDBRANCH  19  20
ENDBRANCH  18  19
ENDBRANCH  17  18
ENDBRANCH  16  17
ENDBRANCH  15  16
ENDBRANCH  14  15
ENDBRANCH  11  14
ENDBRANCH  10  11
ENDBRANCH   9  10
ENDBRANCH   8   9
ENDBRANCH   7   8
ENDBRANCH   6   7
ENDBRANCH   5   6
ENDBRANCH   4   5
ENDBRANCH   3   4
ENDBRANCH   2   3
TORSDOF 18
ENDMDL
MODEL      342
REMARK 921   NORMALIZED FREE ENERGY PREDICTED BY IDOCK:   -2.19 KCAL/MOL
REMARK 922        TOTAL FREE ENERGY PREDICTED BY IDOCK:   -7.20 KCAL/MOL
REMARK 923 INTER-LIGAND FREE ENERGY PREDICTED BY IDOCK:   -5.56 KCAL/MOL
REMARK 924 INTRA-LIGAND FREE ENERGY PREDICTED BY IDOCK:   -1.64 KCAL/MOL
REMARK 927      BINDING AFFINITY PREDICTED BY RF-SCORE:    0.00 PKD
ROOT
HETATM    1  C   UNL     1      -8.573   2.951  68.412  1.00  0.00    -0.117 C  
HETATM    2  C   UNL     1      -9.537   3.752  69.268  1.00  0.00    -0.209 C  
ENDROOT
BRANCH   2   3
HETATM    3  C   UNL     1     -10.060   4.972  68.515  1.00  0.00    -0.184 C  
BRANCH   3   4
HETATM    4  C   UNL     1     -10.696   5.966  69.480  1.00  0.00    -0.414 C  
BRANCH   4   5
HETATM    5  C   UNL     1     -10.671   5.434  70.905  1.00  0.00    -0.243 C  
BRANCH   5   6
HETATM    6  C   UNL     1      -9.866   6.359  71.811  1.00  0.00    -0.178 C  
BRANCH   6   7
HETATM    7  C   UNL     1      -8.922   7.207  70.976  1.00  0.00    -0.150 C  
BRANCH   7   8
HETATM    8  C   UNL     1      -8.953   8.672  71.401  1.00  0.00    -0.286 C  
BRANCH   8   9
HETATM    9  C   UNL     1      -9.672   9.467  70.321  1.00  0.00    -0.314 C  
BRANCH   9  10
HETATM   10  C   UNL     1      -8.714   9.978  69.254  1.00  0.00    -0.177 C  
BRANCH  10  11
HETATM   11  N   UNL     1      -9.239   9.732  67.816  1.00  0.00    -0.131 N  
HETATM   12  C   UNL     1      -8.681   8.420  67.264  1.00  0.00    -0.127 C  
HETATM   13  C   UNL     1     -10.769   9.685  67.812  1.00  0.00    -0.257 C  
BRANCH  11  14
HETATM   14  C   UNL     1      -8.736  10.929  66.967  1.00  0.00    -0.141 C  
BRANCH  14  15
HETATM   15  C   UNL     1      -9.832  11.531  66.099  1.00  0.00    -0.250 C  
BRANCH  15  16
HETATM   16  C   UNL     1      -9.984  13.029  66.327  1.00  0.00    -0.283 C  
BRANCH  16  17
HETATM   17  C   UNL     1     -10.326  13.684  64.993  1.00  0.00    -0.393 C  
BRANCH  17  18
HETATM   18  C   UNL     1     -10.690  15.149  65.165  1.00  0.00    -0.442 C  
BRANCH  18  19
HETATM   19  C   UNL     1     -10.851  15.470  66.645  1.00  0.00    -0.285 C  
BRANCH  19  20
HETATM   20  C   UNL     1     -10.074  16.731  67.007  1.00  0.00    -0.276 C  
BRANCH  20  21
HETATM   21  C   UNL     1      -8.609  16.606  66.600  1.00  0.00    -0.293 C  
BRANCH  21  22
HETATM   22  C   UNL     1      -7.833  15.793  67.630  1.00  0.00    -0.168 C  
HETATM   23  C   UNL     1      -8.266  16.138  69.043  1.00  0.00    -0.244 C  
ENDBRANCH  21  22
ENDBRANCH  20  21
ENDBRANCH  19  20
ENDBRANCH  18  19
ENDBRANCH  17  18
ENDBRANCH  16  17
ENDBRANCH  15  16
ENDBRANCH  14  15
ENDBRANCH  11  14
ENDBRANCH  10  11
ENDBRANCH   9  10
ENDBRANCH   8   9
ENDBRANCH   7   8
ENDBRANCH   6   7
ENDBRANCH   5   6
ENDBRANCH   4   5
ENDBRANCH   3   4
ENDBRANCH   2   3
TORSDOF 18
ENDMDL
MODEL      343
REMARK 921   NORMALIZED FREE ENERGY PREDICTED BY IDOCK:   -2.19 KCAL/MOL
REMARK 922        TOTAL FREE ENERGY PREDICTED BY IDOCK:   -7.20 KCAL/MOL
REMARK 923 INTER-LIGAND FREE ENERGY PREDICTED BY IDOCK:   -5.81 KCAL/MOL
REMARK 924 INTRA-LIGAND FREE ENERGY PREDICTED BY IDOCK:   -1.39 KCAL/MOL
REMARK 927      BINDING AFFINITY PREDICTED BY RF-SCORE:    0.00 PKD
ROOT
HETATM    1  C   UNL     1      -5.718   4.901  65.739  1.00  0.00    -0.018 C  
HETATM    2  C   UNL     1      -6.847   3.990  65.298  1.00  0.00    -0.053 C  
ENDROOT
BRANCH   2   3
HETATM    3  C   UNL     1      -7.439   4.448  63.968  1.00  0.00    -0.063 C  
BRANCH   3   4
HETATM    4  C   UNL     1      -8.957   4.549  64.061  1.00  0.00    -0.138 C  
BRANCH   4   5
HETATM    5  C   UNL     1      -9.471   3.862  65.318  1.00  0.00    -0.170 C  
BRANCH   5   6
HETATM    6  C   UNL     1     -10.525   4.723  66.008  1.00  0.00    -0.332 C  
BRANCH   6   7
HETATM    7  C   UNL     1      -9.853   5.699  66.958  1.00  0.00    -0.172 C  
BRANCH   7   8
HETATM    8  C   UNL     1     -10.856   6.342  67.911  1.00  0.00    -0.417 C  
BRANCH   8   9
HETATM    9  C   UNL     1     -10.680   5.714  69.286  1.00  0.00    -0.350 C  
BRANCH   9  10
HETATM   10  C   UNL     1     -11.562   6.377  70.335  1.00  0.00    -0.373 C  
BRANCH  10  11
HETATM   11  N   UNL     1     -10.813   6.629  71.669  1.00  0.00    -0.229 N  
HETATM   12  C   UNL     1     -11.556   5.966  72.829  1.00  0.00    -0.189 C  
HETATM   13  C   UNL     1      -9.387   6.079  71.587  1.00  0.00    -0.148 C  
BRANCH  11  14
HETATM   14  C   UNL     1     -10.784   8.168  71.858  1.00  0.00    -0.265 C  
BRANCH  14  15
HETATM   15  C   UNL     1      -9.600   8.821  71.160  1.00  0.00    -0.309 C  
BRANCH  15  16
HETATM   16  C   UNL     1     -10.040   9.874  70.152  1.00  0.00    -0.309 C  
BRANCH  16  17
HETATM   17  C   UNL     1     -11.555  10.025  70.246  1.00  0.00    -0.354 C  
BRANCH  17  18
HETATM   18  C   UNL     1     -12.087  10.991  69.202  1.00  0.00    -0.333 C  
BRANCH  18  19
HETATM   19  C   UNL     1     -11.297  12.292  69.252  1.00  0.00    -0.317 C  
BRANCH  19  20
HETATM   20  C   UNL     1     -11.985  13.369  68.420  1.00  0.00    -0.359 C  
BRANCH  20  21
HETATM   21  C   UNL     1     -11.025  14.511  68.102  1.00  0.00    -0.261 C  
BRANCH  21  22
HETATM   22  C   UNL     1     -11.632  15.851  68.500  1.00  0.00    -0.351 C  
HETATM   23  C   UNL     1     -11.456  16.116  69.984  1.00  0.00    -0.294 C  
ENDBRANCH  21  22
ENDBRANCH  20  21
ENDBRANCH  19  20
ENDBRANCH  18  19
ENDBRANCH  17  18
ENDBRANCH  16  17
ENDBRANCH  15  16
ENDBRANCH  14  15
ENDBRANCH  11  14
ENDBRANCH  10  11
ENDBRANCH   9  10
ENDBRANCH   8   9
ENDBRANCH   7   8
ENDBRANCH   6   7
ENDBRANCH   5   6
ENDBRANCH   4   5
ENDBRANCH   3   4
ENDBRANCH   2   3
TORSDOF 18
ENDMDL
MODEL      344
REMARK 921   NORMALIZED FREE ENERGY PREDICTED BY IDOCK:   -2.19 KCAL/MOL
REMARK 922        TOTAL FREE ENERGY PREDICTED BY IDOCK:   -7.19 KCAL/MOL
REMARK 923 INTER-LIGAND FREE ENERGY PREDICTED BY IDOCK:   -5.41 KCAL/MOL
REMARK 924 INTRA-LIGAND FREE ENERGY PREDICTED BY IDOCK:   -1.78 KCAL/MOL
REMARK 927      BINDING AFFINITY PREDICTED BY RF-SCORE:    0.00 PKD
ROOT
HETATM    1  C   UNL     1      -8.375   7.085  66.633  1.00  0.00    -0.118 C  
HETATM    2  C   UNL     1      -7.938   7.715  65.324  1.00  0.00    -0.129 C  
ENDROOT
BRANCH   2   3
HETATM    3  C   UNL     1      -7.539   9.175  65.521  1.00  0.00    -0.090 C  
BRANCH   3   4
HETATM    4  C   UNL     1      -7.615   9.559  66.994  1.00  0.00    -0.091 C  
BRANCH   4   5
HETATM    5  C   UNL     1      -6.238   9.920  67.532  1.00  0.00    -0.059 C  
BRANCH   5   6
HETATM    6  C   UNL     1      -6.112   9.523  68.999  1.00  0.00    -0.042 C  
BRANCH   6   7
HETATM    7  C   UNL     1      -7.492   9.295  69.593  1.00  0.00    -0.078 C  
BRANCH   7   8
HETATM    8  C   UNL     1      -7.469   8.225  70.680  1.00  0.00    -0.062 C  
BRANCH   8   9
HETATM    9  C   UNL     1      -8.624   8.490  71.635  1.00  0.00    -0.247 C  
BRANCH   9  10
HETATM   10  C   UNL     1      -9.564   7.297  71.739  1.00  0.00    -0.150 C  
BRANCH  10  11
HETATM   11  N   UNL     1     -10.970   7.595  71.155  1.00  0.00    -0.243 N  
HETATM   12  C   UNL     1     -10.962   7.418  69.636  1.00  0.00    -0.172 C  
HETATM   13  C   UNL     1     -12.010   6.661  71.779  1.00  0.00    -0.345 C  
BRANCH  11  14
HETATM   14  C   UNL     1     -11.282   9.068  71.523  1.00  0.00    -0.348 C  
BRANCH  14  15
HETATM   15  C   UNL     1     -11.985   9.816  70.399  1.00  0.00    -0.218 C  
BRANCH  15  16
HETATM   16  C   UNL     1     -11.922  11.325  70.589  1.00  0.00    -0.435 C  
BRANCH  16  17
HETATM   17  C   UNL     1     -12.029  11.985  69.218  1.00  0.00    -0.329 C  
BRANCH  17  18
HETATM   18  C   UNL     1     -10.900  12.973  68.982  1.00  0.00    -0.197 C  
BRANCH  18  19
HETATM   19  C   UNL     1     -10.474  12.930  67.521  1.00  0.00    -0.226 C  
BRANCH  19  20
HETATM   20  C   UNL     1     -11.327  11.934  66.744  1.00  0.00    -0.393 C  
BRANCH  20  21
HETATM   21  C   UNL     1     -12.082  12.626  65.613  1.00  0.00    -0.502 C  
BRANCH  21  22
HETATM   22  C   UNL     1     -11.450  12.299  64.265  1.00  0.00    -0.429 C  
HETATM   23  C   UNL     1     -12.495  11.849  63.261  1.00  0.00    -0.506 C  
ENDBRANCH  21  22
ENDBRANCH  20  21
ENDBRANCH  19  20
ENDBRANCH  18  19
ENDBRANCH  17  18
ENDBRANCH  16  17
ENDBRANCH  15  16
ENDBRANCH  14  15
ENDBRANCH  11  14
ENDBRANCH  10  11
ENDBRANCH   9  10
ENDBRANCH   8   9
ENDBRANCH   7   8
ENDBRANCH   6   7
ENDBRANCH   5   6
ENDBRANCH   4   5
ENDBRANCH   3   4
ENDBRANCH   2   3
TORSDOF 18
ENDMDL
MODEL      345
REMARK 921   NORMALIZED FREE ENERGY PREDICTED BY IDOCK:   -2.18 KCAL/MOL
REMARK 922        TOTAL FREE ENERGY PREDICTED BY IDOCK:   -7.17 KCAL/MOL
REMARK 923 INTER-LIGAND FREE ENERGY PREDICTED BY IDOCK:   -6.01 KCAL/MOL
REMARK 924 INTRA-LIGAND FREE ENERGY PREDICTED BY IDOCK:   -1.16 KCAL/MOL
REMARK 927      BINDING AFFINITY PREDICTED BY RF-SCORE:    0.00 PKD
ROOT
HETATM    1  C   UNL     1      -9.643   8.902  71.412  1.00  0.00    -0.359 C  
HETATM    2  C   UNL     1      -8.854   7.614  71.561  1.00  0.00    -0.138 C  
ENDROOT
BRANCH   2   3
HETATM    3  C   UNL     1      -7.728   7.535  70.534  1.00  0.00    -0.094 C  
BRANCH   3   4
HETATM    4  C   UNL     1      -8.289   7.283  69.140  1.00  0.00    -0.132 C  
BRANCH   4   5
HETATM    5  C   UNL     1      -7.583   8.148  68.106  1.00  0.00    -0.105 C  
BRANCH   5   6
HETATM    6  C   UNL     1      -8.405   9.395  67.796  1.00  0.00    -0.115 C  
BRANCH   6   7
HETATM    7  C   UNL     1      -7.856  10.581  68.571  1.00  0.00    -0.111 C  
BRANCH   7   8
HETATM    8  C   UNL     1      -8.362  11.906  68.009  1.00  0.00    -0.160 C  
BRANCH   8   9
HETATM    9  C   UNL     1      -9.291  11.606  66.841  1.00  0.00    -0.195 C  
BRANCH   9  10
HETATM   10  C   UNL     1     -10.756  11.768  67.219  1.00  0.00    -0.237 C  
BRANCH  10  11
HETATM   11  N   UNL     1     -11.349  13.118  66.741  1.00  0.00    -0.303 N  
HETATM   12  C   UNL     1     -12.309  12.893  65.572  1.00  0.00    -0.461 C  
HETATM   13  C   UNL     1     -12.087  13.809  67.890  1.00  0.00    -0.287 C  
BRANCH  11  14
HETATM   14  C   UNL     1     -10.141  13.978  66.286  1.00  0.00    -0.300 C  
BRANCH  14  15
HETATM   15  C   UNL     1     -10.564  15.221  65.518  1.00  0.00    -0.390 C  
BRANCH  15  16
HETATM   16  C   UNL     1     -10.129  16.502  66.217  1.00  0.00    -0.347 C  
BRANCH  16  17
HETATM   17  C   UNL     1      -9.496  16.127  67.553  1.00  0.00    -0.223 C  
BRANCH  17  18
HETATM   18  C   UNL     1      -9.940  17.062  68.665  1.00  0.00    -0.294 C  
BRANCH  18  19
HETATM   19  C   UNL     1     -10.168  18.459  68.104  1.00  0.00    -0.410 C  
BRANCH  19  20
HETATM   20  C   UNL     1      -9.184  19.450  68.717  1.00  0.00    -0.422 C  
BRANCH  20  21
HETATM   21  C   UNL     1      -8.225  19.992  67.662  1.00  0.00    -0.347 C  
BRANCH  21  22
HETATM   22  C   UNL     1      -6.792  19.575  67.973  1.00  0.00    -0.287 C  
HETATM   23  C   UNL     1      -6.749  18.520  69.063  1.00  0.00    -0.288 C  
ENDBRANCH  21  22
ENDBRANCH  20  21
ENDBRANCH  19  20
ENDBRANCH  18  19
ENDBRANCH  17  18
ENDBRANCH  16  17
ENDBRANCH  15  16
ENDBRANCH  14  15
ENDBRANCH  11  14
ENDBRANCH  10  11
ENDBRANCH   9  10
ENDBRANCH   8   9
ENDBRANCH   7   8
ENDBRANCH   6   7
ENDBRANCH   5   6
ENDBRANCH   4   5
ENDBRANCH   3   4
ENDBRANCH   2   3
TORSDOF 18
ENDMDL
MODEL      346
REMARK 921   NORMALIZED FREE ENERGY PREDICTED BY IDOCK:   -2.18 KCAL/MOL
REMARK 922        TOTAL FREE ENERGY PREDICTED BY IDOCK:   -7.17 KCAL/MOL
REMARK 923 INTER-LIGAND FREE ENERGY PREDICTED BY IDOCK:   -4.67 KCAL/MOL
REMARK 924 INTRA-LIGAND FREE ENERGY PREDICTED BY IDOCK:   -2.51 KCAL/MOL
REMARK 927      BINDING AFFINITY PREDICTED BY RF-SCORE:    0.00 PKD
ROOT
HETATM    1  C   UNL     1      -8.721   4.371  65.731  1.00  0.00    -0.120 C  
HETATM    2  C   UNL     1      -8.609   5.382  64.605  1.00  0.00    -0.097 C  
ENDROOT
BRANCH   2   3
HETATM    3  C   UNL     1      -8.276   6.771  65.141  1.00  0.00    -0.114 C  
BRANCH   3   4
HETATM    4  C   UNL     1      -9.226   7.153  66.270  1.00  0.00    -0.169 C  
BRANCH   4   5
HETATM    5  C   UNL     1      -9.342   8.665  66.395  1.00  0.00    -0.271 C  
BRANCH   5   6
HETATM    6  C   UNL     1     -10.689   9.054  66.995  1.00  0.00    -0.185 C  
BRANCH   6   7
HETATM    7  C   UNL     1     -10.619  10.466  67.551  1.00  0.00    -0.312 C  
BRANCH   7   8
HETATM    8  C   UNL     1     -11.208  10.550  68.956  1.00  0.00    -0.316 C  
BRANCH   8   9
HETATM    9  C   UNL     1     -10.617   9.423  69.790  1.00  0.00    -0.247 C  
BRANCH   9  10
HETATM   10  C   UNL     1     -11.062   9.495  71.245  1.00  0.00    -0.379 C  
BRANCH  10  11
HETATM   11  N   UNL     1     -11.777   8.201  71.713  1.00  0.00    -0.279 N  
HETATM   12  C   UNL     1     -13.240   8.494  72.048  1.00  0.00    -0.369 C  
HETATM   13  C   UNL     1     -11.701   7.130  70.622  1.00  0.00    -0.307 C  
BRANCH  11  14
HETATM   14  C   UNL     1     -11.019   7.729  72.981  1.00  0.00    -0.381 C  
BRANCH  14  15
HETATM   15  C   UNL     1      -9.781   6.908  72.652  1.00  0.00    -0.168 C  
BRANCH  15  16
HETATM   16  C   UNL     1      -8.499   7.613  73.071  1.00  0.00    -0.191 C  
BRANCH  16  17
HETATM   17  C   UNL     1      -7.746   8.028  71.812  1.00  0.00    -0.107 C  
BRANCH  17  18
HETATM   18  C   UNL     1      -7.186   6.825  71.071  1.00  0.00    -0.077 C  
BRANCH  18  19
HETATM   19  C   UNL     1      -7.653   6.849  69.622  1.00  0.00    -0.101 C  
BRANCH  19  20
HETATM   20  C   UNL     1      -8.537   5.643  69.324  1.00  0.00    -0.106 C  
BRANCH  20  21
HETATM   21  C   UNL     1      -7.708   4.364  69.242  1.00  0.00    -0.055 C  
BRANCH  21  22
HETATM   22  C   UNL     1      -8.178   3.352  70.281  1.00  0.00    -0.069 C  
HETATM   23  C   UNL     1      -9.578   3.674  70.770  1.00  0.00    -0.249 C  
ENDBRANCH  21  22
ENDBRANCH  20  21
ENDBRANCH  19  20
ENDBRANCH  18  19
ENDBRANCH  17  18
ENDBRANCH  16  17
ENDBRANCH  15  16
ENDBRANCH  14  15
ENDBRANCH  11  14
ENDBRANCH  10  11
ENDBRANCH   9  10
ENDBRANCH   8   9
ENDBRANCH   7   8
ENDBRANCH   6   7
ENDBRANCH   5   6
ENDBRANCH   4   5
ENDBRANCH   3   4
ENDBRANCH   2   3
TORSDOF 18
ENDMDL
MODEL      347
REMARK 921   NORMALIZED FREE ENERGY PREDICTED BY IDOCK:   -2.18 KCAL/MOL
REMARK 922        TOTAL FREE ENERGY PREDICTED BY IDOCK:   -7.17 KCAL/MOL
REMARK 923 INTER-LIGAND FREE ENERGY PREDICTED BY IDOCK:   -5.79 KCAL/MOL
REMARK 924 INTRA-LIGAND FREE ENERGY PREDICTED BY IDOCK:   -1.38 KCAL/MOL
REMARK 927      BINDING AFFINITY PREDICTED BY RF-SCORE:    0.00 PKD
ROOT
HETATM    1  C   UNL     1      -9.722   4.043  63.216  1.00  0.00    -0.145 C  
HETATM    2  C   UNL     1      -8.937   3.642  64.451  1.00  0.00    -0.121 C  
ENDROOT
BRANCH   2   3
HETATM    3  C   UNL     1      -9.390   4.433  65.674  1.00  0.00    -0.161 C  
BRANCH   3   4
HETATM    4  C   UNL     1      -8.191   4.857  66.514  1.00  0.00    -0.107 C  
BRANCH   4   5
HETATM    5  C   UNL     1      -8.191   6.362  66.740  1.00  0.00    -0.110 C  
BRANCH   5   6
HETATM    6  C   UNL     1      -7.473   7.077  65.600  1.00  0.00    -0.085 C  
BRANCH   6   7
HETATM    7  C   UNL     1      -8.318   8.239  65.105  1.00  0.00    -0.167 C  
BRANCH   7   8
HETATM    8  C   UNL     1      -9.489   8.524  66.041  1.00  0.00    -0.256 C  
BRANCH   8   9
HETATM    9  C   UNL     1      -9.495  10.013  66.357  1.00  0.00    -0.235 C  
BRANCH   9  10
HETATM   10  C   UNL     1     -10.060  10.301  67.741  1.00  0.00    -0.180 C  
BRANCH  10  11
HETATM   11  N   UNL     1     -10.781  11.672  67.816  1.00  0.00    -0.196 N  
HETATM   12  C   UNL     1      -9.857  12.726  68.427  1.00  0.00    -0.196 C  
HETATM   13  C   UNL     1     -11.219  12.116  66.418  1.00  0.00    -0.331 C  
BRANCH  11  14
HETATM   14  C   UNL     1     -12.021  11.453  68.722  1.00  0.00    -0.287 C  
BRANCH  14  15
HETATM   15  C   UNL     1     -12.099  12.461  69.859  1.00  0.00    -0.317 C  
BRANCH  15  16
HETATM   16  C   UNL     1     -12.621  11.835  71.145  1.00  0.00    -0.412 C  
BRANCH  16  17
HETATM   17  C   UNL     1     -12.784  10.336  70.916  1.00  0.00    -0.462 C  
BRANCH  17  18
HETATM   18  C   UNL     1     -12.858   9.573  72.228  1.00  0.00    -0.426 C  
BRANCH  18  19
HETATM   19  C   UNL     1     -11.867   8.418  72.210  1.00  0.00    -0.456 C  
BRANCH  19  20
HETATM   20  C   UNL     1     -10.496   8.896  71.744  1.00  0.00    -0.431 C  
BRANCH  20  21
HETATM   21  C   UNL     1      -9.400   7.931  72.187  1.00  0.00    -0.225 C  
BRANCH  21  22
HETATM   22  C   UNL     1      -9.726   7.339  73.554  1.00  0.00    -0.315 C  
HETATM   23  C   UNL     1      -8.475   6.832  74.247  1.00  0.00    -0.168 C  
ENDBRANCH  21  22
ENDBRANCH  20  21
ENDBRANCH  19  20
ENDBRANCH  18  19
ENDBRANCH  17  18
ENDBRANCH  16  17
ENDBRANCH  15  16
ENDBRANCH  14  15
ENDBRANCH  11  14
ENDBRANCH  10  11
ENDBRANCH   9  10
ENDBRANCH   8   9
ENDBRANCH   7   8
ENDBRANCH   6   7
ENDBRANCH   5   6
ENDBRANCH   4   5
ENDBRANCH   3   4
ENDBRANCH   2   3
TORSDOF 18
ENDMDL
MODEL      348
REMARK 921   NORMALIZED FREE ENERGY PREDICTED BY IDOCK:   -2.18 KCAL/MOL
REMARK 922        TOTAL FREE ENERGY PREDICTED BY IDOCK:   -7.17 KCAL/MOL
REMARK 923 INTER-LIGAND FREE ENERGY PREDICTED BY IDOCK:   -5.13 KCAL/MOL
REMARK 924 INTRA-LIGAND FREE ENERGY PREDICTED BY IDOCK:   -2.03 KCAL/MOL
REMARK 927      BINDING AFFINITY PREDICTED BY RF-SCORE:    0.00 PKD
ROOT
HETATM    1  C   UNL     1     -14.263  15.007  71.226  1.00  0.00    -0.508 C  
HETATM    2  C   UNL     1     -14.024  13.794  72.107  1.00  0.00    -0.638 C  
ENDROOT
BRANCH   2   3
HETATM    3  C   UNL     1     -12.733  13.078  71.722  1.00  0.00    -0.260 C  
BRANCH   3   4
HETATM    4  C   UNL     1     -12.961  11.574  71.626  1.00  0.00    -0.499 C  
BRANCH   4   5
HETATM    5  C   UNL     1     -12.663  11.068  70.222  1.00  0.00    -0.256 C  
BRANCH   5   6
HETATM    6  C   UNL     1     -11.581  11.916  69.562  1.00  0.00    -0.394 C  
BRANCH   6   7
HETATM    7  C   UNL     1     -10.664  11.032  68.734  1.00  0.00    -0.240 C  
BRANCH   7   8
HETATM    8  C   UNL     1     -10.705   9.581  69.202  1.00  0.00    -0.228 C  
BRANCH   8   9
HETATM    9  C   UNL     1      -9.295   9.014  69.127  1.00  0.00    -0.148 C  
BRANCH   9  10
HETATM   10  C   UNL     1      -8.248  10.107  68.955  1.00  0.00    -0.132 C  
BRANCH  10  11
HETATM   11  N   UNL     1      -7.093   9.682  68.012  1.00  0.00    -0.079 N  
HETATM   12  C   UNL     1      -6.949   8.160  68.002  1.00  0.00    -0.077 C  
HETATM   13  C   UNL     1      -7.358  10.186  66.591  1.00  0.00    -0.106 C  
BRANCH  11  14
HETATM   14  C   UNL     1      -5.811  10.339  68.584  1.00  0.00    -0.037 C  
BRANCH  14  15
HETATM   15  C   UNL     1      -5.846  10.470  70.100  1.00  0.00    -0.080 C  
BRANCH  15  16
HETATM   16  C   UNL     1      -5.768  11.921  70.551  1.00  0.00    -0.156 C  
BRANCH  16  17
HETATM   17  C   UNL     1      -5.736  12.809  69.311  1.00  0.00    -0.081 C  
BRANCH  17  18
HETATM   18  C   UNL     1      -6.980  13.674  69.209  1.00  0.00    -0.025 C  
BRANCH  18  19
HETATM   19  C   UNL     1      -7.062  14.298  67.823  1.00  0.00    -0.190 C  
BRANCH  19  20
HETATM   20  C   UNL     1      -8.490  14.235  67.291  1.00  0.00    -0.226 C  
BRANCH  20  21
HETATM   21  C   UNL     1      -9.479  14.787  68.313  1.00  0.00    -0.207 C  
BRANCH  21  22
HETATM   22  C   UNL     1     -10.643  15.481  67.616  1.00  0.00    -0.291 C  
HETATM   23  C   UNL     1     -11.887  15.479  68.486  1.00  0.00    -0.276 C  
ENDBRANCH  21  22
ENDBRANCH  20  21
ENDBRANCH  19  20
ENDBRANCH  18  19
ENDBRANCH  17  18
ENDBRANCH  16  17
ENDBRANCH  15  16
ENDBRANCH  14  15
ENDBRANCH  11  14
ENDBRANCH  10  11
ENDBRANCH   9  10
ENDBRANCH   8   9
ENDBRANCH   7   8
ENDBRANCH   6   7
ENDBRANCH   5   6
ENDBRANCH   4   5
ENDBRANCH   3   4
ENDBRANCH   2   3
TORSDOF 18
ENDMDL
MODEL      349
REMARK 921   NORMALIZED FREE ENERGY PREDICTED BY IDOCK:   -2.15 KCAL/MOL
REMARK 922        TOTAL FREE ENERGY PREDICTED BY IDOCK:   -7.11 KCAL/MOL
REMARK 923 INTER-LIGAND FREE ENERGY PREDICTED BY IDOCK:   -5.61 KCAL/MOL
REMARK 924 INTRA-LIGAND FREE ENERGY PREDICTED BY IDOCK:   -1.50 KCAL/MOL
REMARK 927      BINDING AFFINITY PREDICTED BY RF-SCORE:    0.00 PKD
ROOT
HETATM    1  C   UNL     1      -6.089   7.141  72.045  1.00  0.00    -0.037 C  
HETATM    2  C   UNL     1      -6.829   8.388  72.491  1.00  0.00    -0.104 C  
ENDROOT
BRANCH   2   3
HETATM    3  C   UNL     1      -7.853   8.065  73.575  1.00  0.00    -0.231 C  
BRANCH   3   4
HETATM    4  C   UNL     1      -9.212   7.761  72.956  1.00  0.00    -0.285 C  
BRANCH   4   5
HETATM    5  C   UNL     1      -9.692   6.372  73.352  1.00  0.00    -0.177 C  
BRANCH   5   6
HETATM    6  C   UNL     1     -10.588   5.782  72.268  1.00  0.00    -0.264 C  
BRANCH   6   7
HETATM    7  C   UNL     1     -11.590   6.824  71.803  1.00  0.00    -0.336 C  
BRANCH   7   8
HETATM    8  C   UNL     1     -11.778   6.790  70.289  1.00  0.00    -0.397 C  
BRANCH   8   9
HETATM    9  C   UNL     1     -10.686   5.915  69.692  1.00  0.00    -0.415 C  
BRANCH   9  10
HETATM   10  C   UNL     1     -10.518   6.152  68.197  1.00  0.00    -0.230 C  
BRANCH  10  11
HETATM   11  N   UNL     1      -9.052   6.475  67.806  1.00  0.00    -0.114 N  
HETATM   12  C   UNL     1      -8.286   7.011  69.016  1.00  0.00    -0.125 C  
HETATM   13  C   UNL     1      -8.359   5.220  67.271  1.00  0.00    -0.107 C  
BRANCH  11  14
HETATM   14  C   UNL     1      -9.133   7.557  66.699  1.00  0.00    -0.158 C  
BRANCH  14  15
HETATM   15  C   UNL     1     -10.334   8.476  66.866  1.00  0.00    -0.367 C  
BRANCH  15  16
HETATM   16  C   UNL     1     -10.086   9.856  66.274  1.00  0.00    -0.311 C  
BRANCH  16  17
HETATM   17  C   UNL     1     -10.221  10.888  67.390  1.00  0.00    -0.236 C  
BRANCH  17  18
HETATM   18  C   UNL     1     -11.657  11.357  67.548  1.00  0.00    -0.298 C  
BRANCH  18  19
HETATM   19  C   UNL     1     -11.725  12.871  67.392  1.00  0.00    -0.428 C  
BRANCH  19  20
HETATM   20  C   UNL     1     -10.430  13.405  66.788  1.00  0.00    -0.275 C  
BRANCH  20  21
HETATM   21  C   UNL     1     -10.138  14.818  67.285  1.00  0.00    -0.236 C  
BRANCH  21  22
HETATM   22  C   UNL     1      -9.787  14.804  68.768  1.00  0.00    -0.227 C  
HETATM   23  C   UNL     1     -10.100  16.138  69.421  1.00  0.00    -0.256 C  
ENDBRANCH  21  22
ENDBRANCH  20  21
ENDBRANCH  19  20
ENDBRANCH  18  19
ENDBRANCH  17  18
ENDBRANCH  16  17
ENDBRANCH  15  16
ENDBRANCH  14  15
ENDBRANCH  11  14
ENDBRANCH  10  11
ENDBRANCH   9  10
ENDBRANCH   8   9
ENDBRANCH   7   8
ENDBRANCH   6   7
ENDBRANCH   5   6
ENDBRANCH   4   5
ENDBRANCH   3   4
ENDBRANCH   2   3
TORSDOF 18
ENDMDL
MODEL      350
REMARK 921   NORMALIZED FREE ENERGY PREDICTED BY IDOCK:   -2.14 KCAL/MOL
REMARK 922        TOTAL FREE ENERGY PREDICTED BY IDOCK:   -7.09 KCAL/MOL
REMARK 923 INTER-LIGAND FREE ENERGY PREDICTED BY IDOCK:   -4.05 KCAL/MOL
REMARK 924 INTRA-LIGAND FREE ENERGY PREDICTED BY IDOCK:   -3.04 KCAL/MOL
REMARK 927      BINDING AFFINITY PREDICTED BY RF-SCORE:    0.00 PKD
ROOT
HETATM    1  C   UNL     1      -6.494   6.981  66.383  1.00  0.00    -0.051 C  
HETATM    2  C   UNL     1      -6.499   7.657  67.741  1.00  0.00    -0.055 C  
ENDROOT
BRANCH   2   3
HETATM    3  C   UNL     1      -6.481   9.176  67.602  1.00  0.00    -0.063 C  
BRANCH   3   4
HETATM    4  C   UNL     1      -7.046   9.837  68.854  1.00  0.00    -0.067 C  
BRANCH   4   5
HETATM    5  C   UNL     1      -7.867   8.848  69.668  1.00  0.00    -0.090 C  
BRANCH   5   6
HETATM    6  C   UNL     1      -9.044   9.548  70.339  1.00  0.00    -0.296 C  
BRANCH   6   7
HETATM    7  C   UNL     1     -10.074   8.522  70.778  1.00  0.00    -0.237 C  
BRANCH   7   8
HETATM    8  C   UNL     1      -9.417   7.237  71.272  1.00  0.00    -0.156 C  
BRANCH   8   9
HETATM    9  C   UNL     1     -10.468   6.412  72.000  1.00  0.00    -0.236 C  
BRANCH   9  10
HETATM   10  C   UNL     1      -9.888   5.685  73.206  1.00  0.00    -0.168 C  
BRANCH  10  11
HETATM   11  N   UNL     1      -9.964   4.142  73.063  1.00  0.00    -0.136 N  
HETATM   12  C   UNL     1      -8.783   3.484  73.778  1.00  0.00    -0.088 C  
HETATM   13  C   UNL     1     -11.278   3.621  73.650  1.00  0.00    -0.185 C  
BRANCH  11  14
HETATM   14  C   UNL     1      -9.902   3.850  71.542  1.00  0.00    -0.177 C  
BRANCH  14  15
HETATM   15  C   UNL     1      -8.547   3.312  71.104  1.00  0.00    -0.107 C  
BRANCH  15  16
HETATM   16  C   UNL     1      -8.252   3.625  69.644  1.00  0.00    -0.069 C  
BRANCH  16  17
HETATM   17  C   UNL     1      -9.435   4.396  69.070  1.00  0.00    -0.237 C  
BRANCH  17  18
HETATM   18  C   UNL     1      -9.246   4.694  67.592  1.00  0.00    -0.148 C  
BRANCH  18  19
HETATM   19  C   UNL     1     -10.438   5.483  67.068  1.00  0.00    -0.336 C  
BRANCH  19  20
HETATM   20  C   UNL     1      -9.985   6.822  66.495  1.00  0.00    -0.146 C  
BRANCH  20  21
HETATM   21  C   UNL     1     -10.574   7.983  67.289  1.00  0.00    -0.360 C  
BRANCH  21  22
HETATM   22  C   UNL     1     -10.165   9.317  66.675  1.00  0.00    -0.323 C  
HETATM   23  C   UNL     1     -10.923  10.470  67.306  1.00  0.00    -0.325 C  
ENDBRANCH  21  22
ENDBRANCH  20  21
ENDBRANCH  19  20
ENDBRANCH  18  19
ENDBRANCH  17  18
ENDBRANCH  16  17
ENDBRANCH  15  16
ENDBRANCH  14  15
ENDBRANCH  11  14
ENDBRANCH  10  11
ENDBRANCH   9  10
ENDBRANCH   8   9
ENDBRANCH   7   8
ENDBRANCH   6   7
ENDBRANCH   5   6
ENDBRANCH   4   5
ENDBRANCH   3   4
ENDBRANCH   2   3
TORSDOF 18
ENDMDL
MODEL      351
REMARK 921   NORMALIZED FREE ENERGY PREDICTED BY IDOCK:   -2.14 KCAL/MOL
REMARK 922        TOTAL FREE ENERGY PREDICTED BY IDOCK:   -7.09 KCAL/MOL
REMARK 923 INTER-LIGAND FREE ENERGY PREDICTED BY IDOCK:   -5.20 KCAL/MOL
REMARK 924 INTRA-LIGAND FREE ENERGY PREDICTED BY IDOCK:   -1.89 KCAL/MOL
REMARK 927      BINDING AFFINITY PREDICTED BY RF-SCORE:    0.00 PKD
ROOT
HETATM    1  C   UNL     1     -12.419  12.030  63.388  1.00  0.00    -0.625 C  
HETATM    2  C   UNL     1     -11.188  11.630  64.179  1.00  0.00    -0.421 C  
ENDROOT
BRANCH   2   3
HETATM    3  C   UNL     1     -10.511  12.848  64.799  1.00  0.00    -0.371 C  
BRANCH   3   4
HETATM    4  C   UNL     1     -11.048  13.106  66.202  1.00  0.00    -0.301 C  
BRANCH   4   5
HETATM    5  C   UNL     1     -11.499  11.809  66.858  1.00  0.00    -0.364 C  
BRANCH   5   6
HETATM    6  C   UNL     1     -11.061  11.764  68.319  1.00  0.00    -0.291 C  
BRANCH   6   7
HETATM    7  C   UNL     1     -12.205  11.266  69.186  1.00  0.00    -0.251 C  
BRANCH   7   8
HETATM    8  C   UNL     1     -11.700  10.457  70.376  1.00  0.00    -0.419 C  
BRANCH   8   9
HETATM    9  C   UNL     1     -10.568   9.559  69.898  1.00  0.00    -0.269 C  
BRANCH   9  10
HETATM   10  C   UNL     1     -10.591   8.198  70.581  1.00  0.00    -0.215 C  
BRANCH  10  11
HETATM   11  N   UNL     1      -9.354   7.965  71.486  1.00  0.00    -0.140 N  
HETATM   12  C   UNL     1      -8.149   8.737  70.948  1.00  0.00    -0.150 C  
HETATM   13  C   UNL     1      -9.656   8.411  72.919  1.00  0.00    -0.199 C  
BRANCH  11  14
HETATM   14  C   UNL     1      -9.076   6.440  71.446  1.00  0.00    -0.145 C  
BRANCH  14  15
HETATM   15  C   UNL     1      -9.683   5.767  70.224  1.00  0.00    -0.223 C  
BRANCH  15  16
HETATM   16  C   UNL     1      -8.618   5.295  69.243  1.00  0.00    -0.102 C  
BRANCH  16  17
HETATM   17  C   UNL     1      -8.823   6.030  67.923  1.00  0.00    -0.110 C  
BRANCH  17  18
HETATM   18  C   UNL     1      -7.545   6.075  67.102  1.00  0.00    -0.092 C  
BRANCH  18  19
HETATM   19  C   UNL     1      -7.518   7.342  66.258  1.00  0.00    -0.083 C  
BRANCH  19  20
HETATM   20  C   UNL     1      -6.728   8.439  66.964  1.00  0.00    -0.062 C  
BRANCH  20  21
HETATM   21  C   UNL     1      -7.648   9.567  67.422  1.00  0.00    -0.095 C  
BRANCH  21  22
HETATM   22  C   UNL     1      -8.608   9.964  66.306  1.00  0.00    -0.137 C  
HETATM   23  C   UNL     1      -7.862  10.269  65.020  1.00  0.00    -0.133 C  
ENDBRANCH  21  22
ENDBRANCH  20  21
ENDBRANCH  19  20
ENDBRANCH  18  19
ENDBRANCH  17  18
ENDBRANCH  16  17
ENDBRANCH  15  16
ENDBRANCH  14  15
ENDBRANCH  11  14
ENDBRANCH  10  11
ENDBRANCH   9  10
ENDBRANCH   8   9
ENDBRANCH   7   8
ENDBRANCH   6   7
ENDBRANCH   5   6
ENDBRANCH   4   5
ENDBRANCH   3   4
ENDBRANCH   2   3
TORSDOF 18
ENDMDL
MODEL      352
REMARK 921   NORMALIZED FREE ENERGY PREDICTED BY IDOCK:   -2.14 KCAL/MOL
REMARK 922        TOTAL FREE ENERGY PREDICTED BY IDOCK:   -7.09 KCAL/MOL
REMARK 923 INTER-LIGAND FREE ENERGY PREDICTED BY IDOCK:   -5.87 KCAL/MOL
REMARK 924 INTRA-LIGAND FREE ENERGY PREDICTED BY IDOCK:   -1.21 KCAL/MOL
REMARK 927      BINDING AFFINITY PREDICTED BY RF-SCORE:    0.00 PKD
ROOT
HETATM    1  C   UNL     1      -9.020   2.877  67.872  1.00  0.00    -0.194 C  
HETATM    2  C   UNL     1      -9.577   4.104  68.569  1.00  0.00    -0.192 C  
ENDROOT
BRANCH   2   3
HETATM    3  C   UNL     1      -9.776   5.254  67.587  1.00  0.00    -0.168 C  
BRANCH   3   4
HETATM    4  C   UNL     1     -10.353   6.474  68.296  1.00  0.00    -0.223 C  
BRANCH   4   5
HETATM    5  C   UNL     1     -11.204   6.058  69.486  1.00  0.00    -0.416 C  
BRANCH   5   6
HETATM    6  C   UNL     1     -10.925   6.955  70.688  1.00  0.00    -0.304 C  
BRANCH   6   7
HETATM    7  C   UNL     1      -9.769   7.891  70.376  1.00  0.00    -0.179 C  
BRANCH   7   8
HETATM    8  C   UNL     1      -9.952   9.253  71.038  1.00  0.00    -0.364 C  
BRANCH   8   9
HETATM    9  C   UNL     1     -10.537  10.210  70.009  1.00  0.00    -0.338 C  
BRANCH   9  10
HETATM   10  C   UNL     1      -9.517  10.601  68.948  1.00  0.00    -0.192 C  
BRANCH  10  11
HETATM   11  N   UNL     1     -10.170  10.879  67.569  1.00  0.00    -0.184 N  
HETATM   12  C   UNL     1     -10.281   9.585  66.763  1.00  0.00    -0.243 C  
HETATM   13  C   UNL     1     -11.559  11.493  67.756  1.00  0.00    -0.267 C  
BRANCH  11  14
HETATM   14  C   UNL     1      -9.233  11.883  66.848  1.00  0.00    -0.193 C  
BRANCH  14  15
HETATM   15  C   UNL     1      -9.904  13.221  66.579  1.00  0.00    -0.281 C  
BRANCH  15  16
HETATM   16  C   UNL     1      -9.008  14.395  66.946  1.00  0.00    -0.263 C  
BRANCH  16  17
HETATM   17  C   UNL     1      -9.320  15.551  66.001  1.00  0.00    -0.379 C  
BRANCH  17  18
HETATM   18  C   UNL     1      -8.523  16.795  66.355  1.00  0.00    -0.338 C  
BRANCH  18  19
HETATM   19  C   UNL     1      -7.784  16.578  67.669  1.00  0.00    -0.167 C  
BRANCH  19  20
HETATM   20  C   UNL     1      -6.698  17.632  67.852  1.00  0.00    -0.191 C  
BRANCH  20  21
HETATM   21  C   UNL     1      -6.577  18.514  66.613  1.00  0.00    -0.212 C  
BRANCH  21  22
HETATM   22  C   UNL     1      -6.099  19.911  66.992  1.00  0.00    -0.192 C  
HETATM   23  C   UNL     1      -7.268  20.858  67.192  1.00  0.00    -0.395 C  
ENDBRANCH  21  22
ENDBRANCH  20  21
ENDBRANCH  19  20
ENDBRANCH  18  19
ENDBRANCH  17  18
ENDBRANCH  16  17
ENDBRANCH  15  16
ENDBRANCH  14  15
ENDBRANCH  11  14
ENDBRANCH  10  11
ENDBRANCH   9  10
ENDBRANCH   8   9
ENDBRANCH   7   8
ENDBRANCH   6   7
ENDBRANCH   5   6
ENDBRANCH   4   5
ENDBRANCH   3   4
ENDBRANCH   2   3
TORSDOF 18
ENDMDL
MODEL      353
REMARK 921   NORMALIZED FREE ENERGY PREDICTED BY IDOCK:   -2.13 KCAL/MOL
REMARK 922        TOTAL FREE ENERGY PREDICTED BY IDOCK:   -7.08 KCAL/MOL
REMARK 923 INTER-LIGAND FREE ENERGY PREDICTED BY IDOCK:   -5.79 KCAL/MOL
REMARK 924 INTRA-LIGAND FREE ENERGY PREDICTED BY IDOCK:   -1.29 KCAL/MOL
REMARK 927      BINDING AFFINITY PREDICTED BY RF-SCORE:    0.00 PKD
ROOT
HETATM    1  C   UNL     1     -10.458  18.042  68.331  1.00  0.00    -0.326 C  
HETATM    2  C   UNL     1      -9.695  18.146  67.024  1.00  0.00    -0.307 C  
ENDROOT
BRANCH   2   3
HETATM    3  C   UNL     1      -8.642  17.048  66.910  1.00  0.00    -0.250 C  
BRANCH   3   4
HETATM    4  C   UNL     1      -8.560  16.246  68.204  1.00  0.00    -0.183 C  
BRANCH   4   5
HETATM    5  C   UNL     1      -7.126  16.172  68.708  1.00  0.00    -0.155 C  
BRANCH   5   6
HETATM    6  C   UNL     1      -6.276  15.304  67.785  1.00  0.00    -0.178 C  
BRANCH   6   7
HETATM    7  C   UNL     1      -6.086  13.928  68.399  1.00  0.00    -0.099 C  
BRANCH   7   8
HETATM    8  C   UNL     1      -6.591  12.823  67.476  1.00  0.00    -0.158 C  
BRANCH   8   9
HETATM    9  C   UNL     1      -8.003  12.452  67.903  1.00  0.00    -0.155 C  
BRANCH   9  10
HETATM   10  C   UNL     1      -8.530  11.241  67.144  1.00  0.00    -0.149 C  
BRANCH  10  11
HETATM   11  N   UNL     1      -9.973  11.451  66.617  1.00  0.00    -0.203 N  
HETATM   12  C   UNL     1     -10.907  11.835  67.766  1.00  0.00    -0.213 C  
HETATM   13  C   UNL     1      -9.992  12.547  65.549  1.00  0.00    -0.234 C  
BRANCH  11  14
HETATM   14  C   UNL     1     -10.406  10.095  66.003  1.00  0.00    -0.164 C  
BRANCH  14  15
HETATM   15  C   UNL     1      -9.638   8.918  66.586  1.00  0.00    -0.281 C  
BRANCH  15  16
HETATM   16  C   UNL     1     -10.566   7.847  67.141  1.00  0.00    -0.383 C  
BRANCH  16  17
HETATM   17  C   UNL     1      -9.758   6.570  67.348  1.00  0.00    -0.150 C  
BRANCH  17  18
HETATM   18  C   UNL     1     -10.243   5.789  68.557  1.00  0.00    -0.246 C  
BRANCH  18  19
HETATM   19  C   UNL     1     -11.395   6.531  69.222  1.00  0.00    -0.359 C  
BRANCH  19  20
HETATM   20  C   UNL     1     -11.071   6.822  70.684  1.00  0.00    -0.338 C  
BRANCH  20  21
HETATM   21  C   UNL     1     -12.345   6.912  71.518  1.00  0.00    -0.420 C  
BRANCH  21  22
HETATM   22  C   UNL     1     -12.713   8.368  71.782  1.00  0.00    -0.373 C  
HETATM   23  C   UNL     1     -11.513   9.280  71.608  1.00  0.00    -0.468 C  
ENDBRANCH  21  22
ENDBRANCH  20  21
ENDBRANCH  19  20
ENDBRANCH  18  19
ENDBRANCH  17  18
ENDBRANCH  16  17
ENDBRANCH  15  16
ENDBRANCH  14  15
ENDBRANCH  11  14
ENDBRANCH  10  11
ENDBRANCH   9  10
ENDBRANCH   8   9
ENDBRANCH   7   8
ENDBRANCH   6   7
ENDBRANCH   5   6
ENDBRANCH   4   5
ENDBRANCH   3   4
ENDBRANCH   2   3
TORSDOF 18
ENDMDL
MODEL      354
REMARK 921   NORMALIZED FREE ENERGY PREDICTED BY IDOCK:   -2.13 KCAL/MOL
REMARK 922        TOTAL FREE ENERGY PREDICTED BY IDOCK:   -7.08 KCAL/MOL
REMARK 923 INTER-LIGAND FREE ENERGY PREDICTED BY IDOCK:   -5.56 KCAL/MOL
REMARK 924 INTRA-LIGAND FREE ENERGY PREDICTED BY IDOCK:   -1.52 KCAL/MOL
REMARK 927      BINDING AFFINITY PREDICTED BY RF-SCORE:    0.00 PKD
ROOT
HETATM    1  C   UNL     1     -12.160  11.355  69.944  1.00  0.00    -0.404 C  
HETATM    2  C   UNL     1     -11.196  10.236  69.597  1.00  0.00    -0.322 C  
ENDROOT
BRANCH   2   3
HETATM    3  C   UNL     1     -11.279   9.101  70.614  1.00  0.00    -0.322 C  
BRANCH   3   4
HETATM    4  C   UNL     1     -10.092   9.146  71.568  1.00  0.00    -0.381 C  
BRANCH   4   5
HETATM    5  C   UNL     1      -9.572   7.745  71.854  1.00  0.00    -0.210 C  
BRANCH   5   6
HETATM    6  C   UNL     1      -8.969   7.126  70.597  1.00  0.00    -0.154 C  
BRANCH   6   7
HETATM    7  C   UNL     1      -9.524   5.727  70.392  1.00  0.00    -0.201 C  
BRANCH   7   8
HETATM    8  C   UNL     1     -10.202   5.582  69.033  1.00  0.00    -0.298 C  
BRANCH   8   9
HETATM    9  C   UNL     1      -9.742   4.273  68.407  1.00  0.00    -0.165 C  
BRANCH   9  10
HETATM   10  C   UNL     1      -8.518   4.463  67.521  1.00  0.00    -0.103 C  
BRANCH  10  11
HETATM   11  N   UNL     1      -8.855   4.360  66.011  1.00  0.00    -0.117 N  
HETATM   12  C   UNL     1      -8.268   3.076  65.422  1.00  0.00    -0.091 C  
HETATM   13  C   UNL     1     -10.372   4.376  65.805  1.00  0.00    -0.217 C  
BRANCH  11  14
HETATM   14  C   UNL     1      -8.209   5.602  65.344  1.00  0.00    -0.132 C  
BRANCH  14  15
HETATM   15  C   UNL     1      -8.715   6.911  65.931  1.00  0.00    -0.146 C  
BRANCH  15  16
HETATM   16  C   UNL     1      -8.254   8.116  65.124  1.00  0.00    -0.156 C  
BRANCH  16  17
HETATM   17  C   UNL     1      -7.649   9.134  66.085  1.00  0.00    -0.095 C  
BRANCH  17  18
HETATM   18  C   UNL     1      -8.152  10.540  65.802  1.00  0.00    -0.158 C  
BRANCH  18  19
HETATM   19  C   UNL     1      -9.512  10.473  65.120  1.00  0.00    -0.285 C  
BRANCH  19  20
HETATM   20  C   UNL     1     -10.547  11.264  65.911  1.00  0.00    -0.309 C  
BRANCH  20  21
HETATM   21  C   UNL     1     -10.732  12.661  65.327  1.00  0.00    -0.318 C  
BRANCH  21  22
HETATM   22  C   UNL     1     -10.712  12.614  63.804  1.00  0.00    -0.454 C  
HETATM   23  C   UNL     1     -12.073  12.952  63.224  1.00  0.00    -0.520 C  
ENDBRANCH  21  22
ENDBRANCH  20  21
ENDBRANCH  19  20
ENDBRANCH  18  19
ENDBRANCH  17  18
ENDBRANCH  16  17
ENDBRANCH  15  16
ENDBRANCH  14  15
ENDBRANCH  11  14
ENDBRANCH  10  11
ENDBRANCH   9  10
ENDBRANCH   8   9
ENDBRANCH   7   8
ENDBRANCH   6   7
ENDBRANCH   5   6
ENDBRANCH   4   5
ENDBRANCH   3   4
ENDBRANCH   2   3
TORSDOF 18
ENDMDL
MODEL      355
REMARK 921   NORMALIZED FREE ENERGY PREDICTED BY IDOCK:   -2.12 KCAL/MOL
REMARK 922        TOTAL FREE ENERGY PREDICTED BY IDOCK:   -7.06 KCAL/MOL
REMARK 923 INTER-LIGAND FREE ENERGY PREDICTED BY IDOCK:   -5.79 KCAL/MOL
REMARK 924 INTRA-LIGAND FREE ENERGY PREDICTED BY IDOCK:   -1.27 KCAL/MOL
REMARK 927      BINDING AFFINITY PREDICTED BY RF-SCORE:    0.00 PKD
ROOT
HETATM    1  C   UNL     1     -10.297  18.800  66.407  1.00  0.00    -0.489 C  
HETATM    2  C   UNL     1      -9.633  17.724  67.247  1.00  0.00    -0.272 C  
ENDROOT
BRANCH   2   3
HETATM    3  C   UNL     1      -9.137  16.573  66.377  1.00  0.00    -0.332 C  
BRANCH   3   4
HETATM    4  C   UNL     1     -10.265  15.588  66.095  1.00  0.00    -0.322 C  
BRANCH   4   5
HETATM    5  C   UNL     1     -10.739  14.922  67.379  1.00  0.00    -0.292 C  
BRANCH   5   6
HETATM    6  C   UNL     1     -12.104  14.273  67.176  1.00  0.00    -0.412 C  
BRANCH   6   7
HETATM    7  C   UNL     1     -12.042  13.290  66.019  1.00  0.00    -0.491 C  
BRANCH   7   8
HETATM    8  C   UNL     1     -11.651  11.892  66.486  1.00  0.00    -0.328 C  
BRANCH   8   9
HETATM    9  C   UNL     1     -10.351  11.504  65.797  1.00  0.00    -0.295 C  
BRANCH   9  10
HETATM   10  C   UNL     1      -9.130  12.000  66.559  1.00  0.00    -0.202 C  
BRANCH  10  11
HETATM   11  N   UNL     1      -8.186  10.846  66.987  1.00  0.00    -0.130 N  
HETATM   12  C   UNL     1      -6.786  11.066  66.414  1.00  0.00    -0.123 C  
HETATM   13  C   UNL     1      -8.113  10.761  68.513  1.00  0.00    -0.133 C  
BRANCH  11  14
HETATM   14  C   UNL     1      -8.806   9.549  66.406  1.00  0.00    -0.144 C  
BRANCH  14  15
HETATM   15  C   UNL     1      -9.294   8.598  67.489  1.00  0.00    -0.162 C  
BRANCH  15  16
HETATM   16  C   UNL     1     -10.648   7.991  67.151  1.00  0.00    -0.367 C  
BRANCH  16  17
HETATM   17  C   UNL     1     -10.589   6.495  67.441  1.00  0.00    -0.364 C  
BRANCH  17  18
HETATM   18  C   UNL     1      -9.842   5.742  66.354  1.00  0.00    -0.174 C  
BRANCH  18  19
HETATM   19  C   UNL     1      -9.599   4.305  66.796  1.00  0.00    -0.221 C  
BRANCH  19  20
HETATM   20  C   UNL     1      -9.424   3.395  65.584  1.00  0.00    -0.119 C  
BRANCH  20  21
HETATM   21  C   UNL     1     -10.435   3.735  64.494  1.00  0.00    -0.193 C  
BRANCH  21  22
HETATM   22  C   UNL     1     -10.111   2.985  63.207  1.00  0.00    -0.139 C  
HETATM   23  C   UNL     1      -8.631   2.662  63.116  1.00  0.00    -0.085 C  
ENDBRANCH  21  22
ENDBRANCH  20  21
ENDBRANCH  19  20
ENDBRANCH  18  19
ENDBRANCH  17  18
ENDBRANCH  16  17
ENDBRANCH  15  16
ENDBRANCH  14  15
ENDBRANCH  11  14
ENDBRANCH  10  11
ENDBRANCH   9  10
ENDBRANCH   8   9
ENDBRANCH   7   8
ENDBRANCH   6   7
ENDBRANCH   5   6
ENDBRANCH   4   5
ENDBRANCH   3   4
ENDBRANCH   2   3
TORSDOF 18
ENDMDL
MODEL      356
REMARK 921   NORMALIZED FREE ENERGY PREDICTED BY IDOCK:   -2.12 KCAL/MOL
REMARK 922        TOTAL FREE ENERGY PREDICTED BY IDOCK:   -7.05 KCAL/MOL
REMARK 923 INTER-LIGAND FREE ENERGY PREDICTED BY IDOCK:   -5.18 KCAL/MOL
REMARK 924 INTRA-LIGAND FREE ENERGY PREDICTED BY IDOCK:   -1.87 KCAL/MOL
REMARK 927      BINDING AFFINITY PREDICTED BY RF-SCORE:    0.00 PKD
ROOT
HETATM    1  C   UNL     1     -12.583   7.011  71.416  1.00  0.00    -0.428 C  
HETATM    2  C   UNL     1     -11.726   8.201  71.028  1.00  0.00    -0.295 C  
ENDROOT
BRANCH   2   3
HETATM    3  C   UNL     1     -10.376   8.165  71.738  1.00  0.00    -0.293 C  
BRANCH   3   4
HETATM    4  C   UNL     1     -10.541   7.706  73.183  1.00  0.00    -0.438 C  
BRANCH   4   5
HETATM    5  C   UNL     1      -9.223   7.191  73.743  1.00  0.00    -0.253 C  
BRANCH   5   6
HETATM    6  C   UNL     1      -8.423   6.472  72.662  1.00  0.00    -0.121 C  
BRANCH   6   7
HETATM    7  C   UNL     1      -8.581   4.969  72.814  1.00  0.00    -0.119 C  
BRANCH   7   8
HETATM    8  C   UNL     1      -9.348   4.361  71.645  1.00  0.00    -0.199 C  
BRANCH   8   9
HETATM    9  C   UNL     1      -9.134   5.242  70.422  1.00  0.00    -0.173 C  
BRANCH   9  10
HETATM   10  C   UNL     1      -9.968   4.784  69.234  1.00  0.00    -0.184 C  
BRANCH  10  11
HETATM   11  N   UNL     1      -9.131   4.647  67.936  1.00  0.00    -0.114 N  
HETATM   12  C   UNL     1      -7.719   5.191  68.155  1.00  0.00    -0.084 C  
HETATM   13  C   UNL     1      -9.059   3.181  67.505  1.00  0.00    -0.177 C  
BRANCH  11  14
HETATM   14  C   UNL     1      -9.869   5.487  66.861  1.00  0.00    -0.163 C  
BRANCH  14  15
HETATM   15  C   UNL     1     -11.004   6.316  67.444  1.00  0.00    -0.447 C  
BRANCH  15  16
HETATM   16  C   UNL     1     -10.701   7.807  67.410  1.00  0.00    -0.300 C  
BRANCH  16  17
HETATM   17  C   UNL     1      -9.867   8.098  66.167  1.00  0.00    -0.093 C  
BRANCH  17  18
HETATM   18  C   UNL     1      -9.363   9.531  66.153  1.00  0.00    -0.254 C  
BRANCH  18  19
HETATM   19  C   UNL     1     -10.002  10.292  64.999  1.00  0.00    -0.393 C  
BRANCH  19  20
HETATM   20  C   UNL     1      -9.189  10.108  63.722  1.00  0.00    -0.321 C  
BRANCH  20  21
HETATM   21  C   UNL     1      -7.818   9.512  64.027  1.00  0.00    -0.130 C  
BRANCH  21  22
HETATM   22  C   UNL     1      -7.545   8.306  63.135  1.00  0.00    -0.127 C  
HETATM   23  C   UNL     1      -6.064   8.168  62.834  1.00  0.00    -0.077 C  
ENDBRANCH  21  22
ENDBRANCH  20  21
ENDBRANCH  19  20
ENDBRANCH  18  19
ENDBRANCH  17  18
ENDBRANCH  16  17
ENDBRANCH  15  16
ENDBRANCH  14  15
ENDBRANCH  11  14
ENDBRANCH  10  11
ENDBRANCH   9  10
ENDBRANCH   8   9
ENDBRANCH   7   8
ENDBRANCH   6   7
ENDBRANCH   5   6
ENDBRANCH   4   5
ENDBRANCH   3   4
ENDBRANCH   2   3
TORSDOF 18
ENDMDL
MODEL      357
REMARK 921   NORMALIZED FREE ENERGY PREDICTED BY IDOCK:   -2.12 KCAL/MOL
REMARK 922        TOTAL FREE ENERGY PREDICTED BY IDOCK:   -7.05 KCAL/MOL
REMARK 923 INTER-LIGAND FREE ENERGY PREDICTED BY IDOCK:   -5.45 KCAL/MOL
REMARK 924 INTRA-LIGAND FREE ENERGY PREDICTED BY IDOCK:   -1.59 KCAL/MOL
REMARK 927      BINDING AFFINITY PREDICTED BY RF-SCORE:    0.00 PKD
ROOT
HETATM    1  C   UNL     1     -12.273  13.153  63.262  1.00  0.00    -0.438 C  
HETATM    2  C   UNL     1     -12.583  12.474  64.583  1.00  0.00    -0.507 C  
ENDROOT
BRANCH   2   3
HETATM    3  C   UNL     1     -12.573  13.476  65.734  1.00  0.00    -0.490 C  
BRANCH   3   4
HETATM    4  C   UNL     1     -11.743  12.948  66.899  1.00  0.00    -0.445 C  
BRANCH   4   5
HETATM    5  C   UNL     1     -10.436  12.345  66.405  1.00  0.00    -0.267 C  
BRANCH   5   6
HETATM    6  C   UNL     1     -10.250  10.937  66.961  1.00  0.00    -0.256 C  
BRANCH   6   7
HETATM    7  C   UNL     1     -11.333  10.636  67.982  1.00  0.00    -0.350 C  
BRANCH   7   8
HETATM    8  C   UNL     1     -10.869   9.614  69.014  1.00  0.00    -0.206 C  
BRANCH   8   9
HETATM    9  C   UNL     1      -9.440   9.211  68.678  1.00  0.00    -0.145 C  
BRANCH   9  10
HETATM   10  C   UNL     1      -8.985   7.999  69.479  1.00  0.00    -0.148 C  
BRANCH  10  11
HETATM   11  N   UNL     1      -8.969   6.699  68.634  1.00  0.00    -0.125 N  
HETATM   12  C   UNL     1     -10.237   5.883  68.890  1.00  0.00    -0.198 C  
HETATM   13  C   UNL     1      -8.864   7.037  67.145  1.00  0.00    -0.121 C  
BRANCH  11  14
HETATM   14  C   UNL     1      -7.718   5.906  69.094  1.00  0.00    -0.091 C  
BRANCH  14  15
HETATM   15  C   UNL     1      -6.694   6.785  69.796  1.00  0.00    -0.050 C  
BRANCH  15  16
HETATM   16  C   UNL     1      -5.656   5.965  70.549  1.00  0.00    -0.013 C  
BRANCH  16  17
HETATM   17  C   UNL     1      -5.639   6.429  72.002  1.00  0.00    -0.036 C  
BRANCH  17  18
HETATM   18  C   UNL     1      -7.042   6.688  72.524  1.00  0.00    -0.073 C  
BRANCH  18  19
HETATM   19  C   UNL     1      -7.058   7.967  73.350  1.00  0.00    -0.124 C  
BRANCH  19  20
HETATM   20  C   UNL     1      -8.448   8.216  73.925  1.00  0.00    -0.306 C  
BRANCH  20  21
HETATM   21  C   UNL     1      -9.510   8.166  72.831  1.00  0.00    -0.345 C  
BRANCH  21  22
HETATM   22  C   UNL     1     -10.737   7.398  73.307  1.00  0.00    -0.441 C  
HETATM   23  C   UNL     1     -10.797   6.015  72.686  1.00  0.00    -0.280 C  
ENDBRANCH  21  22
ENDBRANCH  20  21
ENDBRANCH  19  20
ENDBRANCH  18  19
ENDBRANCH  17  18
ENDBRANCH  16  17
ENDBRANCH  15  16
ENDBRANCH  14  15
ENDBRANCH  11  14
ENDBRANCH  10  11
ENDBRANCH   9  10
ENDBRANCH   8   9
ENDBRANCH   7   8
ENDBRANCH   6   7
ENDBRANCH   5   6
ENDBRANCH   4   5
ENDBRANCH   3   4
ENDBRANCH   2   3
TORSDOF 18
ENDMDL
MODEL      358
REMARK 921   NORMALIZED FREE ENERGY PREDICTED BY IDOCK:   -2.12 KCAL/MOL
REMARK 922        TOTAL FREE ENERGY PREDICTED BY IDOCK:   -7.04 KCAL/MOL
REMARK 923 INTER-LIGAND FREE ENERGY PREDICTED BY IDOCK:   -5.09 KCAL/MOL
REMARK 924 INTRA-LIGAND FREE ENERGY PREDICTED BY IDOCK:   -1.95 KCAL/MOL
REMARK 927      BINDING AFFINITY PREDICTED BY RF-SCORE:    0.00 PKD
ROOT
HETATM    1  C   UNL     1      -7.706   7.235  64.436  1.00  0.00    -0.120 C  
HETATM    2  C   UNL     1      -8.225   8.435  63.666  1.00  0.00    -0.105 C  
ENDROOT
BRANCH   2   3
HETATM    3  C   UNL     1      -7.477   9.706  64.057  1.00  0.00    -0.128 C  
BRANCH   3   4
HETATM    4  C   UNL     1      -6.642   9.475  65.311  1.00  0.00    -0.082 C  
BRANCH   4   5
HETATM    5  C   UNL     1      -7.270  10.161  66.516  1.00  0.00    -0.104 C  
BRANCH   5   6
HETATM    6  C   UNL     1      -7.028   9.348  67.784  1.00  0.00    -0.080 C  
BRANCH   6   7
HETATM    7  C   UNL     1      -8.344   8.790  68.298  1.00  0.00    -0.126 C  
BRANCH   7   8
HETATM    8  C   UNL     1      -8.151   7.974  69.573  1.00  0.00    -0.120 C  
BRANCH   8   9
HETATM    9  C   UNL     1      -8.920   6.668  69.425  1.00  0.00    -0.133 C  
BRANCH   9  10
HETATM   10  C   UNL     1      -8.370   5.576  70.332  1.00  0.00    -0.111 C  
BRANCH  10  11
HETATM   11  N   UNL     1      -9.317   5.254  71.517  1.00  0.00    -0.146 N  
HETATM   12  C   UNL     1      -9.536   3.745  71.627  1.00  0.00    -0.143 C  
HETATM   13  C   UNL     1      -8.727   5.787  72.825  1.00  0.00    -0.118 C  
BRANCH  11  14
HETATM   14  C   UNL     1     -10.656   5.970  71.201  1.00  0.00    -0.246 C  
BRANCH  14  15
HETATM   15  C   UNL     1     -11.383   6.430  72.456  1.00  0.00    -0.299 C  
BRANCH  15  16
HETATM   16  C   UNL     1     -11.538   7.944  72.505  1.00  0.00    -0.443 C  
BRANCH  16  17
HETATM   17  C   UNL     1     -11.736   8.452  71.081  1.00  0.00    -0.315 C  
BRANCH  17  18
HETATM   18  C   UNL     1     -11.038   9.783  70.859  1.00  0.00    -0.428 C  
BRANCH  18  19
HETATM   19  C   UNL     1     -12.070  10.900  70.774  1.00  0.00    -0.469 C  
BRANCH  19  20
HETATM   20  C   UNL     1     -12.285  11.321  69.325  1.00  0.00    -0.290 C  
BRANCH  20  21
HETATM   21  C   UNL     1     -10.990  11.838  68.707  1.00  0.00    -0.281 C  
BRANCH  21  22
HETATM   22  C   UNL     1     -10.971  11.581  67.205  1.00  0.00    -0.338 C  
HETATM   23  C   UNL     1     -11.717  12.667  66.451  1.00  0.00    -0.466 C  
ENDBRANCH  21  22
ENDBRANCH  20  21
ENDBRANCH  19  20
ENDBRANCH  18  19
ENDBRANCH  17  18
ENDBRANCH  16  17
ENDBRANCH  15  16
ENDBRANCH  14  15
ENDBRANCH  11  14
ENDBRANCH  10  11
ENDBRANCH   9  10
ENDBRANCH   8   9
ENDBRANCH   7   8
ENDBRANCH   6   7
ENDBRANCH   5   6
ENDBRANCH   4   5
ENDBRANCH   3   4
ENDBRANCH   2   3
TORSDOF 18
ENDMDL
MODEL      359
REMARK 921   NORMALIZED FREE ENERGY PREDICTED BY IDOCK:   -2.11 KCAL/MOL
REMARK 922        TOTAL FREE ENERGY PREDICTED BY IDOCK:   -7.03 KCAL/MOL
REMARK 923 INTER-LIGAND FREE ENERGY PREDICTED BY IDOCK:   -5.25 KCAL/MOL
REMARK 924 INTRA-LIGAND FREE ENERGY PREDICTED BY IDOCK:   -1.78 KCAL/MOL
REMARK 927      BINDING AFFINITY PREDICTED BY RF-SCORE:    0.00 PKD
ROOT
HETATM    1  C   UNL     1     -10.469  19.443  66.277  1.00  0.00    -0.586 C  
HETATM    2  C   UNL     1      -9.700  18.411  67.080  1.00  0.00    -0.307 C  
ENDROOT
BRANCH   2   3
HETATM    3  C   UNL     1      -9.360  17.191  66.229  1.00  0.00    -0.260 C  
BRANCH   3   4
HETATM    4  C   UNL     1     -10.527  16.211  66.202  1.00  0.00    -0.334 C  
BRANCH   4   5
HETATM    5  C   UNL     1     -11.056  15.958  67.606  1.00  0.00    -0.266 C  
BRANCH   5   6
HETATM    6  C   UNL     1     -11.830  14.645  67.661  1.00  0.00    -0.366 C  
BRANCH   6   7
HETATM    7  C   UNL     1     -11.020  13.539  67.007  1.00  0.00    -0.297 C  
BRANCH   7   8
HETATM    8  C   UNL     1      -9.981  12.960  67.962  1.00  0.00    -0.236 C  
BRANCH   8   9
HETATM    9  C   UNL     1      -8.598  13.268  67.407  1.00  0.00    -0.204 C  
BRANCH   9  10
HETATM   10  C   UNL     1      -7.656  13.797  68.480  1.00  0.00    -0.134 C  
BRANCH  10  11
HETATM   11  N   UNL     1      -6.321  13.011  68.541  1.00  0.00    -0.074 N  
HETATM   12  C   UNL     1      -5.168  13.883  68.044  1.00  0.00    -0.101 C  
HETATM   13  C   UNL     1      -6.042  12.554  69.975  1.00  0.00    -0.117 C  
BRANCH  11  14
HETATM   14  C   UNL     1      -6.506  11.782  67.613  1.00  0.00    -0.082 C  
BRANCH  14  15
HETATM   15  C   UNL     1      -5.966  10.499  68.227  1.00  0.00    -0.043 C  
BRANCH  15  16
HETATM   16  C   UNL     1      -6.971   9.359  68.145  1.00  0.00    -0.075 C  
BRANCH  16  17
HETATM   17  C   UNL     1      -8.339   9.895  68.555  1.00  0.00    -0.108 C  
BRANCH  17  18
HETATM   18  C   UNL     1      -8.863   9.201  69.801  1.00  0.00    -0.165 C  
BRANCH  18  19
HETATM   19  C   UNL     1     -10.231   9.762  70.167  1.00  0.00    -0.328 C  
BRANCH  19  20
HETATM   20  C   UNL     1     -11.120   8.668  70.748  1.00  0.00    -0.295 C  
BRANCH  20  21
HETATM   21  C   UNL     1     -10.671   7.290  70.273  1.00  0.00    -0.252 C  
BRANCH  21  22
HETATM   22  C   UNL     1     -11.260   6.198  71.159  1.00  0.00    -0.355 C  
HETATM   23  C   UNL     1     -11.498   6.702  72.571  1.00  0.00    -0.269 C  
ENDBRANCH  21  22
ENDBRANCH  20  21
ENDBRANCH  19  20
ENDBRANCH  18  19
ENDBRANCH  17  18
ENDBRANCH  16  17
ENDBRANCH  15  16
ENDBRANCH  14  15
ENDBRANCH  11  14
ENDBRANCH  10  11
ENDBRANCH   9  10
ENDBRANCH   8   9
ENDBRANCH   7   8
ENDBRANCH   6   7
ENDBRANCH   5   6
ENDBRANCH   4   5
ENDBRANCH   3   4
ENDBRANCH   2   3
TORSDOF 18
ENDMDL
MODEL      360
REMARK 921   NORMALIZED FREE ENERGY PREDICTED BY IDOCK:   -2.11 KCAL/MOL
REMARK 922        TOTAL FREE ENERGY PREDICTED BY IDOCK:   -7.03 KCAL/MOL
REMARK 923 INTER-LIGAND FREE ENERGY PREDICTED BY IDOCK:   -5.58 KCAL/MOL
REMARK 924 INTRA-LIGAND FREE ENERGY PREDICTED BY IDOCK:   -1.45 KCAL/MOL
REMARK 927      BINDING AFFINITY PREDICTED BY RF-SCORE:    0.00 PKD
ROOT
HETATM    1  C   UNL     1      -8.879   2.893  70.735  1.00  0.00    -0.147 C  
HETATM    2  C   UNL     1      -9.721   3.870  71.535  1.00  0.00    -0.247 C  
ENDROOT
BRANCH   2   3
HETATM    3  C   UNL     1      -9.684   5.265  70.918  1.00  0.00    -0.244 C  
BRANCH   3   4
HETATM    4  C   UNL     1     -10.974   6.019  71.217  1.00  0.00    -0.340 C  
BRANCH   4   5
HETATM    5  C   UNL     1     -11.435   6.810  70.002  1.00  0.00    -0.390 C  
BRANCH   5   6
HETATM    6  C   UNL     1     -11.182   6.024  68.720  1.00  0.00    -0.212 C  
BRANCH   6   7
HETATM    7  C   UNL     1     -10.926   6.981  67.569  1.00  0.00    -0.299 C  
BRANCH   7   8
HETATM    8  C   UNL     1      -9.434   7.151  67.297  1.00  0.00    -0.169 C  
BRANCH   8   9
HETATM    9  C   UNL     1      -9.037   8.569  67.680  1.00  0.00    -0.144 C  
BRANCH   9  10
HETATM   10  C   UNL     1     -10.082   9.590  67.253  1.00  0.00    -0.215 C  
BRANCH  10  11
HETATM   11  N   UNL     1      -9.453  10.848  66.599  1.00  0.00    -0.176 N  
HETATM   12  C   UNL     1      -8.765  10.476  65.285  1.00  0.00    -0.188 C  
HETATM   13  C   UNL     1     -10.531  11.903  66.337  1.00  0.00    -0.223 C  
BRANCH  11  14
HETATM   14  C   UNL     1      -8.414  11.384  67.617  1.00  0.00    -0.130 C  
BRANCH  14  15
HETATM   15  C   UNL     1      -7.892  12.765  67.249  1.00  0.00    -0.148 C  
BRANCH  15  16
HETATM   16  C   UNL     1      -7.943  13.730  68.425  1.00  0.00    -0.144 C  
BRANCH  16  17
HETATM   17  C   UNL     1      -8.739  14.960  68.002  1.00  0.00    -0.165 C  
BRANCH  17  18
HETATM   18  C   UNL     1      -8.986  15.897  69.173  1.00  0.00    -0.256 C  
BRANCH  18  19
HETATM   19  C   UNL     1     -10.483  16.117  69.350  1.00  0.00    -0.283 C  
BRANCH  19  20
HETATM   20  C   UNL     1     -11.208  14.782  69.486  1.00  0.00    -0.305 C  
BRANCH  20  21
HETATM   21  C   UNL     1     -12.032  14.736  70.769  1.00  0.00    -0.371 C  
BRANCH  21  22
HETATM   22  C   UNL     1     -12.550  13.326  71.025  1.00  0.00    -0.408 C  
HETATM   23  C   UNL     1     -11.916  12.325  70.076  1.00  0.00    -0.379 C  
ENDBRANCH  21  22
ENDBRANCH  20  21
ENDBRANCH  19  20
ENDBRANCH  18  19
ENDBRANCH  17  18
ENDBRANCH  16  17
ENDBRANCH  15  16
ENDBRANCH  14  15
ENDBRANCH  11  14
ENDBRANCH  10  11
ENDBRANCH   9  10
ENDBRANCH   8   9
ENDBRANCH   7   8
ENDBRANCH   6   7
ENDBRANCH   5   6
ENDBRANCH   4   5
ENDBRANCH   3   4
ENDBRANCH   2   3
TORSDOF 18
ENDMDL
MODEL      361
REMARK 921   NORMALIZED FREE ENERGY PREDICTED BY IDOCK:   -2.11 KCAL/MOL
REMARK 922        TOTAL FREE ENERGY PREDICTED BY IDOCK:   -7.03 KCAL/MOL
REMARK 923 INTER-LIGAND FREE ENERGY PREDICTED BY IDOCK:   -4.66 KCAL/MOL
REMARK 924 INTRA-LIGAND FREE ENERGY PREDICTED BY IDOCK:   -2.37 KCAL/MOL
REMARK 927      BINDING AFFINITY PREDICTED BY RF-SCORE:    0.00 PKD
ROOT
HETATM    1  C   UNL     1      -6.856  12.311  68.687  1.00  0.00    -0.087 C  
HETATM    2  C   UNL     1      -8.206  12.323  67.995  1.00  0.00    -0.163 C  
ENDROOT
BRANCH   2   3
HETATM    3  C   UNL     1      -8.557  10.943  67.447  1.00  0.00    -0.127 C  
BRANCH   3   4
HETATM    4  C   UNL     1     -10.045  10.659  67.618  1.00  0.00    -0.208 C  
BRANCH   4   5
HETATM    5  C   UNL     1     -10.367   9.215  67.262  1.00  0.00    -0.338 C  
BRANCH   5   6
HETATM    6  C   UNL     1      -9.768   8.848  65.908  1.00  0.00    -0.259 C  
BRANCH   6   7
HETATM    7  C   UNL     1      -8.845   7.651  66.059  1.00  0.00    -0.186 C  
BRANCH   7   8
HETATM    8  C   UNL     1      -7.386   8.031  65.824  1.00  0.00    -0.079 C  
BRANCH   8   9
HETATM    9  C   UNL     1      -6.512   6.863  66.260  1.00  0.00    -0.051 C  
BRANCH   9  10
HETATM   10  C   UNL     1      -7.329   5.740  66.884  1.00  0.00    -0.079 C  
BRANCH  10  11
HETATM   11  N   UNL     1      -6.779   5.300  68.265  1.00  0.00    -0.053 N  
HETATM   12  C   UNL     1      -6.453   3.806  68.256  1.00  0.00    -0.037 C  
HETATM   13  C   UNL     1      -5.522   6.101  68.614  1.00  0.00    -0.008 C  
BRANCH  11  14
HETATM   14  C   UNL     1      -7.906   5.597  69.288  1.00  0.00    -0.089 C  
BRANCH  14  15
HETATM   15  C   UNL     1      -7.614   6.825  70.139  1.00  0.00    -0.099 C  
BRANCH  15  16
HETATM   16  C   UNL     1      -8.313   8.068  69.609  1.00  0.00    -0.126 C  
BRANCH  16  17
HETATM   17  C   UNL     1      -8.754   8.915  70.798  1.00  0.00    -0.245 C  
BRANCH  17  18
HETATM   18  C   UNL     1      -9.559   8.103  71.797  1.00  0.00    -0.249 C  
BRANCH  18  19
HETATM   19  C   UNL     1     -10.892   8.789  72.066  1.00  0.00    -0.428 C  
BRANCH  19  20
HETATM   20  C   UNL     1     -11.681   8.951  70.772  1.00  0.00    -0.269 C  
BRANCH  20  21
HETATM   21  C   UNL     1     -12.174  10.385  70.607  1.00  0.00    -0.441 C  
BRANCH  21  22
HETATM   22  C   UNL     1     -12.984  10.818  71.825  1.00  0.00    -0.568 C  
HETATM   23  C   UNL     1     -13.152  12.326  71.867  1.00  0.00    -0.469 C  
ENDBRANCH  21  22
ENDBRANCH  20  21
ENDBRANCH  19  20
ENDBRANCH  18  19
ENDBRANCH  17  18
ENDBRANCH  16  17
ENDBRANCH  15  16
ENDBRANCH  14  15
ENDBRANCH  11  14
ENDBRANCH  10  11
ENDBRANCH   9  10
ENDBRANCH   8   9
ENDBRANCH   7   8
ENDBRANCH   6   7
ENDBRANCH   5   6
ENDBRANCH   4   5
ENDBRANCH   3   4
ENDBRANCH   2   3
TORSDOF 18
ENDMDL
MODEL      362
REMARK 921   NORMALIZED FREE ENERGY PREDICTED BY IDOCK:   -2.10 KCAL/MOL
REMARK 922        TOTAL FREE ENERGY PREDICTED BY IDOCK:   -7.02 KCAL/MOL
REMARK 923 INTER-LIGAND FREE ENERGY PREDICTED BY IDOCK:   -5.61 KCAL/MOL
REMARK 924 INTRA-LIGAND FREE ENERGY PREDICTED BY IDOCK:   -1.41 KCAL/MOL
REMARK 927      BINDING AFFINITY PREDICTED BY RF-SCORE:    0.00 PKD
ROOT
HETATM    1  C   UNL     1     -10.529   6.416  68.068  1.00  0.00    -0.271 C  
HETATM    2  C   UNL     1     -11.333   6.348  69.354  1.00  0.00    -0.443 C  
ENDROOT
BRANCH   2   3
HETATM    3  C   UNL     1     -10.591   5.555  70.426  1.00  0.00    -0.350 C  
BRANCH   3   4
HETATM    4  C   UNL     1     -10.874   6.128  71.810  1.00  0.00    -0.303 C  
BRANCH   4   5
HETATM    5  C   UNL     1     -12.084   7.050  71.780  1.00  0.00    -0.371 C  
BRANCH   5   6
HETATM    6  C   UNL     1     -11.647   8.511  71.768  1.00  0.00    -0.380 C  
BRANCH   6   7
HETATM    7  C   UNL     1     -10.146   8.603  71.978  1.00  0.00    -0.401 C  
BRANCH   7   8
HETATM    8  C   UNL     1      -9.459   9.340  70.832  1.00  0.00    -0.330 C  
BRANCH   8   9
HETATM    9  C   UNL     1     -10.525  10.073  70.029  1.00  0.00    -0.337 C  
BRANCH   9  10
HETATM   10  C   UNL     1     -10.078  10.343  68.598  1.00  0.00    -0.176 C  
BRANCH  10  11
HETATM   11  N   UNL     1     -10.761  11.594  67.987  1.00  0.00    -0.199 N  
HETATM   12  C   UNL     1     -11.115  11.342  66.521  1.00  0.00    -0.251 C  
HETATM   13  C   UNL     1     -12.028  11.941  68.772  1.00  0.00    -0.249 C  
BRANCH  11  14
HETATM   14  C   UNL     1      -9.727  12.744  68.101  1.00  0.00    -0.223 C  
BRANCH  14  15
HETATM   15  C   UNL     1      -9.982  13.861  67.101  1.00  0.00    -0.239 C  
BRANCH  15  16
HETATM   16  C   UNL     1      -8.704  14.597  66.725  1.00  0.00    -0.233 C  
BRANCH  16  17
HETATM   17  C   UNL     1      -8.432  15.659  67.786  1.00  0.00    -0.158 C  
BRANCH  17  18
HETATM   18  C   UNL     1      -6.943  15.847  68.022  1.00  0.00    -0.141 C  
BRANCH  18  19
HETATM   19  C   UNL     1      -6.588  15.416  69.439  1.00  0.00    -0.155 C  
BRANCH  19  20
HETATM   20  C   UNL     1      -6.394  13.905  69.506  1.00  0.00    -0.118 C  
BRANCH  20  21
HETATM   21  C   UNL     1      -5.472  13.524  70.660  1.00  0.00    -0.155 C  
BRANCH  21  22
HETATM   22  C   UNL     1      -5.391  14.654  71.680  1.00  0.00    -0.122 C  
HETATM   23  C   UNL     1      -5.672  14.150  73.084  1.00  0.00    -0.000 C  
ENDBRANCH  21  22
ENDBRANCH  20  21
ENDBRANCH  19  20
ENDBRANCH  18  19
ENDBRANCH  17  18
ENDBRANCH  16  17
ENDBRANCH  15  16
ENDBRANCH  14  15
ENDBRANCH  11  14
ENDBRANCH  10  11
ENDBRANCH   9  10
ENDBRANCH   8   9
ENDBRANCH   7   8
ENDBRANCH   6   7
ENDBRANCH   5   6
ENDBRANCH   4   5
ENDBRANCH   3   4
ENDBRANCH   2   3
TORSDOF 18
ENDMDL
MODEL      363
REMARK 921   NORMALIZED FREE ENERGY PREDICTED BY IDOCK:   -2.10 KCAL/MOL
REMARK 922        TOTAL FREE ENERGY PREDICTED BY IDOCK:   -7.02 KCAL/MOL
REMARK 923 INTER-LIGAND FREE ENERGY PREDICTED BY IDOCK:   -4.95 KCAL/MOL
REMARK 924 INTRA-LIGAND FREE ENERGY PREDICTED BY IDOCK:   -2.06 KCAL/MOL
REMARK 927      BINDING AFFINITY PREDICTED BY RF-SCORE:    0.00 PKD
ROOT
HETATM    1  C   UNL     1      -8.296  14.111  67.354  1.00  0.00    -0.210 C  
HETATM    2  C   UNL     1      -7.035  13.278  67.486  1.00  0.00    -0.152 C  
ENDROOT
BRANCH   2   3
HETATM    3  C   UNL     1      -6.712  12.992  68.949  1.00  0.00    -0.096 C  
BRANCH   3   4
HETATM    4  C   UNL     1      -5.781  11.791  69.070  1.00  0.00    -0.052 C  
BRANCH   4   5
HETATM    5  C   UNL     1      -6.352  10.755  70.027  1.00  0.00    -0.137 C  
BRANCH   5   6
HETATM    6  C   UNL     1      -6.149   9.346  69.478  1.00  0.00    -0.040 C  
BRANCH   6   7
HETATM    7  C   UNL     1      -6.552   9.298  68.015  1.00  0.00    -0.060 C  
BRANCH   7   8
HETATM    8  C   UNL     1      -7.880   8.572  67.818  1.00  0.00    -0.103 C  
BRANCH   8   9
HETATM    9  C   UNL     1      -8.115   7.672  69.023  1.00  0.00    -0.126 C  
BRANCH   9  10
HETATM   10  C   UNL     1      -9.569   7.236  69.135  1.00  0.00    -0.155 C  
BRANCH  10  11
HETATM   11  N   UNL     1     -10.257   7.782  70.414  1.00  0.00    -0.195 N  
HETATM   12  C   UNL     1     -11.097   6.687  71.073  1.00  0.00    -0.282 C  
HETATM   13  C   UNL     1      -9.206   8.292  71.402  1.00  0.00    -0.169 C  
BRANCH  11  14
HETATM   14  C   UNL     1     -11.165   8.948  69.946  1.00  0.00    -0.065 C  
BRANCH  14  15
HETATM   15  C   UNL     1     -10.577  10.313  70.269  1.00  0.00    -0.264 C  
BRANCH  15  16
HETATM   16  C   UNL     1     -10.148  11.063  69.016  1.00  0.00    -0.197 C  
BRANCH  16  17
HETATM   17  C   UNL     1     -11.261  12.033  68.633  1.00  0.00    -0.309 C  
BRANCH  17  18
HETATM   18  C   UNL     1     -11.771  11.774  67.226  1.00  0.00    -0.293 C  
BRANCH  18  19
HETATM   19  C   UNL     1     -11.586  13.021  66.372  1.00  0.00    -0.413 C  
BRANCH  19  20
HETATM   20  C   UNL     1     -12.407  12.919  65.090  1.00  0.00    -0.547 C  
BRANCH  20  21
HETATM   21  C   UNL     1     -11.795  13.769  63.981  1.00  0.00    -0.410 C  
BRANCH  21  22
HETATM   22  C   UNL     1     -11.938  15.253  64.300  1.00  0.00    -0.236 C  
HETATM   23  C   UNL     1     -10.720  15.777  65.037  1.00  0.00    -0.443 C  
ENDBRANCH  21  22
ENDBRANCH  20  21
ENDBRANCH  19  20
ENDBRANCH  18  19
ENDBRANCH  17  18
ENDBRANCH  16  17
ENDBRANCH  15  16
ENDBRANCH  14  15
ENDBRANCH  11  14
ENDBRANCH  10  11
ENDBRANCH   9  10
ENDBRANCH   8   9
ENDBRANCH   7   8
ENDBRANCH   6   7
ENDBRANCH   5   6
ENDBRANCH   4   5
ENDBRANCH   3   4
ENDBRANCH   2   3
TORSDOF 18
ENDMDL
MODEL      364
REMARK 921   NORMALIZED FREE ENERGY PREDICTED BY IDOCK:   -2.10 KCAL/MOL
REMARK 922        TOTAL FREE ENERGY PREDICTED BY IDOCK:   -7.01 KCAL/MOL
REMARK 923 INTER-LIGAND FREE ENERGY PREDICTED BY IDOCK:   -5.52 KCAL/MOL
REMARK 924 INTRA-LIGAND FREE ENERGY PREDICTED BY IDOCK:   -1.49 KCAL/MOL
REMARK 927      BINDING AFFINITY PREDICTED BY RF-SCORE:    0.00 PKD
ROOT
HETATM    1  C   UNL     1     -10.772   3.961  64.317  1.00  0.00    -0.218 C  
HETATM    2  C   UNL     1      -9.764   2.852  64.079  1.00  0.00    -0.151 C  
ENDROOT
BRANCH   2   3
HETATM    3  C   UNL     1      -9.077   2.443  65.378  1.00  0.00    -0.114 C  
BRANCH   3   4
HETATM    4  C   UNL     1      -7.601   2.824  65.349  1.00  0.00    -0.076 C  
BRANCH   4   5
HETATM    5  C   UNL     1      -7.373   4.163  66.036  1.00  0.00    -0.080 C  
BRANCH   5   6
HETATM    6  C   UNL     1      -6.908   5.211  65.030  1.00  0.00    -0.049 C  
BRANCH   6   7
HETATM    7  C   UNL     1      -8.030   6.199  64.757  1.00  0.00    -0.124 C  
BRANCH   7   8
HETATM    8  C   UNL     1      -8.878   6.447  66.000  1.00  0.00    -0.160 C  
BRANCH   8   9
HETATM    9  C   UNL     1      -8.745   7.913  66.386  1.00  0.00    -0.170 C  
BRANCH   9  10
HETATM   10  C   UNL     1     -10.093   8.546  66.701  1.00  0.00    -0.294 C  
BRANCH  10  11
HETATM   11  N   UNL     1      -9.959   9.850  67.529  1.00  0.00    -0.176 N  
HETATM   12  C   UNL     1     -10.964   9.853  68.682  1.00  0.00    -0.179 C  
HETATM   13  C   UNL     1      -8.538   9.982  68.082  1.00  0.00    -0.118 C  
BRANCH  11  14
HETATM   14  C   UNL     1     -10.264  11.013  66.548  1.00  0.00    -0.234 C  
BRANCH  14  15
HETATM   15  C   UNL     1     -10.840  12.234  67.249  1.00  0.00    -0.283 C  
BRANCH  15  16
HETATM   16  C   UNL     1     -11.880  12.946  66.396  1.00  0.00    -0.478 C  
BRANCH  16  17
HETATM   17  C   UNL     1     -12.192  14.291  67.044  1.00  0.00    -0.338 C  
BRANCH  17  18
HETATM   18  C   UNL     1     -11.317  14.545  68.259  1.00  0.00    -0.319 C  
BRANCH  18  19
HETATM   19  C   UNL     1     -12.116  15.281  69.326  1.00  0.00    -0.280 C  
BRANCH  19  20
HETATM   20  C   UNL     1     -11.929  14.620  70.687  1.00  0.00    -0.380 C  
BRANCH  20  21
HETATM   21  C   UNL     1     -12.399  13.169  70.660  1.00  0.00    -0.405 C  
BRANCH  21  22
HETATM   22  C   UNL     1     -13.162  12.827  71.934  1.00  0.00    -0.511 C  
HETATM   23  C   UNL     1     -13.361  11.329  72.072  1.00  0.00    -0.386 C  
ENDBRANCH  21  22
ENDBRANCH  20  21
ENDBRANCH  19  20
ENDBRANCH  18  19
ENDBRANCH  17  18
ENDBRANCH  16  17
ENDBRANCH  15  16
ENDBRANCH  14  15
ENDBRANCH  11  14
ENDBRANCH  10  11
ENDBRANCH   9  10
ENDBRANCH   8   9
ENDBRANCH   7   8
ENDBRANCH   6   7
ENDBRANCH   5   6
ENDBRANCH   4   5
ENDBRANCH   3   4
ENDBRANCH   2   3
TORSDOF 18
ENDMDL
MODEL      365
REMARK 921   NORMALIZED FREE ENERGY PREDICTED BY IDOCK:   -2.10 KCAL/MOL
REMARK 922        TOTAL FREE ENERGY PREDICTED BY IDOCK:   -7.00 KCAL/MOL
REMARK 923 INTER-LIGAND FREE ENERGY PREDICTED BY IDOCK:   -4.53 KCAL/MOL
REMARK 924 INTRA-LIGAND FREE ENERGY PREDICTED BY IDOCK:   -2.48 KCAL/MOL
REMARK 927      BINDING AFFINITY PREDICTED BY RF-SCORE:    0.00 PKD
ROOT
HETATM    1  C   UNL     1     -12.692   6.983  71.136  1.00  0.00    -0.361 C  
HETATM    2  C   UNL     1     -12.945   8.416  71.567  1.00  0.00    -0.319 C  
ENDROOT
BRANCH   2   3
HETATM    3  C   UNL     1     -11.759   9.313  71.227  1.00  0.00    -0.416 C  
BRANCH   3   4
HETATM    4  C   UNL     1     -12.168  10.781  71.259  1.00  0.00    -0.426 C  
BRANCH   4   5
HETATM    5  C   UNL     1     -12.797  11.198  69.937  1.00  0.00     0.057 C  
BRANCH   5   6
HETATM    6  C   UNL     1     -12.018  10.615  68.763  1.00  0.00    -0.069 C  
BRANCH   6   7
HETATM    7  C   UNL     1     -11.478  11.737  67.893  1.00  0.00    -0.387 C  
BRANCH   7   8
HETATM    8  C   UNL     1     -10.103  12.203  68.362  1.00  0.00    -0.210 C  
BRANCH   8   9
HETATM    9  C   UNL     1      -9.232  10.975  68.583  1.00  0.00    -0.186 C  
BRANCH   9  10
HETATM   10  C   UNL     1      -8.797  10.338  67.270  1.00  0.00    -0.132 C  
BRANCH  10  11
HETATM   11  N   UNL     1      -8.854   8.789  67.312  1.00  0.00    -0.131 N  
HETATM   12  C   UNL     1      -9.984   8.275  66.419  1.00  0.00    -0.194 C  
HETATM   13  C   UNL     1      -7.520   8.198  66.849  1.00  0.00    -0.091 C  
BRANCH  11  14
HETATM   14  C   UNL     1      -9.124   8.411  68.791  1.00  0.00    -0.143 C  
BRANCH  14  15
HETATM   15  C   UNL     1      -9.832   7.072  68.933  1.00  0.00    -0.150 C  
BRANCH  15  16
HETATM   16  C   UNL     1      -9.115   6.146  69.905  1.00  0.00    -0.146 C  
BRANCH  16  17
HETATM   17  C   UNL     1      -9.494   4.708  69.566  1.00  0.00    -0.236 C  
BRANCH  17  18
HETATM   18  C   UNL     1      -9.338   3.789  70.766  1.00  0.00    -0.218 C  
BRANCH  18  19
HETATM   19  C   UNL     1     -10.203   4.289  71.914  1.00  0.00    -0.200 C  
BRANCH  19  20
HETATM   20  C   UNL     1      -9.414   4.291  73.219  1.00  0.00    -0.129 C  
BRANCH  20  21
HETATM   21  C   UNL     1      -8.068   4.988  73.042  1.00  0.00    -0.105 C  
BRANCH  21  22
HETATM   22  C   UNL     1      -7.979   6.219  73.937  1.00  0.00    -0.098 C  
HETATM   23  C   UNL     1      -9.214   7.090  73.801  1.00  0.00    -0.235 C  
ENDBRANCH  21  22
ENDBRANCH  20  21
ENDBRANCH  19  20
ENDBRANCH  18  19
ENDBRANCH  17  18
ENDBRANCH  16  17
ENDBRANCH  15  16
ENDBRANCH  14  15
ENDBRANCH  11  14
ENDBRANCH  10  11
ENDBRANCH   9  10
ENDBRANCH   8   9
ENDBRANCH   7   8
ENDBRANCH   6   7
ENDBRANCH   5   6
ENDBRANCH   4   5
ENDBRANCH   3   4
ENDBRANCH   2   3
TORSDOF 18
ENDMDL
MODEL      366
REMARK 921   NORMALIZED FREE ENERGY PREDICTED BY IDOCK:   -2.09 KCAL/MOL
REMARK 922        TOTAL FREE ENERGY PREDICTED BY IDOCK:   -6.99 KCAL/MOL
REMARK 923 INTER-LIGAND FREE ENERGY PREDICTED BY IDOCK:   -5.24 KCAL/MOL
REMARK 924 INTRA-LIGAND FREE ENERGY PREDICTED BY IDOCK:   -1.76 KCAL/MOL
REMARK 927      BINDING AFFINITY PREDICTED BY RF-SCORE:    0.00 PKD
ROOT
HETATM    1  C   UNL     1     -11.960   6.880  70.643  1.00  0.00    -0.400 C  
HETATM    2  C   UNL     1     -10.944   7.748  71.363  1.00  0.00    -0.264 C  
ENDROOT
BRANCH   2   3
HETATM    3  C   UNL     1     -10.136   6.933  72.368  1.00  0.00    -0.189 C  
BRANCH   3   4
HETATM    4  C   UNL     1     -10.942   5.737  72.862  1.00  0.00    -0.312 C  
BRANCH   4   5
HETATM    5  C   UNL     1     -10.142   4.450  72.729  1.00  0.00    -0.221 C  
BRANCH   5   6
HETATM    6  C   UNL     1      -8.926   4.662  71.832  1.00  0.00    -0.150 C  
BRANCH   6   7
HETATM    7  C   UNL     1      -8.728   3.453  70.935  1.00  0.00    -0.125 C  
BRANCH   7   8
HETATM    8  C   UNL     1      -9.465   3.607  69.608  1.00  0.00    -0.245 C  
BRANCH   8   9
HETATM    9  C   UNL     1      -8.766   4.689  68.796  1.00  0.00    -0.113 C  
BRANCH   9  10
HETATM   10  C   UNL     1      -9.508   5.003  67.505  1.00  0.00    -0.135 C  
BRANCH  10  11
HETATM   11  N   UNL     1      -8.565   5.523  66.388  1.00  0.00    -0.118 N  
HETATM   12  C   UNL     1      -7.105   5.286  66.774  1.00  0.00    -0.069 C  
HETATM   13  C   UNL     1      -8.872   4.816  65.066  1.00  0.00    -0.152 C  
BRANCH  11  14
HETATM   14  C   UNL     1      -8.848   7.043  66.263  1.00  0.00    -0.148 C  
BRANCH  14  15
HETATM   15  C   UNL     1     -10.186   7.440  66.868  1.00  0.00    -0.346 C  
BRANCH  15  16
HETATM   16  C   UNL     1     -10.113   8.778  67.591  1.00  0.00    -0.273 C  
BRANCH  16  17
HETATM   17  C   UNL     1      -9.067   9.643  66.895  1.00  0.00    -0.160 C  
BRANCH  17  18
HETATM   18  C   UNL     1      -9.293  11.121  67.165  1.00  0.00    -0.176 C  
BRANCH  18  19
HETATM   19  C   UNL     1     -10.472  11.621  66.341  1.00  0.00    -0.283 C  
BRANCH  19  20
HETATM   20  C   UNL     1     -11.483  12.335  67.231  1.00  0.00    -0.426 C  
BRANCH  20  21
HETATM   21  C   UNL     1     -11.341  13.849  67.115  1.00  0.00    -0.346 C  
BRANCH  21  22
HETATM   22  C   UNL     1     -11.290  14.492  68.496  1.00  0.00    -0.309 C  
HETATM   23  C   UNL     1     -11.581  15.980  68.422  1.00  0.00    -0.279 C  
ENDBRANCH  21  22
ENDBRANCH  20  21
ENDBRANCH  19  20
ENDBRANCH  18  19
ENDBRANCH  17  18
ENDBRANCH  16  17
ENDBRANCH  15  16
ENDBRANCH  14  15
ENDBRANCH  11  14
ENDBRANCH  10  11
ENDBRANCH   9  10
ENDBRANCH   8   9
ENDBRANCH   7   8
ENDBRANCH   6   7
ENDBRANCH   5   6
ENDBRANCH   4   5
ENDBRANCH   3   4
ENDBRANCH   2   3
TORSDOF 18
ENDMDL
MODEL      367
REMARK 921   NORMALIZED FREE ENERGY PREDICTED BY IDOCK:   -2.08 KCAL/MOL
REMARK 922        TOTAL FREE ENERGY PREDICTED BY IDOCK:   -6.98 KCAL/MOL
REMARK 923 INTER-LIGAND FREE ENERGY PREDICTED BY IDOCK:   -4.49 KCAL/MOL
REMARK 924 INTRA-LIGAND FREE ENERGY PREDICTED BY IDOCK:   -2.49 KCAL/MOL
REMARK 927      BINDING AFFINITY PREDICTED BY RF-SCORE:    0.00 PKD
ROOT
HETATM    1  C   UNL     1      -6.359  11.741  68.588  1.00  0.00    -0.057 C  
HETATM    2  C   UNL     1      -7.559  11.668  67.663  1.00  0.00    -0.128 C  
ENDROOT
BRANCH   2   3
HETATM    3  C   UNL     1      -7.981  10.222  67.419  1.00  0.00    -0.107 C  
BRANCH   3   4
HETATM    4  C   UNL     1      -9.470  10.142  67.106  1.00  0.00    -0.185 C  
BRANCH   4   5
HETATM    5  C   UNL     1      -9.959   8.702  67.158  1.00  0.00    -0.297 C  
BRANCH   5   6
HETATM    6  C   UNL     1      -8.904   7.755  66.595  1.00  0.00    -0.166 C  
BRANCH   6   7
HETATM    7  C   UNL     1      -8.706   6.581  67.539  1.00  0.00    -0.114 C  
BRANCH   7   8
HETATM    8  C   UNL     1      -7.400   6.698  68.319  1.00  0.00    -0.090 C  
BRANCH   8   9
HETATM    9  C   UNL     1      -7.469   5.755  69.511  1.00  0.00    -0.075 C  
BRANCH   9  10
HETATM   10  C   UNL     1      -8.854   5.143  69.676  1.00  0.00    -0.102 C  
BRANCH  10  11
HETATM   11  N   UNL     1      -9.369   5.223  71.137  1.00  0.00    -0.147 N  
HETATM   12  C   UNL     1      -9.901   3.862  71.587  1.00  0.00    -0.177 C  
HETATM   13  C   UNL     1      -8.243   5.672  72.071  1.00  0.00    -0.115 C  
BRANCH  11  14
HETATM   14  C   UNL     1     -10.512   6.271  71.131  1.00  0.00    -0.223 C  
BRANCH  14  15
HETATM   15  C   UNL     1     -10.058   7.633  71.635  1.00  0.00    -0.212 C  
BRANCH  15  16
HETATM   16  C   UNL     1      -9.839   8.621  70.498  1.00  0.00    -0.210 C  
BRANCH  16  17
HETATM   17  C   UNL     1     -10.368   9.983  70.937  1.00  0.00     0.061 C  
BRANCH  17  18
HETATM   18  C   UNL     1     -11.837   9.916  71.318  1.00  0.00    -0.479 C  
BRANCH  18  19
HETATM   19  C   UNL     1     -12.559  11.157  70.808  1.00  0.00    -0.445 C  
BRANCH  19  20
HETATM   20  C   UNL     1     -12.181  11.438  69.358  1.00  0.00    -0.288 C  
BRANCH  20  21
HETATM   21  C   UNL     1     -11.747  12.889  69.177  1.00  0.00    -0.376 C  
BRANCH  21  22
HETATM   22  C   UNL     1     -10.981  13.063  67.871  1.00  0.00    -0.264 C  
HETATM   23  C   UNL     1     -10.923  14.522  67.456  1.00  0.00    -0.297 C  
ENDBRANCH  21  22
ENDBRANCH  20  21
ENDBRANCH  19  20
ENDBRANCH  18  19
ENDBRANCH  17  18
ENDBRANCH  16  17
ENDBRANCH  15  16
ENDBRANCH  14  15
ENDBRANCH  11  14
ENDBRANCH  10  11
ENDBRANCH   9  10
ENDBRANCH   8   9
ENDBRANCH   7   8
ENDBRANCH   6   7
ENDBRANCH   5   6
ENDBRANCH   4   5
ENDBRANCH   3   4
ENDBRANCH   2   3
TORSDOF 18
ENDMDL
MODEL      368
REMARK 921   NORMALIZED FREE ENERGY PREDICTED BY IDOCK:   -2.08 KCAL/MOL
REMARK 922        TOTAL FREE ENERGY PREDICTED BY IDOCK:   -6.98 KCAL/MOL
REMARK 923 INTER-LIGAND FREE ENERGY PREDICTED BY IDOCK:   -6.08 KCAL/MOL
REMARK 924 INTRA-LIGAND FREE ENERGY PREDICTED BY IDOCK:   -0.90 KCAL/MOL
REMARK 927      BINDING AFFINITY PREDICTED BY RF-SCORE:    0.00 PKD
ROOT
HETATM    1  C   UNL     1     -10.116   2.197  63.916  1.00  0.00    -0.094 C  
HETATM    2  C   UNL     1      -8.751   2.257  64.576  1.00  0.00    -0.099 C  
ENDROOT
BRANCH   2   3
HETATM    3  C   UNL     1      -8.580   3.547  65.374  1.00  0.00    -0.113 C  
BRANCH   3   4
HETATM    4  C   UNL     1      -9.764   4.480  65.148  1.00  0.00    -0.162 C  
BRANCH   4   5
HETATM    5  C   UNL     1     -10.488   4.764  66.455  1.00  0.00    -0.251 C  
BRANCH   5   6
HETATM    6  C   UNL     1      -9.494   5.123  67.555  1.00  0.00    -0.146 C  
BRANCH   6   7
HETATM    7  C   UNL     1      -9.361   6.633  67.658  1.00  0.00    -0.119 C  
BRANCH   7   8
HETATM    8  C   UNL     1     -10.600   7.268  68.282  1.00  0.00    -0.217 C  
BRANCH   8   9
HETATM    9  C   UNL     1     -10.190   7.930  69.589  1.00  0.00    -0.207 C  
BRANCH   9  10
HETATM   10  C   UNL     1     -10.448   7.030  70.791  1.00  0.00    -0.212 C  
BRANCH  10  11
HETATM   11  N   UNL     1     -11.332   7.713  71.867  1.00  0.00    -0.256 N  
HETATM   12  C   UNL     1     -12.794   7.302  71.692  1.00  0.00    -0.375 C  
HETATM   13  C   UNL     1     -10.851   7.329  73.268  1.00  0.00    -0.358 C  
BRANCH  11  14
HETATM   14  C   UNL     1     -11.173   9.240  71.645  1.00  0.00    -0.379 C  
BRANCH  14  15
HETATM   15  C   UNL     1     -12.438   9.887  71.101  1.00  0.00    -0.464 C  
BRANCH  15  16
HETATM   16  C   UNL     1     -12.642  11.293  71.646  1.00  0.00    -0.357 C  
BRANCH  16  17
HETATM   17  C   UNL     1     -12.509  12.280  70.490  1.00  0.00    -0.272 C  
BRANCH  17  18
HETATM   18  C   UNL     1     -11.839  11.643  69.285  1.00  0.00    -0.396 C  
BRANCH  18  19
HETATM   19  C   UNL     1     -11.479  12.717  68.267  1.00  0.00    -0.354 C  
BRANCH  19  20
HETATM   20  C   UNL     1     -11.886  14.095  68.778  1.00  0.00    -0.384 C  
BRANCH  20  21
HETATM   21  C   UNL     1     -10.658  14.945  69.093  1.00  0.00    -0.248 C  
BRANCH  21  22
HETATM   22  C   UNL     1     -10.984  16.429  68.961  1.00  0.00    -0.325 C  
HETATM   23  C   UNL     1      -9.882  17.171  68.226  1.00  0.00    -0.288 C  
ENDBRANCH  21  22
ENDBRANCH  20  21
ENDBRANCH  19  20
ENDBRANCH  18  19
ENDBRANCH  17  18
ENDBRANCH  16  17
ENDBRANCH  15  16
ENDBRANCH  14  15
ENDBRANCH  11  14
ENDBRANCH  10  11
ENDBRANCH   9  10
ENDBRANCH   8   9
ENDBRANCH   7   8
ENDBRANCH   6   7
ENDBRANCH   5   6
ENDBRANCH   4   5
ENDBRANCH   3   4
ENDBRANCH   2   3
TORSDOF 18
ENDMDL
MODEL      369
REMARK 921   NORMALIZED FREE ENERGY PREDICTED BY IDOCK:   -2.08 KCAL/MOL
REMARK 922        TOTAL FREE ENERGY PREDICTED BY IDOCK:   -6.97 KCAL/MOL
REMARK 923 INTER-LIGAND FREE ENERGY PREDICTED BY IDOCK:   -4.93 KCAL/MOL
REMARK 924 INTRA-LIGAND FREE ENERGY PREDICTED BY IDOCK:   -2.04 KCAL/MOL
REMARK 927      BINDING AFFINITY PREDICTED BY RF-SCORE:    0.00 PKD
ROOT
HETATM    1  C   UNL     1      -5.947   8.466  64.706  1.00  0.00    -0.052 C  
HETATM    2  C   UNL     1      -5.887   9.106  66.080  1.00  0.00    -0.054 C  
ENDROOT
BRANCH   2   3
HETATM    3  C   UNL     1      -5.791  10.626  65.978  1.00  0.00    -0.127 C  
BRANCH   3   4
HETATM    4  C   UNL     1      -6.568  11.291  67.108  1.00  0.00    -0.106 C  
BRANCH   4   5
HETATM    5  C   UNL     1      -6.763  10.331  68.272  1.00  0.00    -0.057 C  
BRANCH   5   6
HETATM    6  C   UNL     1      -8.010  10.699  69.070  1.00  0.00    -0.140 C  
BRANCH   6   7
HETATM    7  C   UNL     1      -8.640   9.445  69.652  1.00  0.00    -0.171 C  
BRANCH   7   8
HETATM    8  C   UNL     1      -8.068   8.180  69.018  1.00  0.00    -0.115 C  
BRANCH   8   9
HETATM    9  C   UNL     1      -7.511   7.300  70.127  1.00  0.00    -0.088 C  
BRANCH   9  10
HETATM   10  C   UNL     1      -7.381   5.847  69.693  1.00  0.00    -0.075 C  
BRANCH  10  11
HETATM   11  N   UNL     1      -8.014   4.863  70.712  1.00  0.00    -0.081 N  
HETATM   12  C   UNL     1      -8.579   3.640  69.988  1.00  0.00    -0.061 C  
HETATM   13  C   UNL     1      -6.968   4.419  71.737  1.00  0.00    -0.039 C  
BRANCH  11  14
HETATM   14  C   UNL     1      -9.154   5.647  71.412  1.00  0.00    -0.140 C  
BRANCH  14  15
HETATM   15  C   UNL     1     -10.534   5.240  70.917  1.00  0.00    -0.285 C  
BRANCH  15  16
HETATM   16  C   UNL     1     -11.393   6.445  70.562  1.00  0.00    -0.438 C  
BRANCH  16  17
HETATM   17  C   UNL     1     -12.151   6.879  71.812  1.00  0.00    -0.385 C  
BRANCH  17  18
HETATM   18  C   UNL     1     -13.202   7.929  71.494  1.00  0.00    -0.342 C  
BRANCH  18  19
HETATM   19  C   UNL     1     -12.850   9.238  72.189  1.00  0.00    -0.485 C  
BRANCH  19  20
HETATM   20  C   UNL     1     -13.099  10.421  71.260  1.00  0.00    -0.494 C  
BRANCH  20  21
HETATM   21  C   UNL     1     -11.806  10.864  70.581  1.00  0.00    -0.453 C  
BRANCH  21  22
HETATM   22  C   UNL     1     -12.029  11.077  69.088  1.00  0.00    -0.394 C  
HETATM   23  C   UNL     1     -11.497  12.426  68.639  1.00  0.00    -0.348 C  
ENDBRANCH  21  22
ENDBRANCH  20  21
ENDBRANCH  19  20
ENDBRANCH  18  19
ENDBRANCH  17  18
ENDBRANCH  16  17
ENDBRANCH  15  16
ENDBRANCH  14  15
ENDBRANCH  11  14
ENDBRANCH  10  11
ENDBRANCH   9  10
ENDBRANCH   8   9
ENDBRANCH   7   8
ENDBRANCH   6   7
ENDBRANCH   5   6
ENDBRANCH   4   5
ENDBRANCH   3   4
ENDBRANCH   2   3
TORSDOF 18
ENDMDL
MODEL      370
REMARK 921   NORMALIZED FREE ENERGY PREDICTED BY IDOCK:   -2.08 KCAL/MOL
REMARK 922        TOTAL FREE ENERGY PREDICTED BY IDOCK:   -6.96 KCAL/MOL
REMARK 923 INTER-LIGAND FREE ENERGY PREDICTED BY IDOCK:   -5.45 KCAL/MOL
REMARK 924 INTRA-LIGAND FREE ENERGY PREDICTED BY IDOCK:   -1.51 KCAL/MOL
REMARK 927      BINDING AFFINITY PREDICTED BY RF-SCORE:    0.00 PKD
ROOT
HETATM    1  C   UNL     1      -7.825  13.574  67.329  1.00  0.00    -0.106 C  
HETATM    2  C   UNL     1      -6.868  12.475  67.750  1.00  0.00    -0.120 C  
ENDROOT
BRANCH   2   3
HETATM    3  C   UNL     1      -6.655  12.477  69.261  1.00  0.00    -0.089 C  
BRANCH   3   4
HETATM    4  C   UNL     1      -6.072  11.147  69.724  1.00  0.00    -0.107 C  
BRANCH   4   5
HETATM    5  C   UNL     1      -7.176  10.140  70.009  1.00  0.00    -0.166 C  
BRANCH   5   6
HETATM    6  C   UNL     1      -6.684   8.718  69.765  1.00  0.00    -0.045 C  
BRANCH   6   7
HETATM    7  C   UNL     1      -6.744   8.397  68.282  1.00  0.00    -0.065 C  
BRANCH   7   8
HETATM    8  C   UNL     1      -7.999   7.605  67.926  1.00  0.00    -0.118 C  
BRANCH   8   9
HETATM    9  C   UNL     1      -8.564   7.005  69.206  1.00  0.00    -0.136 C  
BRANCH   9  10
HETATM   10  C   UNL     1     -10.072   7.184  69.303  1.00  0.00    -0.176 C  
BRANCH  10  11
HETATM   11  N   UNL     1     -10.544   7.490  70.748  1.00  0.00    -0.218 N  
HETATM   12  C   UNL     1     -11.885   6.811  71.025  1.00  0.00    -0.376 C  
HETATM   13  C   UNL     1      -9.501   7.005  71.758  1.00  0.00    -0.152 C  
BRANCH  11  14
HETATM   14  C   UNL     1     -10.694   9.031  70.831  1.00  0.00    -0.253 C  
BRANCH  14  15
HETATM   15  C   UNL     1     -11.090   9.653  69.500  1.00  0.00    -0.198 C  
BRANCH  15  16
HETATM   16  C   UNL     1     -12.118  10.762  69.669  1.00  0.00    -0.361 C  
BRANCH  16  17
HETATM   17  C   UNL     1     -11.928  11.387  71.047  1.00  0.00    -0.160 C  
BRANCH  17  18
HETATM   18  C   UNL     1     -13.141  11.165  71.935  1.00  0.00    -0.513 C  
BRANCH  18  19
HETATM   19  C   UNL     1     -13.894  12.475  72.116  1.00  0.00    -0.185 C  
BRANCH  19  20
HETATM   20  C   UNL     1     -13.087  13.639  71.552  1.00  0.00    -0.431 C  
BRANCH  20  21
HETATM   21  C   UNL     1     -12.857  14.711  72.614  1.00  0.00    -0.499 C  
BRANCH  21  22
HETATM   22  C   UNL     1     -12.149  15.920  72.014  1.00  0.00    -0.591 C  
HETATM   23  C   UNL     1     -11.038  15.495  71.071  1.00  0.00    -0.387 C  
ENDBRANCH  21  22
ENDBRANCH  20  21
ENDBRANCH  19  20
ENDBRANCH  18  19
ENDBRANCH  17  18
ENDBRANCH  16  17
ENDBRANCH  15  16
ENDBRANCH  14  15
ENDBRANCH  11  14
ENDBRANCH  10  11
ENDBRANCH   9  10
ENDBRANCH   8   9
ENDBRANCH   7   8
ENDBRANCH   6   7
ENDBRANCH   5   6
ENDBRANCH   4   5
ENDBRANCH   3   4
ENDBRANCH   2   3
TORSDOF 18
ENDMDL
MODEL      371
REMARK 921   NORMALIZED FREE ENERGY PREDICTED BY IDOCK:   -2.06 KCAL/MOL
REMARK 922        TOTAL FREE ENERGY PREDICTED BY IDOCK:   -6.92 KCAL/MOL
REMARK 923 INTER-LIGAND FREE ENERGY PREDICTED BY IDOCK:   -5.31 KCAL/MOL
REMARK 924 INTRA-LIGAND FREE ENERGY PREDICTED BY IDOCK:   -1.61 KCAL/MOL
REMARK 927      BINDING AFFINITY PREDICTED BY RF-SCORE:    0.00 PKD
ROOT
HETATM    1  C   UNL     1     -10.676   2.923  63.527  1.00  0.00    -0.228 C  
HETATM    2  C   UNL     1      -9.493   2.006  63.271  1.00  0.00    -0.095 C  
ENDROOT
BRANCH   2   3
HETATM    3  C   UNL     1      -8.903   1.489  64.580  1.00  0.00    -0.102 C  
BRANCH   3   4
HETATM    4  C   UNL     1      -7.391   1.681  64.601  1.00  0.00    -0.053 C  
BRANCH   4   5
HETATM    5  C   UNL     1      -6.998   2.797  65.557  1.00  0.00    -0.052 C  
BRANCH   5   6
HETATM    6  C   UNL     1      -6.366   3.959  64.798  1.00  0.00    -0.027 C  
BRANCH   6   7
HETATM    7  C   UNL     1      -6.940   5.275  65.293  1.00  0.00    -0.061 C  
BRANCH   7   8
HETATM    8  C   UNL     1      -8.446   5.355  65.062  1.00  0.00    -0.150 C  
BRANCH   8   9
HETATM    9  C   UNL     1      -9.099   5.860  66.341  1.00  0.00    -0.156 C  
BRANCH   9  10
HETATM   10  C   UNL     1      -8.276   6.951  67.011  1.00  0.00    -0.120 C  
BRANCH  10  11
HETATM   11  N   UNL     1      -8.987   8.329  66.993  1.00  0.00    -0.136 N  
HETATM   12  C   UNL     1     -10.505   8.143  66.970  1.00  0.00    -0.326 C  
HETATM   13  C   UNL     1      -8.585   9.149  68.221  1.00  0.00    -0.129 C  
BRANCH  11  14
HETATM   14  C   UNL     1      -8.513   9.037  65.697  1.00  0.00    -0.150 C  
BRANCH  14  15
HETATM   15  C   UNL     1      -9.412  10.200  65.303  1.00  0.00    -0.306 C  
BRANCH  15  16
HETATM   16  C   UNL     1      -9.540  10.339  63.793  1.00  0.00    -0.344 C  
BRANCH  16  17
HETATM   17  C   UNL     1     -10.698  11.286  63.495  1.00  0.00    -0.408 C  
BRANCH  17  18
HETATM   18  C   UNL     1     -10.481  12.652  64.124  1.00  0.00    -0.438 C  
BRANCH  18  19
HETATM   19  C   UNL     1     -11.790  13.430  64.130  1.00  0.00    -0.492 C  
BRANCH  19  20
HETATM   20  C   UNL     1     -12.382  13.470  65.535  1.00  0.00    -0.524 C  
BRANCH  20  21
HETATM   21  C   UNL     1     -11.315  13.816  66.568  1.00  0.00    -0.336 C  
BRANCH  21  22
HETATM   22  C   UNL     1     -11.815  13.521  67.978  1.00  0.00    -0.400 C  
HETATM   23  C   UNL     1     -10.879  14.095  69.026  1.00  0.00    -0.273 C  
ENDBRANCH  21  22
ENDBRANCH  20  21
ENDBRANCH  19  20
ENDBRANCH  18  19
ENDBRANCH  17  18
ENDBRANCH  16  17
ENDBRANCH  15  16
ENDBRANCH  14  15
ENDBRANCH  11  14
ENDBRANCH  10  11
ENDBRANCH   9  10
ENDBRANCH   8   9
ENDBRANCH   7   8
ENDBRANCH   6   7
ENDBRANCH   5   6
ENDBRANCH   4   5
ENDBRANCH   3   4
ENDBRANCH   2   3
TORSDOF 18
ENDMDL
MODEL      372
REMARK 921   NORMALIZED FREE ENERGY PREDICTED BY IDOCK:   -2.04 KCAL/MOL
REMARK 922        TOTAL FREE ENERGY PREDICTED BY IDOCK:   -6.89 KCAL/MOL
REMARK 923 INTER-LIGAND FREE ENERGY PREDICTED BY IDOCK:   -4.67 KCAL/MOL
REMARK 924 INTRA-LIGAND FREE ENERGY PREDICTED BY IDOCK:   -2.22 KCAL/MOL
REMARK 927      BINDING AFFINITY PREDICTED BY RF-SCORE:    0.00 PKD
ROOT
HETATM    1  C   UNL     1      -5.699   4.881  66.441  1.00  0.00    -0.018 C  
HETATM    2  C   UNL     1      -6.828   3.909  66.150  1.00  0.00    -0.057 C  
ENDROOT
BRANCH   2   3
HETATM    3  C   UNL     1      -7.212   3.935  64.673  1.00  0.00    -0.066 C  
BRANCH   3   4
HETATM    4  C   UNL     1      -8.645   4.424  64.499  1.00  0.00    -0.135 C  
BRANCH   4   5
HETATM    5  C   UNL     1      -9.575   3.747  65.495  1.00  0.00    -0.170 C  
BRANCH   5   6
HETATM    6  C   UNL     1     -10.574   4.748  66.066  1.00  0.00    -0.300 C  
BRANCH   6   7
HETATM    7  C   UNL     1     -10.116   5.209  67.440  1.00  0.00    -0.222 C  
BRANCH   7   8
HETATM    8  C   UNL     1     -10.969   6.361  67.962  1.00  0.00    -0.400 C  
BRANCH   8   9
HETATM    9  C   UNL     1     -11.193   6.153  69.452  1.00  0.00    -0.466 C  
BRANCH   9  10
HETATM   10  C   UNL     1     -11.693   7.417  70.137  1.00  0.00     0.001 C  
BRANCH  10  11
HETATM   11  N   UNL     1     -12.186   7.155  71.584  1.00  0.00    -0.331 N  
HETATM   12  C   UNL     1     -13.710   7.263  71.654  1.00  0.00    -0.347 C  
HETATM   13  C   UNL     1     -11.744   5.765  72.050  1.00  0.00    -0.110 C  
BRANCH  11  14
HETATM   14  C   UNL     1     -11.529   8.250  72.464  1.00  0.00    -0.384 C  
BRANCH  14  15
HETATM   15  C   UNL     1     -10.518   9.089  71.697  1.00  0.00    -0.426 C  
BRANCH  15  16
HETATM   16  C   UNL     1      -9.086   8.647  71.966  1.00  0.00    -0.311 C  
BRANCH  16  17
HETATM   17  C   UNL     1      -9.046   7.951  73.323  1.00  0.00    -0.341 C  
BRANCH  17  18
HETATM   18  C   UNL     1      -8.170   6.710  73.291  1.00  0.00    -0.120 C  
BRANCH  18  19
HETATM   19  C   UNL     1      -7.912   6.299  71.847  1.00  0.00    -0.102 C  
BRANCH  19  20
HETATM   20  C   UNL     1      -8.156   4.805  71.664  1.00  0.00    -0.104 C  
BRANCH  20  21
HETATM   21  C   UNL     1      -7.670   4.335  70.297  1.00  0.00    -0.045 C  
BRANCH  21  22
HETATM   22  C   UNL     1      -7.901   2.837  70.129  1.00  0.00    -0.048 C  
HETATM   23  C   UNL     1      -8.978   2.558  69.098  1.00  0.00    -0.169 C  
ENDBRANCH  21  22
ENDBRANCH  20  21
ENDBRANCH  19  20
ENDBRANCH  18  19
ENDBRANCH  17  18
ENDBRANCH  16  17
ENDBRANCH  15  16
ENDBRANCH  14  15
ENDBRANCH  11  14
ENDBRANCH  10  11
ENDBRANCH   9  10
ENDBRANCH   8   9
ENDBRANCH   7   8
ENDBRANCH   6   7
ENDBRANCH   5   6
ENDBRANCH   4   5
ENDBRANCH   3   4
ENDBRANCH   2   3
TORSDOF 18
ENDMDL
MODEL      373
REMARK 921   NORMALIZED FREE ENERGY PREDICTED BY IDOCK:   -2.04 KCAL/MOL
REMARK 922        TOTAL FREE ENERGY PREDICTED BY IDOCK:   -6.89 KCAL/MOL
REMARK 923 INTER-LIGAND FREE ENERGY PREDICTED BY IDOCK:   -5.77 KCAL/MOL
REMARK 924 INTRA-LIGAND FREE ENERGY PREDICTED BY IDOCK:   -1.12 KCAL/MOL
REMARK 927      BINDING AFFINITY PREDICTED BY RF-SCORE:    0.00 PKD
ROOT
HETATM    1  C   UNL     1     -10.164   1.661  63.347  1.00  0.00    -0.128 C  
HETATM    2  C   UNL     1      -8.690   1.989  63.499  1.00  0.00    -0.084 C  
ENDROOT
BRANCH   2   3
HETATM    3  C   UNL     1      -8.486   3.461  63.845  1.00  0.00    -0.090 C  
BRANCH   3   4
HETATM    4  C   UNL     1      -9.733   4.036  64.508  1.00  0.00    -0.182 C  
BRANCH   4   5
HETATM    5  C   UNL     1      -9.507   4.250  65.997  1.00  0.00    -0.177 C  
BRANCH   5   6
HETATM    6  C   UNL     1      -8.110   4.805  66.255  1.00  0.00    -0.107 C  
BRANCH   6   7
HETATM    7  C   UNL     1      -8.131   6.322  66.164  1.00  0.00    -0.116 C  
BRANCH   7   8
HETATM    8  C   UNL     1      -9.353   6.912  66.860  1.00  0.00    -0.177 C  
BRANCH   8   9
HETATM    9  C   UNL     1      -8.890   7.591  68.142  1.00  0.00    -0.127 C  
BRANCH   9  10
HETATM   10  C   UNL     1      -9.386   6.864  69.384  1.00  0.00    -0.146 C  
BRANCH  10  11
HETATM   11  N   UNL     1     -10.078   7.815  70.394  1.00  0.00    -0.193 N  
HETATM   12  C   UNL     1     -11.532   7.393  70.610  1.00  0.00    -0.282 C  
HETATM   13  C   UNL     1      -9.333   7.801  71.731  1.00  0.00    -0.141 C  
BRANCH  11  14
HETATM   14  C   UNL     1     -10.017   9.229  69.761  1.00  0.00    -0.199 C  
BRANCH  14  15
HETATM   15  C   UNL     1     -11.380   9.720  69.294  1.00  0.00    -0.059 C  
BRANCH  15  16
HETATM   16  C   UNL     1     -11.353  11.190  68.898  1.00  0.00    -0.344 C  
BRANCH  16  17
HETATM   17  C   UNL     1     -11.717  12.024  70.122  1.00  0.00    -0.316 C  
BRANCH  17  18
HETATM   18  C   UNL     1     -12.422  11.190  71.178  1.00  0.00    -0.498 C  
BRANCH  18  19
HETATM   19  C   UNL     1     -13.524  12.012  71.833  1.00  0.00    -0.305 C  
BRANCH  19  20
HETATM   20  C   UNL     1     -13.379  13.486  71.472  1.00  0.00    -0.363 C  
BRANCH  20  21
HETATM   21  C   UNL     1     -13.517  14.368  72.710  1.00  0.00    -0.582 C  
BRANCH  21  22
HETATM   22  C   UNL     1     -13.320  15.836  72.349  1.00  0.00    -0.545 C  
HETATM   23  C   UNL     1     -11.861  16.239  72.458  1.00  0.00    -0.608 C  
ENDBRANCH  21  22
ENDBRANCH  20  21
ENDBRANCH  19  20
ENDBRANCH  18  19
ENDBRANCH  17  18
ENDBRANCH  16  17
ENDBRANCH  15  16
ENDBRANCH  14  15
ENDBRANCH  11  14
ENDBRANCH  10  11
ENDBRANCH   9  10
ENDBRANCH   8   9
ENDBRANCH   7   8
ENDBRANCH   6   7
ENDBRANCH   5   6
ENDBRANCH   4   5
ENDBRANCH   3   4
ENDBRANCH   2   3
TORSDOF 18
ENDMDL
MODEL      374
REMARK 921   NORMALIZED FREE ENERGY PREDICTED BY IDOCK:   -2.03 KCAL/MOL
REMARK 922        TOTAL FREE ENERGY PREDICTED BY IDOCK:   -6.87 KCAL/MOL
REMARK 923 INTER-LIGAND FREE ENERGY PREDICTED BY IDOCK:   -5.49 KCAL/MOL
REMARK 924 INTRA-LIGAND FREE ENERGY PREDICTED BY IDOCK:   -1.38 KCAL/MOL
REMARK 927      BINDING AFFINITY PREDICTED BY RF-SCORE:    0.00 PKD
ROOT
HETATM    1  C   UNL     1      -8.727   3.393  69.654  1.00  0.00    -0.129 C  
HETATM    2  C   UNL     1      -9.098   4.383  70.742  1.00  0.00    -0.182 C  
ENDROOT
BRANCH   2   3
HETATM    3  C   UNL     1      -9.064   5.816  70.220  1.00  0.00    -0.160 C  
BRANCH   3   4
HETATM    4  C   UNL     1     -10.180   6.644  70.846  1.00  0.00    -0.219 C  
BRANCH   4   5
HETATM    5  C   UNL     1     -11.190   7.078  69.795  1.00  0.00    -0.257 C  
BRANCH   5   6
HETATM    6  C   UNL     1     -10.604   6.935  68.394  1.00  0.00    -0.249 C  
BRANCH   6   7
HETATM    7  C   UNL     1     -10.679   8.265  67.664  1.00  0.00    -0.195 C  
BRANCH   7   8
HETATM    8  C   UNL     1      -9.486   9.157  67.992  1.00  0.00    -0.157 C  
BRANCH   8   9
HETATM    9  C   UNL     1     -10.011  10.521  68.417  1.00  0.00    -0.177 C  
BRANCH   9  10
HETATM   10  C   UNL     1     -10.864  11.167  67.334  1.00  0.00    -0.266 C  
BRANCH  10  11
HETATM   11  N   UNL     1     -10.746  12.713  67.328  1.00  0.00    -0.234 N  
HETATM   12  C   UNL     1     -10.449  13.218  65.915  1.00  0.00    -0.285 C  
HETATM   13  C   UNL     1     -12.044  13.344  67.839  1.00  0.00    -0.251 C  
BRANCH  11  14
HETATM   14  C   UNL     1      -9.571  13.057  68.279  1.00  0.00    -0.213 C  
BRANCH  14  15
HETATM   15  C   UNL     1      -8.930  14.399  67.957  1.00  0.00    -0.183 C  
BRANCH  15  16
HETATM   16  C   UNL     1      -9.018  15.370  69.125  1.00  0.00    -0.245 C  
BRANCH  16  17
HETATM   17  C   UNL     1      -9.995  16.481  68.753  1.00  0.00    -0.255 C  
BRANCH  17  18
HETATM   18  C   UNL     1      -9.858  16.882  67.294  1.00  0.00    -0.265 C  
BRANCH  18  19
HETATM   19  C   UNL     1     -10.130  18.372  67.142  1.00  0.00    -0.371 C  
BRANCH  19  20
HETATM   20  C   UNL     1      -8.867  19.178  67.424  1.00  0.00    -0.324 C  
BRANCH  20  21
HETATM   21  C   UNL     1      -8.328  19.815  66.146  1.00  0.00    -0.368 C  
BRANCH  21  22
HETATM   22  C   UNL     1      -6.806  19.897  66.187  1.00  0.00    -0.253 C  
HETATM   23  C   UNL     1      -6.302  20.089  67.605  1.00  0.00    -0.249 C  
ENDBRANCH  21  22
ENDBRANCH  20  21
ENDBRANCH  19  20
ENDBRANCH  18  19
ENDBRANCH  17  18
ENDBRANCH  16  17
ENDBRANCH  15  16
ENDBRANCH  14  15
ENDBRANCH  11  14
ENDBRANCH  10  11
ENDBRANCH   9  10
ENDBRANCH   8   9
ENDBRANCH   7   8
ENDBRANCH   6   7
ENDBRANCH   5   6
ENDBRANCH   4   5
ENDBRANCH   3   4
ENDBRANCH   2   3
TORSDOF 18
ENDMDL
MODEL      375
REMARK 921   NORMALIZED FREE ENERGY PREDICTED BY IDOCK:   -2.00 KCAL/MOL
REMARK 922        TOTAL FREE ENERGY PREDICTED BY IDOCK:   -6.80 KCAL/MOL
REMARK 923 INTER-LIGAND FREE ENERGY PREDICTED BY IDOCK:   -5.67 KCAL/MOL
REMARK 924 INTRA-LIGAND FREE ENERGY PREDICTED BY IDOCK:   -1.14 KCAL/MOL
REMARK 927      BINDING AFFINITY PREDICTED BY RF-SCORE:    0.00 PKD
ROOT
HETATM    1  C   UNL     1      -7.376  16.187  69.173  1.00  0.00    -0.215 C  
HETATM    2  C   UNL     1      -7.901  16.196  67.749  1.00  0.00    -0.157 C  
ENDROOT
BRANCH   2   3
HETATM    3  C   UNL     1      -9.270  16.865  67.671  1.00  0.00    -0.228 C  
BRANCH   3   4
HETATM    4  C   UNL     1     -10.140  16.188  66.617  1.00  0.00    -0.283 C  
BRANCH   4   5
HETATM    5  C   UNL     1      -9.379  15.067  65.924  1.00  0.00    -0.249 C  
BRANCH   5   6
HETATM    6  C   UNL     1     -10.192  14.505  64.762  1.00  0.00    -0.234 C  
BRANCH   6   7
HETATM    7  C   UNL     1     -11.588  14.139  65.236  1.00  0.00    -0.341 C  
BRANCH   7   8
HETATM    8  C   UNL     1     -11.813  12.630  65.218  1.00  0.00    -0.452 C  
BRANCH   8   9
HETATM    9  C   UNL     1     -10.817  11.986  66.171  1.00  0.00    -0.325 C  
BRANCH   9  10
HETATM   10  C   UNL     1     -11.479  11.517  67.459  1.00  0.00    -0.282 C  
BRANCH  10  11
HETATM   11  N   UNL     1     -10.855  12.168  68.721  1.00  0.00    -0.227 N  
HETATM   12  C   UNL     1      -9.333  12.015  68.699  1.00  0.00    -0.050 C  
HETATM   13  C   UNL     1     -11.224  13.652  68.789  1.00  0.00    -0.279 C  
BRANCH  11  14
HETATM   14  C   UNL     1     -11.454  11.410  69.934  1.00  0.00    -0.273 C  
BRANCH  14  15
HETATM   15  C   UNL     1     -11.133   9.922  69.910  1.00  0.00    -0.318 C  
BRANCH  15  16
HETATM   16  C   UNL     1     -11.068   9.329  71.310  1.00  0.00    -0.427 C  
BRANCH  16  17
HETATM   17  C   UNL     1     -11.789   7.985  71.297  1.00  0.00    -0.321 C  
BRANCH  17  18
HETATM   18  C   UNL     1     -11.105   6.972  72.199  1.00  0.00    -0.279 C  
BRANCH  18  19
HETATM   19  C   UNL     1      -9.936   7.630  72.920  1.00  0.00    -0.319 C  
BRANCH  19  20
HETATM   20  C   UNL     1      -8.877   6.594  73.278  1.00  0.00    -0.136 C  
BRANCH  20  21
HETATM   21  C   UNL     1      -7.701   7.243  74.002  1.00  0.00    -0.134 C  
BRANCH  21  22
HETATM   22  C   UNL     1      -7.261   8.513  73.282  1.00  0.00    -0.048 C  
HETATM   23  C   UNL     1      -5.812   8.845  73.588  1.00  0.00    -0.090 C  
ENDBRANCH  21  22
ENDBRANCH  20  21
ENDBRANCH  19  20
ENDBRANCH  18  19
ENDBRANCH  17  18
ENDBRANCH  16  17
ENDBRANCH  15  16
ENDBRANCH  14  15
ENDBRANCH  11  14
ENDBRANCH  10  11
ENDBRANCH   9  10
ENDBRANCH   8   9
ENDBRANCH   7   8
ENDBRANCH   6   7
ENDBRANCH   5   6
ENDBRANCH   4   5
ENDBRANCH   3   4
ENDBRANCH   2   3
TORSDOF 18
ENDMDL
MODEL      376
REMARK 921   NORMALIZED FREE ENERGY PREDICTED BY IDOCK:   -1.98 KCAL/MOL
REMARK 922        TOTAL FREE ENERGY PREDICTED BY IDOCK:   -6.77 KCAL/MOL
REMARK 923 INTER-LIGAND FREE ENERGY PREDICTED BY IDOCK:   -5.38 KCAL/MOL
REMARK 924 INTRA-LIGAND FREE ENERGY PREDICTED BY IDOCK:   -1.39 KCAL/MOL
REMARK 927      BINDING AFFINITY PREDICTED BY RF-SCORE:    0.00 PKD
ROOT
HETATM    1  C   UNL     1     -11.944  12.558  69.840  1.00  0.00    -0.371 C  
HETATM    2  C   UNL     1     -11.113  11.341  69.478  1.00  0.00    -0.299 C  
ENDROOT
BRANCH   2   3
HETATM    3  C   UNL     1     -11.773  10.056  69.970  1.00  0.00    -0.242 C  
BRANCH   3   4
HETATM    4  C   UNL     1     -12.857  10.367  70.995  1.00  0.00    -0.494 C  
BRANCH   4   5
HETATM    5  C   UNL     1     -12.941   9.271  72.047  1.00  0.00    -0.504 C  
BRANCH   5   6
HETATM    6  C   UNL     1     -11.550   8.748  72.391  1.00  0.00    -0.321 C  
BRANCH   6   7
HETATM    7  C   UNL     1     -11.502   7.242  72.197  1.00  0.00    -0.310 C  
BRANCH   7   8
HETATM    8  C   UNL     1     -11.418   6.866  70.721  1.00  0.00    -0.381 C  
BRANCH   8   9
HETATM    9  C   UNL     1     -10.446   5.703  70.579  1.00  0.00    -0.347 C  
BRANCH   9  10
HETATM   10  C   UNL     1      -8.995   6.161  70.636  1.00  0.00    -0.147 C  
BRANCH  10  11
HETATM   11  N   UNL     1      -8.050   5.249  69.811  1.00  0.00    -0.086 N  
HETATM   12  C   UNL     1      -6.863   4.804  70.666  1.00  0.00    -0.037 C  
HETATM   13  C   UNL     1      -8.810   4.022  69.303  1.00  0.00    -0.094 C  
BRANCH  11  14
HETATM   14  C   UNL     1      -7.561   6.110  68.618  1.00  0.00    -0.092 C  
BRANCH  14  15
HETATM   15  C   UNL     1      -8.709   6.699  67.812  1.00  0.00    -0.116 C  
BRANCH  15  16
HETATM   16  C   UNL     1      -8.285   7.936  67.032  1.00  0.00    -0.117 C  
BRANCH  16  17
HETATM   17  C   UNL     1      -8.802   9.168  67.767  1.00  0.00    -0.125 C  
BRANCH  17  18
HETATM   18  C   UNL     1      -8.186  10.445  67.222  1.00  0.00    -0.121 C  
BRANCH  18  19
HETATM   19  C   UNL     1      -8.946  10.896  65.982  1.00  0.00    -0.200 C  
BRANCH  19  20
HETATM   20  C   UNL     1      -9.910  12.026  66.326  1.00  0.00    -0.250 C  
BRANCH  20  21
HETATM   21  C   UNL     1     -11.216  11.886  65.551  1.00  0.00    -0.353 C  
BRANCH  21  22
HETATM   22  C   UNL     1     -10.941  11.590  64.081  1.00  0.00    -0.434 C  
HETATM   23  C   UNL     1     -10.047  12.650  63.465  1.00  0.00     0.059 C  
ENDBRANCH  21  22
ENDBRANCH  20  21
ENDBRANCH  19  20
ENDBRANCH  18  19
ENDBRANCH  17  18
ENDBRANCH  16  17
ENDBRANCH  15  16
ENDBRANCH  14  15
ENDBRANCH  11  14
ENDBRANCH  10  11
ENDBRANCH   9  10
ENDBRANCH   8   9
ENDBRANCH   7   8
ENDBRANCH   6   7
ENDBRANCH   5   6
ENDBRANCH   4   5
ENDBRANCH   3   4
ENDBRANCH   2   3
TORSDOF 18
ENDMDL
MODEL      377
REMARK 921   NORMALIZED FREE ENERGY PREDICTED BY IDOCK:   -1.98 KCAL/MOL
REMARK 922        TOTAL FREE ENERGY PREDICTED BY IDOCK:   -6.76 KCAL/MOL
REMARK 923 INTER-LIGAND FREE ENERGY PREDICTED BY IDOCK:   -5.96 KCAL/MOL
REMARK 924 INTRA-LIGAND FREE ENERGY PREDICTED BY IDOCK:   -0.80 KCAL/MOL
REMARK 927      BINDING AFFINITY PREDICTED BY RF-SCORE:    0.00 PKD
ROOT
HETATM    1  C   UNL     1      -7.300   1.678  68.302  1.00  0.00    -0.043 C  
HETATM    2  C   UNL     1      -8.668   2.228  68.657  1.00  0.00    -0.127 C  
ENDROOT
BRANCH   2   3
HETATM    3  C   UNL     1      -9.290   2.966  67.475  1.00  0.00    -0.218 C  
BRANCH   3   4
HETATM    4  C   UNL     1      -9.663   4.391  67.867  1.00  0.00    -0.186 C  
BRANCH   4   5
HETATM    5  C   UNL     1      -9.738   4.536  69.380  1.00  0.00    -0.272 C  
BRANCH   5   6
HETATM    6  C   UNL     1      -9.660   6.005  69.784  1.00  0.00    -0.180 C  
BRANCH   6   7
HETATM    7  C   UNL     1      -9.297   6.854  68.578  1.00  0.00    -0.134 C  
BRANCH   7   8
HETATM    8  C   UNL     1     -10.404   7.845  68.232  1.00  0.00    -0.239 C  
BRANCH   8   9
HETATM    9  C   UNL     1     -10.185   8.327  66.805  1.00  0.00    -0.375 C  
BRANCH   9  10
HETATM   10  C   UNL     1     -10.258   9.844  66.696  1.00  0.00    -0.226 C  
BRANCH  10  11
HETATM   11  N   UNL     1      -9.259  10.415  65.657  1.00  0.00    -0.172 N  
HETATM   12  C   UNL     1      -8.022   9.521  65.563  1.00  0.00    -0.112 C  
HETATM   13  C   UNL     1      -9.926  10.521  64.284  1.00  0.00    -0.331 C  
BRANCH  11  14
HETATM   14  C   UNL     1      -8.865  11.824  66.172  1.00  0.00    -0.107 C  
BRANCH  14  15
HETATM   15  C   UNL     1      -9.980  12.844  65.996  1.00  0.00    -0.275 C  
BRANCH  15  16
HETATM   16  C   UNL     1     -10.867  12.941  67.229  1.00  0.00    -0.277 C  
BRANCH  16  17
HETATM   17  C   UNL     1     -11.820  14.117  67.042  1.00  0.00    -0.458 C  
BRANCH  17  18
HETATM   18  C   UNL     1     -11.854  15.012  68.269  1.00  0.00    -0.295 C  
BRANCH  18  19
HETATM   19  C   UNL     1     -10.571  15.829  68.347  1.00  0.00    -0.264 C  
BRANCH  19  20
HETATM   20  C   UNL     1     -10.291  16.513  67.013  1.00  0.00    -0.301 C  
BRANCH  20  21
HETATM   21  C   UNL     1      -9.557  17.835  67.220  1.00  0.00    -0.272 C  
BRANCH  21  22
HETATM   22  C   UNL     1     -10.294  18.974  66.524  1.00  0.00    -0.512 C  
HETATM   23  C   UNL     1      -9.687  20.319  66.877  1.00  0.00    -0.584 C  
ENDBRANCH  21  22
ENDBRANCH  20  21
ENDBRANCH  19  20
ENDBRANCH  18  19
ENDBRANCH  17  18
ENDBRANCH  16  17
ENDBRANCH  15  16
ENDBRANCH  14  15
ENDBRANCH  11  14
ENDBRANCH  10  11
ENDBRANCH   9  10
ENDBRANCH   8   9
ENDBRANCH   7   8
ENDBRANCH   6   7
ENDBRANCH   5   6
ENDBRANCH   4   5
ENDBRANCH   3   4
ENDBRANCH   2   3
TORSDOF 18
ENDMDL
MODEL      378
REMARK 921   NORMALIZED FREE ENERGY PREDICTED BY IDOCK:   -1.97 KCAL/MOL
REMARK 922        TOTAL FREE ENERGY PREDICTED BY IDOCK:   -6.75 KCAL/MOL
REMARK 923 INTER-LIGAND FREE ENERGY PREDICTED BY IDOCK:   -5.48 KCAL/MOL
REMARK 924 INTRA-LIGAND FREE ENERGY PREDICTED BY IDOCK:   -1.27 KCAL/MOL
REMARK 927      BINDING AFFINITY PREDICTED BY RF-SCORE:    0.00 PKD
ROOT
HETATM    1  C   UNL     1     -10.699   5.620  70.565  1.00  0.00    -0.344 C  
HETATM    2  C   UNL     1      -9.792   6.809  70.822  1.00  0.00    -0.194 C  
ENDROOT
BRANCH   2   3
HETATM    3  C   UNL     1     -10.346   8.075  70.174  1.00  0.00    -0.215 C  
BRANCH   3   4
HETATM    4  C   UNL     1     -10.280   7.975  68.655  1.00  0.00    -0.225 C  
BRANCH   4   5
HETATM    5  C   UNL     1      -8.837   7.890  68.178  1.00  0.00    -0.125 C  
BRANCH   5   6
HETATM    6  C   UNL     1      -8.586   8.878  67.043  1.00  0.00    -0.120 C  
BRANCH   6   7
HETATM    7  C   UNL     1      -9.865   9.094  66.253  1.00  0.00    -0.359 C  
BRANCH   7   8
HETATM    8  C   UNL     1      -9.754  10.290  65.314  1.00  0.00    -0.354 C  
BRANCH   8   9
HETATM    9  C   UNL     1      -9.877  11.561  66.142  1.00  0.00    -0.250 C  
BRANCH   9  10
HETATM   10  C   UNL     1     -10.763  12.599  65.468  1.00  0.00    -0.274 C  
BRANCH  10  11
HETATM   11  N   UNL     1     -11.706  13.317  66.468  1.00  0.00    -0.358 N  
HETATM   12  C   UNL     1     -12.997  13.744  65.769  1.00  0.00    -0.256 C  
HETATM   13  C   UNL     1     -12.036  12.391  67.641  1.00  0.00    -0.180 C  
BRANCH  11  14
HETATM   14  C   UNL     1     -10.929  14.562  66.969  1.00  0.00    -0.312 C  
BRANCH  14  15
HETATM   15  C   UNL     1     -10.735  15.608  65.881  1.00  0.00    -0.336 C  
BRANCH  15  16
HETATM   16  C   UNL     1      -9.263  15.861  65.586  1.00  0.00    -0.104 C  
BRANCH  16  17
HETATM   17  C   UNL     1      -8.434  15.212  66.689  1.00  0.00    -0.230 C  
BRANCH  17  18
HETATM   18  C   UNL     1      -7.756  16.252  67.565  1.00  0.00    -0.169 C  
BRANCH  18  19
HETATM   19  C   UNL     1      -7.682  15.748  69.001  1.00  0.00    -0.202 C  
BRANCH  19  20
HETATM   20  C   UNL     1      -6.509  16.390  69.733  1.00  0.00    -0.153 C  
BRANCH  20  21
HETATM   21  C   UNL     1      -6.057  17.666  69.030  1.00  0.00    -0.206 C  
BRANCH  21  22
HETATM   22  C   UNL     1      -5.415  18.628  70.022  1.00  0.00    -0.231 C  
HETATM   23  C   UNL     1      -6.329  19.802  70.322  1.00  0.00    -0.280 C  
ENDBRANCH  21  22
ENDBRANCH  20  21
ENDBRANCH  19  20
ENDBRANCH  18  19
ENDBRANCH  17  18
ENDBRANCH  16  17
ENDBRANCH  15  16
ENDBRANCH  14  15
ENDBRANCH  11  14
ENDBRANCH  10  11
ENDBRANCH   9  10
ENDBRANCH   8   9
ENDBRANCH   7   8
ENDBRANCH   6   7
ENDBRANCH   5   6
ENDBRANCH   4   5
ENDBRANCH   3   4
ENDBRANCH   2   3
TORSDOF 18
ENDMDL
MODEL      379
REMARK 921   NORMALIZED FREE ENERGY PREDICTED BY IDOCK:   -1.97 KCAL/MOL
REMARK 922        TOTAL FREE ENERGY PREDICTED BY IDOCK:   -6.75 KCAL/MOL
REMARK 923 INTER-LIGAND FREE ENERGY PREDICTED BY IDOCK:   -5.52 KCAL/MOL
REMARK 924 INTRA-LIGAND FREE ENERGY PREDICTED BY IDOCK:   -1.23 KCAL/MOL
REMARK 927      BINDING AFFINITY PREDICTED BY RF-SCORE:    0.00 PKD
ROOT
HETATM    1  C   UNL     1      -9.990   6.443  71.262  1.00  0.00    -0.204 C  
HETATM    2  C   UNL     1     -11.158   7.328  70.867  1.00  0.00    -0.284 C  
ENDROOT
BRANCH   2   3
HETATM    3  C   UNL     1     -12.299   7.217  71.873  1.00  0.00    -0.352 C  
BRANCH   3   4
HETATM    4  C   UNL     1     -12.840   8.597  72.228  1.00  0.00    -0.438 C  
BRANCH   4   5
HETATM    5  C   UNL     1     -11.815   9.678  71.917  1.00  0.00    -0.280 C  
BRANCH   5   6
HETATM    6  C   UNL     1     -12.507  10.990  71.563  1.00  0.00    -0.389 C  
BRANCH   6   7
HETATM    7  C   UNL     1     -12.861  11.005  70.085  1.00  0.00    -0.109 C  
BRANCH   7   8
HETATM    8  C   UNL     1     -11.638  11.275  69.215  1.00  0.00    -0.390 C  
BRANCH   8   9
HETATM    9  C   UNL     1     -11.836  12.611  68.513  1.00  0.00    -0.342 C  
BRANCH   9  10
HETATM   10  C   UNL     1     -11.433  12.552  67.046  1.00  0.00    -0.356 C  
BRANCH  10  11
HETATM   11  N   UNL     1     -11.177  13.957  66.442  1.00  0.00    -0.310 N  
HETATM   12  C   UNL     1     -10.505  13.832  65.074  1.00  0.00    -0.402 C  
HETATM   13  C   UNL     1     -12.496  14.721  66.302  1.00  0.00     0.193 C  
BRANCH  11  14
HETATM   14  C   UNL     1     -10.238  14.686  67.438  1.00  0.00    -0.240 C  
BRANCH  14  15
HETATM   15  C   UNL     1      -8.775  14.604  67.029  1.00  0.00    -0.258 C  
BRANCH  15  16
HETATM   16  C   UNL     1      -7.932  13.872  68.064  1.00  0.00    -0.154 C  
BRANCH  16  17
HETATM   17  C   UNL     1      -7.680  14.819  69.233  1.00  0.00    -0.129 C  
BRANCH  17  18
HETATM   18  C   UNL     1      -6.206  14.875  69.600  1.00  0.00    -0.133 C  
BRANCH  18  19
HETATM   19  C   UNL     1      -5.916  16.156  70.371  1.00  0.00    -0.001 C  
BRANCH  19  20
HETATM   20  C   UNL     1      -5.372  17.232  69.436  1.00  0.00    -0.170 C  
BRANCH  20  21
HETATM   21  C   UNL     1      -6.501  18.100  68.888  1.00  0.00    -0.230 C  
BRANCH  21  22
HETATM   22  C   UNL     1      -5.948  19.178  67.962  1.00  0.00    -0.222 C  
HETATM   23  C   UNL     1      -6.986  20.251  67.685  1.00  0.00    -0.317 C  
ENDBRANCH  21  22
ENDBRANCH  20  21
ENDBRANCH  19  20
ENDBRANCH  18  19
ENDBRANCH  17  18
ENDBRANCH  16  17
ENDBRANCH  15  16
ENDBRANCH  14  15
ENDBRANCH  11  14
ENDBRANCH  10  11
ENDBRANCH   9  10
ENDBRANCH   8   9
ENDBRANCH   7   8
ENDBRANCH   6   7
ENDBRANCH   5   6
ENDBRANCH   4   5
ENDBRANCH   3   4
ENDBRANCH   2   3
TORSDOF 18
ENDMDL
MODEL      380
REMARK 921   NORMALIZED FREE ENERGY PREDICTED BY IDOCK:   -1.97 KCAL/MOL
REMARK 922        TOTAL FREE ENERGY PREDICTED BY IDOCK:   -6.74 KCAL/MOL
REMARK 923 INTER-LIGAND FREE ENERGY PREDICTED BY IDOCK:   -4.40 KCAL/MOL
REMARK 924 INTRA-LIGAND FREE ENERGY PREDICTED BY IDOCK:   -2.34 KCAL/MOL
REMARK 927      BINDING AFFINITY PREDICTED BY RF-SCORE:    0.00 PKD
ROOT
HETATM    1  C   UNL     1     -10.938   6.156  66.919  1.00  0.00    -0.384 C  
HETATM    2  C   UNL     1      -9.965   5.008  66.728  1.00  0.00    -0.242 C  
ENDROOT
BRANCH   2   3
HETATM    3  C   UNL     1      -8.759   5.438  65.898  1.00  0.00    -0.145 C  
BRANCH   3   4
HETATM    4  C   UNL     1      -8.538   6.942  66.009  1.00  0.00    -0.150 C  
BRANCH   4   5
HETATM    5  C   UNL     1      -7.074   7.259  66.273  1.00  0.00    -0.077 C  
BRANCH   5   6
HETATM    6  C   UNL     1      -6.285   5.979  66.532  1.00  0.00    -0.037 C  
BRANCH   6   7
HETATM    7  C   UNL     1      -5.412   6.150  67.764  1.00  0.00    -0.005 C  
BRANCH   7   8
HETATM    8  C   UNL     1      -6.215   6.653  68.959  1.00  0.00    -0.027 C  
BRANCH   8   9
HETATM    9  C   UNL     1      -6.884   5.458  69.623  1.00  0.00    -0.060 C  
BRANCH   9  10
HETATM   10  C   UNL     1      -8.343   5.733  69.958  1.00  0.00    -0.123 C  
BRANCH  10  11
HETATM   11  N   UNL     1      -8.803   5.012  71.252  1.00  0.00    -0.132 N  
HETATM   12  C   UNL     1     -10.181   4.381  71.047  1.00  0.00    -0.051 C  
HETATM   13  C   UNL     1      -7.792   3.931  71.642  1.00  0.00    -0.062 C  
BRANCH  11  14
HETATM   14  C   UNL     1      -8.870   6.105  72.350  1.00  0.00    -0.136 C  
BRANCH  14  15
HETATM   15  C   UNL     1      -9.240   7.472  71.792  1.00  0.00    -0.162 C  
BRANCH  15  16
HETATM   16  C   UNL     1     -10.743   7.711  71.812  1.00  0.00    -0.252 C  
BRANCH  16  17
HETATM   17  C   UNL     1     -10.997   9.191  71.545  1.00  0.00    -0.434 C  
BRANCH  17  18
HETATM   18  C   UNL     1     -12.482   9.511  71.534  1.00  0.00    -0.463 C  
BRANCH  18  19
HETATM   19  C   UNL     1     -12.778  10.549  70.460  1.00  0.00    -0.385 C  
BRANCH  19  20
HETATM   20  C   UNL     1     -11.482  11.134  69.909  1.00  0.00    -0.386 C  
BRANCH  20  21
HETATM   21  C   UNL     1     -11.360  10.880  68.410  1.00  0.00    -0.370 C  
BRANCH  21  22
HETATM   22  C   UNL     1      -9.896  10.774  67.999  1.00  0.00    -0.180 C  
HETATM   23  C   UNL     1      -9.243   9.543  68.600  1.00  0.00    -0.135 C  
ENDBRANCH  21  22
ENDBRANCH  20  21
ENDBRANCH  19  20
ENDBRANCH  18  19
ENDBRANCH  17  18
ENDBRANCH  16  17
ENDBRANCH  15  16
ENDBRANCH  14  15
ENDBRANCH  11  14
ENDBRANCH  10  11
ENDBRANCH   9  10
ENDBRANCH   8   9
ENDBRANCH   7   8
ENDBRANCH   6   7
ENDBRANCH   5   6
ENDBRANCH   4   5
ENDBRANCH   3   4
ENDBRANCH   2   3
TORSDOF 18
ENDMDL
MODEL      381
REMARK 921   NORMALIZED FREE ENERGY PREDICTED BY IDOCK:   -1.96 KCAL/MOL
REMARK 922        TOTAL FREE ENERGY PREDICTED BY IDOCK:   -6.72 KCAL/MOL
REMARK 923 INTER-LIGAND FREE ENERGY PREDICTED BY IDOCK:   -5.03 KCAL/MOL
REMARK 924 INTRA-LIGAND FREE ENERGY PREDICTED BY IDOCK:   -1.69 KCAL/MOL
REMARK 927      BINDING AFFINITY PREDICTED BY RF-SCORE:    0.00 PKD
ROOT
HETATM    1  C   UNL     1     -10.489   3.448  63.513  1.00  0.00    -0.248 C  
HETATM    2  C   UNL     1      -9.240   2.836  62.908  1.00  0.00    -0.094 C  
ENDROOT
BRANCH   2   3
HETATM    3  C   UNL     1      -8.463   2.029  63.945  1.00  0.00    -0.081 C  
BRANCH   3   4
HETATM    4  C   UNL     1      -6.962   2.215  63.757  1.00  0.00    -0.036 C  
BRANCH   4   5
HETATM    5  C   UNL     1      -6.405   3.200  64.774  1.00  0.00    -0.024 C  
BRANCH   5   6
HETATM    6  C   UNL     1      -5.572   4.275  64.083  1.00  0.00    -0.014 C  
BRANCH   6   7
HETATM    7  C   UNL     1      -6.102   5.652  64.443  1.00  0.00    -0.025 C  
BRANCH   7   8
HETATM    8  C   UNL     1      -7.403   5.966  63.710  1.00  0.00    -0.064 C  
BRANCH   8   9
HETATM    9  C   UNL     1      -8.331   6.692  64.673  1.00  0.00     0.025 C  
BRANCH   9  10
HETATM   10  C   UNL     1      -7.615   7.804  65.428  1.00  0.00    -0.089 C  
BRANCH  10  11
HETATM   11  N   UNL     1      -8.364   9.160  65.340  1.00  0.00    -0.133 N  
HETATM   12  C   UNL     1      -7.526  10.271  65.975  1.00  0.00    -0.128 C  
HETATM   13  C   UNL     1      -8.659   9.507  63.879  1.00  0.00    -0.212 C  
BRANCH  11  14
HETATM   14  C   UNL     1      -9.687   8.969  66.124  1.00  0.00    -0.283 C  
BRANCH  14  15
HETATM   15  C   UNL     1     -10.199  10.267  66.732  1.00  0.00    -0.286 C  
BRANCH  15  16
HETATM   16  C   UNL     1     -10.545  10.111  68.206  1.00  0.00    -0.262 C  
BRANCH  16  17
HETATM   17  C   UNL     1     -11.291  11.362  68.659  1.00  0.00    -0.327 C  
BRANCH  17  18
HETATM   18  C   UNL     1     -11.798  12.171  67.477  1.00  0.00    -0.307 C  
BRANCH  18  19
HETATM   19  C   UNL     1     -11.556  13.654  67.725  1.00  0.00    -0.373 C  
BRANCH  19  20
HETATM   20  C   UNL     1     -11.744  14.449  66.438  1.00  0.00    -0.397 C  
BRANCH  20  21
HETATM   21  C   UNL     1     -12.689  13.728  65.483  1.00  0.00    -0.530 C  
BRANCH  21  22
HETATM   22  C   UNL     1     -12.030  13.526  64.123  1.00  0.00    -0.498 C  
HETATM   23  C   UNL     1     -12.165  12.089  63.653  1.00  0.00    -0.642 C  
ENDBRANCH  21  22
ENDBRANCH  20  21
ENDBRANCH  19  20
ENDBRANCH  18  19
ENDBRANCH  17  18
ENDBRANCH  16  17
ENDBRANCH  15  16
ENDBRANCH  14  15
ENDBRANCH  11  14
ENDBRANCH  10  11
ENDBRANCH   9  10
ENDBRANCH   8   9
ENDBRANCH   7   8
ENDBRANCH   6   7
ENDBRANCH   5   6
ENDBRANCH   4   5
ENDBRANCH   3   4
ENDBRANCH   2   3
TORSDOF 18
ENDMDL
MODEL      382
REMARK 921   NORMALIZED FREE ENERGY PREDICTED BY IDOCK:   -1.96 KCAL/MOL
REMARK 922        TOTAL FREE ENERGY PREDICTED BY IDOCK:   -6.72 KCAL/MOL
REMARK 923 INTER-LIGAND FREE ENERGY PREDICTED BY IDOCK:   -4.83 KCAL/MOL
REMARK 924 INTRA-LIGAND FREE ENERGY PREDICTED BY IDOCK:   -1.88 KCAL/MOL
REMARK 927      BINDING AFFINITY PREDICTED BY RF-SCORE:    0.00 PKD
ROOT
HETATM    1  C   UNL     1      -8.546   4.376  65.757  1.00  0.00    -0.115 C  
HETATM    2  C   UNL     1      -8.529   5.448  64.684  1.00  0.00    -0.126 C  
ENDROOT
BRANCH   2   3
HETATM    3  C   UNL     1      -8.269   6.826  65.284  1.00  0.00    -0.127 C  
BRANCH   3   4
HETATM    4  C   UNL     1      -9.375   7.204  66.262  1.00  0.00    -0.154 C  
BRANCH   4   5
HETATM    5  C   UNL     1      -9.336   8.692  66.579  1.00  0.00    -0.257 C  
BRANCH   5   6
HETATM    6  C   UNL     1     -10.657   9.147  67.192  1.00  0.00    -0.286 C  
BRANCH   6   7
HETATM    7  C   UNL     1     -10.508  10.548  67.759  1.00  0.00    -0.263 C  
BRANCH   7   8
HETATM    8  C   UNL     1     -11.124  10.663  69.150  1.00  0.00    -0.309 C  
BRANCH   8   9
HETATM    9  C   UNL     1     -10.474   9.620  70.048  1.00  0.00    -0.301 C  
BRANCH   9  10
HETATM   10  C   UNL     1     -11.210   9.468  71.372  1.00  0.00    -0.382 C  
BRANCH  10  11
HETATM   11  N   UNL     1     -12.077   8.183  71.426  1.00  0.00    -0.293 N  
HETATM   12  C   UNL     1     -13.556   8.547  71.569  1.00  0.00    -0.305 C  
HETATM   13  C   UNL     1     -11.870   7.351  70.158  1.00  0.00     0.078 C  
BRANCH  11  14
HETATM   14  C   UNL     1     -11.595   7.394  72.671  1.00  0.00    -0.250 C  
BRANCH  14  15
HETATM   15  C   UNL     1     -11.028   6.028  72.314  1.00  0.00    -0.310 C  
BRANCH  15  16
HETATM   16  C   UNL     1     -11.409   4.966  73.335  1.00  0.00    -0.379 C  
BRANCH  16  17
HETATM   17  C   UNL     1     -10.130   4.424  73.964  1.00  0.00    -0.221 C  
BRANCH  17  18
HETATM   18  C   UNL     1      -9.570   3.252  73.176  1.00  0.00    -0.148 C  
BRANCH  18  19
HETATM   19  C   UNL     1      -8.121   3.529  72.799  1.00  0.00    -0.080 C  
BRANCH  19  20
HETATM   20  C   UNL     1      -7.912   3.343  71.300  1.00  0.00    -0.059 C  
BRANCH  20  21
HETATM   21  C   UNL     1      -9.248   3.224  70.573  1.00  0.00    -0.213 C  
BRANCH  21  22
HETATM   22  C   UNL     1      -9.426   4.372  69.585  1.00  0.00    -0.252 C  
HETATM   23  C   UNL     1      -8.098   5.029  69.260  1.00  0.00    -0.083 C  
ENDBRANCH  21  22
ENDBRANCH  20  21
ENDBRANCH  19  20
ENDBRANCH  18  19
ENDBRANCH  17  18
ENDBRANCH  16  17
ENDBRANCH  15  16
ENDBRANCH  14  15
ENDBRANCH  11  14
ENDBRANCH  10  11
ENDBRANCH   9  10
ENDBRANCH   8   9
ENDBRANCH   7   8
ENDBRANCH   6   7
ENDBRANCH   5   6
ENDBRANCH   4   5
ENDBRANCH   3   4
ENDBRANCH   2   3
TORSDOF 18
ENDMDL
MODEL      383
REMARK 921   NORMALIZED FREE ENERGY PREDICTED BY IDOCK:   -1.95 KCAL/MOL
REMARK 922        TOTAL FREE ENERGY PREDICTED BY IDOCK:   -6.71 KCAL/MOL
REMARK 923 INTER-LIGAND FREE ENERGY PREDICTED BY IDOCK:   -4.89 KCAL/MOL
REMARK 924 INTRA-LIGAND FREE ENERGY PREDICTED BY IDOCK:   -1.82 KCAL/MOL
REMARK 927      BINDING AFFINITY PREDICTED BY RF-SCORE:    0.00 PKD
ROOT
HETATM    1  C   UNL     1     -10.196  14.315  65.420  1.00  0.00    -0.395 C  
HETATM    2  C   UNL     1     -11.613  14.144  65.934  1.00  0.00    -0.349 C  
ENDROOT
BRANCH   2   3
HETATM    3  C   UNL     1     -11.817  12.759  66.540  1.00  0.00    -0.471 C  
BRANCH   3   4
HETATM    4  C   UNL     1     -10.727  11.801  66.072  1.00  0.00    -0.324 C  
BRANCH   4   5
HETATM    5  C   UNL     1     -10.674  10.565  66.957  1.00  0.00    -0.310 C  
BRANCH   5   6
HETATM    6  C   UNL     1     -11.593  10.726  68.164  1.00  0.00    -0.276 C  
BRANCH   6   7
HETATM    7  C   UNL     1     -10.769  11.025  69.404  1.00  0.00    -0.247 C  
BRANCH   7   8
HETATM    8  C   UNL     1      -9.380  11.544  69.048  1.00  0.00     0.090 C  
BRANCH   8   9
HETATM    9  C   UNL     1      -8.363  10.467  69.395  1.00  0.00    -0.152 C  
BRANCH   9  10
HETATM   10  C   UNL     1      -7.640   9.945  68.161  1.00  0.00    -0.081 C  
BRANCH  10  11
HETATM   11  N   UNL     1      -6.255  10.612  67.956  1.00  0.00    -0.053 N  
HETATM   12  C   UNL     1      -5.189   9.550  67.685  1.00  0.00    -0.037 C  
HETATM   13  C   UNL     1      -6.310  11.599  66.787  1.00  0.00    -0.114 C  
BRANCH  11  14
HETATM   14  C   UNL     1      -5.942  11.362  69.277  1.00  0.00    -0.059 C  
BRANCH  14  15
HETATM   15  C   UNL     1      -5.631  12.834  69.054  1.00  0.00    -0.070 C  
BRANCH  15  16
HETATM   16  C   UNL     1      -6.086  13.699  70.221  1.00  0.00    -0.121 C  
BRANCH  16  17
HETATM   17  C   UNL     1      -6.904  14.861  69.666  1.00  0.00    -0.181 C  
BRANCH  17  18
HETATM   18  C   UNL     1      -7.924  14.391  68.643  1.00  0.00    -0.145 C  
BRANCH  18  19
HETATM   19  C   UNL     1      -8.936  15.497  68.377  1.00  0.00    -0.189 C  
BRANCH  19  20
HETATM   20  C   UNL     1      -9.830  15.708  69.594  1.00  0.00    -0.280 C  
BRANCH  20  21
HETATM   21  C   UNL     1     -11.239  16.114  69.173  1.00  0.00    -0.336 C  
BRANCH  21  22
HETATM   22  C   UNL     1     -12.282  15.392  70.017  1.00  0.00    -0.392 C  
HETATM   23  C   UNL     1     -11.951  13.918  70.160  1.00  0.00    -0.402 C  
ENDBRANCH  21  22
ENDBRANCH  20  21
ENDBRANCH  19  20
ENDBRANCH  18  19
ENDBRANCH  17  18
ENDBRANCH  16  17
ENDBRANCH  15  16
ENDBRANCH  14  15
ENDBRANCH  11  14
ENDBRANCH  10  11
ENDBRANCH   9  10
ENDBRANCH   8   9
ENDBRANCH   7   8
ENDBRANCH   6   7
ENDBRANCH   5   6
ENDBRANCH   4   5
ENDBRANCH   3   4
ENDBRANCH   2   3
TORSDOF 18
ENDMDL
MODEL      384
REMARK 921   NORMALIZED FREE ENERGY PREDICTED BY IDOCK:   -1.94 KCAL/MOL
REMARK 922        TOTAL FREE ENERGY PREDICTED BY IDOCK:   -6.69 KCAL/MOL
REMARK 923 INTER-LIGAND FREE ENERGY PREDICTED BY IDOCK:   -5.39 KCAL/MOL
REMARK 924 INTRA-LIGAND FREE ENERGY PREDICTED BY IDOCK:   -1.30 KCAL/MOL
REMARK 927      BINDING AFFINITY PREDICTED BY RF-SCORE:    0.00 PKD
ROOT
HETATM    1  C   UNL     1     -11.490   6.371  69.563  1.00  0.00    -0.412 C  
HETATM    2  C   UNL     1     -11.172   6.310  71.045  1.00  0.00    -0.372 C  
ENDROOT
BRANCH   2   3
HETATM    3  C   UNL     1      -9.712   6.665  71.311  1.00  0.00    -0.183 C  
BRANCH   3   4
HETATM    4  C   UNL     1      -8.783   5.708  70.572  1.00  0.00    -0.140 C  
BRANCH   4   5
HETATM    5  C   UNL     1      -7.461   6.384  70.238  1.00  0.00    -0.094 C  
BRANCH   5   6
HETATM    6  C   UNL     1      -7.569   7.895  70.415  1.00  0.00    -0.082 C  
BRANCH   6   7
HETATM    7  C   UNL     1      -7.349   8.590  69.082  1.00  0.00    -0.079 C  
BRANCH   7   8
HETATM    8  C   UNL     1      -7.937   7.789  67.925  1.00  0.00    -0.125 C  
BRANCH   8   9
HETATM    9  C   UNL     1      -7.221   8.201  66.646  1.00  0.00    -0.081 C  
BRANCH   9  10
HETATM   10  C   UNL     1      -8.152   8.190  65.441  1.00  0.00    -0.130 C  
BRANCH  10  11
HETATM   11  N   UNL     1      -8.408   9.610  64.874  1.00  0.00    -0.138 N  
HETATM   12  C   UNL     1      -7.357  10.589  65.398  1.00  0.00    -0.084 C  
HETATM   13  C   UNL     1      -8.372   9.583  63.344  1.00  0.00    -0.179 C  
BRANCH  11  14
HETATM   14  C   UNL     1      -9.819  10.020  65.370  1.00  0.00    -0.314 C  
BRANCH  14  15
HETATM   15  C   UNL     1      -9.928  11.510  65.656  1.00  0.00    -0.275 C  
BRANCH  15  16
HETATM   16  C   UNL     1     -10.691  12.249  64.566  1.00  0.00    -0.358 C  
BRANCH  16  17
HETATM   17  C   UNL     1     -11.461  13.396  65.211  1.00  0.00    -0.318 C  
BRANCH  17  18
HETATM   18  C   UNL     1     -10.634  14.098  66.275  1.00  0.00    -0.284 C  
BRANCH  18  19
HETATM   19  C   UNL     1     -10.152  15.443  65.749  1.00  0.00    -0.391 C  
BRANCH  19  20
HETATM   20  C   UNL     1      -8.972  15.947  66.572  1.00  0.00    -0.331 C  
BRANCH  20  21
HETATM   21  C   UNL     1      -9.385  17.116  67.461  1.00  0.00    -0.238 C  
BRANCH  21  22
HETATM   22  C   UNL     1      -9.476  18.403  66.649  1.00  0.00    -0.313 C  
HETATM   23  C   UNL     1      -9.802  19.591  67.535  1.00  0.00    -0.470 C  
ENDBRANCH  21  22
ENDBRANCH  20  21
ENDBRANCH  19  20
ENDBRANCH  18  19
ENDBRANCH  17  18
ENDBRANCH  16  17
ENDBRANCH  15  16
ENDBRANCH  14  15
ENDBRANCH  11  14
ENDBRANCH  10  11
ENDBRANCH   9  10
ENDBRANCH   8   9
ENDBRANCH   7   8
ENDBRANCH   6   7
ENDBRANCH   5   6
ENDBRANCH   4   5
ENDBRANCH   3   4
ENDBRANCH   2   3
TORSDOF 18
ENDMDL
MODEL      385
REMARK 921   NORMALIZED FREE ENERGY PREDICTED BY IDOCK:   -1.94 KCAL/MOL
REMARK 922        TOTAL FREE ENERGY PREDICTED BY IDOCK:   -6.68 KCAL/MOL
REMARK 923 INTER-LIGAND FREE ENERGY PREDICTED BY IDOCK:   -5.01 KCAL/MOL
REMARK 924 INTRA-LIGAND FREE ENERGY PREDICTED BY IDOCK:   -1.67 KCAL/MOL
REMARK 927      BINDING AFFINITY PREDICTED BY RF-SCORE:    0.00 PKD
ROOT
HETATM    1  C   UNL     1      -7.786  14.092  67.408  1.00  0.00    -0.189 C  
HETATM    2  C   UNL     1      -6.639  13.180  67.801  1.00  0.00    -0.151 C  
ENDROOT
BRANCH   2   3
HETATM    3  C   UNL     1      -6.631  12.921  69.305  1.00  0.00    -0.085 C  
BRANCH   3   4
HETATM    4  C   UNL     1      -5.751  11.722  69.640  1.00  0.00    -0.087 C  
BRANCH   4   5
HETATM    5  C   UNL     1      -6.568  10.612  70.284  1.00  0.00    -0.127 C  
BRANCH   5   6
HETATM    6  C   UNL     1      -6.270   9.271  69.622  1.00  0.00    -0.039 C  
BRANCH   6   7
HETATM    7  C   UNL     1      -6.586   9.345  68.138  1.00  0.00    -0.059 C  
BRANCH   7   8
HETATM    8  C   UNL     1      -7.785   8.476  67.772  1.00  0.00    -0.103 C  
BRANCH   8   9
HETATM    9  C   UNL     1      -7.794   7.262  68.690  1.00  0.00    -0.122 C  
BRANCH   9  10
HETATM   10  C   UNL     1      -9.056   6.428  68.523  1.00  0.00    -0.126 C  
BRANCH  10  11
HETATM   11  N   UNL     1      -9.648   5.965  69.879  1.00  0.00    -0.155 N  
HETATM   12  C   UNL     1      -9.999   4.478  69.826  1.00  0.00    -0.198 C  
HETATM   13  C   UNL     1      -8.646   6.220  71.008  1.00  0.00    -0.132 C  
BRANCH  11  14
HETATM   14  C   UNL     1     -10.929   6.811  70.098  1.00  0.00    -0.292 C  
BRANCH  14  15
HETATM   15  C   UNL     1     -10.802   7.773  71.271  1.00  0.00    -0.255 C  
BRANCH  15  16
HETATM   16  C   UNL     1     -10.455   9.184  70.819  1.00  0.00    -0.322 C  
BRANCH  16  17
HETATM   17  C   UNL     1     -11.753   9.968  70.657  1.00  0.00    -0.421 C  
BRANCH  17  18
HETATM   18  C   UNL     1     -11.773  10.758  69.360  1.00  0.00    -0.378 C  
BRANCH  18  19
HETATM   19  C   UNL     1     -11.700  12.249  69.662  1.00  0.00    -0.386 C  
BRANCH  19  20
HETATM   20  C   UNL     1     -11.813  13.062  68.377  1.00  0.00    -0.370 C  
BRANCH  20  21
HETATM   21  C   UNL     1     -11.182  14.441  68.545  1.00  0.00    -0.286 C  
BRANCH  21  22
HETATM   22  C   UNL     1     -12.106  15.362  69.334  1.00  0.00    -0.308 C  
HETATM   23  C   UNL     1     -11.371  16.027  70.483  1.00  0.00    -0.420 C  
ENDBRANCH  21  22
ENDBRANCH  20  21
ENDBRANCH  19  20
ENDBRANCH  18  19
ENDBRANCH  17  18
ENDBRANCH  16  17
ENDBRANCH  15  16
ENDBRANCH  14  15
ENDBRANCH  11  14
ENDBRANCH  10  11
ENDBRANCH   9  10
ENDBRANCH   8   9
ENDBRANCH   7   8
ENDBRANCH   6   7
ENDBRANCH   5   6
ENDBRANCH   4   5
ENDBRANCH   3   4
ENDBRANCH   2   3
TORSDOF 18
ENDMDL
MODEL      386
REMARK 921   NORMALIZED FREE ENERGY PREDICTED BY IDOCK:   -1.94 KCAL/MOL
REMARK 922        TOTAL FREE ENERGY PREDICTED BY IDOCK:   -6.68 KCAL/MOL
REMARK 923 INTER-LIGAND FREE ENERGY PREDICTED BY IDOCK:   -4.84 KCAL/MOL
REMARK 924 INTRA-LIGAND FREE ENERGY PREDICTED BY IDOCK:   -1.84 KCAL/MOL
REMARK 927      BINDING AFFINITY PREDICTED BY RF-SCORE:    0.00 PKD
ROOT
HETATM    1  C   UNL     1     -11.946  13.177  63.353  1.00  0.00    -0.552 C  
HETATM    2  C   UNL     1     -12.459  12.514  64.617  1.00  0.00    -0.539 C  
ENDROOT
BRANCH   2   3
HETATM    3  C   UNL     1     -12.373  13.460  65.811  1.00  0.00    -0.513 C  
BRANCH   3   4
HETATM    4  C   UNL     1     -11.651  12.792  66.976  1.00  0.00    -0.422 C  
BRANCH   4   5
HETATM    5  C   UNL     1     -10.143  12.853  66.787  1.00  0.00    -0.238 C  
BRANCH   5   6
HETATM    6  C   UNL     1      -9.544  11.450  66.782  1.00  0.00    -0.207 C  
BRANCH   6   7
HETATM    7  C   UNL     1     -10.645  10.418  66.957  1.00  0.00    -0.305 C  
BRANCH   7   8
HETATM    8  C   UNL     1     -10.127   9.148  67.625  1.00  0.00    -0.273 C  
BRANCH   8   9
HETATM    9  C   UNL     1      -8.687   9.387  68.056  1.00  0.00    -0.124 C  
BRANCH   9  10
HETATM   10  C   UNL     1      -8.001   8.102  68.498  1.00  0.00    -0.126 C  
BRANCH  10  11
HETATM   11  N   UNL     1      -7.214   8.272  69.823  1.00  0.00    -0.059 N  
HETATM   12  C   UNL     1      -5.709   8.267  69.551  1.00  0.00    -0.030 C  
HETATM   13  C   UNL     1      -7.611   9.581  70.509  1.00  0.00    -0.149 C  
BRANCH  11  14
HETATM   14  C   UNL     1      -7.604   7.061  70.710  1.00  0.00    -0.090 C  
BRANCH  14  15
HETATM   15  C   UNL     1      -8.777   6.274  70.144  1.00  0.00    -0.138 C  
BRANCH  15  16
HETATM   16  C   UNL     1      -8.881   4.884  70.754  1.00  0.00    -0.154 C  
BRANCH  16  17
HETATM   17  C   UNL     1      -9.380   3.924  69.678  1.00  0.00    -0.246 C  
BRANCH  17  18
HETATM   18  C   UNL     1      -8.890   4.326  68.297  1.00  0.00    -0.132 C  
BRANCH  18  19
HETATM   19  C   UNL     1      -9.903   3.896  67.245  1.00  0.00    -0.086 C  
BRANCH  19  20
HETATM   20  C   UNL     1      -9.393   4.222  65.846  1.00  0.00    -0.163 C  
BRANCH  20  21
HETATM   21  C   UNL     1      -9.018   5.697  65.730  1.00  0.00    -0.153 C  
BRANCH  21  22
HETATM   22  C   UNL     1      -7.785   5.871  64.851  1.00  0.00    -0.097 C  
HETATM   23  C   UNL     1      -6.521   5.954  65.687  1.00  0.00    -0.043 C  
ENDBRANCH  21  22
ENDBRANCH  20  21
ENDBRANCH  19  20
ENDBRANCH  18  19
ENDBRANCH  17  18
ENDBRANCH  16  17
ENDBRANCH  15  16
ENDBRANCH  14  15
ENDBRANCH  11  14
ENDBRANCH  10  11
ENDBRANCH   9  10
ENDBRANCH   8   9
ENDBRANCH   7   8
ENDBRANCH   6   7
ENDBRANCH   5   6
ENDBRANCH   4   5
ENDBRANCH   3   4
ENDBRANCH   2   3
TORSDOF 18
ENDMDL
MODEL      387
REMARK 921   NORMALIZED FREE ENERGY PREDICTED BY IDOCK:   -1.94 KCAL/MOL
REMARK 922        TOTAL FREE ENERGY PREDICTED BY IDOCK:   -6.68 KCAL/MOL
REMARK 923 INTER-LIGAND FREE ENERGY PREDICTED BY IDOCK:   -4.72 KCAL/MOL
REMARK 924 INTRA-LIGAND FREE ENERGY PREDICTED BY IDOCK:   -1.96 KCAL/MOL
REMARK 927      BINDING AFFINITY PREDICTED BY RF-SCORE:    0.00 PKD
ROOT
HETATM    1  C   UNL     1      -7.491   3.062  62.718  1.00  0.00    -0.053 C  
HETATM    2  C   UNL     1      -7.132   4.507  63.012  1.00  0.00    -0.040 C  
ENDROOT
BRANCH   2   3
HETATM    3  C   UNL     1      -8.317   5.259  63.610  1.00  0.00    -0.118 C  
BRANCH   3   4
HETATM    4  C   UNL     1      -8.987   4.429  64.698  1.00  0.00    -0.150 C  
BRANCH   4   5
HETATM    5  C   UNL     1      -8.621   4.948  66.081  1.00  0.00    -0.116 C  
BRANCH   5   6
HETATM    6  C   UNL     1      -8.909   6.442  66.189  1.00  0.00    -0.158 C  
BRANCH   6   7
HETATM    7  C   UNL     1     -10.284   6.660  66.796  1.00  0.00    -0.263 C  
BRANCH   7   8
HETATM    8  C   UNL     1     -10.565   5.676  67.927  1.00  0.00    -0.266 C  
BRANCH   8   9
HETATM    9  C   UNL     1     -10.846   6.472  69.193  1.00  0.00    -0.354 C  
BRANCH   9  10
HETATM   10  C   UNL     1      -9.792   6.231  70.266  1.00  0.00    -0.168 C  
BRANCH  10  11
HETATM   11  N   UNL     1      -9.340   7.541  70.961  1.00  0.00    -0.156 N  
HETATM   12  C   UNL     1      -8.943   7.263  72.411  1.00  0.00    -0.127 C  
HETATM   13  C   UNL     1      -8.157   8.158  70.210  1.00  0.00    -0.109 C  
BRANCH  11  14
HETATM   14  C   UNL     1     -10.563   8.494  70.912  1.00  0.00    -0.208 C  
BRANCH  14  15
HETATM   15  C   UNL     1     -10.232   9.838  70.278  1.00  0.00    -0.346 C  
BRANCH  15  16
HETATM   16  C   UNL     1     -11.483  10.597  69.861  1.00  0.00    -0.393 C  
BRANCH  16  17
HETATM   17  C   UNL     1     -11.523  10.657  68.338  1.00  0.00    -0.330 C  
BRANCH  17  18
HETATM   18  C   UNL     1     -10.278  10.044  67.720  1.00  0.00    -0.235 C  
BRANCH  18  19
HETATM   19  C   UNL     1      -9.839  10.868  66.517  1.00  0.00    -0.245 C  
BRANCH  19  20
HETATM   20  C   UNL     1      -9.582   9.965  65.315  1.00  0.00    -0.361 C  
BRANCH  20  21
HETATM   21  C   UNL     1      -8.112  10.001  64.909  1.00  0.00    -0.154 C  
BRANCH  21  22
HETATM   22  C   UNL     1      -7.952   9.629  63.439  1.00  0.00    -0.145 C  
HETATM   23  C   UNL     1      -8.209  10.822  62.538  1.00  0.00    -0.224 C  
ENDBRANCH  21  22
ENDBRANCH  20  21
ENDBRANCH  19  20
ENDBRANCH  18  19
ENDBRANCH  17  18
ENDBRANCH  16  17
ENDBRANCH  15  16
ENDBRANCH  14  15
ENDBRANCH  11  14
ENDBRANCH  10  11
ENDBRANCH   9  10
ENDBRANCH   8   9
ENDBRANCH   7   8
ENDBRANCH   6   7
ENDBRANCH   5   6
ENDBRANCH   4   5
ENDBRANCH   3   4
ENDBRANCH   2   3
TORSDOF 18
ENDMDL
MODEL      388
REMARK 921   NORMALIZED FREE ENERGY PREDICTED BY IDOCK:   -1.92 KCAL/MOL
REMARK 922        TOTAL FREE ENERGY PREDICTED BY IDOCK:   -6.65 KCAL/MOL
REMARK 923 INTER-LIGAND FREE ENERGY PREDICTED BY IDOCK:   -4.87 KCAL/MOL
REMARK 924 INTRA-LIGAND FREE ENERGY PREDICTED BY IDOCK:   -1.78 KCAL/MOL
REMARK 927      BINDING AFFINITY PREDICTED BY RF-SCORE:    0.00 PKD
ROOT
HETATM    1  C   UNL     1     -10.257  16.028  67.139  1.00  0.00    -0.278 C  
HETATM    2  C   UNL     1      -9.080  15.896  66.190  1.00  0.00    -0.385 C  
ENDROOT
BRANCH   2   3
HETATM    3  C   UNL     1      -8.232  17.165  66.183  1.00  0.00    -0.269 C  
BRANCH   3   4
HETATM    4  C   UNL     1      -6.893  16.920  66.869  1.00  0.00    -0.250 C  
BRANCH   4   5
HETATM    5  C   UNL     1      -7.083  16.652  68.354  1.00  0.00    -0.167 C  
BRANCH   5   6
HETATM    6  C   UNL     1      -6.400  15.349  68.758  1.00  0.00    -0.101 C  
BRANCH   6   7
HETATM    7  C   UNL     1      -7.445  14.304  69.108  1.00  0.00    -0.067 C  
BRANCH   7   8
HETATM    8  C   UNL     1      -7.181  12.981  68.396  1.00  0.00    -0.110 C  
BRANCH   8   9
HETATM    9  C   UNL     1      -8.403  12.638  67.558  1.00  0.00    -0.177 C  
BRANCH   9  10
HETATM   10  C   UNL     1      -9.558  12.129  68.411  1.00  0.00    -0.186 C  
BRANCH  10  11
HETATM   11  N   UNL     1     -10.549  11.248  67.607  1.00  0.00    -0.202 N  
HETATM   12  C   UNL     1     -11.925  11.912  67.552  1.00  0.00    -0.031 C  
HETATM   13  C   UNL     1     -10.026  11.025  66.186  1.00  0.00    -0.231 C  
BRANCH  11  14
HETATM   14  C   UNL     1     -10.633   9.899  68.366  1.00  0.00    -0.222 C  
BRANCH  14  15
HETATM   15  C   UNL     1     -10.324  10.041  69.849  1.00  0.00    -0.315 C  
BRANCH  15  16
HETATM   16  C   UNL     1     -11.588  10.090  70.696  1.00  0.00    -0.422 C  
BRANCH  16  17
HETATM   17  C   UNL     1     -11.579   8.893  71.641  1.00  0.00    -0.408 C  
BRANCH  17  18
HETATM   18  C   UNL     1     -10.164   8.477  72.005  1.00  0.00    -0.391 C  
BRANCH  18  19
HETATM   19  C   UNL     1     -10.049   6.959  71.978  1.00  0.00    -0.201 C  
BRANCH  19  20
HETATM   20  C   UNL     1      -8.658   6.536  71.520  1.00  0.00    -0.129 C  
BRANCH  20  21
HETATM   21  C   UNL     1      -8.051   7.575  70.583  1.00  0.00    -0.109 C  
BRANCH  21  22
HETATM   22  C   UNL     1      -7.831   6.984  69.195  1.00  0.00    -0.114 C  
HETATM   23  C   UNL     1      -8.303   5.544  69.128  1.00  0.00    -0.098 C  
ENDBRANCH  21  22
ENDBRANCH  20  21
ENDBRANCH  19  20
ENDBRANCH  18  19
ENDBRANCH  17  18
ENDBRANCH  16  17
ENDBRANCH  15  16
ENDBRANCH  14  15
ENDBRANCH  11  14
ENDBRANCH  10  11
ENDBRANCH   9  10
ENDBRANCH   8   9
ENDBRANCH   7   8
ENDBRANCH   6   7
ENDBRANCH   5   6
ENDBRANCH   4   5
ENDBRANCH   3   4
ENDBRANCH   2   3
TORSDOF 18
ENDMDL
MODEL      389
REMARK 921   NORMALIZED FREE ENERGY PREDICTED BY IDOCK:   -1.92 KCAL/MOL
REMARK 922        TOTAL FREE ENERGY PREDICTED BY IDOCK:   -6.64 KCAL/MOL
REMARK 923 INTER-LIGAND FREE ENERGY PREDICTED BY IDOCK:   -5.21 KCAL/MOL
REMARK 924 INTRA-LIGAND FREE ENERGY PREDICTED BY IDOCK:   -1.42 KCAL/MOL
REMARK 927      BINDING AFFINITY PREDICTED BY RF-SCORE:    0.00 PKD
ROOT
HETATM    1  C   UNL     1      -8.846   4.289  70.531  1.00  0.00    -0.132 C  
HETATM    2  C   UNL     1      -9.882   3.826  71.539  1.00  0.00    -0.235 C  
ENDROOT
BRANCH   2   3
HETATM    3  C   UNL     1      -9.220   3.267  72.795  1.00  0.00    -0.125 C  
BRANCH   3   4
HETATM    4  C   UNL     1      -9.620   4.080  74.021  1.00  0.00    -0.127 C  
BRANCH   4   5
HETATM    5  C   UNL     1     -10.858   4.918  73.737  1.00  0.00    -0.376 C  
BRANCH   5   6
HETATM    6  C   UNL     1     -10.532   6.406  73.824  1.00  0.00    -0.319 C  
BRANCH   6   7
HETATM    7  C   UNL     1      -9.125   6.596  74.365  1.00  0.00    -0.217 C  
BRANCH   7   8
HETATM    8  C   UNL     1      -8.233   7.333  73.372  1.00  0.00    -0.139 C  
BRANCH   8   9
HETATM    9  C   UNL     1      -9.124   8.014  72.343  1.00  0.00    -0.254 C  
BRANCH   9  10
HETATM   10  C   UNL     1      -8.314   8.753  71.286  1.00  0.00    -0.176 C  
BRANCH  10  11
HETATM   11  N   UNL     1      -8.761   8.405  69.842  1.00  0.00    -0.134 N  
HETATM   12  C   UNL     1      -7.736   7.486  69.177  1.00  0.00    -0.113 C  
HETATM   13  C   UNL     1     -10.131   7.724  69.863  1.00  0.00    -0.203 C  
BRANCH  11  14
HETATM   14  C   UNL     1      -8.844   9.755  69.084  1.00  0.00    -0.160 C  
BRANCH  14  15
HETATM   15  C   UNL     1      -8.564   9.608  67.595  1.00  0.00    -0.126 C  
BRANCH  15  16
HETATM   16  C   UNL     1      -8.037  10.898  66.982  1.00  0.00    -0.131 C  
BRANCH  16  17
HETATM   17  C   UNL     1      -9.228  11.739  66.537  1.00  0.00    -0.206 C  
BRANCH  17  18
HETATM   18  C   UNL     1      -9.053  13.201  66.911  1.00  0.00    -0.231 C  
BRANCH  18  19
HETATM   19  C   UNL     1     -10.417  13.865  67.049  1.00  0.00    -0.278 C  
BRANCH  19  20
HETATM   20  C   UNL     1     -11.513  12.814  67.187  1.00  0.00    -0.394 C  
BRANCH  20  21
HETATM   21  C   UNL     1     -12.281  12.651  65.879  1.00  0.00    -0.375 C  
BRANCH  21  22
HETATM   22  C   UNL     1     -12.079  13.867  64.982  1.00  0.00    -0.422 C  
HETATM   23  C   UNL     1     -12.383  13.537  63.532  1.00  0.00    -0.343 C  
ENDBRANCH  21  22
ENDBRANCH  20  21
ENDBRANCH  19  20
ENDBRANCH  18  19
ENDBRANCH  17  18
ENDBRANCH  16  17
ENDBRANCH  15  16
ENDBRANCH  14  15
ENDBRANCH  11  14
ENDBRANCH  10  11
ENDBRANCH   9  10
ENDBRANCH   8   9
ENDBRANCH   7   8
ENDBRANCH   6   7
ENDBRANCH   5   6
ENDBRANCH   4   5
ENDBRANCH   3   4
ENDBRANCH   2   3
TORSDOF 18
ENDMDL
MODEL      390
REMARK 921   NORMALIZED FREE ENERGY PREDICTED BY IDOCK:   -1.91 KCAL/MOL
REMARK 922        TOTAL FREE ENERGY PREDICTED BY IDOCK:   -6.63 KCAL/MOL
REMARK 923 INTER-LIGAND FREE ENERGY PREDICTED BY IDOCK:   -4.72 KCAL/MOL
REMARK 924 INTRA-LIGAND FREE ENERGY PREDICTED BY IDOCK:   -1.91 KCAL/MOL
REMARK 927      BINDING AFFINITY PREDICTED BY RF-SCORE:    0.00 PKD
ROOT
HETATM    1  C   UNL     1     -10.833   6.966  67.058  1.00  0.00    -0.436 C  
HETATM    2  C   UNL     1      -9.804   8.070  66.892  1.00  0.00    -0.318 C  
ENDROOT
BRANCH   2   3
HETATM    3  C   UNL     1      -9.725   8.943  68.140  1.00  0.00    -0.180 C  
BRANCH   3   4
HETATM    4  C   UNL     1     -10.501  10.239  67.940  1.00  0.00    -0.253 C  
BRANCH   4   5
HETATM    5  C   UNL     1     -11.112  10.715  69.250  1.00  0.00    -0.306 C  
BRANCH   5   6
HETATM    6  C   UNL     1     -10.741   9.773  70.390  1.00  0.00    -0.368 C  
BRANCH   6   7
HETATM    7  C   UNL     1     -11.985   9.070  70.905  1.00  0.00    -0.274 C  
BRANCH   7   8
HETATM    8  C   UNL     1     -11.826   8.631  72.357  1.00  0.00    -0.402 C  
BRANCH   8   9
HETATM    9  C   UNL     1     -11.823   7.109  72.399  1.00  0.00    -0.224 C  
BRANCH   9  10
HETATM   10  C   UNL     1     -10.413   6.538  72.338  1.00  0.00    -0.205 C  
BRANCH  10  11
HETATM   11  N   UNL     1     -10.366   5.029  72.693  1.00  0.00    -0.191 N  
HETATM   12  C   UNL     1      -9.377   4.782  73.832  1.00  0.00    -0.117 C  
HETATM   13  C   UNL     1     -11.758   4.539  73.101  1.00  0.00    -0.044 C  
BRANCH  11  14
HETATM   14  C   UNL     1      -9.897   4.302  71.406  1.00  0.00    -0.190 C  
BRANCH  14  15
HETATM   15  C   UNL     1      -9.387   5.265  70.343  1.00  0.00    -0.208 C  
BRANCH  15  16
HETATM   16  C   UNL     1      -7.901   5.082  70.071  1.00  0.00    -0.070 C  
BRANCH  16  17
HETATM   17  C   UNL     1      -7.696   5.000  68.561  1.00  0.00    -0.079 C  
BRANCH  17  18
HETATM   18  C   UNL     1      -8.853   4.291  67.877  1.00  0.00    -0.128 C  
BRANCH  18  19
HETATM   19  C   UNL     1      -8.354   3.580  66.626  1.00  0.00    -0.101 C  
BRANCH  19  20
HETATM   20  C   UNL     1      -8.741   4.361  65.375  1.00  0.00    -0.125 C  
BRANCH  20  21
HETATM   21  C   UNL     1     -10.064   3.860  64.805  1.00  0.00    -0.203 C  
BRANCH  21  22
HETATM   22  C   UNL     1      -9.847   2.605  63.967  1.00  0.00    -0.145 C  
HETATM   23  C   UNL     1     -10.636   2.664  62.672  1.00  0.00    -0.152 C  
ENDBRANCH  21  22
ENDBRANCH  20  21
ENDBRANCH  19  20
ENDBRANCH  18  19
ENDBRANCH  17  18
ENDBRANCH  16  17
ENDBRANCH  15  16
ENDBRANCH  14  15
ENDBRANCH  11  14
ENDBRANCH  10  11
ENDBRANCH   9  10
ENDBRANCH   8   9
ENDBRANCH   7   8
ENDBRANCH   6   7
ENDBRANCH   5   6
ENDBRANCH   4   5
ENDBRANCH   3   4
ENDBRANCH   2   3
TORSDOF 18
ENDMDL
MODEL      391
REMARK 921   NORMALIZED FREE ENERGY PREDICTED BY IDOCK:   -1.90 KCAL/MOL
REMARK 922        TOTAL FREE ENERGY PREDICTED BY IDOCK:   -6.61 KCAL/MOL
REMARK 923 INTER-LIGAND FREE ENERGY PREDICTED BY IDOCK:   -5.49 KCAL/MOL
REMARK 924 INTRA-LIGAND FREE ENERGY PREDICTED BY IDOCK:   -1.12 KCAL/MOL
REMARK 927      BINDING AFFINITY PREDICTED BY RF-SCORE:    0.00 PKD
ROOT
HETATM    1  C   UNL     1      -7.210  15.688  69.456  1.00  0.00    -0.198 C  
HETATM    2  C   UNL     1      -7.472  16.105  68.020  1.00  0.00    -0.141 C  
ENDROOT
BRANCH   2   3
HETATM    3  C   UNL     1      -8.588  17.142  67.941  1.00  0.00    -0.214 C  
BRANCH   3   4
HETATM    4  C   UNL     1      -9.846  16.532  67.332  1.00  0.00    -0.253 C  
BRANCH   4   5
HETATM    5  C   UNL     1      -9.543  15.183  66.697  1.00  0.00    -0.272 C  
BRANCH   5   6
HETATM    6  C   UNL     1     -10.283  15.034  65.372  1.00  0.00    -0.411 C  
BRANCH   6   7
HETATM    7  C   UNL     1     -11.744  14.708  65.629  1.00  0.00    -0.304 C  
BRANCH   7   8
HETATM    8  C   UNL     1     -12.140  13.367  65.018  1.00  0.00    -0.436 C  
BRANCH   8   9
HETATM    9  C   UNL     1     -10.876  12.545  64.811  1.00  0.00    -0.332 C  
BRANCH   9  10
HETATM   10  C   UNL     1     -11.002  11.146  65.398  1.00  0.00    -0.081 C  
BRANCH  10  11
HETATM   11  N   UNL     1     -10.189  10.975  66.708  1.00  0.00    -0.220 N  
HETATM   12  C   UNL     1      -8.723  11.342  66.475  1.00  0.00    -0.178 C  
HETATM   13  C   UNL     1     -10.774  11.859  67.812  1.00  0.00    -0.207 C  
BRANCH  11  14
HETATM   14  C   UNL     1     -10.314   9.479  67.096  1.00  0.00    -0.253 C  
BRANCH  14  15
HETATM   15  C   UNL     1      -8.983   8.869  67.512  1.00  0.00    -0.142 C  
BRANCH  15  16
HETATM   16  C   UNL     1      -9.067   8.182  68.867  1.00  0.00    -0.147 C  
BRANCH  16  17
HETATM   17  C   UNL     1     -10.513   7.757  69.101  1.00  0.00    -0.219 C  
BRANCH  17  18
HETATM   18  C   UNL     1     -10.637   6.250  69.248  1.00  0.00    -0.332 C  
BRANCH  18  19
HETATM   19  C   UNL     1      -9.451   5.709  70.036  1.00  0.00    -0.199 C  
BRANCH  19  20
HETATM   20  C   UNL     1      -9.464   4.184  70.042  1.00  0.00    -0.260 C  
BRANCH  20  21
HETATM   21  C   UNL     1     -10.050   3.648  71.345  1.00  0.00    -0.067 C  
BRANCH  21  22
HETATM   22  C   UNL     1     -10.019   4.719  72.429  1.00  0.00    -0.226 C  
HETATM   23  C   UNL     1     -11.101   4.484  73.467  1.00  0.00    -0.398 C  
ENDBRANCH  21  22
ENDBRANCH  20  21
ENDBRANCH  19  20
ENDBRANCH  18  19
ENDBRANCH  17  18
ENDBRANCH  16  17
ENDBRANCH  15  16
ENDBRANCH  14  15
ENDBRANCH  11  14
ENDBRANCH  10  11
ENDBRANCH   9  10
ENDBRANCH   8   9
ENDBRANCH   7   8
ENDBRANCH   6   7
ENDBRANCH   5   6
ENDBRANCH   4   5
ENDBRANCH   3   4
ENDBRANCH   2   3
TORSDOF 18
ENDMDL
MODEL      392
REMARK 921   NORMALIZED FREE ENERGY PREDICTED BY IDOCK:   -1.90 KCAL/MOL
REMARK 922        TOTAL FREE ENERGY PREDICTED BY IDOCK:   -6.60 KCAL/MOL
REMARK 923 INTER-LIGAND FREE ENERGY PREDICTED BY IDOCK:   -5.05 KCAL/MOL
REMARK 924 INTRA-LIGAND FREE ENERGY PREDICTED BY IDOCK:   -1.55 KCAL/MOL
REMARK 927      BINDING AFFINITY PREDICTED BY RF-SCORE:    0.00 PKD
ROOT
HETATM    1  C   UNL     1      -7.939   7.299  67.640  1.00  0.00    -0.114 C  
HETATM    2  C   UNL     1      -7.533   8.271  66.548  1.00  0.00    -0.081 C  
ENDROOT
BRANCH   2   3
HETATM    3  C   UNL     1      -6.960   9.556  67.138  1.00  0.00    -0.085 C  
BRANCH   3   4
HETATM    4  C   UNL     1      -7.204   9.613  68.641  1.00  0.00    -0.073 C  
BRANCH   4   5
HETATM    5  C   UNL     1      -5.948  10.052  69.380  1.00  0.00    -0.037 C  
BRANCH   5   6
HETATM    6  C   UNL     1      -6.048   9.709  70.862  1.00  0.00    -0.086 C  
BRANCH   6   7
HETATM    7  C   UNL     1      -7.131   8.666  71.080  1.00  0.00    -0.081 C  
BRANCH   7   8
HETATM    8  C   UNL     1      -7.084   8.090  72.492  1.00  0.00    -0.104 C  
BRANCH   8   9
HETATM    9  C   UNL     1      -8.498   7.699  72.896  1.00  0.00    -0.185 C  
BRANCH   9  10
HETATM   10  C   UNL     1      -8.550   6.317  73.533  1.00  0.00    -0.124 C  
BRANCH  10  11
HETATM   11  N   UNL     1      -9.430   5.324  72.730  1.00  0.00    -0.142 N  
HETATM   12  C   UNL     1      -9.271   5.568  71.229  1.00  0.00    -0.146 C  
HETATM   13  C   UNL     1      -9.039   3.882  73.064  1.00  0.00    -0.106 C  
BRANCH  11  14
HETATM   14  C   UNL     1     -10.892   5.599  73.167  1.00  0.00    -0.281 C  
BRANCH  14  15
HETATM   15  C   UNL     1     -11.682   6.367  72.117  1.00  0.00    -0.366 C  
BRANCH  15  16
HETATM   16  C   UNL     1     -12.151   7.721  72.630  1.00  0.00    -0.191 C  
BRANCH  16  17
HETATM   17  C   UNL     1     -12.544   8.578  71.431  1.00  0.00    -0.309 C  
BRANCH  17  18
HETATM   18  C   UNL     1     -13.419   9.750  71.843  1.00  0.00    -0.485 C  
BRANCH  18  19
HETATM   19  C   UNL     1     -12.807  11.051  71.344  1.00  0.00    -0.548 C  
BRANCH  19  20
HETATM   20  C   UNL     1     -11.755  10.773  70.275  1.00  0.00    -0.442 C  
BRANCH  20  21
HETATM   21  C   UNL     1     -11.837  11.797  69.148  1.00  0.00    -0.389 C  
BRANCH  21  22
HETATM   22  C   UNL     1     -11.858  13.215  69.710  1.00  0.00    -0.386 C  
HETATM   23  C   UNL     1     -11.137  14.183  68.790  1.00  0.00    -0.283 C  
ENDBRANCH  21  22
ENDBRANCH  20  21
ENDBRANCH  19  20
ENDBRANCH  18  19
ENDBRANCH  17  18
ENDBRANCH  16  17
ENDBRANCH  15  16
ENDBRANCH  14  15
ENDBRANCH  11  14
ENDBRANCH  10  11
ENDBRANCH   9  10
ENDBRANCH   8   9
ENDBRANCH   7   8
ENDBRANCH   6   7
ENDBRANCH   5   6
ENDBRANCH   4   5
ENDBRANCH   3   4
ENDBRANCH   2   3
TORSDOF 18
ENDMDL
MODEL      393
REMARK 921   NORMALIZED FREE ENERGY PREDICTED BY IDOCK:   -1.89 KCAL/MOL
REMARK 922        TOTAL FREE ENERGY PREDICTED BY IDOCK:   -6.59 KCAL/MOL
REMARK 923 INTER-LIGAND FREE ENERGY PREDICTED BY IDOCK:   -4.71 KCAL/MOL
REMARK 924 INTRA-LIGAND FREE ENERGY PREDICTED BY IDOCK:   -1.87 KCAL/MOL
REMARK 927      BINDING AFFINITY PREDICTED BY RF-SCORE:    0.00 PKD
ROOT
HETATM    1  C   UNL     1      -7.768  13.617  67.333  1.00  0.00    -0.156 C  
HETATM    2  C   UNL     1      -6.852  12.486  67.763  1.00  0.00    -0.120 C  
ENDROOT
BRANCH   2   3
HETATM    3  C   UNL     1      -6.670  12.470  69.278  1.00  0.00    -0.060 C  
BRANCH   3   4
HETATM    4  C   UNL     1      -6.158  11.112  69.744  1.00  0.00    -0.107 C  
BRANCH   4   5
HETATM    5  C   UNL     1      -7.313  10.187  70.095  1.00  0.00    -0.157 C  
BRANCH   5   6
HETATM    6  C   UNL     1      -6.924   8.729  69.867  1.00  0.00    -0.046 C  
BRANCH   6   7
HETATM    7  C   UNL     1      -7.111   8.368  68.403  1.00  0.00    -0.080 C  
BRANCH   7   8
HETATM    8  C   UNL     1      -8.508   7.820  68.131  1.00  0.00    -0.124 C  
BRANCH   8   9
HETATM    9  C   UNL     1      -9.202   7.596  69.466  1.00  0.00    -0.150 C  
BRANCH   9  10
HETATM   10  C   UNL     1     -10.637   8.106  69.457  1.00  0.00    -0.213 C  
BRANCH  10  11
HETATM   11  N   UNL     1     -11.050   8.743  70.809  1.00  0.00    -0.253 N  
HETATM   12  C   UNL     1     -12.490   8.363  71.158  1.00  0.00    -0.173 C  
HETATM   13  C   UNL     1     -10.109   8.278  71.923  1.00  0.00    -0.245 C  
BRANCH  11  14
HETATM   14  C   UNL     1     -10.932  10.277  70.612  1.00  0.00    -0.214 C  
BRANCH  14  15
HETATM   15  C   UNL     1     -11.133  10.698  69.163  1.00  0.00    -0.309 C  
BRANCH  15  16
HETATM   16  C   UNL     1     -12.005  11.940  69.044  1.00  0.00    -0.321 C  
BRANCH  16  17
HETATM   17  C   UNL     1     -11.101  13.133  68.749  1.00  0.00    -0.309 C  
BRANCH  17  18
HETATM   18  C   UNL     1     -11.066  14.110  69.912  1.00  0.00    -0.083 C  
BRANCH  18  19
HETATM   19  C   UNL     1     -11.809  15.385  69.538  1.00  0.00    -0.370 C  
BRANCH  19  20
HETATM   20  C   UNL     1     -11.435  15.828  68.128  1.00  0.00    -0.302 C  
BRANCH  20  21
HETATM   21  C   UNL     1     -10.671  17.149  68.155  1.00  0.00    -0.366 C  
BRANCH  21  22
HETATM   22  C   UNL     1      -9.183  16.914  67.926  1.00  0.00    -0.234 C  
HETATM   23  C   UNL     1      -8.849  16.899  66.445  1.00  0.00    -0.322 C  
ENDBRANCH  21  22
ENDBRANCH  20  21
ENDBRANCH  19  20
ENDBRANCH  18  19
ENDBRANCH  17  18
ENDBRANCH  16  17
ENDBRANCH  15  16
ENDBRANCH  14  15
ENDBRANCH  11  14
ENDBRANCH  10  11
ENDBRANCH   9  10
ENDBRANCH   8   9
ENDBRANCH   7   8
ENDBRANCH   6   7
ENDBRANCH   5   6
ENDBRANCH   4   5
ENDBRANCH   3   4
ENDBRANCH   2   3
TORSDOF 18
ENDMDL
MODEL      394
REMARK 921   NORMALIZED FREE ENERGY PREDICTED BY IDOCK:   -1.88 KCAL/MOL
REMARK 922        TOTAL FREE ENERGY PREDICTED BY IDOCK:   -6.55 KCAL/MOL
REMARK 923 INTER-LIGAND FREE ENERGY PREDICTED BY IDOCK:   -4.22 KCAL/MOL
REMARK 924 INTRA-LIGAND FREE ENERGY PREDICTED BY IDOCK:   -2.33 KCAL/MOL
REMARK 927      BINDING AFFINITY PREDICTED BY RF-SCORE:    0.00 PKD
ROOT
HETATM    1  C   UNL     1      -8.603   7.165  66.650  1.00  0.00    -0.124 C  
HETATM    2  C   UNL     1      -8.173   7.399  65.213  1.00  0.00    -0.128 C  
ENDROOT
BRANCH   2   3
HETATM    3  C   UNL     1      -7.860   8.871  64.964  1.00  0.00    -0.112 C  
BRANCH   3   4
HETATM    4  C   UNL     1      -7.850   9.649  66.275  1.00  0.00    -0.101 C  
BRANCH   4   5
HETATM    5  C   UNL     1      -6.757  10.707  66.271  1.00  0.00    -0.129 C  
BRANCH   5   6
HETATM    6  C   UNL     1      -6.074  10.779  67.633  1.00  0.00    -0.047 C  
BRANCH   6   7
HETATM    7  C   UNL     1      -7.070  10.444  68.730  1.00  0.00    -0.074 C  
BRANCH   7   8
HETATM    8  C   UNL     1      -6.413   9.680  69.875  1.00  0.00    -0.057 C  
BRANCH   8   9
HETATM    9  C   UNL     1      -7.455   9.458  70.961  1.00  0.00    -0.041 C  
BRANCH   9  10
HETATM   10  C   UNL     1      -6.946   8.537  72.062  1.00  0.00    -0.087 C  
BRANCH  10  11
HETATM   11  N   UNL     1      -7.982   7.453  72.458  1.00  0.00    -0.098 N  
HETATM   12  C   UNL     1      -8.326   6.582  71.250  1.00  0.00    -0.125 C  
HETATM   13  C   UNL     1      -7.427   6.578  73.585  1.00  0.00    -0.084 C  
BRANCH  11  14
HETATM   14  C   UNL     1      -9.239   8.221  72.943  1.00  0.00    -0.259 C  
BRANCH  14  15
HETATM   15  C   UNL     1     -10.507   7.774  72.231  1.00  0.00    -0.303 C  
BRANCH  15  16
HETATM   16  C   UNL     1     -11.538   8.891  72.143  1.00  0.00    -0.400 C  
BRANCH  16  17
HETATM   17  C   UNL     1     -11.907   9.090  70.677  1.00  0.00    -0.193 C  
BRANCH  17  18
HETATM   18  C   UNL     1     -10.825   9.845  69.924  1.00  0.00    -0.316 C  
BRANCH  18  19
HETATM   19  C   UNL     1     -10.877   9.484  68.446  1.00  0.00    -0.183 C  
BRANCH  19  20
HETATM   20  C   UNL     1     -11.150  10.724  67.601  1.00  0.00    -0.384 C  
BRANCH  20  21
HETATM   21  C   UNL     1     -11.017  11.994  68.436  1.00  0.00    -0.276 C  
BRANCH  21  22
HETATM   22  C   UNL     1     -11.884  13.108  67.860  1.00  0.00    -0.390 C  
HETATM   23  C   UNL     1     -11.059  14.076  67.032  1.00  0.00    -0.312 C  
ENDBRANCH  21  22
ENDBRANCH  20  21
ENDBRANCH  19  20
ENDBRANCH  18  19
ENDBRANCH  17  18
ENDBRANCH  16  17
ENDBRANCH  15  16
ENDBRANCH  14  15
ENDBRANCH  11  14
ENDBRANCH  10  11
ENDBRANCH   9  10
ENDBRANCH   8   9
ENDBRANCH   7   8
ENDBRANCH   6   7
ENDBRANCH   5   6
ENDBRANCH   4   5
ENDBRANCH   3   4
ENDBRANCH   2   3
TORSDOF 18
ENDMDL
MODEL      395
REMARK 921   NORMALIZED FREE ENERGY PREDICTED BY IDOCK:   -1.87 KCAL/MOL
REMARK 922        TOTAL FREE ENERGY PREDICTED BY IDOCK:   -6.53 KCAL/MOL
REMARK 923 INTER-LIGAND FREE ENERGY PREDICTED BY IDOCK:   -4.83 KCAL/MOL
REMARK 924 INTRA-LIGAND FREE ENERGY PREDICTED BY IDOCK:   -1.70 KCAL/MOL
REMARK 927      BINDING AFFINITY PREDICTED BY RF-SCORE:    0.00 PKD
ROOT
HETATM    1  C   UNL     1     -14.049  15.220  71.178  1.00  0.00    -0.438 C  
HETATM    2  C   UNL     1     -14.328  14.043  72.094  1.00  0.00    -0.577 C  
ENDROOT
BRANCH   2   3
HETATM    3  C   UNL     1     -13.059  13.241  72.366  1.00  0.00    -0.443 C  
BRANCH   3   4
HETATM    4  C   UNL     1     -13.283  11.763  72.071  1.00  0.00    -0.460 C  
BRANCH   4   5
HETATM    5  C   UNL     1     -13.157  11.481  70.581  1.00  0.00     0.139 C  
BRANCH   5   6
HETATM    6  C   UNL     1     -11.934  12.185  70.002  1.00  0.00    -0.391 C  
BRANCH   6   7
HETATM    7  C   UNL     1     -10.990  11.164  69.391  1.00  0.00    -0.298 C  
BRANCH   7   8
HETATM    8  C   UNL     1     -11.001   9.850  70.166  1.00  0.00    -0.356 C  
BRANCH   8   9
HETATM    9  C   UNL     1      -9.584   9.294  70.185  1.00  0.00    -0.254 C  
BRANCH   9  10
HETATM   10  C   UNL     1      -9.539   7.831  69.767  1.00  0.00    -0.167 C  
BRANCH  10  11
HETATM   11  N   UNL     1      -9.446   6.869  70.980  1.00  0.00    -0.163 N  
HETATM   12  C   UNL     1      -9.156   7.653  72.260  1.00  0.00    -0.140 C  
HETATM   13  C   UNL     1     -10.754   6.088  71.137  1.00  0.00    -0.264 C  
BRANCH  11  14
HETATM   14  C   UNL     1      -8.277   5.899  70.667  1.00  0.00    -0.120 C  
BRANCH  14  15
HETATM   15  C   UNL     1      -7.171   5.961  71.710  1.00  0.00    -0.091 C  
BRANCH  15  16
HETATM   16  C   UNL     1      -5.857   6.457  71.122  1.00  0.00    -0.027 C  
BRANCH  16  17
HETATM   17  C   UNL     1      -6.052   6.672  69.625  1.00  0.00    -0.026 C  
BRANCH  17  18
HETATM   18  C   UNL     1      -5.781   8.112  69.226  1.00  0.00    -0.031 C  
BRANCH  18  19
HETATM   19  C   UNL     1      -6.029   8.289  67.734  1.00  0.00    -0.047 C  
BRANCH  19  20
HETATM   20  C   UNL     1      -6.914   9.504  67.479  1.00  0.00    -0.084 C  
BRANCH  20  21
HETATM   21  C   UNL     1      -8.002   9.183  66.458  1.00  0.00    -0.100 C  
BRANCH  21  22
HETATM   22  C   UNL     1      -9.251  10.015  66.723  1.00  0.00    -0.173 C  
HETATM   23  C   UNL     1     -10.135  10.090  65.492  1.00  0.00    -0.325 C  
ENDBRANCH  21  22
ENDBRANCH  20  21
ENDBRANCH  19  20
ENDBRANCH  18  19
ENDBRANCH  17  18
ENDBRANCH  16  17
ENDBRANCH  15  16
ENDBRANCH  14  15
ENDBRANCH  11  14
ENDBRANCH  10  11
ENDBRANCH   9  10
ENDBRANCH   8   9
ENDBRANCH   7   8
ENDBRANCH   6   7
ENDBRANCH   5   6
ENDBRANCH   4   5
ENDBRANCH   3   4
ENDBRANCH   2   3
TORSDOF 18
ENDMDL
MODEL      396
REMARK 921   NORMALIZED FREE ENERGY PREDICTED BY IDOCK:   -1.84 KCAL/MOL
REMARK 922        TOTAL FREE ENERGY PREDICTED BY IDOCK:   -6.48 KCAL/MOL
REMARK 923 INTER-LIGAND FREE ENERGY PREDICTED BY IDOCK:   -5.06 KCAL/MOL
REMARK 924 INTRA-LIGAND FREE ENERGY PREDICTED BY IDOCK:   -1.41 KCAL/MOL
REMARK 927      BINDING AFFINITY PREDICTED BY RF-SCORE:    0.00 PKD
ROOT
HETATM    1  C   UNL     1      -9.457   2.311  71.151  1.00  0.00    -0.218 C  
HETATM    2  C   UNL     1      -9.444   1.960  69.675  1.00  0.00    -0.115 C  
ENDROOT
BRANCH   2   3
HETATM    3  C   UNL     1      -8.050   1.539  69.219  1.00  0.00    -0.059 C  
BRANCH   3   4
HETATM    4  C   UNL     1      -7.265   2.742  68.710  1.00  0.00    -0.048 C  
BRANCH   4   5
HETATM    5  C   UNL     1      -8.034   3.470  67.617  1.00  0.00    -0.081 C  
BRANCH   5   6
HETATM    6  C   UNL     1      -7.245   4.674  67.114  1.00  0.00    -0.073 C  
BRANCH   6   7
HETATM    7  C   UNL     1      -7.671   5.923  67.867  1.00  0.00    -0.100 C  
BRANCH   7   8
HETATM    8  C   UNL     1      -9.184   5.977  68.059  1.00  0.00    -0.115 C  
BRANCH   8   9
HETATM    9  C   UNL     1      -9.468   6.322  69.514  1.00  0.00    -0.151 C  
BRANCH   9  10
HETATM   10  C   UNL     1      -9.132   7.772  69.833  1.00  0.00    -0.147 C  
BRANCH  10  11
HETATM   11  N   UNL     1     -10.239   8.471  70.665  1.00  0.00    -0.192 N  
HETATM   12  C   UNL     1     -11.576   7.754  70.477  1.00  0.00    -0.158 C  
HETATM   13  C   UNL     1      -9.861   8.478  72.148  1.00  0.00    -0.318 C  
BRANCH  11  14
HETATM   14  C   UNL     1     -10.326   9.922  70.126  1.00  0.00    -0.282 C  
BRANCH  14  15
HETATM   15  C   UNL     1     -11.636  10.200  69.403  1.00  0.00    -0.151 C  
BRANCH  15  16
HETATM   16  C   UNL     1     -12.583  11.048  70.239  1.00  0.00    -0.321 C  
BRANCH  16  17
HETATM   17  C   UNL     1     -11.926  12.403  70.482  1.00  0.00    -0.284 C  
BRANCH  17  18
HETATM   18  C   UNL     1     -12.535  13.486  69.608  1.00  0.00    -0.107 C  
BRANCH  18  19
HETATM   19  C   UNL     1     -11.439  14.192  68.822  1.00  0.00    -0.333 C  
BRANCH  19  20
HETATM   20  C   UNL     1     -11.822  14.300  67.349  1.00  0.00    -0.441 C  
BRANCH  20  21
HETATM   21  C   UNL     1     -11.980  12.918  66.723  1.00  0.00    -0.418 C  
BRANCH  21  22
HETATM   22  C   UNL     1     -12.246  13.034  65.226  1.00  0.00    -0.513 C  
HETATM   23  C   UNL     1     -11.899  14.418  64.710  1.00  0.00    -0.439 C  
ENDBRANCH  21  22
ENDBRANCH  20  21
ENDBRANCH  19  20
ENDBRANCH  18  19
ENDBRANCH  17  18
ENDBRANCH  16  17
ENDBRANCH  15  16
ENDBRANCH  14  15
ENDBRANCH  11  14
ENDBRANCH  10  11
ENDBRANCH   9  10
ENDBRANCH   8   9
ENDBRANCH   7   8
ENDBRANCH   6   7
ENDBRANCH   5   6
ENDBRANCH   4   5
ENDBRANCH   3   4
ENDBRANCH   2   3
TORSDOF 18
ENDMDL
MODEL      397
REMARK 921   NORMALIZED FREE ENERGY PREDICTED BY IDOCK:   -1.75 KCAL/MOL
REMARK 922        TOTAL FREE ENERGY PREDICTED BY IDOCK:   -6.30 KCAL/MOL
REMARK 923 INTER-LIGAND FREE ENERGY PREDICTED BY IDOCK:   -4.79 KCAL/MOL
REMARK 924 INTRA-LIGAND FREE ENERGY PREDICTED BY IDOCK:   -1.51 KCAL/MOL
REMARK 927      BINDING AFFINITY PREDICTED BY RF-SCORE:    0.00 PKD
ROOT
HETATM    1  C   UNL     1      -7.273  10.300  62.503  1.00  0.00    -0.151 C  
HETATM    2  C   UNL     1      -6.322  10.085  63.665  1.00  0.00    -0.131 C  
ENDROOT
BRANCH   2   3
HETATM    3  C   UNL     1      -7.032  10.275  65.002  1.00  0.00    -0.112 C  
BRANCH   3   4
HETATM    4  C   UNL     1      -7.161   8.946  65.736  1.00  0.00    -0.085 C  
BRANCH   4   5
HETATM    5  C   UNL     1      -8.447   8.232  65.345  1.00  0.00    -0.189 C  
BRANCH   5   6
HETATM    6  C   UNL     1      -8.150   6.820  64.850  1.00  0.00    -0.112 C  
BRANCH   6   7
HETATM    7  C   UNL     1      -7.499   6.010  65.958  1.00  0.00    -0.085 C  
BRANCH   7   8
HETATM    8  C   UNL     1      -8.534   5.261  66.792  1.00  0.00    -0.107 C  
BRANCH   8   9
HETATM    9  C   UNL     1      -8.543   5.859  68.191  1.00  0.00    -0.113 C  
BRANCH   9  10
HETATM   10  C   UNL     1      -8.014   4.883  69.233  1.00  0.00    -0.075 C  
BRANCH  10  11
HETATM   11  N   UNL     1      -9.079   4.514  70.299  1.00  0.00    -0.094 N  
HETATM   12  C   UNL     1     -10.396   5.233  70.003  1.00  0.00    -0.295 C  
HETATM   13  C   UNL     1      -9.309   3.001  70.315  1.00  0.00    -0.158 C  
BRANCH  11  14
HETATM   14  C   UNL     1      -8.503   4.985  71.659  1.00  0.00    -0.124 C  
BRANCH  14  15
HETATM   15  C   UNL     1      -8.532   6.498  71.815  1.00  0.00    -0.123 C  
BRANCH  15  16
HETATM   16  C   UNL     1      -9.016   6.923  73.194  1.00  0.00    -0.151 C  
BRANCH  16  17
HETATM   17  C   UNL     1     -10.042   8.038  73.021  1.00  0.00    -0.351 C  
BRANCH  17  18
HETATM   18  C   UNL     1     -11.415   7.487  72.677  1.00  0.00    -0.369 C  
BRANCH  18  19
HETATM   19  C   UNL     1     -12.002   8.260  71.503  1.00  0.00    -0.335 C  
BRANCH  19  20
HETATM   20  C   UNL     1     -11.320   9.616  71.361  1.00  0.00    -0.444 C  
BRANCH  20  21
HETATM   21  C   UNL     1     -11.582  10.218  69.984  1.00  0.00    -0.349 C  
BRANCH  21  22
HETATM   22  C   UNL     1     -12.030  11.669  70.107  1.00  0.00    -0.441 C  
HETATM   23  C   UNL     1     -12.762  11.910  71.415  1.00  0.00    -0.395 C  
ENDBRANCH  21  22
ENDBRANCH  20  21
ENDBRANCH  19  20
ENDBRANCH  18  19
ENDBRANCH  17  18
ENDBRANCH  16  17
ENDBRANCH  15  16
ENDBRANCH  14  15
ENDBRANCH  11  14
ENDBRANCH  10  11
ENDBRANCH   9  10
ENDBRANCH   8   9
ENDBRANCH   7   8
ENDBRANCH   6   7
ENDBRANCH   5   6
ENDBRANCH   4   5
ENDBRANCH   3   4
ENDBRANCH   2   3
TORSDOF 18
ENDMDL
MODEL      398
REMARK 921   NORMALIZED FREE ENERGY PREDICTED BY IDOCK:   -1.68 KCAL/MOL
REMARK 922        TOTAL FREE ENERGY PREDICTED BY IDOCK:   -6.16 KCAL/MOL
REMARK 923 INTER-LIGAND FREE ENERGY PREDICTED BY IDOCK:   -3.92 KCAL/MOL
REMARK 924 INTRA-LIGAND FREE ENERGY PREDICTED BY IDOCK:   -2.24 KCAL/MOL
REMARK 927      BINDING AFFINITY PREDICTED BY RF-SCORE:    0.00 PKD
ROOT
HETATM    1  C   UNL     1     -10.670   5.770  66.432  1.00  0.00    -0.193 C  
HETATM    2  C   UNL     1      -9.538   4.838  66.821  1.00  0.00    -0.184 C  
ENDROOT
BRANCH   2   3
HETATM    3  C   UNL     1      -8.184   5.527  66.683  1.00  0.00    -0.105 C  
BRANCH   3   4
HETATM    4  C   UNL     1      -8.123   6.341  65.396  1.00  0.00    -0.131 C  
BRANCH   4   5
HETATM    5  C   UNL     1      -7.314   7.614  65.596  1.00  0.00    -0.073 C  
BRANCH   5   6
HETATM    6  C   UNL     1      -5.840   7.287  65.808  1.00  0.00    -0.037 C  
BRANCH   6   7
HETATM    7  C   UNL     1      -5.141   8.460  66.475  1.00  0.00    -0.027 C  
BRANCH   7   8
HETATM    8  C   UNL     1      -6.065   9.193  67.442  1.00  0.00    -0.054 C  
BRANCH   8   9
HETATM    9  C   UNL     1      -5.744   8.726  68.855  1.00  0.00    -0.040 C  
BRANCH   9  10
HETATM   10  C   UNL     1      -6.662   7.598  69.306  1.00  0.00    -0.044 C  
BRANCH  10  11
HETATM   11  N   UNL     1      -7.494   7.973  70.560  1.00  0.00    -0.070 N  
HETATM   12  C   UNL     1      -7.032   7.156  71.767  1.00  0.00    -0.064 C  
HETATM   13  C   UNL     1      -7.351   9.467  70.862  1.00  0.00    -0.075 C  
BRANCH  11  14
HETATM   14  C   UNL     1      -8.966   7.634  70.213  1.00  0.00    -0.146 C  
BRANCH  14  15
HETATM   15  C   UNL     1      -9.307   7.928  68.760  1.00  0.00    -0.146 C  
BRANCH  15  16
HETATM   16  C   UNL     1     -10.043   9.251  68.600  1.00  0.00    -0.207 C  
BRANCH  16  17
HETATM   17  C   UNL     1      -9.420  10.008  67.432  1.00  0.00    -0.176 C  
BRANCH  17  18
HETATM   18  C   UNL     1     -10.302   9.956  66.196  1.00  0.00    -0.223 C  
BRANCH  18  19
HETATM   19  C   UNL     1      -9.650  10.738  65.064  1.00  0.00    -0.305 C  
BRANCH  19  20
HETATM   20  C   UNL     1     -10.711  11.373  64.172  1.00  0.00    -0.434 C  
BRANCH  20  21
HETATM   21  C   UNL     1     -11.606  12.314  64.972  1.00  0.00    -0.394 C  
BRANCH  21  22
HETATM   22  C   UNL     1     -11.140  13.758  64.821  1.00  0.00    -0.380 C  
HETATM   23  C   UNL     1     -12.295  14.674  64.460  1.00  0.00    -0.416 C  
ENDBRANCH  21  22
ENDBRANCH  20  21
ENDBRANCH  19  20
ENDBRANCH  18  19
ENDBRANCH  17  18
ENDBRANCH  16  17
ENDBRANCH  15  16
ENDBRANCH  14  15
ENDBRANCH  11  14
ENDBRANCH  10  11
ENDBRANCH   9  10
ENDBRANCH   8   9
ENDBRANCH   7   8
ENDBRANCH   6   7
ENDBRANCH   5   6
ENDBRANCH   4   5
ENDBRANCH   3   4
ENDBRANCH   2   3
TORSDOF 18
ENDMDL
MODEL      399
REMARK 921   NORMALIZED FREE ENERGY PREDICTED BY IDOCK:   -1.68 KCAL/MOL
REMARK 922        TOTAL FREE ENERGY PREDICTED BY IDOCK:   -6.15 KCAL/MOL
REMARK 923 INTER-LIGAND FREE ENERGY PREDICTED BY IDOCK:   -4.62 KCAL/MOL
REMARK 924 INTRA-LIGAND FREE ENERGY PREDICTED BY IDOCK:   -1.53 KCAL/MOL
REMARK 927      BINDING AFFINITY PREDICTED BY RF-SCORE:    0.00 PKD
ROOT
HETATM    1  C   UNL     1     -14.049  15.220  71.178  1.00  0.00    -0.438 C  
HETATM    2  C   UNL     1     -14.329  14.043  72.094  1.00  0.00    -0.577 C  
ENDROOT
BRANCH   2   3
HETATM    3  C   UNL     1     -13.060  13.240  72.364  1.00  0.00    -0.443 C  
BRANCH   3   4
HETATM    4  C   UNL     1     -13.286  11.762  72.069  1.00  0.00    -0.460 C  
BRANCH   4   5
HETATM    5  C   UNL     1     -13.160  11.480  70.579  1.00  0.00     0.216 C  
BRANCH   5   6
HETATM    6  C   UNL     1     -11.937  12.183  70.000  1.00  0.00    -0.391 C  
BRANCH   6   7
HETATM    7  C   UNL     1     -10.994  11.161  69.388  1.00  0.00    -0.298 C  
BRANCH   7   8
HETATM    8  C   UNL     1     -11.007   9.846  70.162  1.00  0.00    -0.356 C  
BRANCH   8   9
HETATM    9  C   UNL     1      -9.602   9.587  70.686  1.00  0.00    -0.292 C  
BRANCH   9  10
HETATM   10  C   UNL     1      -9.124   8.177  70.365  1.00  0.00    -0.150 C  
BRANCH  10  11
HETATM   11  N   UNL     1      -9.262   7.213  71.572  1.00  0.00    -0.146 N  
HETATM   12  C   UNL     1      -9.593   7.997  72.843  1.00  0.00    -0.279 C  
HETATM   13  C   UNL     1     -10.360   6.181  71.302  1.00  0.00    -0.217 C  
BRANCH  11  14
HETATM   14  C   UNL     1      -7.888   6.510  71.717  1.00  0.00    -0.103 C  
BRANCH  14  15
HETATM   15  C   UNL     1      -7.243   6.759  73.072  1.00  0.00    -0.076 C  
BRANCH  15  16
HETATM   16  C   UNL     1      -5.935   7.527  72.951  1.00  0.00    -0.047 C  
BRANCH  16  17
HETATM   17  C   UNL     1      -5.643   7.748  71.470  1.00  0.00    -0.035 C  
BRANCH  17  18
HETATM   18  C   UNL     1      -5.545   9.226  71.133  1.00  0.00    -0.056 C  
BRANCH  18  19
HETATM   19  C   UNL     1      -5.296   9.399  69.640  1.00  0.00    -0.034 C  
BRANCH  19  20
HETATM   20  C   UNL     1      -5.918  10.698  69.140  1.00  0.00    -0.041 C  
BRANCH  20  21
HETATM   21  C   UNL     1      -5.728  11.821  70.155  1.00  0.00    -0.145 C  
BRANCH  21  22
HETATM   22  C   UNL     1      -5.639  13.171  69.452  1.00  0.00    -0.084 C  
HETATM   23  C   UNL     1      -5.937  14.311  70.409  1.00  0.00    -0.171 C  
ENDBRANCH  21  22
ENDBRANCH  20  21
ENDBRANCH  19  20
ENDBRANCH  18  19
ENDBRANCH  17  18
ENDBRANCH  16  17
ENDBRANCH  15  16
ENDBRANCH  14  15
ENDBRANCH  11  14
ENDBRANCH  10  11
ENDBRANCH   9  10
ENDBRANCH   8   9
ENDBRANCH   7   8
ENDBRANCH   6   7
ENDBRANCH   5   6
ENDBRANCH   4   5
ENDBRANCH   3   4
ENDBRANCH   2   3
TORSDOF 18
ENDMDL
MODEL      400
REMARK 921   NORMALIZED FREE ENERGY PREDICTED BY IDOCK:   -1.68 KCAL/MOL
REMARK 922        TOTAL FREE ENERGY PREDICTED BY IDOCK:   -6.14 KCAL/MOL
REMARK 923 INTER-LIGAND FREE ENERGY PREDICTED BY IDOCK:   -5.01 KCAL/MOL
REMARK 924 INTRA-LIGAND FREE ENERGY PREDICTED BY IDOCK:   -1.13 KCAL/MOL
REMARK 927      BINDING AFFINITY PREDICTED BY RF-SCORE:    0.00 PKD
ROOT
HETATM    1  C   UNL     1      -9.282   6.952  74.325  1.00  0.00    -0.255 C  
HETATM    2  C   UNL     1      -8.398   5.737  74.538  1.00  0.00    -0.111 C  
ENDROOT
BRANCH   2   3
HETATM    3  C   UNL     1      -9.196   4.443  74.398  1.00  0.00    -0.116 C  
BRANCH   3   4
HETATM    4  C   UNL     1      -8.708   3.638  73.199  1.00  0.00    -0.090 C  
BRANCH   4   5
HETATM    5  C   UNL     1      -9.853   3.344  72.240  1.00  0.00    -0.231 C  
BRANCH   5   6
HETATM    6  C   UNL     1      -9.474   3.732  70.814  1.00  0.00    -0.236 C  
BRANCH   6   7
HETATM    7  C   UNL     1     -10.477   4.734  70.268  1.00  0.00    -0.046 C  
BRANCH   7   8
HETATM    8  C   UNL     1     -10.421   6.058  71.023  1.00  0.00    -0.285 C  
BRANCH   8   9
HETATM    9  C   UNL     1      -9.215   6.842  70.525  1.00  0.00    -0.156 C  
BRANCH   9  10
HETATM   10  C   UNL     1      -9.555   7.711  69.323  1.00  0.00    -0.159 C  
BRANCH  10  11
HETATM   11  N   UNL     1      -8.784   9.057  69.324  1.00  0.00    -0.135 N  
HETATM   12  C   UNL     1      -9.738  10.216  69.614  1.00  0.00    -0.221 C  
HETATM   13  C   UNL     1      -7.671   9.028  70.375  1.00  0.00    -0.108 C  
BRANCH  11  14
HETATM   14  C   UNL     1      -8.177   9.203  67.904  1.00  0.00    -0.112 C  
BRANCH  14  15
HETATM   15  C   UNL     1      -9.201   8.968  66.803  1.00  0.00    -0.198 C  
BRANCH  15  16
HETATM   16  C   UNL     1     -10.126  10.162  66.617  1.00  0.00    -0.283 C  
BRANCH  16  17
HETATM   17  C   UNL     1      -9.313  11.311  66.030  1.00  0.00    -0.234 C  
BRANCH  17  18
HETATM   18  C   UNL     1      -9.168  12.457  67.018  1.00  0.00    -0.208 C  
BRANCH  18  19
HETATM   19  C   UNL     1     -10.340  13.418  66.868  1.00  0.00    -0.257 C  
BRANCH  19  20
HETATM   20  C   UNL     1     -10.228  14.199  65.563  1.00  0.00    -0.371 C  
BRANCH  20  21
HETATM   21  C   UNL     1     -11.551  14.185  64.803  1.00  0.00    -0.400 C  
BRANCH  21  22
HETATM   22  C   UNL     1     -11.521  13.142  63.691  1.00  0.00    -0.376 C  
HETATM   23  C   UNL     1     -12.790  12.310  63.682  1.00  0.00    -0.426 C  
ENDBRANCH  21  22
ENDBRANCH  20  21
ENDBRANCH  19  20
ENDBRANCH  18  19
ENDBRANCH  17  18
ENDBRANCH  16  17
ENDBRANCH  15  16
ENDBRANCH  14  15
ENDBRANCH  11  14
ENDBRANCH  10  11
ENDBRANCH   9  10
ENDBRANCH   8   9
ENDBRANCH   7   8
ENDBRANCH   6   7
ENDBRANCH   5   6
ENDBRANCH   4   5
ENDBRANCH   3   4
ENDBRANCH   2   3
TORSDOF 18
ENDMDL
MODEL      401
REMARK 921   NORMALIZED FREE ENERGY PREDICTED BY IDOCK:   -1.66 KCAL/MOL
REMARK 922        TOTAL FREE ENERGY PREDICTED BY IDOCK:   -6.12 KCAL/MOL
REMARK 923 INTER-LIGAND FREE ENERGY PREDICTED BY IDOCK:   -3.81 KCAL/MOL
REMARK 924 INTRA-LIGAND FREE ENERGY PREDICTED BY IDOCK:   -2.30 KCAL/MOL
REMARK 927      BINDING AFFINITY PREDICTED BY RF-SCORE:    0.00 PKD
ROOT
HETATM    1  C   UNL     1     -11.579   6.246  70.357  1.00  0.00    -0.371 C  
HETATM    2  C   UNL     1     -11.680   7.645  70.936  1.00  0.00    -0.291 C  
ENDROOT
BRANCH   2   3
HETATM    3  C   UNL     1     -10.311   8.162  71.371  1.00  0.00    -0.258 C  
BRANCH   3   4
HETATM    4  C   UNL     1     -10.030   9.526  70.751  1.00  0.00    -0.334 C  
BRANCH   4   5
HETATM    5  C   UNL     1     -10.889   9.748  69.515  1.00  0.00    -0.264 C  
BRANCH   5   6
HETATM    6  C   UNL     1     -10.081   9.496  68.246  1.00  0.00    -0.210 C  
BRANCH   6   7
HETATM    7  C   UNL     1      -9.553  10.811  67.700  1.00  0.00    -0.174 C  
BRANCH   7   8
HETATM    8  C   UNL     1      -8.187  11.157  68.284  1.00  0.00    -0.134 C  
BRANCH   8   9
HETATM    9  C   UNL     1      -7.121  10.772  67.269  1.00  0.00    -0.091 C  
BRANCH   9  10
HETATM   10  C   UNL     1      -7.613  10.929  65.836  1.00  0.00    -0.057 C  
BRANCH  10  11
HETATM   11  N   UNL     1      -7.355   9.665  64.976  1.00  0.00    -0.111 N  
HETATM   12  C   UNL     1      -8.630   9.258  64.236  1.00  0.00    -0.193 C  
HETATM   13  C   UNL     1      -6.234   9.930  63.968  1.00  0.00    -0.125 C  
BRANCH  11  14
HETATM   14  C   UNL     1      -6.932   8.552  65.969  1.00  0.00    -0.068 C  
BRANCH  14  15
HETATM   15  C   UNL     1      -7.910   7.387  65.994  1.00  0.00    -0.102 C  
BRANCH  15  16
HETATM   16  C   UNL     1      -7.262   6.085  65.547  1.00  0.00    -0.074 C  
BRANCH  16  17
HETATM   17  C   UNL     1      -8.301   5.266  64.788  1.00  0.00    -0.145 C  
BRANCH  17  18
HETATM   18  C   UNL     1      -8.400   3.849  65.326  1.00  0.00    -0.105 C  
BRANCH  18  19
HETATM   19  C   UNL     1      -9.628   3.720  66.218  1.00  0.00    -0.176 C  
BRANCH  19  20
HETATM   20  C   UNL     1      -9.235   3.197  67.596  1.00  0.00    -0.237 C  
BRANCH  20  21
HETATM   21  C   UNL     1      -9.144   4.336  68.607  1.00  0.00    -0.178 C  
BRANCH  21  22
HETATM   22  C   UNL     1      -7.688   4.696  68.881  1.00  0.00    -0.071 C  
HETATM   23  C   UNL     1      -6.798   3.468  68.831  1.00  0.00    -0.045 C  
ENDBRANCH  21  22
ENDBRANCH  20  21
ENDBRANCH  19  20
ENDBRANCH  18  19
ENDBRANCH  17  18
ENDBRANCH  16  17
ENDBRANCH  15  16
ENDBRANCH  14  15
ENDBRANCH  11  14
ENDBRANCH  10  11
ENDBRANCH   9  10
ENDBRANCH   8   9
ENDBRANCH   7   8
ENDBRANCH   6   7
ENDBRANCH   5   6
ENDBRANCH   4   5
ENDBRANCH   3   4
ENDBRANCH   2   3
TORSDOF 18
ENDMDL
MODEL      402
REMARK 921   NORMALIZED FREE ENERGY PREDICTED BY IDOCK:   -1.66 KCAL/MOL
REMARK 922        TOTAL FREE ENERGY PREDICTED BY IDOCK:   -6.11 KCAL/MOL
REMARK 923 INTER-LIGAND FREE ENERGY PREDICTED BY IDOCK:   -5.21 KCAL/MOL
REMARK 924 INTRA-LIGAND FREE ENERGY PREDICTED BY IDOCK:   -0.90 KCAL/MOL
REMARK 927      BINDING AFFINITY PREDICTED BY RF-SCORE:    0.00 PKD
ROOT
HETATM    1  C   UNL     1     -12.414  12.038  63.392  1.00  0.00    -0.625 C  
HETATM    2  C   UNL     1     -11.172  11.593  64.142  1.00  0.00    -0.421 C  
ENDROOT
BRANCH   2   3
HETATM    3  C   UNL     1     -10.445  12.784  64.761  1.00  0.00    -0.357 C  
BRANCH   3   4
HETATM    4  C   UNL     1     -10.919  13.019  66.190  1.00  0.00    -0.300 C  
BRANCH   4   5
HETATM    5  C   UNL     1     -11.399  11.722  66.824  1.00  0.00    -0.385 C  
BRANCH   5   6
HETATM    6  C   UNL     1     -10.901  11.608  68.261  1.00  0.00    -0.260 C  
BRANCH   6   7
HETATM    7  C   UNL     1     -12.044  11.195  69.173  1.00  0.00    -0.352 C  
BRANCH   7   8
HETATM    8  C   UNL     1     -11.559  10.322  70.326  1.00  0.00    -0.396 C  
BRANCH   8   9
HETATM    9  C   UNL     1     -10.570   9.307  69.774  1.00  0.00    -0.244 C  
BRANCH   9  10
HETATM   10  C   UNL     1     -10.750   7.932  70.402  1.00  0.00    -0.233 C  
BRANCH  10  11
HETATM   11  N   UNL     1      -9.564   7.536  71.320  1.00  0.00    -0.157 N  
HETATM   12  C   UNL     1      -8.249   8.064  70.745  1.00  0.00    -0.113 C  
HETATM   13  C   UNL     1      -9.775   8.098  72.728  1.00  0.00    -0.281 C  
BRANCH  11  14
HETATM   14  C   UNL     1      -9.551   5.986  71.357  1.00  0.00    -0.160 C  
BRANCH  14  15
HETATM   15  C   UNL     1     -10.120   5.366  70.090  1.00  0.00    -0.322 C  
BRANCH  15  16
HETATM   16  C   UNL     1      -9.135   4.414  69.426  1.00  0.00    -0.171 C  
BRANCH  16  17
HETATM   17  C   UNL     1      -8.764   4.982  68.060  1.00  0.00    -0.105 C  
BRANCH  17  18
HETATM   18  C   UNL     1      -9.013   3.976  66.949  1.00  0.00    -0.141 C  
BRANCH  18  19
HETATM   19  C   UNL     1      -8.017   4.200  65.819  1.00  0.00    -0.094 C  
BRANCH  19  20
HETATM   20  C   UNL     1      -6.849   3.225  65.934  1.00  0.00    -0.052 C  
BRANCH  20  21
HETATM   21  C   UNL     1      -5.688   3.852  66.700  1.00  0.00    -0.022 C  
BRANCH  21  22
HETATM   22  C   UNL     1      -5.385   5.249  66.169  1.00  0.00    -0.013 C  
HETATM   23  C   UNL     1      -5.179   5.234  64.666  1.00  0.00    -0.009 C  
ENDBRANCH  21  22
ENDBRANCH  20  21
ENDBRANCH  19  20
ENDBRANCH  18  19
ENDBRANCH  17  18
ENDBRANCH  16  17
ENDBRANCH  15  16
ENDBRANCH  14  15
ENDBRANCH  11  14
ENDBRANCH  10  11
ENDBRANCH   9  10
ENDBRANCH   8   9
ENDBRANCH   7   8
ENDBRANCH   6   7
ENDBRANCH   5   6
ENDBRANCH   4   5
ENDBRANCH   3   4
ENDBRANCH   2   3
TORSDOF 18
ENDMDL
MODEL      403
REMARK 921   NORMALIZED FREE ENERGY PREDICTED BY IDOCK:   -1.64 KCAL/MOL
REMARK 922        TOTAL FREE ENERGY PREDICTED BY IDOCK:   -6.07 KCAL/MOL
REMARK 923 INTER-LIGAND FREE ENERGY PREDICTED BY IDOCK:   -4.21 KCAL/MOL
REMARK 924 INTRA-LIGAND FREE ENERGY PREDICTED BY IDOCK:   -1.86 KCAL/MOL
REMARK 927      BINDING AFFINITY PREDICTED BY RF-SCORE:    0.00 PKD
ROOT
HETATM    1  C   UNL     1      -7.217  10.195  62.544  1.00  0.00    -0.141 C  
HETATM    2  C   UNL     1      -6.672  10.013  63.948  1.00  0.00    -0.128 C  
ENDROOT
BRANCH   2   3
HETATM    3  C   UNL     1      -7.685  10.466  64.996  1.00  0.00    -0.095 C  
BRANCH   3   4
HETATM    4  C   UNL     1      -7.956   9.350  65.999  1.00  0.00    -0.110 C  
BRANCH   4   5
HETATM    5  C   UNL     1      -8.918   8.323  65.421  1.00  0.00    -0.062 C  
BRANCH   5   6
HETATM    6  C   UNL     1      -8.270   6.942  65.379  1.00  0.00    -0.134 C  
BRANCH   6   7
HETATM    7  C   UNL     1      -7.602   6.644  66.711  1.00  0.00    -0.091 C  
BRANCH   7   8
HETATM    8  C   UNL     1      -8.512   5.838  67.632  1.00  0.00    -0.103 C  
BRANCH   8   9
HETATM    9  C   UNL     1      -9.223   6.806  68.567  1.00  0.00    -0.128 C  
BRANCH   9  10
HETATM   10  C   UNL     1      -8.846   6.573  70.024  1.00  0.00    -0.144 C  
BRANCH  10  11
HETATM   11  N   UNL     1     -10.058   6.142  70.891  1.00  0.00    -0.188 N  
HETATM   12  C   UNL     1     -11.321   6.057  70.032  1.00  0.00    -0.284 C  
HETATM   13  C   UNL     1      -9.786   4.786  71.545  1.00  0.00    -0.172 C  
BRANCH  11  14
HETATM   14  C   UNL     1     -10.219   7.239  71.975  1.00  0.00    -0.190 C  
BRANCH  14  15
HETATM   15  C   UNL     1     -10.149   8.646  71.399  1.00  0.00    -0.325 C  
BRANCH  15  16
HETATM   16  C   UNL     1     -11.506   9.335  71.405  1.00  0.00    -0.439 C  
BRANCH  16  17
HETATM   17  C   UNL     1     -11.438  10.537  70.469  1.00  0.00    -0.433 C  
BRANCH  17  18
HETATM   18  C   UNL     1     -11.587  10.123  69.014  1.00  0.00    -0.076 C  
BRANCH  18  19
HETATM   19  C   UNL     1     -10.462  10.731  68.187  1.00  0.00    -0.214 C  
BRANCH  19  20
HETATM   20  C   UNL     1     -10.815  12.154  67.767  1.00  0.00    -0.263 C  
BRANCH  20  21
HETATM   21  C   UNL     1     -11.353  12.185  66.340  1.00  0.00    -0.411 C  
BRANCH  21  22
HETATM   22  C   UNL     1     -12.289  13.372  66.144  1.00  0.00    -0.440 C  
HETATM   23  C   UNL     1     -12.654  14.011  67.472  1.00  0.00     0.359 C  
ENDBRANCH  21  22
ENDBRANCH  20  21
ENDBRANCH  19  20
ENDBRANCH  18  19
ENDBRANCH  17  18
ENDBRANCH  16  17
ENDBRANCH  15  16
ENDBRANCH  14  15
ENDBRANCH  11  14
ENDBRANCH  10  11
ENDBRANCH   9  10
ENDBRANCH   8   9
ENDBRANCH   7   8
ENDBRANCH   6   7
ENDBRANCH   5   6
ENDBRANCH   4   5
ENDBRANCH   3   4
ENDBRANCH   2   3
TORSDOF 18
ENDMDL
MODEL      404
REMARK 921   NORMALIZED FREE ENERGY PREDICTED BY IDOCK:   -1.62 KCAL/MOL
REMARK 922        TOTAL FREE ENERGY PREDICTED BY IDOCK:   -6.03 KCAL/MOL
REMARK 923 INTER-LIGAND FREE ENERGY PREDICTED BY IDOCK:   -4.38 KCAL/MOL
REMARK 924 INTRA-LIGAND FREE ENERGY PREDICTED BY IDOCK:   -1.65 KCAL/MOL
REMARK 927      BINDING AFFINITY PREDICTED BY RF-SCORE:    0.00 PKD
ROOT
HETATM    1  C   UNL     1     -10.901   6.008  69.566  1.00  0.00    -0.439 C  
HETATM    2  C   UNL     1     -11.063   5.795  71.060  1.00  0.00    -0.264 C  
ENDROOT
BRANCH   2   3
HETATM    3  C   UNL     1     -10.067   6.639  71.849  1.00  0.00    -0.196 C  
BRANCH   3   4
HETATM    4  C   UNL     1      -8.669   6.517  71.254  1.00  0.00    -0.130 C  
BRANCH   4   5
HETATM    5  C   UNL     1      -7.828   7.740  71.586  1.00  0.00    -0.094 C  
BRANCH   5   6
HETATM    6  C   UNL     1      -8.600   9.021  71.287  1.00  0.00    -0.221 C  
BRANCH   6   7
HETATM    7  C   UNL     1      -8.045   9.679  70.035  1.00  0.00    -0.190 C  
BRANCH   7   8
HETATM    8  C   UNL     1      -7.425   8.657  69.087  1.00  0.00    -0.083 C  
BRANCH   8   9
HETATM    9  C   UNL     1      -6.453   9.384  68.170  1.00  0.00    -0.054 C  
BRANCH   9  10
HETATM   10  C   UNL     1      -6.648   8.998  66.710  1.00  0.00    -0.064 C  
BRANCH  10  11
HETATM   11  N   UNL     1      -7.098  10.195  65.833  1.00  0.00    -0.114 N  
HETATM   12  C   UNL     1      -6.649  11.514  66.463  1.00  0.00    -0.022 C  
HETATM   13  C   UNL     1      -6.512  10.069  64.425  1.00  0.00    -0.131 C  
BRANCH  11  14
HETATM   14  C   UNL     1      -8.646  10.126  65.778  1.00  0.00    -0.149 C  
BRANCH  14  15
HETATM   15  C   UNL     1      -9.310  11.235  66.581  1.00  0.00    -0.196 C  
BRANCH  15  16
HETATM   16  C   UNL     1     -10.321  12.015  65.752  1.00  0.00    -0.289 C  
BRANCH  16  17
HETATM   17  C   UNL     1     -11.637  12.063  66.522  1.00  0.00    -0.384 C  
BRANCH  17  18
HETATM   18  C   UNL     1     -11.409  12.266  68.010  1.00  0.00    -0.348 C  
BRANCH  18  19
HETATM   19  C   UNL     1     -11.429  13.753  68.337  1.00  0.00    -0.351 C  
BRANCH  19  20
HETATM   20  C   UNL     1     -10.308  14.103  69.309  1.00  0.00    -0.026 C  
BRANCH  20  21
HETATM   21  C   UNL     1      -9.840  15.541  69.109  1.00  0.00    -0.246 C  
BRANCH  21  22
HETATM   22  C   UNL     1      -9.089  15.684  67.790  1.00  0.00    -0.181 C  
HETATM   23  C   UNL     1      -8.451  17.056  67.665  1.00  0.00    -0.210 C  
ENDBRANCH  21  22
ENDBRANCH  20  21
ENDBRANCH  19  20
ENDBRANCH  18  19
ENDBRANCH  17  18
ENDBRANCH  16  17
ENDBRANCH  15  16
ENDBRANCH  14  15
ENDBRANCH  11  14
ENDBRANCH  10  11
ENDBRANCH   9  10
ENDBRANCH   8   9
ENDBRANCH   7   8
ENDBRANCH   6   7
ENDBRANCH   5   6
ENDBRANCH   4   5
ENDBRANCH   3   4
ENDBRANCH   2   3
TORSDOF 18
ENDMDL
MODEL      405
REMARK 921   NORMALIZED FREE ENERGY PREDICTED BY IDOCK:   -1.61 KCAL/MOL
REMARK 922        TOTAL FREE ENERGY PREDICTED BY IDOCK:   -6.00 KCAL/MOL
REMARK 923 INTER-LIGAND FREE ENERGY PREDICTED BY IDOCK:   -3.80 KCAL/MOL
REMARK 924 INTRA-LIGAND FREE ENERGY PREDICTED BY IDOCK:   -2.20 KCAL/MOL
REMARK 927      BINDING AFFINITY PREDICTED BY RF-SCORE:    0.00 PKD
ROOT
HETATM    1  C   UNL     1     -11.044   6.541  69.335  1.00  0.00    -0.407 C  
HETATM    2  C   UNL     1     -11.094   7.697  70.317  1.00  0.00    -0.256 C  
ENDROOT
BRANCH   2   3
HETATM    3  C   UNL     1      -9.790   8.490  70.302  1.00  0.00    -0.194 C  
BRANCH   3   4
HETATM    4  C   UNL     1     -10.073   9.987  70.241  1.00  0.00    -0.228 C  
BRANCH   4   5
HETATM    5  C   UNL     1     -11.418  10.260  69.585  1.00  0.00    -0.297 C  
BRANCH   5   6
HETATM    6  C   UNL     1     -11.269  10.351  68.069  1.00  0.00    -0.340 C  
BRANCH   6   7
HETATM    7  C   UNL     1     -11.213  11.807  67.642  1.00  0.00    -0.345 C  
BRANCH   7   8
HETATM    8  C   UNL     1      -9.868  12.443  67.981  1.00  0.00    -0.205 C  
BRANCH   8   9
HETATM    9  C   UNL     1      -9.039  12.515  66.706  1.00  0.00    -0.214 C  
BRANCH   9  10
HETATM   10  C   UNL     1      -9.682  11.743  65.562  1.00  0.00    -0.224 C  
BRANCH  10  11
HETATM   11  N   UNL     1      -8.851  10.504  65.139  1.00  0.00    -0.184 N  
HETATM   12  C   UNL     1      -9.652   9.222  65.374  1.00  0.00    -0.167 C  
HETATM   13  C   UNL     1      -8.461  10.607  63.663  1.00  0.00    -0.077 C  
BRANCH  11  14
HETATM   14  C   UNL     1      -7.582  10.516  66.031  1.00  0.00    -0.140 C  
BRANCH  14  15
HETATM   15  C   UNL     1      -7.691   9.567  67.216  1.00  0.00    -0.091 C  
BRANCH  15  16
HETATM   16  C   UNL     1      -6.557   8.552  67.243  1.00  0.00    -0.059 C  
BRANCH  16  17
HETATM   17  C   UNL     1      -7.057   7.292  67.941  1.00  0.00    -0.085 C  
BRANCH  17  18
HETATM   18  C   UNL     1      -6.021   6.735  68.902  1.00  0.00    -0.022 C  
BRANCH  18  19
HETATM   19  C   UNL     1      -6.286   7.259  70.308  1.00  0.00    -0.030 C  
BRANCH  19  20
HETATM   20  C   UNL     1      -5.383   8.449  70.614  1.00  0.00    -0.024 C  
BRANCH  20  21
HETATM   21  C   UNL     1      -6.160   9.559  71.314  1.00  0.00    -0.057 C  
BRANCH  21  22
HETATM   22  C   UNL     1      -6.455  10.702  70.348  1.00  0.00    -0.102 C  
HETATM   23  C   UNL     1      -5.174  11.307  69.805  1.00  0.00    -0.051 C  
ENDBRANCH  21  22
ENDBRANCH  20  21
ENDBRANCH  19  20
ENDBRANCH  18  19
ENDBRANCH  17  18
ENDBRANCH  16  17
ENDBRANCH  15  16
ENDBRANCH  14  15
ENDBRANCH  11  14
ENDBRANCH  10  11
ENDBRANCH   9  10
ENDBRANCH   8   9
ENDBRANCH   7   8
ENDBRANCH   6   7
ENDBRANCH   5   6
ENDBRANCH   4   5
ENDBRANCH   3   4
ENDBRANCH   2   3
TORSDOF 18
ENDMDL
MODEL      406
REMARK 921   NORMALIZED FREE ENERGY PREDICTED BY IDOCK:   -1.59 KCAL/MOL
REMARK 922        TOTAL FREE ENERGY PREDICTED BY IDOCK:   -5.96 KCAL/MOL
REMARK 923 INTER-LIGAND FREE ENERGY PREDICTED BY IDOCK:   -5.40 KCAL/MOL
REMARK 924 INTRA-LIGAND FREE ENERGY PREDICTED BY IDOCK:   -0.55 KCAL/MOL
REMARK 927      BINDING AFFINITY PREDICTED BY RF-SCORE:    0.00 PKD
ROOT
HETATM    1  C   UNL     1      -5.144  17.816  70.562  1.00  0.00    -0.266 C  
HETATM    2  C   UNL     1      -5.953  16.571  70.250  1.00  0.00    -0.053 C  
ENDROOT
BRANCH   2   3
HETATM    3  C   UNL     1      -6.095  16.367  68.744  1.00  0.00    -0.129 C  
BRANCH   3   4
HETATM    4  C   UNL     1      -7.544  16.074  68.375  1.00  0.00    -0.145 C  
BRANCH   4   5
HETATM    5  C   UNL     1      -7.651  15.588  66.937  1.00  0.00    -0.162 C  
BRANCH   5   6
HETATM    6  C   UNL     1      -8.289  16.654  66.054  1.00  0.00    -0.180 C  
BRANCH   6   7
HETATM    7  C   UNL     1      -9.771  16.767  66.368  1.00  0.00    -0.309 C  
BRANCH   7   8
HETATM    8  C   UNL     1     -10.616  15.922  65.419  1.00  0.00    -0.439 C  
BRANCH   8   9
HETATM    9  C   UNL     1     -10.039  14.514  65.391  1.00  0.00    -0.394 C  
BRANCH   9  10
HETATM   10  C   UNL     1     -10.591  13.694  64.233  1.00  0.00    -0.225 C  
BRANCH  10  11
HETATM   11  N   UNL     1     -11.623  12.633  64.694  1.00  0.00    -0.326 N  
HETATM   12  C   UNL     1     -12.381  13.129  65.926  1.00  0.00    -0.398 C  
HETATM   13  C   UNL     1     -12.612  12.331  63.566  1.00  0.00    -0.476 C  
BRANCH  11  14
HETATM   14  C   UNL     1     -10.804  11.363  65.043  1.00  0.00    -0.246 C  
BRANCH  14  15
HETATM   15  C   UNL     1     -10.139  10.742  63.824  1.00  0.00    -0.391 C  
BRANCH  15  16
HETATM   16  C   UNL     1      -9.110   9.688  64.207  1.00  0.00    -0.267 C  
BRANCH  16  17
HETATM   17  C   UNL     1      -8.246  10.248  65.332  1.00  0.00    -0.156 C  
BRANCH  17  18
HETATM   18  C   UNL     1      -7.975   9.206  66.403  1.00  0.00    -0.100 C  
BRANCH  18  19
HETATM   19  C   UNL     1      -8.197   9.813  67.782  1.00  0.00    -0.114 C  
BRANCH  19  20
HETATM   20  C   UNL     1      -8.447   8.719  68.815  1.00  0.00    -0.129 C  
BRANCH  20  21
HETATM   21  C   UNL     1      -9.102   7.500  68.172  1.00  0.00    -0.128 C  
BRANCH  21  22
HETATM   22  C   UNL     1      -9.824   6.663  69.222  1.00  0.00    -0.157 C  
HETATM   23  C   UNL     1     -10.376   7.532  70.336  1.00  0.00    -0.216 C  
ENDBRANCH  21  22
ENDBRANCH  20  21
ENDBRANCH  19  20
ENDBRANCH  18  19
ENDBRANCH  17  18
ENDBRANCH  16  17
ENDBRANCH  15  16
ENDBRANCH  14  15
ENDBRANCH  11  14
ENDBRANCH  10  11
ENDBRANCH   9  10
ENDBRANCH   8   9
ENDBRANCH   7   8
ENDBRANCH   6   7
ENDBRANCH   5   6
ENDBRANCH   4   5
ENDBRANCH   3   4
ENDBRANCH   2   3
TORSDOF 18
ENDMDL
MODEL      407
REMARK 921   NORMALIZED FREE ENERGY PREDICTED BY IDOCK:   -1.56 KCAL/MOL
REMARK 922        TOTAL FREE ENERGY PREDICTED BY IDOCK:   -5.90 KCAL/MOL
REMARK 923 INTER-LIGAND FREE ENERGY PREDICTED BY IDOCK:   -5.49 KCAL/MOL
REMARK 924 INTRA-LIGAND FREE ENERGY PREDICTED BY IDOCK:   -0.41 KCAL/MOL
REMARK 927      BINDING AFFINITY PREDICTED BY RF-SCORE:    0.00 PKD
ROOT
HETATM    1  C   UNL     1      -5.125  16.704  70.577  1.00  0.00    -0.219 C  
HETATM    2  C   UNL     1      -6.327  15.814  70.320  1.00  0.00     0.048 C  
ENDROOT
BRANCH   2   3
HETATM    3  C   UNL     1      -6.466  15.489  68.836  1.00  0.00    -0.110 C  
BRANCH   3   4
HETATM    4  C   UNL     1      -7.931  15.503  68.417  1.00  0.00    -0.127 C  
BRANCH   4   5
HETATM    5  C   UNL     1      -8.090  15.031  66.979  1.00  0.00    -0.225 C  
BRANCH   5   6
HETATM    6  C   UNL     1      -8.687  16.135  66.113  1.00  0.00    -0.358 C  
BRANCH   6   7
HETATM    7  C   UNL     1     -10.120  16.408  66.539  1.00  0.00    -0.304 C  
BRANCH   7   8
HETATM    8  C   UNL     1     -11.081  15.358  65.990  1.00  0.00    -0.233 C  
BRANCH   8   9
HETATM    9  C   UNL     1     -10.318  14.052  65.823  1.00  0.00    -0.330 C  
BRANCH   9  10
HETATM   10  C   UNL     1     -10.547  13.428  64.453  1.00  0.00    -0.407 C  
BRANCH  10  11
HETATM   11  N   UNL     1     -11.515  12.218  64.504  1.00  0.00    -0.327 N  
HETATM   12  C   UNL     1     -12.131  12.089  65.898  1.00  0.00     0.112 C  
HETATM   13  C   UNL     1     -12.624  12.384  63.462  1.00  0.00    -0.425 C  
BRANCH  11  14
HETATM   14  C   UNL     1     -10.656  10.969  64.178  1.00  0.00    -0.342 C  
BRANCH  14  15
HETATM   15  C   UNL     1      -9.169  11.285  64.102  1.00  0.00    -0.058 C  
BRANCH  15  16
HETATM   16  C   UNL     1      -8.356  10.458  65.087  1.00  0.00    -0.165 C  
BRANCH  16  17
HETATM   17  C   UNL     1      -8.386  11.159  66.442  1.00  0.00    -0.167 C  
BRANCH  17  18
HETATM   18  C   UNL     1      -8.915  10.245  67.534  1.00  0.00    -0.138 C  
BRANCH  18  19
HETATM   19  C   UNL     1      -9.912  11.002  68.401  1.00  0.00    -0.194 C  
BRANCH  19  20
HETATM   20  C   UNL     1     -10.950  10.047  68.981  1.00  0.00    -0.249 C  
BRANCH  20  21
HETATM   21  C   UNL     1     -11.224  10.363  70.448  1.00  0.00    -0.399 C  
BRANCH  21  22
HETATM   22  C   UNL     1     -12.588  11.024  70.609  1.00  0.00    -0.427 C  
HETATM   23  C   UNL     1     -13.052  10.985  72.054  1.00  0.00    -0.449 C  
ENDBRANCH  21  22
ENDBRANCH  20  21
ENDBRANCH  19  20
ENDBRANCH  18  19
ENDBRANCH  17  18
ENDBRANCH  16  17
ENDBRANCH  15  16
ENDBRANCH  14  15
ENDBRANCH  11  14
ENDBRANCH  10  11
ENDBRANCH   9  10
ENDBRANCH   8   9
ENDBRANCH   7   8
ENDBRANCH   6   7
ENDBRANCH   5   6
ENDBRANCH   4   5
ENDBRANCH   3   4
ENDBRANCH   2   3
TORSDOF 18
ENDMDL
MODEL      408
REMARK 921   NORMALIZED FREE ENERGY PREDICTED BY IDOCK:   -1.54 KCAL/MOL
REMARK 922        TOTAL FREE ENERGY PREDICTED BY IDOCK:   -5.85 KCAL/MOL
REMARK 923 INTER-LIGAND FREE ENERGY PREDICTED BY IDOCK:   -4.81 KCAL/MOL
REMARK 924 INTRA-LIGAND FREE ENERGY PREDICTED BY IDOCK:   -1.04 KCAL/MOL
REMARK 927      BINDING AFFINITY PREDICTED BY RF-SCORE:    0.00 PKD
ROOT
HETATM    1  C   UNL     1     -10.319  13.658  65.679  1.00  0.00    -0.309 C  
HETATM    2  C   UNL     1     -11.568  13.455  66.517  1.00  0.00    -0.394 C  
ENDROOT
BRANCH   2   3
HETATM    3  C   UNL     1     -11.543  12.105  67.227  1.00  0.00    -0.404 C  
BRANCH   3   4
HETATM    4  C   UNL     1     -10.709  11.100  66.441  1.00  0.00    -0.303 C  
BRANCH   4   5
HETATM    5  C   UNL     1     -10.302   9.926  67.319  1.00  0.00    -0.303 C  
BRANCH   5   6
HETATM    6  C   UNL     1     -10.484  10.269  68.795  1.00  0.00    -0.222 C  
BRANCH   6   7
HETATM    7  C   UNL     1      -9.150  10.176  69.515  1.00  0.00    -0.213 C  
BRANCH   7   8
HETATM    8  C   UNL     1      -8.781   8.730  69.834  1.00  0.00    -0.135 C  
BRANCH   8   9
HETATM    9  C   UNL     1      -9.062   8.479  71.308  1.00  0.00    -0.250 C  
BRANCH   9  10
HETATM   10  C   UNL     1     -10.507   8.067  71.552  1.00  0.00    -0.217 C  
BRANCH  10  11
HETATM   11  N   UNL     1     -10.712   6.532  71.457  1.00  0.00    -0.230 N  
HETATM   12  C   UNL     1     -11.727   6.066  72.501  1.00  0.00    -0.232 C  
HETATM   13  C   UNL     1     -11.199   6.150  70.057  1.00  0.00    -0.401 C  
BRANCH  11  14
HETATM   14  C   UNL     1      -9.325   5.898  71.734  1.00  0.00    -0.148 C  
BRANCH  14  15
HETATM   15  C   UNL     1      -9.378   4.378  71.796  1.00  0.00    -0.195 C  
BRANCH  15  16
HETATM   16  C   UNL     1      -8.228   3.733  71.037  1.00  0.00    -0.077 C  
BRANCH  16  17
HETATM   17  C   UNL     1      -8.802   2.663  70.114  1.00  0.00    -0.144 C  
BRANCH  17  18
HETATM   18  C   UNL     1      -9.146   3.228  68.746  1.00  0.00    -0.206 C  
BRANCH  18  19
HETATM   19  C   UNL     1      -9.190   2.105  67.720  1.00  0.00    -0.217 C  
BRANCH  19  20
HETATM   20  C   UNL     1      -7.799   1.846  67.150  1.00  0.00    -0.065 C  
BRANCH  20  21
HETATM   21  C   UNL     1      -7.811   1.916  65.626  1.00  0.00    -0.073 C  
BRANCH  21  22
HETATM   22  C   UNL     1      -6.979   3.096  65.136  1.00  0.00    -0.056 C  
HETATM   23  C   UNL     1      -5.717   3.261  65.962  1.00  0.00    -0.018 C  
ENDBRANCH  21  22
ENDBRANCH  20  21
ENDBRANCH  19  20
ENDBRANCH  18  19
ENDBRANCH  17  18
ENDBRANCH  16  17
ENDBRANCH  15  16
ENDBRANCH  14  15
ENDBRANCH  11  14
ENDBRANCH  10  11
ENDBRANCH   9  10
ENDBRANCH   8   9
ENDBRANCH   7   8
ENDBRANCH   6   7
ENDBRANCH   5   6
ENDBRANCH   4   5
ENDBRANCH   3   4
ENDBRANCH   2   3
TORSDOF 18
ENDMDL
MODEL      409
REMARK 921   NORMALIZED FREE ENERGY PREDICTED BY IDOCK:   -1.51 KCAL/MOL
REMARK 922        TOTAL FREE ENERGY PREDICTED BY IDOCK:   -5.80 KCAL/MOL
REMARK 923 INTER-LIGAND FREE ENERGY PREDICTED BY IDOCK:   -4.12 KCAL/MOL
REMARK 924 INTRA-LIGAND FREE ENERGY PREDICTED BY IDOCK:   -1.69 KCAL/MOL
REMARK 927      BINDING AFFINITY PREDICTED BY RF-SCORE:    0.00 PKD
ROOT
HETATM    1  C   UNL     1      -5.593  17.526  67.764  1.00  0.00    -0.142 C  
HETATM    2  C   UNL     1      -6.471  16.350  67.377  1.00  0.00    -0.206 C  
ENDROOT
BRANCH   2   3
HETATM    3  C   UNL     1      -5.849  15.029  67.818  1.00  0.00    -0.125 C  
BRANCH   3   4
HETATM    4  C   UNL     1      -5.985  14.846  69.325  1.00  0.00    -0.104 C  
BRANCH   4   5
HETATM    5  C   UNL     1      -6.760  13.578  69.650  1.00  0.00     0.039 C  
BRANCH   5   6
HETATM    6  C   UNL     1      -7.572  13.118  68.444  1.00  0.00    -0.133 C  
BRANCH   6   7
HETATM    7  C   UNL     1      -9.053  13.138  68.779  1.00  0.00     0.153 C  
BRANCH   7   8
HETATM    8  C   UNL     1      -9.856  13.925  67.748  1.00  0.00    -0.237 C  
BRANCH   8   9
HETATM    9  C   UNL     1     -10.985  13.039  67.243  1.00  0.00    -0.288 C  
BRANCH   9  10
HETATM   10  C   UNL     1     -11.953  13.801  66.348  1.00  0.00    -0.438 C  
BRANCH  10  11
HETATM   11  N   UNL     1     -11.781  13.447  64.848  1.00  0.00    -0.337 N  
HETATM   12  C   UNL     1     -12.982  12.641  64.352  1.00  0.00    -0.141 C  
HETATM   13  C   UNL     1     -11.636  14.723  64.016  1.00  0.00     0.096 C  
BRANCH  11  14
HETATM   14  C   UNL     1     -10.488  12.596  64.756  1.00  0.00    -0.320 C  
BRANCH  14  15
HETATM   15  C   UNL     1     -10.775  11.113  64.575  1.00  0.00    -0.368 C  
BRANCH  15  16
HETATM   16  C   UNL     1      -9.500  10.300  64.397  1.00  0.00    -0.360 C  
BRANCH  16  17
HETATM   17  C   UNL     1      -8.565  10.613  65.560  1.00  0.00    -0.191 C  
BRANCH  17  18
HETATM   18  C   UNL     1      -9.049   9.980  66.854  1.00  0.00    -0.157 C  
BRANCH  18  19
HETATM   19  C   UNL     1      -7.997   9.013  67.380  1.00  0.00    -0.100 C  
BRANCH  19  20
HETATM   20  C   UNL     1      -8.614   8.044  68.383  1.00  0.00    -0.127 C  
BRANCH  20  21
HETATM   21  C   UNL     1     -10.088   7.800  68.071  1.00  0.00    -0.227 C  
BRANCH  21  22
HETATM   22  C   UNL     1     -10.804   7.214  69.283  1.00  0.00    -0.204 C  
HETATM   23  C   UNL     1     -10.231   7.759  70.578  1.00  0.00    -0.201 C  
ENDBRANCH  21  22
ENDBRANCH  20  21
ENDBRANCH  19  20
ENDBRANCH  18  19
ENDBRANCH  17  18
ENDBRANCH  16  17
ENDBRANCH  15  16
ENDBRANCH  14  15
ENDBRANCH  11  14
ENDBRANCH  10  11
ENDBRANCH   9  10
ENDBRANCH   8   9
ENDBRANCH   7   8
ENDBRANCH   6   7
ENDBRANCH   5   6
ENDBRANCH   4   5
ENDBRANCH   3   4
ENDBRANCH   2   3
TORSDOF 18
ENDMDL
MODEL      410
REMARK 921   NORMALIZED FREE ENERGY PREDICTED BY IDOCK:   -1.47 KCAL/MOL
REMARK 922        TOTAL FREE ENERGY PREDICTED BY IDOCK:   -5.71 KCAL/MOL
REMARK 923 INTER-LIGAND FREE ENERGY PREDICTED BY IDOCK:   -4.37 KCAL/MOL
REMARK 924 INTRA-LIGAND FREE ENERGY PREDICTED BY IDOCK:   -1.34 KCAL/MOL
REMARK 927      BINDING AFFINITY PREDICTED BY RF-SCORE:    0.00 PKD
ROOT
HETATM    1  C   UNL     1      -9.946  19.320  67.861  1.00  0.00    -0.462 C  
HETATM    2  C   UNL     1      -8.842  18.406  68.360  1.00  0.00    -0.340 C  
ENDROOT
BRANCH   2   3
HETATM    3  C   UNL     1      -7.496  18.781  67.747  1.00  0.00    -0.245 C  
BRANCH   3   4
HETATM    4  C   UNL     1      -6.526  17.608  67.822  1.00  0.00    -0.181 C  
BRANCH   4   5
HETATM    5  C   UNL     1      -6.491  17.021  69.226  1.00  0.00    -0.231 C  
BRANCH   5   6
HETATM    6  C   UNL     1      -5.625  15.766  69.263  1.00  0.00    -0.109 C  
BRANCH   6   7
HETATM    7  C   UNL     1      -5.393  15.256  67.851  1.00  0.00    -0.125 C  
BRANCH   7   8
HETATM    8  C   UNL     1      -5.542  13.740  67.767  1.00  0.00    -0.064 C  
BRANCH   8   9
HETATM    9  C   UNL     1      -6.974  13.423  67.360  1.00  0.00    -0.098 C  
BRANCH   9  10
HETATM   10  C   UNL     1      -7.611  12.384  68.274  1.00  0.00    -0.131 C  
BRANCH  10  11
HETATM   11  N   UNL     1      -7.524  10.948  67.694  1.00  0.00    -0.094 N  
HETATM   12  C   UNL     1      -7.296  10.999  66.182  1.00  0.00    -0.060 C  
HETATM   13  C   UNL     1      -6.384  10.176  68.362  1.00  0.00    -0.049 C  
BRANCH  11  14
HETATM   14  C   UNL     1      -8.885  10.276  68.010  1.00  0.00    -0.122 C  
BRANCH  14  15
HETATM   15  C   UNL     1      -9.602  10.929  69.182  1.00  0.00    -0.125 C  
BRANCH  15  16
HETATM   16  C   UNL     1      -9.563  10.062  70.432  1.00  0.00     0.019 C  
BRANCH  16  17
HETATM   17  C   UNL     1     -10.755   9.112  70.394  1.00  0.00    -0.282 C  
BRANCH  17  18
HETATM   18  C   UNL     1     -10.377   7.760  69.812  1.00  0.00    -0.221 C  
BRANCH  18  19
HETATM   19  C   UNL     1     -10.991   6.647  70.651  1.00  0.00    -0.329 C  
BRANCH  19  20
HETATM   20  C   UNL     1      -9.914   5.931  71.459  1.00  0.00    -0.221 C  
BRANCH  20  21
HETATM   21  C   UNL     1     -10.401   5.630  72.873  1.00  0.00    -0.224 C  
BRANCH  21  22
HETATM   22  C   UNL     1     -10.303   6.872  73.751  1.00  0.00    -0.409 C  
HETATM   23  C   UNL     1      -8.975   7.581  73.555  1.00  0.00    -0.271 C  
ENDBRANCH  21  22
ENDBRANCH  20  21
ENDBRANCH  19  20
ENDBRANCH  18  19
ENDBRANCH  17  18
ENDBRANCH  16  17
ENDBRANCH  15  16
ENDBRANCH  14  15
ENDBRANCH  11  14
ENDBRANCH  10  11
ENDBRANCH   9  10
ENDBRANCH   8   9
ENDBRANCH   7   8
ENDBRANCH   6   7
ENDBRANCH   5   6
ENDBRANCH   4   5
ENDBRANCH   3   4
ENDBRANCH   2   3
TORSDOF 18
ENDMDL
MODEL      411
REMARK 921   NORMALIZED FREE ENERGY PREDICTED BY IDOCK:   -1.45 KCAL/MOL
REMARK 922        TOTAL FREE ENERGY PREDICTED BY IDOCK:   -5.68 KCAL/MOL
REMARK 923 INTER-LIGAND FREE ENERGY PREDICTED BY IDOCK:   -4.44 KCAL/MOL
REMARK 924 INTRA-LIGAND FREE ENERGY PREDICTED BY IDOCK:   -1.24 KCAL/MOL
REMARK 927      BINDING AFFINITY PREDICTED BY RF-SCORE:    0.00 PKD
ROOT
HETATM    1  C   UNL     1      -7.925  10.617  65.890  1.00  0.00    -0.157 C  
HETATM    2  C   UNL     1      -7.751  10.047  64.495  1.00  0.00    -0.145 C  
ENDROOT
BRANCH   2   3
HETATM    3  C   UNL     1      -6.303   9.636  64.243  1.00  0.00    -0.105 C  
BRANCH   3   4
HETATM    4  C   UNL     1      -6.212   8.144  63.946  1.00  0.00    -0.067 C  
BRANCH   4   5
HETATM    5  C   UNL     1      -7.543   7.607  63.441  1.00  0.00    -0.119 C  
BRANCH   5   6
HETATM    6  C   UNL     1      -7.730   6.152  63.857  1.00  0.00    -0.106 C  
BRANCH   6   7
HETATM    7  C   UNL     1      -8.543   6.081  65.138  1.00  0.00    -0.073 C  
BRANCH   7   8
HETATM    8  C   UNL     1      -9.341   4.784  65.229  1.00  0.00    -0.148 C  
BRANCH   8   9
HETATM    9  C   UNL     1      -8.502   3.759  65.978  1.00  0.00    -0.110 C  
BRANCH   9  10
HETATM   10  C   UNL     1      -7.677   4.396  67.088  1.00  0.00    -0.089 C  
BRANCH  10  11
HETATM   11  N   UNL     1      -8.045   3.847  68.491  1.00  0.00    -0.074 N  
HETATM   12  C   UNL     1      -8.793   2.520  68.364  1.00  0.00    -0.111 C  
HETATM   13  C   UNL     1      -6.779   3.648  69.329  1.00  0.00    -0.037 C  
BRANCH  11  14
HETATM   14  C   UNL     1      -8.958   4.918  69.143  1.00  0.00    -0.098 C  
BRANCH  14  15
HETATM   15  C   UNL     1      -8.716   5.060  70.639  1.00  0.00    -0.140 C  
BRANCH  15  16
HETATM   16  C   UNL     1      -9.829   4.427  71.462  1.00  0.00    -0.259 C  
BRANCH  16  17
HETATM   17  C   UNL     1     -10.310   5.449  72.486  1.00  0.00    -0.251 C  
BRANCH  17  18
HETATM   18  C   UNL     1     -11.604   6.115  72.049  1.00  0.00    -0.364 C  
BRANCH  18  19
HETATM   19  C   UNL     1     -11.633   7.556  72.539  1.00  0.00    -0.352 C  
BRANCH  19  20
HETATM   20  C   UNL     1     -12.293   8.460  71.504  1.00  0.00    -0.343 C  
BRANCH  20  21
HETATM   21  C   UNL     1     -11.268   9.379  70.848  1.00  0.00    -0.393 C  
BRANCH  21  22
HETATM   22  C   UNL     1     -11.862  10.762  70.606  1.00  0.00    -0.460 C  
HETATM   23  C   UNL     1     -13.117  10.974  71.432  1.00  0.00    -0.441 C  
ENDBRANCH  21  22
ENDBRANCH  20  21
ENDBRANCH  19  20
ENDBRANCH  18  19
ENDBRANCH  17  18
ENDBRANCH  16  17
ENDBRANCH  15  16
ENDBRANCH  14  15
ENDBRANCH  11  14
ENDBRANCH  10  11
ENDBRANCH   9  10
ENDBRANCH   8   9
ENDBRANCH   7   8
ENDBRANCH   6   7
ENDBRANCH   5   6
ENDBRANCH   4   5
ENDBRANCH   3   4
ENDBRANCH   2   3
TORSDOF 18
ENDMDL
MODEL      412
REMARK 921   NORMALIZED FREE ENERGY PREDICTED BY IDOCK:   -1.45 KCAL/MOL
REMARK 922        TOTAL FREE ENERGY PREDICTED BY IDOCK:   -5.68 KCAL/MOL
REMARK 923 INTER-LIGAND FREE ENERGY PREDICTED BY IDOCK:   -3.93 KCAL/MOL
REMARK 924 INTRA-LIGAND FREE ENERGY PREDICTED BY IDOCK:   -1.75 KCAL/MOL
REMARK 927      BINDING AFFINITY PREDICTED BY RF-SCORE:    0.00 PKD
ROOT
HETATM    1  C   UNL     1     -11.879  10.653  70.410  1.00  0.00    -0.441 C  
HETATM    2  C   UNL     1     -11.005   9.791  69.518  1.00  0.00    -0.256 C  
ENDROOT
BRANCH   2   3
HETATM    3  C   UNL     1     -10.522   8.546  70.257  1.00  0.00    -0.233 C  
BRANCH   3   4
HETATM    4  C   UNL     1      -9.080   8.722  70.720  1.00  0.00    -0.233 C  
BRANCH   4   5
HETATM    5  C   UNL     1      -8.180   7.658  70.109  1.00  0.00    -0.124 C  
BRANCH   5   6
HETATM    6  C   UNL     1      -8.109   7.818  68.594  1.00  0.00    -0.127 C  
BRANCH   6   7
HETATM    7  C   UNL     1      -8.237   6.460  67.925  1.00  0.00    -0.115 C  
BRANCH   7   8
HETATM    8  C   UNL     1      -8.845   6.573  66.530  1.00  0.00    -0.142 C  
BRANCH   8   9
HETATM    9  C   UNL     1      -8.219   5.502  65.648  1.00  0.00    -0.127 C  
BRANCH   9  10
HETATM   10  C   UNL     1      -6.978   6.010  64.927  1.00  0.00    -0.055 C  
BRANCH  10  11
HETATM   11  N   UNL     1      -7.174   6.092  63.391  1.00  0.00    -0.052 N  
HETATM   12  C   UNL     1      -6.298   5.054  62.688  1.00  0.00    -0.025 C  
HETATM   13  C   UNL     1      -8.643   5.857  63.032  1.00  0.00     0.152 C  
BRANCH  11  14
HETATM   14  C   UNL     1      -6.744   7.525  62.981  1.00  0.00    -0.062 C  
BRANCH  14  15
HETATM   15  C   UNL     1      -7.689   8.593  63.511  1.00  0.00    -0.136 C  
BRANCH  15  16
HETATM   16  C   UNL     1      -6.945   9.714  64.221  1.00  0.00    -0.116 C  
BRANCH  16  17
HETATM   17  C   UNL     1      -7.093   9.511  65.726  1.00  0.00    -0.096 C  
BRANCH  17  18
HETATM   18  C   UNL     1      -7.922  10.614  66.362  1.00  0.00    -0.142 C  
BRANCH  18  19
HETATM   19  C   UNL     1      -8.997  11.079  65.388  1.00  0.00    -0.192 C  
BRANCH  19  20
HETATM   20  C   UNL     1     -10.378  10.968  66.024  1.00  0.00    -0.311 C  
BRANCH  20  21
HETATM   21  C   UNL     1     -10.917  12.344  66.404  1.00  0.00    -0.315 C  
BRANCH  21  22
HETATM   22  C   UNL     1     -11.990  12.792  65.418  1.00  0.00    -0.482 C  
HETATM   23  C   UNL     1     -12.830  13.918  65.993  1.00  0.00    -0.302 C  
ENDBRANCH  21  22
ENDBRANCH  20  21
ENDBRANCH  19  20
ENDBRANCH  18  19
ENDBRANCH  17  18
ENDBRANCH  16  17
ENDBRANCH  15  16
ENDBRANCH  14  15
ENDBRANCH  11  14
ENDBRANCH  10  11
ENDBRANCH   9  10
ENDBRANCH   8   9
ENDBRANCH   7   8
ENDBRANCH   6   7
ENDBRANCH   5   6
ENDBRANCH   4   5
ENDBRANCH   3   4
ENDBRANCH   2   3
TORSDOF 18
ENDMDL
MODEL      413
REMARK 921   NORMALIZED FREE ENERGY PREDICTED BY IDOCK:   -1.38 KCAL/MOL
REMARK 922        TOTAL FREE ENERGY PREDICTED BY IDOCK:   -5.54 KCAL/MOL
REMARK 923 INTER-LIGAND FREE ENERGY PREDICTED BY IDOCK:   -3.86 KCAL/MOL
REMARK 924 INTRA-LIGAND FREE ENERGY PREDICTED BY IDOCK:   -1.68 KCAL/MOL
REMARK 927      BINDING AFFINITY PREDICTED BY RF-SCORE:    0.00 PKD
ROOT
HETATM    1  C   UNL     1     -12.667  11.790  63.247  1.00  0.00    -0.314 C  
HETATM    2  C   UNL     1     -11.232  11.945  63.714  1.00  0.00    -0.519 C  
ENDROOT
BRANCH   2   3
HETATM    3  C   UNL     1     -11.170  12.280  65.202  1.00  0.00    -0.369 C  
BRANCH   3   4
HETATM    4  C   UNL     1     -10.907  11.024  66.025  1.00  0.00    -0.189 C  
BRANCH   4   5
HETATM    5  C   UNL     1      -9.986  10.069  65.280  1.00  0.00    -0.368 C  
BRANCH   5   6
HETATM    6  C   UNL     1      -8.718   9.806  66.086  1.00  0.00    -0.150 C  
BRANCH   6   7
HETATM    7  C   UNL     1      -7.677  10.868  65.773  1.00  0.00    -0.036 C  
BRANCH   7   8
HETATM    8  C   UNL     1      -7.027  11.412  67.041  1.00  0.00    -0.135 C  
BRANCH   8   9
HETATM    9  C   UNL     1      -7.490  12.849  67.237  1.00  0.00    -0.092 C  
BRANCH   9  10
HETATM   10  C   UNL     1      -6.372  13.745  67.749  1.00  0.00    -0.162 C  
BRANCH  10  11
HETATM   11  N   UNL     1      -6.622  14.240  69.198  1.00  0.00    -0.107 N  
HETATM   12  C   UNL     1      -8.020  13.831  69.664  1.00  0.00     0.860 C  
HETATM   13  C   UNL     1      -5.570  13.657  70.145  1.00  0.00    -0.126 C  
BRANCH  11  14
HETATM   14  C   UNL     1      -6.502  15.785  69.148  1.00  0.00    -0.143 C  
BRANCH  14  15
HETATM   15  C   UNL     1      -6.391  16.318  67.728  1.00  0.00    -0.163 C  
BRANCH  15  16
HETATM   16  C   UNL     1      -7.551  17.236  67.368  1.00  0.00    -0.201 C  
BRANCH  16  17
HETATM   17  C   UNL     1      -8.845  16.578  67.835  1.00  0.00    -0.193 C  
BRANCH  17  18
HETATM   18  C   UNL     1      -9.986  17.578  67.910  1.00  0.00    -0.312 C  
BRANCH  18  19
HETATM   19  C   UNL     1     -11.126  16.999  68.737  1.00  0.00    -0.086 C  
BRANCH  19  20
HETATM   20  C   UNL     1     -10.629  16.588  70.119  1.00  0.00    -0.083 C  
BRANCH  20  21
HETATM   21  C   UNL     1     -11.758  15.982  70.948  1.00  0.00    -0.438 C  
BRANCH  21  22
HETATM   22  C   UNL     1     -11.538  14.486  71.143  1.00  0.00    -0.201 C  
HETATM   23  C   UNL     1     -12.434  13.674  70.226  1.00  0.00    -0.335 C  
ENDBRANCH  21  22
ENDBRANCH  20  21
ENDBRANCH  19  20
ENDBRANCH  18  19
ENDBRANCH  17  18
ENDBRANCH  16  17
ENDBRANCH  15  16
ENDBRANCH  14  15
ENDBRANCH  11  14
ENDBRANCH  10  11
ENDBRANCH   9  10
ENDBRANCH   8   9
ENDBRANCH   7   8
ENDBRANCH   6   7
ENDBRANCH   5   6
ENDBRANCH   4   5
ENDBRANCH   3   4
ENDBRANCH   2   3
TORSDOF 18
ENDMDL
MODEL      414
REMARK 921   NORMALIZED FREE ENERGY PREDICTED BY IDOCK:   -1.38 KCAL/MOL
REMARK 922        TOTAL FREE ENERGY PREDICTED BY IDOCK:   -5.53 KCAL/MOL
REMARK 923 INTER-LIGAND FREE ENERGY PREDICTED BY IDOCK:   -4.34 KCAL/MOL
REMARK 924 INTRA-LIGAND FREE ENERGY PREDICTED BY IDOCK:   -1.19 KCAL/MOL
REMARK 927      BINDING AFFINITY PREDICTED BY RF-SCORE:    0.00 PKD
ROOT
HETATM    1  C   UNL     1      -9.653  12.163  67.437  1.00  0.00    -0.177 C  
HETATM    2  C   UNL     1     -11.137  12.120  67.752  1.00  0.00    -0.302 C  
ENDROOT
BRANCH   2   3
HETATM    3  C   UNL     1     -11.557  10.739  68.246  1.00  0.00    -0.297 C  
BRANCH   3   4
HETATM    4  C   UNL     1     -10.809   9.647  67.489  1.00  0.00    -0.265 C  
BRANCH   4   5
HETATM    5  C   UNL     1     -10.402   8.519  68.425  1.00  0.00    -0.241 C  
BRANCH   5   6
HETATM    6  C   UNL     1     -10.292   9.023  69.860  1.00  0.00    -0.219 C  
BRANCH   6   7
HETATM    7  C   UNL     1      -8.839   9.008  70.303  1.00  0.00    -0.210 C  
BRANCH   7   8
HETATM    8  C   UNL     1      -8.459   7.679  70.948  1.00  0.00    -0.124 C  
BRANCH   8   9
HETATM    9  C   UNL     1      -8.614   7.819  72.456  1.00  0.00    -0.184 C  
BRANCH   9  10
HETATM   10  C   UNL     1      -9.965   7.311  72.941  1.00  0.00    -0.213 C  
BRANCH  10  11
HETATM   11  N   UNL     1     -10.128   5.780  72.752  1.00  0.00    -0.176 N  
HETATM   12  C   UNL     1     -10.907   5.181  73.924  1.00  0.00    -0.250 C  
HETATM   13  C   UNL     1     -10.860   5.484  71.441  1.00  0.00    -0.185 C  
BRANCH  11  14
HETATM   14  C   UNL     1      -8.691   5.200  72.708  1.00  0.00    -0.119 C  
BRANCH  14  15
HETATM   15  C   UNL     1      -8.675   3.695  72.482  1.00  0.00    -0.100 C  
BRANCH  15  16
HETATM   16  C   UNL     1      -7.347   3.216  71.912  1.00  0.00    -0.047 C  
BRANCH  16  17
HETATM   17  C   UNL     1      -7.540   2.922  70.428  1.00  0.00    -0.043 C  
BRANCH  17  18
HETATM   18  C   UNL     1      -8.984   2.572  70.110  1.00  0.00    -0.160 C  
BRANCH  18  19
HETATM   19  C   UNL     1      -9.210   2.638  68.605  1.00  0.00    -0.239 C  
BRANCH  19  20
HETATM   20  C   UNL     1      -8.593   3.906  68.026  1.00  0.00    -0.112 C  
BRANCH  20  21
HETATM   21  C   UNL     1      -9.593   5.057  68.040  1.00  0.00    -0.181 C  
BRANCH  21  22
HETATM   22  C   UNL     1     -10.513   4.986  66.826  1.00  0.00    -0.273 C  
HETATM   23  C   UNL     1      -9.820   4.324  65.649  1.00  0.00    -0.223 C  
ENDBRANCH  21  22
ENDBRANCH  20  21
ENDBRANCH  19  20
ENDBRANCH  18  19
ENDBRANCH  17  18
ENDBRANCH  16  17
ENDBRANCH  15  16
ENDBRANCH  14  15
ENDBRANCH  11  14
ENDBRANCH  10  11
ENDBRANCH   9  10
ENDBRANCH   8   9
ENDBRANCH   7   8
ENDBRANCH   6   7
ENDBRANCH   5   6
ENDBRANCH   4   5
ENDBRANCH   3   4
ENDBRANCH   2   3
TORSDOF 18
ENDMDL
MODEL      415
REMARK 921   NORMALIZED FREE ENERGY PREDICTED BY IDOCK:   -1.36 KCAL/MOL
REMARK 922        TOTAL FREE ENERGY PREDICTED BY IDOCK:   -5.49 KCAL/MOL
REMARK 923 INTER-LIGAND FREE ENERGY PREDICTED BY IDOCK:   -4.44 KCAL/MOL
REMARK 924 INTRA-LIGAND FREE ENERGY PREDICTED BY IDOCK:   -1.05 KCAL/MOL
REMARK 927      BINDING AFFINITY PREDICTED BY RF-SCORE:    0.00 PKD
ROOT
HETATM    1  C   UNL     1     -11.689  10.590  70.464  1.00  0.00    -0.443 C  
HETATM    2  C   UNL     1     -10.714   9.822  69.591  1.00  0.00    -0.264 C  
ENDROOT
BRANCH   2   3
HETATM    3  C   UNL     1     -10.008   8.726  70.385  1.00  0.00    -0.219 C  
BRANCH   3   4
HETATM    4  C   UNL     1      -8.531   9.056  70.560  1.00  0.00    -0.226 C  
BRANCH   4   5
HETATM    5  C   UNL     1      -7.656   7.933  70.022  1.00  0.00    -0.084 C  
BRANCH   5   6
HETATM    6  C   UNL     1      -7.879   7.746  68.525  1.00  0.00    -0.120 C  
BRANCH   6   7
HETATM    7  C   UNL     1      -8.191   6.289  68.227  1.00  0.00    -0.115 C  
BRANCH   7   8
HETATM    8  C   UNL     1      -8.804   6.116  66.841  1.00  0.00    -0.117 C  
BRANCH   8   9
HETATM    9  C   UNL     1      -8.968   4.627  66.574  1.00  0.00    -0.113 C  
BRANCH   9  10
HETATM   10  C   UNL     1      -7.804   4.058  65.775  1.00  0.00    -0.090 C  
BRANCH  10  11
HETATM   11  N   UNL     1      -8.149   3.866  64.275  1.00  0.00    -0.089 N  
HETATM   12  C   UNL     1      -7.856   2.429  63.842  1.00  0.00    -0.072 C  
HETATM   13  C   UNL     1      -9.624   4.190  64.026  1.00  0.00    -0.142 C  
BRANCH  11  14
HETATM   14  C   UNL     1      -7.243   4.856  63.498  1.00  0.00    -0.049 C  
BRANCH  14  15
HETATM   15  C   UNL     1      -7.476   6.304  63.905  1.00  0.00    -0.080 C  
BRANCH  15  16
HETATM   16  C   UNL     1      -7.993   7.147  62.748  1.00  0.00    -0.107 C  
BRANCH  16  17
HETATM   17  C   UNL     1      -6.986   8.261  62.479  1.00  0.00    -0.090 C  
BRANCH  17  18
HETATM   18  C   UNL     1      -7.508   9.612  62.940  1.00  0.00    -0.116 C  
BRANCH  18  19
HETATM   19  C   UNL     1      -8.957   9.478  63.390  1.00  0.00    -0.205 C  
BRANCH  19  20
HETATM   20  C   UNL     1      -9.118   9.966  64.825  1.00  0.00    -0.283 C  
BRANCH  20  21
HETATM   21  C   UNL     1     -10.017  11.198  64.886  1.00  0.00    -0.331 C  
BRANCH  21  22
HETATM   22  C   UNL     1     -10.513  11.571  63.493  1.00  0.00    -0.486 C  
HETATM   23  C   UNL     1     -11.895  12.195  63.550  1.00  0.00    -0.597 C  
ENDBRANCH  21  22
ENDBRANCH  20  21
ENDBRANCH  19  20
ENDBRANCH  18  19
ENDBRANCH  17  18
ENDBRANCH  16  17
ENDBRANCH  15  16
ENDBRANCH  14  15
ENDBRANCH  11  14
ENDBRANCH  10  11
ENDBRANCH   9  10
ENDBRANCH   8   9
ENDBRANCH   7   8
ENDBRANCH   6   7
ENDBRANCH   5   6
ENDBRANCH   4   5
ENDBRANCH   3   4
ENDBRANCH   2   3
TORSDOF 18
ENDMDL
MODEL      416
REMARK 921   NORMALIZED FREE ENERGY PREDICTED BY IDOCK:   -1.33 KCAL/MOL
REMARK 922        TOTAL FREE ENERGY PREDICTED BY IDOCK:   -5.44 KCAL/MOL
REMARK 923 INTER-LIGAND FREE ENERGY PREDICTED BY IDOCK:   -3.85 KCAL/MOL
REMARK 924 INTRA-LIGAND FREE ENERGY PREDICTED BY IDOCK:   -1.59 KCAL/MOL
REMARK 927      BINDING AFFINITY PREDICTED BY RF-SCORE:    0.00 PKD
ROOT
HETATM    1  C   UNL     1      -9.096   7.303  74.287  1.00  0.00    -0.245 C  
HETATM    2  C   UNL     1      -7.952   6.343  74.016  1.00  0.00    -0.100 C  
ENDROOT
BRANCH   2   3
HETATM    3  C   UNL     1      -8.471   4.968  73.606  1.00  0.00    -0.105 C  
BRANCH   3   4
HETATM    4  C   UNL     1      -8.105   4.665  72.158  1.00  0.00    -0.102 C  
BRANCH   4   5
HETATM    5  C   UNL     1      -9.342   4.297  71.351  1.00  0.00    -0.210 C  
BRANCH   5   6
HETATM    6  C   UNL     1      -9.382   5.078  70.042  1.00  0.00    -0.208 C  
BRANCH   6   7
HETATM    7  C   UNL     1     -10.803   5.532  69.755  1.00  0.00    -0.291 C  
BRANCH   7   8
HETATM    8  C   UNL     1     -11.283   6.562  70.773  1.00  0.00    -0.377 C  
BRANCH   8   9
HETATM    9  C   UNL     1     -10.445   7.822  70.610  1.00  0.00    -0.213 C  
BRANCH   9  10
HETATM   10  C   UNL     1     -10.589   8.428  69.220  1.00  0.00    -0.182 C  
BRANCH  10  11
HETATM   11  N   UNL     1     -10.634   9.978  69.249  1.00  0.00    -0.213 N  
HETATM   12  C   UNL     1     -11.368  10.510  68.018  1.00  0.00    -0.246 C  
HETATM   13  C   UNL     1     -11.336  10.463  70.519  1.00  0.00    -0.341 C  
BRANCH  11  14
HETATM   14  C   UNL     1      -9.156  10.449  69.238  1.00  0.00    -0.175 C  
BRANCH  14  15
HETATM   15  C   UNL     1      -8.199   9.362  68.772  1.00  0.00    -0.108 C  
BRANCH  15  16
HETATM   16  C   UNL     1      -7.873   9.484  67.290  1.00  0.00    -0.098 C  
BRANCH  16  17
HETATM   17  C   UNL     1      -6.434   9.972  67.155  1.00  0.00    -0.069 C  
BRANCH  17  18
HETATM   18  C   UNL     1      -6.277  10.935  65.990  1.00  0.00    -0.115 C  
BRANCH  18  19
HETATM   19  C   UNL     1      -5.193  10.430  65.046  1.00  0.00    -0.122 C  
BRANCH  19  20
HETATM   20  C   UNL     1      -5.663   9.178  64.313  1.00  0.00    -0.069 C  
BRANCH  20  21
HETATM   21  C   UNL     1      -6.627   9.535  63.185  1.00  0.00    -0.103 C  
BRANCH  21  22
HETATM   22  C   UNL     1      -7.798   8.560  63.149  1.00  0.00    -0.149 C  
HETATM   23  C   UNL     1      -9.005   9.122  63.879  1.00  0.00    -0.008 C  
ENDBRANCH  21  22
ENDBRANCH  20  21
ENDBRANCH  19  20
ENDBRANCH  18  19
ENDBRANCH  17  18
ENDBRANCH  16  17
ENDBRANCH  15  16
ENDBRANCH  14  15
ENDBRANCH  11  14
ENDBRANCH  10  11
ENDBRANCH   9  10
ENDBRANCH   8   9
ENDBRANCH   7   8
ENDBRANCH   6   7
ENDBRANCH   5   6
ENDBRANCH   4   5
ENDBRANCH   3   4
ENDBRANCH   2   3
TORSDOF 18
ENDMDL
MODEL      417
REMARK 921   NORMALIZED FREE ENERGY PREDICTED BY IDOCK:   -1.32 KCAL/MOL
REMARK 922        TOTAL FREE ENERGY PREDICTED BY IDOCK:   -5.42 KCAL/MOL
REMARK 923 INTER-LIGAND FREE ENERGY PREDICTED BY IDOCK:   -5.23 KCAL/MOL
REMARK 924 INTRA-LIGAND FREE ENERGY PREDICTED BY IDOCK:   -0.19 KCAL/MOL
REMARK 927      BINDING AFFINITY PREDICTED BY RF-SCORE:    0.00 PKD
ROOT
HETATM    1  C   UNL     1     -12.993   6.943  70.818  1.00  0.00     0.045 C  
HETATM    2  C   UNL     1     -11.530   7.290  71.018  1.00  0.00    -0.316 C  
ENDROOT
BRANCH   2   3
HETATM    3  C   UNL     1     -11.209   8.672  70.457  1.00  0.00    -0.266 C  
BRANCH   3   4
HETATM    4  C   UNL     1     -11.348   9.737  71.539  1.00  0.00    -0.345 C  
BRANCH   4   5
HETATM    5  C   UNL     1     -12.201  10.899  71.051  1.00  0.00    -0.464 C  
BRANCH   5   6
HETATM    6  C   UNL     1     -11.680  11.426  69.718  1.00  0.00    -0.418 C  
BRANCH   6   7
HETATM    7  C   UNL     1     -12.387  12.723  69.364  1.00  0.00     0.024 C  
BRANCH   7   8
HETATM    8  C   UNL     1     -12.047  13.839  70.347  1.00  0.00    -0.421 C  
BRANCH   8   9
HETATM    9  C   UNL     1     -12.152  15.169  69.616  1.00  0.00    -0.336 C  
BRANCH   9  10
HETATM   10  C   UNL     1     -10.820  15.908  69.579  1.00  0.00    -0.305 C  
BRANCH  10  11
HETATM   11  N   UNL     1     -10.081  15.734  68.227  1.00  0.00    -0.220 N  
HETATM   12  C   UNL     1      -9.887  17.092  67.550  1.00  0.00    -0.258 C  
HETATM   13  C   UNL     1      -8.721  15.069  68.450  1.00  0.00    -0.175 C  
BRANCH  11  14
HETATM   14  C   UNL     1     -10.987  14.825  67.357  1.00  0.00    -0.313 C  
BRANCH  14  15
HETATM   15  C   UNL     1     -10.212  14.091  66.273  1.00  0.00    -0.300 C  
BRANCH  15  16
HETATM   16  C   UNL     1     -10.756  12.691  66.029  1.00  0.00    -0.295 C  
BRANCH  16  17
HETATM   17  C   UNL     1      -9.651  11.850  65.398  1.00  0.00    -0.183 C  
BRANCH  17  18
HETATM   18  C   UNL     1      -8.622  11.413  66.427  1.00  0.00    -0.174 C  
BRANCH  18  19
HETATM   19  C   UNL     1      -8.952  10.012  66.924  1.00  0.00    -0.150 C  
BRANCH  19  20
HETATM   20  C   UNL     1      -8.253   8.962  66.068  1.00  0.00    -0.117 C  
BRANCH  20  21
HETATM   21  C   UNL     1      -7.441   9.616  64.954  1.00  0.00    -0.118 C  
BRANCH  21  22
HETATM   22  C   UNL     1      -5.963   9.666  65.325  1.00  0.00    -0.069 C  
HETATM   23  C   UNL     1      -5.757  10.318  66.680  1.00  0.00    -0.056 C  
ENDBRANCH  21  22
ENDBRANCH  20  21
ENDBRANCH  19  20
ENDBRANCH  18  19
ENDBRANCH  17  18
ENDBRANCH  16  17
ENDBRANCH  15  16
ENDBRANCH  14  15
ENDBRANCH  11  14
ENDBRANCH  10  11
ENDBRANCH   9  10
ENDBRANCH   8   9
ENDBRANCH   7   8
ENDBRANCH   6   7
ENDBRANCH   5   6
ENDBRANCH   4   5
ENDBRANCH   3   4
ENDBRANCH   2   3
TORSDOF 18
ENDMDL
MODEL      418
REMARK 921   NORMALIZED FREE ENERGY PREDICTED BY IDOCK:   -1.31 KCAL/MOL
REMARK 922        TOTAL FREE ENERGY PREDICTED BY IDOCK:   -5.39 KCAL/MOL
REMARK 923 INTER-LIGAND FREE ENERGY PREDICTED BY IDOCK:   -4.19 KCAL/MOL
REMARK 924 INTRA-LIGAND FREE ENERGY PREDICTED BY IDOCK:   -1.20 KCAL/MOL
REMARK 927      BINDING AFFINITY PREDICTED BY RF-SCORE:    0.00 PKD
ROOT
HETATM    1  C   UNL     1      -9.826   6.426  74.222  1.00  0.00    -0.320 C  
HETATM    2  C   UNL     1      -8.367   6.158  74.540  1.00  0.00    -0.125 C  
ENDROOT
BRANCH   2   3
HETATM    3  C   UNL     1      -8.057   4.665  74.491  1.00  0.00    -0.094 C  
BRANCH   3   4
HETATM    4  C   UNL     1      -7.190   4.336  73.281  1.00  0.00    -0.074 C  
BRANCH   4   5
HETATM    5  C   UNL     1      -7.680   3.074  72.588  1.00  0.00    -0.058 C  
BRANCH   5   6
HETATM    6  C   UNL     1      -8.000   3.353  71.123  1.00  0.00    -0.058 C  
BRANCH   6   7
HETATM    7  C   UNL     1      -9.505   3.394  70.921  1.00  0.00    -0.234 C  
BRANCH   7   8
HETATM    8  C   UNL     1     -10.070   4.790  71.163  1.00  0.00    -0.261 C  
BRANCH   8   9
HETATM    9  C   UNL     1      -9.405   5.750  70.188  1.00  0.00    -0.184 C  
BRANCH   9  10
HETATM   10  C   UNL     1      -9.662   5.362  68.738  1.00  0.00    -0.142 C  
BRANCH  10  11
HETATM   11  N   UNL     1     -10.102   6.567  67.868  1.00  0.00    -0.137 N  
HETATM   12  C   UNL     1     -11.017   6.099  66.735  1.00  0.00    -0.245 C  
HETATM   13  C   UNL     1     -10.833   7.601  68.728  1.00  0.00     0.009 C  
BRANCH  11  14
HETATM   14  C   UNL     1      -8.799   7.176  67.289  1.00  0.00    -0.120 C  
BRANCH  14  15
HETATM   15  C   UNL     1      -9.005   7.806  65.920  1.00  0.00    -0.155 C  
BRANCH  15  16
HETATM   16  C   UNL     1      -9.733   9.140  66.007  1.00  0.00    -0.358 C  
BRANCH  16  17
HETATM   17  C   UNL     1      -8.723  10.255  65.757  1.00  0.00    -0.169 C  
BRANCH  17  18
HETATM   18  C   UNL     1      -7.872  10.526  66.986  1.00  0.00    -0.114 C  
BRANCH  18  19
HETATM   19  C   UNL     1      -7.898  12.013  67.313  1.00  0.00    -0.170 C  
BRANCH  19  20
HETATM   20  C   UNL     1      -9.259  12.612  66.977  1.00  0.00    -0.212 C  
BRANCH  20  21
HETATM   21  C   UNL     1     -10.139  12.702  68.221  1.00  0.00    -0.233 C  
BRANCH  21  22
HETATM   22  C   UNL     1     -11.543  12.187  67.925  1.00  0.00    -0.413 C  
HETATM   23  C   UNL     1     -12.054  11.305  69.048  1.00  0.00    -0.325 C  
ENDBRANCH  21  22
ENDBRANCH  20  21
ENDBRANCH  19  20
ENDBRANCH  18  19
ENDBRANCH  17  18
ENDBRANCH  16  17
ENDBRANCH  15  16
ENDBRANCH  14  15
ENDBRANCH  11  14
ENDBRANCH  10  11
ENDBRANCH   9  10
ENDBRANCH   8   9
ENDBRANCH   7   8
ENDBRANCH   6   7
ENDBRANCH   5   6
ENDBRANCH   4   5
ENDBRANCH   3   4
ENDBRANCH   2   3
TORSDOF 18
ENDMDL
MODEL      419
REMARK 921   NORMALIZED FREE ENERGY PREDICTED BY IDOCK:   -1.24 KCAL/MOL
REMARK 922        TOTAL FREE ENERGY PREDICTED BY IDOCK:   -5.26 KCAL/MOL
REMARK 923 INTER-LIGAND FREE ENERGY PREDICTED BY IDOCK:   -3.90 KCAL/MOL
REMARK 924 INTRA-LIGAND FREE ENERGY PREDICTED BY IDOCK:   -1.36 KCAL/MOL
REMARK 927      BINDING AFFINITY PREDICTED BY RF-SCORE:    0.00 PKD
ROOT
HETATM    1  C   UNL     1     -10.421   3.748  64.079  1.00  0.00    -0.271 C  
HETATM    2  C   UNL     1      -9.103   2.997  64.112  1.00  0.00    -0.111 C  
ENDROOT
BRANCH   2   3
HETATM    3  C   UNL     1      -8.964   2.182  65.395  1.00  0.00    -0.121 C  
BRANCH   3   4
HETATM    4  C   UNL     1      -7.510   2.143  65.852  1.00  0.00    -0.067 C  
BRANCH   4   5
HETATM    5  C   UNL     1      -7.260   3.160  66.955  1.00  0.00    -0.058 C  
BRANCH   5   6
HETATM    6  C   UNL     1      -6.131   4.110  66.566  1.00  0.00    -0.031 C  
BRANCH   6   7
HETATM    7  C   UNL     1      -6.409   5.497  67.119  1.00  0.00    -0.039 C  
BRANCH   7   8
HETATM    8  C   UNL     1      -7.660   6.112  66.500  1.00  0.00    -0.094 C  
BRANCH   8   9
HETATM    9  C   UNL     1      -8.432   6.831  67.596  1.00  0.00    -0.122 C  
BRANCH   9  10
HETATM   10  C   UNL     1      -7.508   7.567  68.558  1.00  0.00    -0.108 C  
BRANCH  10  11
HETATM   11  N   UNL     1      -7.974   9.019  68.837  1.00  0.00    -0.098 N  
HETATM   12  C   UNL     1      -9.500   9.081  68.916  1.00  0.00    -0.151 C  
HETATM   13  C   UNL     1      -7.368   9.526  70.148  1.00  0.00    -0.124 C  
BRANCH  11  14
HETATM   14  C   UNL     1      -7.462   9.869  67.645  1.00  0.00    -0.090 C  
BRANCH  14  15
HETATM   15  C   UNL     1      -8.527  10.806  67.095  1.00  0.00    -0.126 C  
BRANCH  15  16
HETATM   16  C   UNL     1      -8.480  10.899  65.576  1.00  0.00    -0.115 C  
BRANCH  16  17
HETATM   17  C   UNL     1      -9.676  11.721  65.108  1.00  0.00    -0.228 C  
BRANCH  17  18
HETATM   18  C   UNL     1      -9.879  12.956  65.970  1.00  0.00    -0.256 C  
BRANCH  18  19
HETATM   19  C   UNL     1     -11.364  13.156  66.242  1.00  0.00    -0.348 C  
BRANCH  19  20
HETATM   20  C   UNL     1     -11.573  14.216  67.318  1.00  0.00    -0.399 C  
BRANCH  20  21
HETATM   21  C   UNL     1     -10.736  15.459  67.031  1.00  0.00    -0.321 C  
BRANCH  21  22
HETATM   22  C   UNL     1     -10.428  16.210  68.321  1.00  0.00    -0.276 C  
HETATM   23  C   UNL     1     -10.153  17.678  68.052  1.00  0.00    -0.343 C  
ENDBRANCH  21  22
ENDBRANCH  20  21
ENDBRANCH  19  20
ENDBRANCH  18  19
ENDBRANCH  17  18
ENDBRANCH  16  17
ENDBRANCH  15  16
ENDBRANCH  14  15
ENDBRANCH  11  14
ENDBRANCH  10  11
ENDBRANCH   9  10
ENDBRANCH   8   9
ENDBRANCH   7   8
ENDBRANCH   6   7
ENDBRANCH   5   6
ENDBRANCH   4   5
ENDBRANCH   3   4
ENDBRANCH   2   3
TORSDOF 18
ENDMDL
MODEL      420
REMARK 921   NORMALIZED FREE ENERGY PREDICTED BY IDOCK:   -1.17 KCAL/MOL
REMARK 922        TOTAL FREE ENERGY PREDICTED BY IDOCK:   -5.11 KCAL/MOL
REMARK 923 INTER-LIGAND FREE ENERGY PREDICTED BY IDOCK:   -3.55 KCAL/MOL
REMARK 924 INTRA-LIGAND FREE ENERGY PREDICTED BY IDOCK:   -1.56 KCAL/MOL
REMARK 927      BINDING AFFINITY PREDICTED BY RF-SCORE:    0.00 PKD
ROOT
HETATM    1  C   UNL     1     -10.803   5.824  66.979  1.00  0.00    -0.328 C  
HETATM    2  C   UNL     1      -9.686   4.830  66.726  1.00  0.00    -0.203 C  
ENDROOT
BRANCH   2   3
HETATM    3  C   UNL     1      -8.903   5.188  65.467  1.00  0.00    -0.148 C  
BRANCH   3   4
HETATM    4  C   UNL     1      -8.892   6.697  65.252  1.00  0.00     0.132 C  
BRANCH   4   5
HETATM    5  C   UNL     1      -7.598   7.142  64.587  1.00  0.00    -0.106 C  
BRANCH   5   6
HETATM    6  C   UNL     1      -6.527   6.063  64.717  1.00  0.00    -0.038 C  
BRANCH   6   7
HETATM    7  C   UNL     1      -5.285   6.643  65.370  1.00  0.00    -0.022 C  
BRANCH   7   8
HETATM    8  C   UNL     1      -5.627   7.442  66.623  1.00  0.00    -0.024 C  
BRANCH   8   9
HETATM    9  C   UNL     1      -5.770   6.470  67.786  1.00  0.00    -0.012 C  
BRANCH   9  10
HETATM   10  C   UNL     1      -7.172   6.492  68.379  1.00  0.00    -0.085 C  
BRANCH  10  11
HETATM   11  N   UNL     1      -7.162   6.515  69.930  1.00  0.00    -0.074 N  
HETATM   12  C   UNL     1      -8.380   5.773  70.480  1.00  0.00    -0.119 C  
HETATM   13  C   UNL     1      -5.880   5.868  70.460  1.00  0.00    -0.025 C  
BRANCH  11  14
HETATM   14  C   UNL     1      -7.215   8.011  70.335  1.00  0.00    -0.049 C  
BRANCH  14  15
HETATM   15  C   UNL     1      -8.309   8.776  69.605  1.00  0.00    -0.126 C  
BRANCH  15  16
HETATM   16  C   UNL     1      -7.944  10.239  69.399  1.00  0.00    -0.162 C  
BRANCH  16  17
HETATM   17  C   UNL     1      -9.094  10.922  68.666  1.00  0.00    -0.175 C  
BRANCH  17  18
HETATM   18  C   UNL     1      -8.616  12.122  67.866  1.00  0.00    -0.167 C  
BRANCH  18  19
HETATM   19  C   UNL     1      -9.695  13.196  67.852  1.00  0.00    -0.221 C  
BRANCH  19  20
HETATM   20  C   UNL     1      -9.864  13.767  66.449  1.00  0.00    -0.305 C  
BRANCH  20  21
HETATM   21  C   UNL     1     -11.068  13.147  65.747  1.00  0.00    -0.293 C  
BRANCH  21  22
HETATM   22  C   UNL     1     -10.759  12.889  64.276  1.00  0.00    -0.430 C  
HETATM   23  C   UNL     1     -11.762  11.929  63.663  1.00  0.00    -0.572 C  
ENDBRANCH  21  22
ENDBRANCH  20  21
ENDBRANCH  19  20
ENDBRANCH  18  19
ENDBRANCH  17  18
ENDBRANCH  16  17
ENDBRANCH  15  16
ENDBRANCH  14  15
ENDBRANCH  11  14
ENDBRANCH  10  11
ENDBRANCH   9  10
ENDBRANCH   8   9
ENDBRANCH   7   8
ENDBRANCH   6   7
ENDBRANCH   5   6
ENDBRANCH   4   5
ENDBRANCH   3   4
ENDBRANCH   2   3
TORSDOF 18
ENDMDL
MODEL      421
REMARK 921   NORMALIZED FREE ENERGY PREDICTED BY IDOCK:   -1.09 KCAL/MOL
REMARK 922        TOTAL FREE ENERGY PREDICTED BY IDOCK:   -4.94 KCAL/MOL
REMARK 923 INTER-LIGAND FREE ENERGY PREDICTED BY IDOCK:   -3.75 KCAL/MOL
REMARK 924 INTRA-LIGAND FREE ENERGY PREDICTED BY IDOCK:   -1.19 KCAL/MOL
REMARK 927      BINDING AFFINITY PREDICTED BY RF-SCORE:    0.00 PKD
ROOT
HETATM    1  C   UNL     1     -11.261   2.242  62.891  1.00  0.00    -0.191 C  
HETATM    2  C   UNL     1      -9.932   1.548  62.655  1.00  0.00    -0.092 C  
ENDROOT
BRANCH   2   3
HETATM    3  C   UNL     1      -9.105   1.491  63.935  1.00  0.00    -0.097 C  
BRANCH   3   4
HETATM    4  C   UNL     1      -7.670   1.932  63.668  1.00  0.00    -0.060 C  
BRANCH   4   5
HETATM    5  C   UNL     1      -7.066   2.591  64.900  1.00  0.00    -0.053 C  
BRANCH   5   6
HETATM    6  C   UNL     1      -6.598   4.007  64.577  1.00  0.00    -0.043 C  
BRANCH   6   7
HETATM    7  C   UNL     1      -7.555   5.019  65.182  1.00  0.00    -0.081 C  
BRANCH   7   8
HETATM    8  C   UNL     1      -8.993   4.773  64.736  1.00  0.00    -0.146 C  
BRANCH   8   9
HETATM    9  C   UNL     1      -9.880   4.753  65.972  1.00  0.00    -0.229 C  
BRANCH   9  10
HETATM   10  C   UNL     1      -9.127   5.184  67.223  1.00  0.00    -0.113 C  
BRANCH  10  11
HETATM   11  N   UNL     1      -9.772   6.414  67.912  1.00  0.00    -0.121 N  
HETATM   12  C   UNL     1     -10.876   6.999  67.030  1.00  0.00    -0.343 C  
HETATM   13  C   UNL     1     -10.353   6.016  69.271  1.00  0.00    -0.233 C  
BRANCH  11  14
HETATM   14  C   UNL     1      -8.631   7.447  68.098  1.00  0.00    -0.123 C  
BRANCH  14  15
HETATM   15  C   UNL     1      -7.806   7.187  69.350  1.00  0.00    -0.113 C  
BRANCH  15  16
HETATM   16  C   UNL     1      -7.170   8.460  69.891  1.00  0.00    -0.055 C  
BRANCH  16  17
HETATM   17  C   UNL     1      -7.903   8.857  71.168  1.00  0.00    -0.172 C  
BRANCH  17  18
HETATM   18  C   UNL     1      -7.626   7.882  72.300  1.00  0.00    -0.116 C  
BRANCH  18  19
HETATM   19  C   UNL     1      -8.342   8.341  73.563  1.00  0.00    -0.259 C  
BRANCH  19  20
HETATM   20  C   UNL     1      -8.666   7.150  74.458  1.00  0.00    -0.228 C  
BRANCH  20  21
HETATM   21  C   UNL     1     -10.117   6.712  74.280  1.00  0.00    -0.378 C  
BRANCH  21  22
HETATM   22  C   UNL     1     -10.190   5.245  73.873  1.00  0.00    -0.260 C  
HETATM   23  C   UNL     1     -10.923   5.074  72.556  1.00  0.00    -0.241 C  
ENDBRANCH  21  22
ENDBRANCH  20  21
ENDBRANCH  19  20
ENDBRANCH  18  19
ENDBRANCH  17  18
ENDBRANCH  16  17
ENDBRANCH  15  16
ENDBRANCH  14  15
ENDBRANCH  11  14
ENDBRANCH  10  11
ENDBRANCH   9  10
ENDBRANCH   8   9
ENDBRANCH   7   8
ENDBRANCH   6   7
ENDBRANCH   5   6
ENDBRANCH   4   5
ENDBRANCH   3   4
ENDBRANCH   2   3
TORSDOF 18
ENDMDL
MODEL      422
REMARK 921   NORMALIZED FREE ENERGY PREDICTED BY IDOCK:   -1.08 KCAL/MOL
REMARK 922        TOTAL FREE ENERGY PREDICTED BY IDOCK:   -4.92 KCAL/MOL
REMARK 923 INTER-LIGAND FREE ENERGY PREDICTED BY IDOCK:   -3.68 KCAL/MOL
REMARK 924 INTRA-LIGAND FREE ENERGY PREDICTED BY IDOCK:   -1.24 KCAL/MOL
REMARK 927      BINDING AFFINITY PREDICTED BY RF-SCORE:    0.00 PKD
ROOT
HETATM    1  C   UNL     1     -10.382   2.924  63.632  1.00  0.00    -0.197 C  
HETATM    2  C   UNL     1      -9.015   2.325  63.359  1.00  0.00    -0.089 C  
ENDROOT
BRANCH   2   3
HETATM    3  C   UNL     1      -8.201   2.201  64.644  1.00  0.00    -0.082 C  
BRANCH   3   4
HETATM    4  C   UNL     1      -6.736   2.534  64.387  1.00  0.00    -0.035 C  
BRANCH   4   5
HETATM    5  C   UNL     1      -6.158   3.359  65.528  1.00  0.00    -0.027 C  
BRANCH   5   6
HETATM    6  C   UNL     1      -5.580   4.670  65.005  1.00  0.00    -0.014 C  
BRANCH   6   7
HETATM    7  C   UNL     1      -6.467   5.829  65.425  1.00  0.00    -0.042 C  
BRANCH   7   8
HETATM    8  C   UNL     1      -7.873   5.703  64.847  1.00  0.00    -0.110 C  
BRANCH   8   9
HETATM    9  C   UNL     1      -8.874   5.884  65.979  1.00  0.00    -0.153 C  
BRANCH   9  10
HETATM   10  C   UNL     1      -8.290   6.687  67.134  1.00  0.00    -0.113 C  
BRANCH  10  11
HETATM   11  N   UNL     1      -9.116   7.961  67.450  1.00  0.00    -0.132 N  
HETATM   12  C   UNL     1     -10.208   8.161  66.398  1.00  0.00    -0.050 C  
HETATM   13  C   UNL     1      -9.751   7.850  68.838  1.00  0.00    -0.158 C  
BRANCH  11  14
HETATM   14  C   UNL     1      -8.111   9.142  67.412  1.00  0.00    -0.107 C  
BRANCH  14  15
HETATM   15  C   UNL     1      -8.743  10.461  67.830  1.00  0.00    -0.118 C  
BRANCH  15  16
HETATM   16  C   UNL     1      -9.252  11.256  66.636  1.00  0.00    -0.191 C  
BRANCH  16  17
HETATM   17  C   UNL     1     -10.177  12.354  67.150  1.00  0.00    -0.226 C  
BRANCH  17  18
HETATM   18  C   UNL     1     -10.181  12.419  68.668  1.00  0.00    -0.169 C  
BRANCH  18  19
HETATM   19  C   UNL     1     -11.112  13.530  69.135  1.00  0.00    -0.271 C  
BRANCH  19  20
HETATM   20  C   UNL     1     -12.393  12.943  69.720  1.00  0.00    -0.118 C  
BRANCH  20  21
HETATM   21  C   UNL     1     -12.284  11.428  69.863  1.00  0.00    -0.346 C  
BRANCH  21  22
HETATM   22  C   UNL     1     -12.489  11.010  71.314  1.00  0.00    -0.475 C  
HETATM   23  C   UNL     1     -11.846   9.664  71.595  1.00  0.00    -0.457 C  
ENDBRANCH  21  22
ENDBRANCH  20  21
ENDBRANCH  19  20
ENDBRANCH  18  19
ENDBRANCH  17  18
ENDBRANCH  16  17
ENDBRANCH  15  16
ENDBRANCH  14  15
ENDBRANCH  11  14
ENDBRANCH  10  11
ENDBRANCH   9  10
ENDBRANCH   8   9
ENDBRANCH   7   8
ENDBRANCH   6   7
ENDBRANCH   5   6
ENDBRANCH   4   5
ENDBRANCH   3   4
ENDBRANCH   2   3
TORSDOF 18
ENDMDL
MODEL      423
REMARK 921   NORMALIZED FREE ENERGY PREDICTED BY IDOCK:   -1.08 KCAL/MOL
REMARK 922        TOTAL FREE ENERGY PREDICTED BY IDOCK:   -4.92 KCAL/MOL
REMARK 923 INTER-LIGAND FREE ENERGY PREDICTED BY IDOCK:   -4.35 KCAL/MOL
REMARK 924 INTRA-LIGAND FREE ENERGY PREDICTED BY IDOCK:   -0.57 KCAL/MOL
REMARK 927      BINDING AFFINITY PREDICTED BY RF-SCORE:    0.00 PKD
ROOT
HETATM    1  C   UNL     1      -5.135  16.929  70.673  1.00  0.00    -0.234 C  
HETATM    2  C   UNL     1      -6.219  15.872  70.566  1.00  0.00     0.217 C  
ENDROOT
BRANCH   2   3
HETATM    3  C   UNL     1      -6.359  15.369  69.132  1.00  0.00    -0.117 C  
BRANCH   3   4
HETATM    4  C   UNL     1      -7.813  15.037  68.818  1.00  0.00    -0.151 C  
BRANCH   4   5
HETATM    5  C   UNL     1      -7.964  14.566  67.379  1.00  0.00    -0.221 C  
BRANCH   5   6
HETATM    6  C   UNL     1      -8.389  15.720  66.477  1.00  0.00    -0.313 C  
BRANCH   6   7
HETATM    7  C   UNL     1      -9.709  16.296  66.961  1.00  0.00    -0.244 C  
BRANCH   7   8
HETATM    8  C   UNL     1     -10.890  15.419  66.557  1.00  0.00    -0.298 C  
BRANCH   8   9
HETATM    9  C   UNL     1     -10.369  14.017  66.274  1.00  0.00    -0.294 C  
BRANCH   9  10
HETATM   10  C   UNL     1     -10.401  13.685  64.788  1.00  0.00    -0.392 C  
BRANCH  10  11
HETATM   11  N   UNL     1     -11.552  12.714  64.419  1.00  0.00    -0.336 N  
HETATM   12  C   UNL     1     -12.382  12.379  65.660  1.00  0.00    -0.106 C  
HETATM   13  C   UNL     1     -12.451  13.340  63.350  1.00  0.00    -0.199 C  
BRANCH  11  14
HETATM   14  C   UNL     1     -10.872  11.435  63.866  1.00  0.00    -0.393 C  
BRANCH  14  15
HETATM   15  C   UNL     1      -9.534  11.149  64.532  1.00  0.00    -0.254 C  
BRANCH  15  16
HETATM   16  C   UNL     1      -9.325   9.663  64.785  1.00  0.00    -0.286 C  
BRANCH  16  17
HETATM   17  C   UNL     1      -9.588   9.385  66.261  1.00  0.00    -0.297 C  
BRANCH  17  18
HETATM   18  C   UNL     1      -8.606  10.126  67.154  1.00  0.00    -0.125 C  
BRANCH  18  19
HETATM   19  C   UNL     1      -7.846   9.131  68.021  1.00  0.00    -0.100 C  
BRANCH  19  20
HETATM   20  C   UNL     1      -6.404   8.997  67.545  1.00  0.00    -0.063 C  
BRANCH  20  21
HETATM   21  C   UNL     1      -6.210   7.711  66.747  1.00  0.00    -0.049 C  
BRANCH  21  22
HETATM   22  C   UNL     1      -5.904   8.025  65.287  1.00  0.00    -0.041 C  
HETATM   23  C   UNL     1      -5.556   9.491  65.100  1.00  0.00    -0.051 C  
ENDBRANCH  21  22
ENDBRANCH  20  21
ENDBRANCH  19  20
ENDBRANCH  18  19
ENDBRANCH  17  18
ENDBRANCH  16  17
ENDBRANCH  15  16
ENDBRANCH  14  15
ENDBRANCH  11  14
ENDBRANCH  10  11
ENDBRANCH   9  10
ENDBRANCH   8   9
ENDBRANCH   7   8
ENDBRANCH   6   7
ENDBRANCH   5   6
ENDBRANCH   4   5
ENDBRANCH   3   4
ENDBRANCH   2   3
TORSDOF 18
ENDMDL
MODEL      424
REMARK 921   NORMALIZED FREE ENERGY PREDICTED BY IDOCK:   -1.00 KCAL/MOL
REMARK 922        TOTAL FREE ENERGY PREDICTED BY IDOCK:   -4.75 KCAL/MOL
REMARK 923 INTER-LIGAND FREE ENERGY PREDICTED BY IDOCK:   -3.09 KCAL/MOL
REMARK 924 INTRA-LIGAND FREE ENERGY PREDICTED BY IDOCK:   -1.67 KCAL/MOL
REMARK 927      BINDING AFFINITY PREDICTED BY RF-SCORE:    0.00 PKD
ROOT
HETATM    1  C   UNL     1      -8.220  11.435  66.729  1.00  0.00    -0.160 C  
HETATM    2  C   UNL     1      -8.158  10.645  65.435  1.00  0.00    -0.106 C  
ENDROOT
BRANCH   2   3
HETATM    3  C   UNL     1      -6.795   9.982  65.258  1.00  0.00    -0.128 C  
BRANCH   3   4
HETATM    4  C   UNL     1      -6.939   8.466  65.194  1.00  0.00    -0.074 C  
BRANCH   4   5
HETATM    5  C   UNL     1      -8.395   8.066  65.011  1.00  0.00    -0.121 C  
BRANCH   5   6
HETATM    6  C   UNL     1      -8.631   6.647  65.520  1.00  0.00    -0.101 C  
BRANCH   6   7
HETATM    7  C   UNL     1      -8.923   6.675  67.010  1.00  0.00    -0.120 C  
BRANCH   7   8
HETATM    8  C   UNL     1     -10.074   5.744  67.378  1.00  0.00    -0.207 C  
BRANCH   8   9
HETATM    9  C   UNL     1      -9.525   4.329  67.495  1.00  0.00    -0.216 C  
BRANCH   9  10
HETATM   10  C   UNL     1      -8.159   4.300  68.167  1.00  0.00    -0.089 C  
BRANCH  10  11
HETATM   11  N   UNL     1      -8.137   3.399  69.429  1.00  0.00    -0.052 N  
HETATM   12  C   UNL     1      -9.390   2.524  69.480  1.00  0.00    -0.102 C  
HETATM   13  C   UNL     1      -6.888   2.513  69.424  1.00  0.00    -0.033 C  
BRANCH  11  14
HETATM   14  C   UNL     1      -8.105   4.364  70.643  1.00  0.00    -0.067 C  
BRANCH  14  15
HETATM   15  C   UNL     1      -7.290   5.620  70.370  1.00  0.00    -0.079 C  
BRANCH  15  16
HETATM   16  C   UNL     1      -5.982   5.632  71.148  1.00  0.00    -0.032 C  
BRANCH  16  17
HETATM   17  C   UNL     1      -5.868   6.969  71.873  1.00  0.00    -0.037 C  
BRANCH  17  18
HETATM   18  C   UNL     1      -6.382   6.878  73.300  1.00  0.00    -0.062 C  
BRANCH  18  19
HETATM   19  C   UNL     1      -7.123   8.158  73.663  1.00  0.00    -0.169 C  
BRANCH  19  20
HETATM   20  C   UNL     1      -8.516   7.837  74.194  1.00  0.00    -0.303 C  
BRANCH  20  21
HETATM   21  C   UNL     1      -9.300   6.990  73.196  1.00  0.00    -0.176 C  
BRANCH  21  22
HETATM   22  C   UNL     1     -10.385   6.188  73.906  1.00  0.00    -0.302 C  
HETATM   23  C   UNL     1     -11.312   5.514  72.911  1.00  0.00    -0.348 C  
ENDBRANCH  21  22
ENDBRANCH  20  21
ENDBRANCH  19  20
ENDBRANCH  18  19
ENDBRANCH  17  18
ENDBRANCH  16  17
ENDBRANCH  15  16
ENDBRANCH  14  15
ENDBRANCH  11  14
ENDBRANCH  10  11
ENDBRANCH   9  10
ENDBRANCH   8   9
ENDBRANCH   7   8
ENDBRANCH   6   7
ENDBRANCH   5   6
ENDBRANCH   4   5
ENDBRANCH   3   4
ENDBRANCH   2   3
TORSDOF 18
ENDMDL
MODEL      425
REMARK 921   NORMALIZED FREE ENERGY PREDICTED BY IDOCK:   -0.94 KCAL/MOL
REMARK 922        TOTAL FREE ENERGY PREDICTED BY IDOCK:   -4.64 KCAL/MOL
REMARK 923 INTER-LIGAND FREE ENERGY PREDICTED BY IDOCK:   -3.26 KCAL/MOL
REMARK 924 INTRA-LIGAND FREE ENERGY PREDICTED BY IDOCK:   -1.37 KCAL/MOL
REMARK 927      BINDING AFFINITY PREDICTED BY RF-SCORE:    0.00 PKD
ROOT
HETATM    1  C   UNL     1      -7.670  10.588  66.033  1.00  0.00    -0.147 C  
HETATM    2  C   UNL     1      -7.429   9.981  64.663  1.00  0.00    -0.143 C  
ENDROOT
BRANCH   2   3
HETATM    3  C   UNL     1      -6.008   9.442  64.540  1.00  0.00    -0.076 C  
BRANCH   3   4
HETATM    4  C   UNL     1      -6.015   8.038  63.946  1.00  0.00    -0.058 C  
BRANCH   4   5
HETATM    5  C   UNL     1      -7.332   7.754  63.239  1.00  0.00    -0.101 C  
BRANCH   5   6
HETATM    6  C   UNL     1      -7.622   6.257  63.224  1.00  0.00    -0.086 C  
BRANCH   6   7
HETATM    7  C   UNL     1      -8.123   5.813  64.588  1.00  0.00    -0.132 C  
BRANCH   7   8
HETATM    8  C   UNL     1      -9.096   4.644  64.479  1.00  0.00    -0.132 C  
BRANCH   8   9
HETATM    9  C   UNL     1      -8.327   3.356  64.734  1.00  0.00    -0.090 C  
BRANCH   9  10
HETATM   10  C   UNL     1      -7.196   3.554  65.735  1.00  0.00    -0.068 C  
BRANCH  10  11
HETATM   11  N   UNL     1      -7.315   2.614  66.962  1.00  0.00    -0.060 N  
HETATM   12  C   UNL     1      -8.387   1.552  66.715  1.00  0.00    -0.084 C  
HETATM   13  C   UNL     1      -5.971   1.936  67.241  1.00  0.00    -0.020 C  
BRANCH  11  14
HETATM   14  C   UNL     1      -7.719   3.517  68.156  1.00  0.00    -0.064 C  
BRANCH  14  15
HETATM   15  C   UNL     1      -7.125   3.045  69.474  1.00  0.00    -0.041 C  
BRANCH  15  16
HETATM   16  C   UNL     1      -8.052   2.088  70.210  1.00  0.00    -0.056 C  
BRANCH  16  17
HETATM   17  C   UNL     1      -8.388   2.695  71.568  1.00  0.00    -0.080 C  
BRANCH  17  18
HETATM   18  C   UNL     1      -9.814   3.219  71.610  1.00  0.00    -0.220 C  
BRANCH  18  19
HETATM   19  C   UNL     1      -9.913   4.364  72.610  1.00  0.00    -0.217 C  
BRANCH  19  20
HETATM   20  C   UNL     1      -9.894   5.707  71.888  1.00  0.00    -0.203 C  
BRANCH  20  21
HETATM   21  C   UNL     1     -10.021   5.519  70.380  1.00  0.00    -0.279 C  
BRANCH  21  22
HETATM   22  C   UNL     1     -11.259   6.234  69.851  1.00  0.00    -0.498 C  
HETATM   23  C   UNL     1     -11.951   7.021  70.948  1.00  0.00    -0.409 C  
ENDBRANCH  21  22
ENDBRANCH  20  21
ENDBRANCH  19  20
ENDBRANCH  18  19
ENDBRANCH  17  18
ENDBRANCH  16  17
ENDBRANCH  15  16
ENDBRANCH  14  15
ENDBRANCH  11  14
ENDBRANCH  10  11
ENDBRANCH   9  10
ENDBRANCH   8   9
ENDBRANCH   7   8
ENDBRANCH   6   7
ENDBRANCH   5   6
ENDBRANCH   4   5
ENDBRANCH   3   4
ENDBRANCH   2   3
TORSDOF 18
ENDMDL
MODEL      426
REMARK 921   NORMALIZED FREE ENERGY PREDICTED BY IDOCK:   -0.82 KCAL/MOL
REMARK 922        TOTAL FREE ENERGY PREDICTED BY IDOCK:   -4.39 KCAL/MOL
REMARK 923 INTER-LIGAND FREE ENERGY PREDICTED BY IDOCK:   -4.43 KCAL/MOL
REMARK 924 INTRA-LIGAND FREE ENERGY PREDICTED BY IDOCK:    0.05 KCAL/MOL
REMARK 927      BINDING AFFINITY PREDICTED BY RF-SCORE:    0.00 PKD
ROOT
HETATM    1  C   UNL     1      -9.111   8.596  70.173  1.00  0.00    -0.163 C  
HETATM    2  C   UNL     1      -9.789   9.498  69.158  1.00  0.00    -0.176 C  
ENDROOT
BRANCH   2   3
HETATM    3  C   UNL     1     -11.245   9.756  69.534  1.00  0.00    -0.181 C  
BRANCH   3   4
HETATM    4  C   UNL     1     -11.832  10.872  68.678  1.00  0.00    -0.269 C  
BRANCH   4   5
HETATM    5  C   UNL     1     -11.471  12.237  69.243  1.00  0.00    -0.352 C  
BRANCH   5   6
HETATM    6  C   UNL     1     -11.566  13.309  68.163  1.00  0.00    -0.373 C  
BRANCH   6   7
HETATM    7  C   UNL     1     -10.482  13.091  67.121  1.00  0.00    -0.243 C  
BRANCH   7   8
HETATM    8  C   UNL     1      -9.248  13.943  67.403  1.00  0.00    -0.224 C  
BRANCH   8   9
HETATM    9  C   UNL     1      -8.113  13.018  67.817  1.00  0.00    -0.168 C  
BRANCH   9  10
HETATM   10  C   UNL     1      -7.436  13.483  69.099  1.00  0.00     0.125 C  
BRANCH  10  11
HETATM   11  N   UNL     1      -5.911  13.701  68.922  1.00  0.00    -0.080 N  
HETATM   12  C   UNL     1      -5.327  14.396  70.153  1.00  0.00    -0.100 C  
HETATM   13  C   UNL     1      -5.207  12.359  68.704  1.00  0.00    -0.054 C  
BRANCH  11  14
HETATM   14  C   UNL     1      -5.750  14.601  67.670  1.00  0.00     0.018 C  
BRANCH  14  15
HETATM   15  C   UNL     1      -5.305  16.014  68.018  1.00  0.00    -0.128 C  
BRANCH  15  16
HETATM   16  C   UNL     1      -6.038  16.562  69.234  1.00  0.00    -0.174 C  
BRANCH  16  17
HETATM   17  C   UNL     1      -7.392  17.097  68.777  1.00  0.00    -0.241 C  
BRANCH  17  18
HETATM   18  C   UNL     1      -7.273  17.893  67.488  1.00  0.00    -0.205 C  
BRANCH  18  19
HETATM   19  C   UNL     1      -8.331  18.988  67.460  1.00  0.00    -0.303 C  
BRANCH  19  20
HETATM   20  C   UNL     1      -8.277  19.749  66.139  1.00  0.00    -0.363 C  
BRANCH  20  21
HETATM   21  C   UNL     1      -6.884  19.676  65.522  1.00  0.00    -0.321 C  
BRANCH  21  22
HETATM   22  C   UNL     1      -6.267  21.066  65.420  1.00  0.00    -0.220 C  
HETATM   23  C   UNL     1      -5.395  21.192  64.184  1.00  0.00    -0.236 C  
ENDBRANCH  21  22
ENDBRANCH  20  21
ENDBRANCH  19  20
ENDBRANCH  18  19
ENDBRANCH  17  18
ENDBRANCH  16  17
ENDBRANCH  15  16
ENDBRANCH  14  15
ENDBRANCH  11  14
ENDBRANCH  10  11
ENDBRANCH   9  10
ENDBRANCH   8   9
ENDBRANCH   7   8
ENDBRANCH   6   7
ENDBRANCH   5   6
ENDBRANCH   4   5
ENDBRANCH   3   4
ENDBRANCH   2   3
TORSDOF 18
ENDMDL
MODEL      427
REMARK 921   NORMALIZED FREE ENERGY PREDICTED BY IDOCK:   -0.73 KCAL/MOL
REMARK 922        TOTAL FREE ENERGY PREDICTED BY IDOCK:   -4.21 KCAL/MOL
REMARK 923 INTER-LIGAND FREE ENERGY PREDICTED BY IDOCK:   -4.30 KCAL/MOL
REMARK 924 INTRA-LIGAND FREE ENERGY PREDICTED BY IDOCK:    0.09 KCAL/MOL
REMARK 927      BINDING AFFINITY PREDICTED BY RF-SCORE:    0.00 PKD
ROOT
HETATM    1  C   UNL     1      -9.504   6.778  70.999  1.00  0.00    -0.165 C  
HETATM    2  C   UNL     1     -10.861   6.826  70.321  1.00  0.00    -0.314 C  
ENDROOT
BRANCH   2   3
HETATM    3  C   UNL     1     -11.980   6.491  71.303  1.00  0.00    -0.364 C  
BRANCH   3   4
HETATM    4  C   UNL     1     -12.795   7.736  71.634  1.00  0.00    -0.365 C  
BRANCH   4   5
HETATM    5  C   UNL     1     -11.895   8.861  72.124  1.00  0.00    -0.417 C  
BRANCH   5   6
HETATM    6  C   UNL     1     -12.526  10.219  71.835  1.00  0.00    -0.336 C  
BRANCH   6   7
HETATM    7  C   UNL     1     -12.233  10.631  70.403  1.00  0.00    -0.432 C  
BRANCH   7   8
HETATM    8  C   UNL     1     -10.795  10.310  70.006  1.00  0.00    -0.364 C  
BRANCH   8   9
HETATM    9  C   UNL     1     -10.692  10.380  68.489  1.00  0.00    -0.255 C  
BRANCH   9  10
HETATM   10  C   UNL     1      -9.560   9.514  67.953  1.00  0.00    -0.133 C  
BRANCH  10  11
HETATM   11  N   UNL     1      -8.966  10.063  66.630  1.00  0.00    -0.138 N  
HETATM   12  C   UNL     1      -7.752   9.235  66.208  1.00  0.00    -0.096 C  
HETATM   13  C   UNL     1     -10.023  10.032  65.522  1.00  0.00    -0.296 C  
BRANCH  11  14
HETATM   14  C   UNL     1      -8.542  11.525  66.926  1.00  0.00    -0.163 C  
BRANCH  14  15
HETATM   15  C   UNL     1      -7.034  11.720  66.870  1.00  0.00    -0.101 C  
BRANCH  15  16
HETATM   16  C   UNL     1      -6.417  11.811  68.258  1.00  0.00    -0.051 C  
BRANCH  16  17
HETATM   17  C   UNL     1      -5.561  10.568  68.484  1.00  0.00    -0.040 C  
BRANCH  17  18
HETATM   18  C   UNL     1      -6.153   9.669  69.556  1.00  0.00    -0.040 C  
BRANCH  18  19
HETATM   19  C   UNL     1      -6.124   8.220  69.087  1.00  0.00    -0.039 C  
BRANCH  19  20
HETATM   20  C   UNL     1      -6.749   7.306  70.135  1.00  0.00    -0.054 C  
BRANCH  20  21
HETATM   21  C   UNL     1      -5.707   6.360  70.726  1.00  0.00    -0.023 C  
BRANCH  21  22
HETATM   22  C   UNL     1      -6.279   4.955  70.874  1.00  0.00    -0.019 C  
HETATM   23  C   UNL     1      -7.793   4.984  70.970  1.00  0.00    -0.092 C  
ENDBRANCH  21  22
ENDBRANCH  20  21
ENDBRANCH  19  20
ENDBRANCH  18  19
ENDBRANCH  17  18
ENDBRANCH  16  17
ENDBRANCH  15  16
ENDBRANCH  14  15
ENDBRANCH  11  14
ENDBRANCH  10  11
ENDBRANCH   9  10
ENDBRANCH   8   9
ENDBRANCH   7   8
ENDBRANCH   6   7
ENDBRANCH   5   6
ENDBRANCH   4   5
ENDBRANCH   3   4
ENDBRANCH   2   3
TORSDOF 18
ENDMDL
MODEL      428
REMARK 921   NORMALIZED FREE ENERGY PREDICTED BY IDOCK:   -0.64 KCAL/MOL
REMARK 922        TOTAL FREE ENERGY PREDICTED BY IDOCK:   -4.02 KCAL/MOL
REMARK 923 INTER-LIGAND FREE ENERGY PREDICTED BY IDOCK:   -2.62 KCAL/MOL
REMARK 924 INTRA-LIGAND FREE ENERGY PREDICTED BY IDOCK:   -1.40 KCAL/MOL
REMARK 927      BINDING AFFINITY PREDICTED BY RF-SCORE:    0.00 PKD
ROOT
HETATM    1  C   UNL     1     -11.257   2.212  62.878  1.00  0.00    -0.223 C  
HETATM    2  C   UNL     1      -9.921   1.556  62.586  1.00  0.00    -0.092 C  
ENDROOT
BRANCH   2   3
HETATM    3  C   UNL     1      -9.052   1.492  63.839  1.00  0.00    -0.097 C  
BRANCH   3   4
HETATM    4  C   UNL     1      -7.626   1.930  63.527  1.00  0.00    -0.055 C  
BRANCH   4   5
HETATM    5  C   UNL     1      -6.997   2.624  64.726  1.00  0.00    -0.049 C  
BRANCH   5   6
HETATM    6  C   UNL     1      -6.585   4.048  64.369  1.00  0.00    -0.043 C  
BRANCH   6   7
HETATM    7  C   UNL     1      -7.551   5.038  64.995  1.00  0.00    -0.078 C  
BRANCH   7   8
HETATM    8  C   UNL     1      -8.991   4.771  64.567  1.00  0.00    -0.128 C  
BRANCH   8   9
HETATM    9  C   UNL     1      -9.849   4.658  65.819  1.00  0.00    -0.227 C  
BRANCH   9  10
HETATM   10  C   UNL     1      -9.091   5.077  67.071  1.00  0.00    -0.117 C  
BRANCH  10  11
HETATM   11  N   UNL     1      -9.818   6.198  67.860  1.00  0.00    -0.119 N  
HETATM   12  C   UNL     1     -11.031   6.698  67.075  1.00  0.00    -0.393 C  
HETATM   13  C   UNL     1     -10.266   5.676  69.227  1.00  0.00    -0.239 C  
BRANCH  11  14
HETATM   14  C   UNL     1      -8.782   7.339  68.034  1.00  0.00    -0.127 C  
BRANCH  14  15
HETATM   15  C   UNL     1      -7.858   7.114  69.221  1.00  0.00    -0.117 C  
BRANCH  15  16
HETATM   16  C   UNL     1      -8.004   8.203  70.275  1.00  0.00    -0.103 C  
BRANCH  16  17
HETATM   17  C   UNL     1      -7.956   7.548  71.652  1.00  0.00    -0.092 C  
BRANCH  17  18
HETATM   18  C   UNL     1      -7.630   6.067  71.557  1.00  0.00    -0.099 C  
BRANCH  18  19
HETATM   19  C   UNL     1      -7.511   5.475  72.955  1.00  0.00    -0.096 C  
BRANCH  19  20
HETATM   20  C   UNL     1      -7.289   3.968  72.880  1.00  0.00    -0.072 C  
BRANCH  20  21
HETATM   21  C   UNL     1      -7.059   3.520  71.440  1.00  0.00    -0.032 C  
BRANCH  21  22
HETATM   22  C   UNL     1      -5.711   2.822  71.303  1.00  0.00    -0.013 C  
HETATM   23  C   UNL     1      -5.285   2.728  69.850  1.00  0.00    -0.008 C  
ENDBRANCH  21  22
ENDBRANCH  20  21
ENDBRANCH  19  20
ENDBRANCH  18  19
ENDBRANCH  17  18
ENDBRANCH  16  17
ENDBRANCH  15  16
ENDBRANCH  14  15
ENDBRANCH  11  14
ENDBRANCH  10  11
ENDBRANCH   9  10
ENDBRANCH   8   9
ENDBRANCH   7   8
ENDBRANCH   6   7
ENDBRANCH   5   6
ENDBRANCH   4   5
ENDBRANCH   3   4
ENDBRANCH   2   3
TORSDOF 18
ENDMDL
MODEL      429
REMARK 921   NORMALIZED FREE ENERGY PREDICTED BY IDOCK:   -0.56 KCAL/MOL
REMARK 922        TOTAL FREE ENERGY PREDICTED BY IDOCK:   -3.86 KCAL/MOL
REMARK 923 INTER-LIGAND FREE ENERGY PREDICTED BY IDOCK:   -2.62 KCAL/MOL
REMARK 924 INTRA-LIGAND FREE ENERGY PREDICTED BY IDOCK:   -1.24 KCAL/MOL
REMARK 927      BINDING AFFINITY PREDICTED BY RF-SCORE:    0.00 PKD
ROOT
HETATM    1  C   UNL     1     -10.823   5.845  66.991  1.00  0.00    -0.379 C  
HETATM    2  C   UNL     1      -9.623   4.943  66.773  1.00  0.00    -0.170 C  
ENDROOT
BRANCH   2   3
HETATM    3  C   UNL     1      -8.725   5.478  65.661  1.00  0.00    -0.153 C  
BRANCH   3   4
HETATM    4  C   UNL     1      -8.818   6.997  65.580  1.00  0.00     0.022 C  
BRANCH   4   5
HETATM    5  C   UNL     1      -7.460   7.608  65.265  1.00  0.00    -0.083 C  
BRANCH   5   6
HETATM    6  C   UNL     1      -6.339   6.632  65.606  1.00  0.00    -0.046 C  
BRANCH   6   7
HETATM    7  C   UNL     1      -5.350   7.291  66.552  1.00  0.00    -0.023 C  
BRANCH   7   8
HETATM    8  C   UNL     1      -6.053   7.957  67.730  1.00  0.00    -0.046 C  
BRANCH   8   9
HETATM    9  C   UNL     1      -6.394   6.882  68.752  1.00  0.00    -0.028 C  
BRANCH   9  10
HETATM   10  C   UNL     1      -7.862   6.922  69.155  1.00  0.00    -0.111 C  
BRANCH  10  11
HETATM   11  N   UNL     1      -8.077   6.598  70.656  1.00  0.00    -0.111 N  
HETATM   12  C   UNL     1      -9.434   5.925  70.865  1.00  0.00    -0.165 C  
HETATM   13  C   UNL     1      -6.961   5.682  71.164  1.00  0.00    -0.066 C  
BRANCH  11  14
HETATM   14  C   UNL     1      -8.033   7.960  71.397  1.00  0.00    -0.094 C  
BRANCH  14  15
HETATM   15  C   UNL     1      -9.024   8.966  70.832  1.00  0.00    -0.273 C  
BRANCH  15  16
HETATM   16  C   UNL     1     -10.365   8.914  71.550  1.00  0.00    -0.394 C  
BRANCH  16  17
HETATM   17  C   UNL     1     -11.194  10.114  71.106  1.00  0.00    -0.244 C  
BRANCH  17  18
HETATM   18  C   UNL     1     -12.242  10.486  72.141  1.00  0.00     0.519 C  
BRANCH  18  19
HETATM   19  C   UNL     1     -13.440  11.129  71.455  1.00  0.00     0.057 C  
BRANCH  19  20
HETATM   20  C   UNL     1     -13.369  12.648  71.567  1.00  0.00    -0.208 C  
BRANCH  20  21
HETATM   21  C   UNL     1     -12.879  13.271  70.264  1.00  0.00     0.087 C  
BRANCH  21  22
HETATM   22  C   UNL     1     -12.052  14.521  70.542  1.00  0.00    -0.395 C  
HETATM   23  C   UNL     1     -11.287  14.962  69.308  1.00  0.00    -0.315 C  
ENDBRANCH  21  22
ENDBRANCH  20  21
ENDBRANCH  19  20
ENDBRANCH  18  19
ENDBRANCH  17  18
ENDBRANCH  16  17
ENDBRANCH  15  16
ENDBRANCH  14  15
ENDBRANCH  11  14
ENDBRANCH  10  11
ENDBRANCH   9  10
ENDBRANCH   8   9
ENDBRANCH   7   8
ENDBRANCH   6   7
ENDBRANCH   5   6
ENDBRANCH   4   5
ENDBRANCH   3   4
ENDBRANCH   2   3
TORSDOF 18
ENDMDL
MODEL      430
REMARK 921   NORMALIZED FREE ENERGY PREDICTED BY IDOCK:   -0.52 KCAL/MOL
REMARK 922        TOTAL FREE ENERGY PREDICTED BY IDOCK:   -3.77 KCAL/MOL
REMARK 923 INTER-LIGAND FREE ENERGY PREDICTED BY IDOCK:   -3.48 KCAL/MOL
REMARK 924 INTRA-LIGAND FREE ENERGY PREDICTED BY IDOCK:   -0.29 KCAL/MOL
REMARK 927      BINDING AFFINITY PREDICTED BY RF-SCORE:    0.00 PKD
ROOT
HETATM    1  C   UNL     1      -9.609  18.867  68.352  1.00  0.00    -0.420 C  
HETATM    2  C   UNL     1      -8.501  17.938  68.810  1.00  0.00    -0.212 C  
ENDROOT
BRANCH   2   3
HETATM    3  C   UNL     1      -7.156  18.348  68.217  1.00  0.00    -0.269 C  
BRANCH   3   4
HETATM    4  C   UNL     1      -6.220  17.148  68.127  1.00  0.00    -0.136 C  
BRANCH   4   5
HETATM    5  C   UNL     1      -6.114  16.439  69.469  1.00  0.00    -0.188 C  
BRANCH   5   6
HETATM    6  C   UNL     1      -5.277  15.170  69.343  1.00  0.00    -0.092 C  
BRANCH   6   7
HETATM    7  C   UNL     1      -5.125  14.795  67.879  1.00  0.00    -0.065 C  
BRANCH   7   8
HETATM    8  C   UNL     1      -5.387  13.310  67.646  1.00  0.00    -0.039 C  
BRANCH   8   9
HETATM    9  C   UNL     1      -6.873  13.124  67.376  1.00  0.00    -0.113 C  
BRANCH   9  10
HETATM   10  C   UNL     1      -7.476  12.019  68.232  1.00  0.00    -0.106 C  
BRANCH  10  11
HETATM   11  N   UNL     1      -6.795  10.646  67.998  1.00  0.00    -0.071 N  
HETATM   12  C   UNL     1      -5.738  10.757  66.899  1.00  0.00    -0.062 C  
HETATM   13  C   UNL     1      -6.144  10.151  69.292  1.00  0.00    -0.037 C  
BRANCH  11  14
HETATM   14  C   UNL     1      -7.924   9.677  67.562  1.00  0.00    -0.106 C  
BRANCH  14  15
HETATM   15  C   UNL     1      -9.300  10.136  68.023  1.00  0.00    -0.149 C  
BRANCH  15  16
HETATM   16  C   UNL     1      -9.695   9.513  69.354  1.00  0.00    -0.190 C  
BRANCH  16  17
HETATM   17  C   UNL     1     -10.577   8.301  69.073  1.00  0.00    -0.167 C  
BRANCH  17  18
HETATM   18  C   UNL     1     -10.713   8.040  67.583  1.00  0.00    -0.203 C  
BRANCH  18  19
HETATM   19  C   UNL     1     -10.624   6.544  67.310  1.00  0.00    -0.383 C  
BRANCH  19  20
HETATM   20  C   UNL     1      -9.400   6.228  66.457  1.00  0.00    -0.173 C  
BRANCH  20  21
HETATM   21  C   UNL     1      -8.381   5.412  67.246  1.00  0.00    -0.107 C  
BRANCH  21  22
HETATM   22  C   UNL     1      -7.463   6.328  68.047  1.00  0.00    -0.090 C  
HETATM   23  C   UNL     1      -7.750   6.231  69.534  1.00  0.00    -0.099 C  
ENDBRANCH  21  22
ENDBRANCH  20  21
ENDBRANCH  19  20
ENDBRANCH  18  19
ENDBRANCH  17  18
ENDBRANCH  16  17
ENDBRANCH  15  16
ENDBRANCH  14  15
ENDBRANCH  11  14
ENDBRANCH  10  11
ENDBRANCH   9  10
ENDBRANCH   8   9
ENDBRANCH   7   8
ENDBRANCH   6   7
ENDBRANCH   5   6
ENDBRANCH   4   5
ENDBRANCH   3   4
ENDBRANCH   2   3
TORSDOF 18
ENDMDL
MODEL      431
REMARK 921   NORMALIZED FREE ENERGY PREDICTED BY IDOCK:   -0.19 KCAL/MOL
REMARK 922        TOTAL FREE ENERGY PREDICTED BY IDOCK:   -3.08 KCAL/MOL
REMARK 923 INTER-LIGAND FREE ENERGY PREDICTED BY IDOCK:   -2.42 KCAL/MOL
REMARK 924 INTRA-LIGAND FREE ENERGY PREDICTED BY IDOCK:   -0.67 KCAL/MOL
REMARK 927      BINDING AFFINITY PREDICTED BY RF-SCORE:    0.00 PKD
ROOT
HETATM    1  C   UNL     1     -10.936   7.220  66.512  1.00  0.00     0.554 C  
HETATM    2  C   UNL     1     -10.096   8.388  66.995  1.00  0.00    -0.354 C  
ENDROOT
BRANCH   2   3
HETATM    3  C   UNL     1     -10.002   8.408  68.518  1.00  0.00    -0.203 C  
BRANCH   3   4
HETATM    4  C   UNL     1     -10.675   9.653  69.082  1.00  0.00    -0.237 C  
BRANCH   4   5
HETATM    5  C   UNL     1     -10.358   9.819  70.561  1.00  0.00    -0.348 C  
BRANCH   5   6
HETATM    6  C   UNL     1      -9.621   8.595  71.094  1.00  0.00    -0.281 C  
BRANCH   6   7
HETATM    7  C   UNL     1     -10.606   7.650  71.762  1.00  0.00    -0.250 C  
BRANCH   7   8
HETATM    8  C   UNL     1     -10.050   7.083  73.064  1.00  0.00    -0.242 C  
BRANCH   8   9
HETATM    9  C   UNL     1     -10.031   5.565  72.955  1.00  0.00    -0.196 C  
BRANCH   9  10
HETATM   10  C   UNL     1      -8.646   4.990  73.223  1.00  0.00    -0.112 C  
BRANCH  10  11
HETATM   11  N   UNL     1      -8.553   3.480  72.884  1.00  0.00    -0.085 N  
HETATM   12  C   UNL     1      -7.774   2.739  73.972  1.00  0.00    -0.059 C  
HETATM   13  C   UNL     1      -9.955   2.880  72.754  1.00  0.00    -0.142 C  
BRANCH  11  14
HETATM   14  C   UNL     1      -7.803   3.391  71.530  1.00  0.00    -0.057 C  
BRANCH  14  15
HETATM   15  C   UNL     1      -7.488   4.760  70.945  1.00  0.00    -0.064 C  
BRANCH  15  16
HETATM   16  C   UNL     1      -6.066   5.202  71.257  1.00  0.00    -0.022 C  
BRANCH  16  17
HETATM   17  C   UNL     1      -5.369   5.539  69.942  1.00  0.00    -0.004 C  
BRANCH  17  18
HETATM   18  C   UNL     1      -6.312   5.407  68.758  1.00  0.00    -0.038 C  
BRANCH  18  19
HETATM   19  C   UNL     1      -6.118   4.052  68.092  1.00  0.00    -0.032 C  
BRANCH  19  20
HETATM   20  C   UNL     1      -5.363   4.205  66.776  1.00  0.00    -0.013 C  
BRANCH  20  21
HETATM   21  C   UNL     1      -6.327   4.245  65.595  1.00  0.00    -0.036 C  
BRANCH  21  22
HETATM   22  C   UNL     1      -6.905   5.644  65.419  1.00  0.00    -0.056 C  
HETATM   23  C   UNL     1      -8.341   5.590  64.932  1.00  0.00    -0.142 C  
ENDBRANCH  21  22
ENDBRANCH  20  21
ENDBRANCH  19  20
ENDBRANCH  18  19
ENDBRANCH  17  18
ENDBRANCH  16  17
ENDBRANCH  15  16
ENDBRANCH  14  15
ENDBRANCH  11  14
ENDBRANCH  10  11
ENDBRANCH   9  10
ENDBRANCH   8   9
ENDBRANCH   7   8
ENDBRANCH   6   7
ENDBRANCH   5   6
ENDBRANCH   4   5
ENDBRANCH   3   4
ENDBRANCH   2   3
TORSDOF 18
ENDMDL
MODEL      432
REMARK 921   NORMALIZED FREE ENERGY PREDICTED BY IDOCK:   -0.02 KCAL/MOL
REMARK 922        TOTAL FREE ENERGY PREDICTED BY IDOCK:   -2.75 KCAL/MOL
REMARK 923 INTER-LIGAND FREE ENERGY PREDICTED BY IDOCK:   -2.93 KCAL/MOL
REMARK 924 INTRA-LIGAND FREE ENERGY PREDICTED BY IDOCK:    0.18 KCAL/MOL
REMARK 927      BINDING AFFINITY PREDICTED BY RF-SCORE:    0.00 PKD
ROOT
HETATM    1  C   UNL     1      -5.126  16.933  70.674  1.00  0.00    -0.234 C  
HETATM    2  C   UNL     1      -6.149  15.817  70.576  1.00  0.00     0.105 C  
ENDROOT
BRANCH   2   3
HETATM    3  C   UNL     1      -6.252  15.286  69.149  1.00  0.00    -0.108 C  
BRANCH   3   4
HETATM    4  C   UNL     1      -7.670  14.812  68.853  1.00  0.00    -0.146 C  
BRANCH   4   5
HETATM    5  C   UNL     1      -7.790  14.318  67.419  1.00  0.00    -0.207 C  
BRANCH   5   6
HETATM    6  C   UNL     1      -8.398  15.397  66.528  1.00  0.00    -0.184 C  
BRANCH   6   7
HETATM    7  C   UNL     1      -9.784  15.762  67.031  1.00  0.00    -0.235 C  
BRANCH   7   8
HETATM    8  C   UNL     1     -10.813  14.694  66.674  1.00  0.00    -0.312 C  
BRANCH   8   9
HETATM    9  C   UNL     1     -10.075  13.393  66.395  1.00  0.00    -0.292 C  
BRANCH   9  10
HETATM   10  C   UNL     1     -10.126  13.012  64.921  1.00  0.00    -0.213 C  
BRANCH  10  11
HETATM   11  N   UNL     1     -11.056  11.800  64.652  1.00  0.00    -0.312 N  
HETATM   12  C   UNL     1     -11.694  11.320  65.956  1.00  0.00     0.611 C  
HETATM   13  C   UNL     1     -12.151  12.185  63.653  1.00  0.00    -0.551 C  
BRANCH  11  14
HETATM   14  C   UNL     1     -10.151  10.691  64.055  1.00  0.00    -0.310 C  
BRANCH  14  15
HETATM   15  C   UNL     1      -8.723  10.759  64.576  1.00  0.00    -0.097 C  
BRANCH  15  16
HETATM   16  C   UNL     1      -8.009   9.419  64.463  1.00  0.00    -0.126 C  
BRANCH  16  17
HETATM   17  C   UNL     1      -8.682   8.435  65.413  1.00  0.00    -0.175 C  
BRANCH  17  18
HETATM   18  C   UNL     1      -7.665   7.574  66.142  1.00  0.00    -0.090 C  
BRANCH  18  19
HETATM   19  C   UNL     1      -7.916   6.104  65.833  1.00  0.00    -0.112 C  
BRANCH  19  20
HETATM   20  C   UNL     1      -9.386   5.871  65.500  1.00  0.00     0.123 C  
BRANCH  20  21
HETATM   21  C   UNL     1      -9.585   4.519  64.822  1.00  0.00    -0.103 C  
BRANCH  21  22
HETATM   22  C   UNL     1      -8.703   3.457  65.470  1.00  0.00    -0.121 C  
HETATM   23  C   UNL     1      -9.504   2.220  65.830  1.00  0.00     0.155 C  
ENDBRANCH  21  22
ENDBRANCH  20  21
ENDBRANCH  19  20
ENDBRANCH  18  19
ENDBRANCH  17  18
ENDBRANCH  16  17
ENDBRANCH  15  16
ENDBRANCH  14  15
ENDBRANCH  11  14
ENDBRANCH  10  11
ENDBRANCH   9  10
ENDBRANCH   8   9
ENDBRANCH   7   8
ENDBRANCH   6   7
ENDBRANCH   5   6
ENDBRANCH   4   5
ENDBRANCH   3   4
ENDBRANCH   2   3
TORSDOF 18
ENDMDL
MODEL      433
REMARK 921   NORMALIZED FREE ENERGY PREDICTED BY IDOCK:    0.42 KCAL/MOL
REMARK 922        TOTAL FREE ENERGY PREDICTED BY IDOCK:   -1.85 KCAL/MOL
REMARK 923 INTER-LIGAND FREE ENERGY PREDICTED BY IDOCK:   -3.65 KCAL/MOL
REMARK 924 INTRA-LIGAND FREE ENERGY PREDICTED BY IDOCK:    1.81 KCAL/MOL
REMARK 927      BINDING AFFINITY PREDICTED BY RF-SCORE:    0.00 PKD
ROOT
HETATM    1  C   UNL     1      -5.879  16.964  67.636  1.00  0.00    -0.159 C  
HETATM    2  C   UNL     1      -6.600  15.633  67.532  1.00  0.00    -0.212 C  
ENDROOT
BRANCH   2   3
HETATM    3  C   UNL     1      -5.679  14.475  67.902  1.00  0.00    -0.123 C  
BRANCH   3   4
HETATM    4  C   UNL     1      -5.179  14.622  69.334  1.00  0.00    -0.086 C  
BRANCH   4   5
HETATM    5  C   UNL     1      -5.547  13.403  70.166  1.00  0.00    -0.126 C  
BRANCH   5   6
HETATM    6  C   UNL     1      -6.484  12.483  69.389  1.00  0.00    -0.102 C  
BRANCH   6   7
HETATM    7  C   UNL     1      -7.890  13.058  69.390  1.00  0.00     0.710 C  
BRANCH   7   8
HETATM    8  C   UNL     1      -8.234  13.711  68.056  1.00  0.00    -0.162 C  
BRANCH   8   9
HETATM    9  C   UNL     1      -9.529  13.098  67.543  1.00  0.00    -0.212 C  
BRANCH   9  10
HETATM   10  C   UNL     1     -10.559  14.159  67.179  1.00  0.00    -0.278 C  
BRANCH  10  11
HETATM   11  N   UNL     1     -11.084  14.005  65.728  1.00  0.00    -0.301 N  
HETATM   12  C   UNL     1     -12.572  13.652  65.736  1.00  0.00    -0.461 C  
HETATM   13  C   UNL     1     -10.865  15.302  64.945  1.00  0.00    -0.425 C  
BRANCH  11  14
HETATM   14  C   UNL     1     -10.261  12.852  65.096  1.00  0.00    -0.271 C  
BRANCH  14  15
HETATM   15  C   UNL     1     -11.130  11.868  64.326  1.00  0.00    -0.418 C  
BRANCH  15  16
HETATM   16  C   UNL     1     -10.419  11.315  63.099  1.00  0.00    -0.293 C  
BRANCH  16  17
HETATM   17  C   UNL     1      -8.975  11.005  63.481  1.00  0.00    -0.112 C  
BRANCH  17  18
HETATM   18  C   UNL     1      -8.892   9.865  64.481  1.00  0.00    -0.238 C  
BRANCH  18  19
HETATM   19  C   UNL     1      -7.598   9.088  64.273  1.00  0.00    -0.117 C  
BRANCH  19  20
HETATM   20  C   UNL     1      -7.884   7.595  64.152  1.00  0.00    -0.133 C  
BRANCH  20  21
HETATM   21  C   UNL     1      -6.801   6.774  64.846  1.00  0.00    -0.050 C  
BRANCH  21  22
HETATM   22  C   UNL     1      -6.819   5.333  64.351  1.00  0.00    -0.048 C  
HETATM   23  C   UNL     1      -7.077   5.267  62.857  1.00  0.00    -0.038 C  
ENDBRANCH  21  22
ENDBRANCH  20  21
ENDBRANCH  19  20
ENDBRANCH  18  19
ENDBRANCH  17  18
ENDBRANCH  16  17
ENDBRANCH  15  16
ENDBRANCH  14  15
ENDBRANCH  11  14
ENDBRANCH  10  11
ENDBRANCH   9  10
ENDBRANCH   8   9
ENDBRANCH   7   8
ENDBRANCH   6   7
ENDBRANCH   5   6
ENDBRANCH   4   5
ENDBRANCH   3   4
ENDBRANCH   2   3
TORSDOF 18
ENDMDL
MODEL      434
REMARK 921   NORMALIZED FREE ENERGY PREDICTED BY IDOCK:    0.76 KCAL/MOL
REMARK 922        TOTAL FREE ENERGY PREDICTED BY IDOCK:   -1.15 KCAL/MOL
REMARK 923 INTER-LIGAND FREE ENERGY PREDICTED BY IDOCK:   -1.03 KCAL/MOL
REMARK 924 INTRA-LIGAND FREE ENERGY PREDICTED BY IDOCK:   -0.12 KCAL/MOL
REMARK 927      BINDING AFFINITY PREDICTED BY RF-SCORE:    0.00 PKD
ROOT
HETATM    1  C   UNL     1      -6.215  17.903  65.493  1.00  0.00    -0.152 C  
HETATM    2  C   UNL     1      -7.654  18.258  65.167  1.00  0.00     1.406 C  
ENDROOT
BRANCH   2   3
HETATM    3  C   UNL     1      -8.379  18.804  66.393  1.00  0.00    -0.294 C  
BRANCH   3   4
HETATM    4  C   UNL     1      -9.880  18.876  66.143  1.00  0.00    -0.346 C  
BRANCH   4   5
HETATM    5  C   UNL     1     -10.638  17.996  67.126  1.00  0.00    -0.337 C  
BRANCH   5   6
HETATM    6  C   UNL     1     -10.297  16.526  66.906  1.00  0.00    -0.300 C  
BRANCH   6   7
HETATM    7  C   UNL     1     -11.222  15.932  65.858  1.00  0.00     0.065 C  
BRANCH   7   8
HETATM    8  C   UNL     1     -10.820  14.506  65.492  1.00  0.00    -0.342 C  
BRANCH   8   9
HETATM    9  C   UNL     1     -10.286  13.824  66.743  1.00  0.00    -0.272 C  
BRANCH   9  10
HETATM   10  C   UNL     1      -9.026  13.019  66.462  1.00  0.00    -0.065 C  
BRANCH  10  11
HETATM   11  N   UNL     1      -8.840  11.839  67.451  1.00  0.00    -0.158 N  
HETATM   12  C   UNL     1      -9.652  10.627  66.991  1.00  0.00    -0.169 C  
HETATM   13  C   UNL     1      -7.360  11.460  67.550  1.00  0.00    -0.112 C  
BRANCH  11  14
HETATM   14  C   UNL     1      -9.358  12.345  68.822  1.00  0.00     0.120 C  
BRANCH  14  15
HETATM   15  C   UNL     1     -10.877  12.361  68.903  1.00  0.00    -0.239 C  
BRANCH  15  16
HETATM   16  C   UNL     1     -11.372  12.639  70.315  1.00  0.00     0.341 C  
BRANCH  16  17
HETATM   17  C   UNL     1     -12.811  12.144  70.425  1.00  0.00     0.168 C  
BRANCH  17  18
HETATM   18  C   UNL     1     -13.516  12.736  71.634  1.00  0.00    -0.225 C  
BRANCH  18  19
HETATM   19  C   UNL     1     -12.554  13.630  72.406  1.00  0.00    -0.080 C  
BRANCH  19  20
HETATM   20  C   UNL     1     -12.674  15.076  71.937  1.00  0.00    -0.407 C  
BRANCH  20  21
HETATM   21  C   UNL     1     -11.634  15.959  72.619  1.00  0.00    -0.400 C  
BRANCH  21  22
HETATM   22  C   UNL     1     -12.050  16.268  74.053  1.00  0.00    -0.474 C  
HETATM   23  C   UNL     1     -13.476  16.782  74.115  1.00  0.00     1.245 C  
ENDBRANCH  21  22
ENDBRANCH  20  21
ENDBRANCH  19  20
ENDBRANCH  18  19
ENDBRANCH  17  18
ENDBRANCH  16  17
ENDBRANCH  15  16
ENDBRANCH  14  15
ENDBRANCH  11  14
ENDBRANCH  10  11
ENDBRANCH   9  10
ENDBRANCH   8   9
ENDBRANCH   7   8
ENDBRANCH   6   7
ENDBRANCH   5   6
ENDBRANCH   4   5
ENDBRANCH   3   4
ENDBRANCH   2   3
TORSDOF 18
ENDMDL
MODEL      435
REMARK 921   NORMALIZED FREE ENERGY PREDICTED BY IDOCK:    5.50 KCAL/MOL
REMARK 922        TOTAL FREE ENERGY PREDICTED BY IDOCK:    8.58 KCAL/MOL
REMARK 923 INTER-LIGAND FREE ENERGY PREDICTED BY IDOCK:    6.13 KCAL/MOL
REMARK 924 INTRA-LIGAND FREE ENERGY PREDICTED BY IDOCK:    2.45 KCAL/MOL
REMARK 927      BINDING AFFINITY PREDICTED BY RF-SCORE:    0.00 PKD
ROOT
HETATM    1  C   UNL     1     -11.329   7.349  65.463  1.00  0.00     6.435 C  
HETATM    2  C   UNL     1     -10.195   8.357  65.469  1.00  0.00     1.508 C  
ENDROOT
BRANCH   2   3
HETATM    3  C   UNL     1      -9.557   8.463  66.851  1.00  0.00    -0.264 C  
BRANCH   3   4
HETATM    4  C   UNL     1      -9.776   9.851  67.440  1.00  0.00    -0.199 C  
BRANCH   4   5
HETATM    5  C   UNL     1      -8.826  10.105  68.601  1.00  0.00    -0.136 C  
BRANCH   5   6
HETATM    6  C   UNL     1      -7.961   8.877  68.867  1.00  0.00    -0.104 C  
BRANCH   6   7
HETATM    7  C   UNL     1      -8.604   8.014  69.938  1.00  0.00    -0.135 C  
BRANCH   7   8
HETATM    8  C   UNL     1      -7.588   7.555  70.979  1.00  0.00    -0.084 C  
BRANCH   8   9
HETATM    9  C   UNL     1      -7.686   6.042  71.109  1.00  0.00    -0.109 C  
BRANCH   9  10
HETATM   10  C   UNL     1      -6.321   5.373  71.032  1.00  0.00    -0.034 C  
BRANCH  10  11
HETATM   11  N   UNL     1      -6.414   3.825  71.075  1.00  0.00    -0.025 N  
HETATM   12  C   UNL     1      -5.211   3.242  71.818  1.00  0.00     0.000 C  
HETATM   13  C   UNL     1      -7.708   3.392  71.768  1.00  0.00    -0.054 C  
BRANCH  11  14
HETATM   14  C   UNL     1      -6.412   3.355  69.598  1.00  0.00    -0.033 C  
BRANCH  14  15
HETATM   15  C   UNL     1      -6.536   4.511  68.616  1.00  0.00    -0.045 C  
BRANCH  15  16
HETATM   16  C   UNL     1      -5.181   4.968  68.094  1.00  0.00    -0.007 C  
BRANCH  16  17
HETATM   17  C   UNL     1      -5.148   4.747  66.586  1.00  0.00    -0.008 C  
BRANCH  17  18
HETATM   18  C   UNL     1      -6.534   4.463  66.031  1.00  0.00    -0.040 C  
BRANCH  18  19
HETATM   19  C   UNL     1      -7.505   5.541  66.493  1.00  0.00    -0.087 C  
BRANCH  19  20
HETATM   20  C   UNL     1      -8.484   4.977  67.516  1.00  0.00    -0.105 C  
BRANCH  20  21
HETATM   21  C   UNL     1      -9.559   4.133  66.837  1.00  0.00    -0.232 C  
BRANCH  21  22
HETATM   22  C   UNL     1      -8.987   2.793  66.389  1.00  0.00    -0.153 C  
HETATM   23  C   UNL     1      -9.601   2.345  65.075  1.00  0.00     0.043 C  
ENDBRANCH  21  22
ENDBRANCH  20  21
ENDBRANCH  19  20
ENDBRANCH  18  19
ENDBRANCH  17  18
ENDBRANCH  16  17
ENDBRANCH  15  16
ENDBRANCH  14  15
ENDBRANCH  11  14
ENDBRANCH  10  11
ENDBRANCH   9  10
ENDBRANCH   8   9
ENDBRANCH   7   8
ENDBRANCH   6   7
ENDBRANCH   5   6
ENDBRANCH   4   5
ENDBRANCH   3   4
ENDBRANCH   2   3
TORSDOF 18
ENDMDL
MODEL      436
REMARK 921   NORMALIZED FREE ENERGY PREDICTED BY IDOCK:   13.31 KCAL/MOL
REMARK 922        TOTAL FREE ENERGY PREDICTED BY IDOCK:   24.61 KCAL/MOL
REMARK 923 INTER-LIGAND FREE ENERGY PREDICTED BY IDOCK:   13.01 KCAL/MOL
REMARK 924 INTRA-LIGAND FREE ENERGY PREDICTED BY IDOCK:   11.59 KCAL/MOL
REMARK 927      BINDING AFFINITY PREDICTED BY RF-SCORE:    0.00 PKD
ROOT
HETATM    1  C   UNL     1      -8.889  17.098  71.260  1.00  0.00     8.013 C  
HETATM    2  C   UNL     1      -8.212  15.826  70.786  1.00  0.00     2.610 C  
ENDROOT
BRANCH   2   3
HETATM    3  C   UNL     1      -6.757  16.084  70.406  1.00  0.00     0.586 C  
BRANCH   3   4
HETATM    4  C   UNL     1      -5.841  15.052  71.053  1.00  0.00     0.043 C  
BRANCH   4   5
HETATM    5  C   UNL     1      -6.319  13.638  70.756  1.00  0.00     0.195 C  
BRANCH   5   6
HETATM    6  C   UNL     1      -6.504  13.436  69.255  1.00  0.00    -0.111 C  
BRANCH   6   7
HETATM    7  C   UNL     1      -7.903  12.917  68.972  1.00  0.00     0.254 C  
BRANCH   7   8
HETATM    8  C   UNL     1      -8.938  13.548  69.898  1.00  0.00     2.361 C  
BRANCH   8   9
HETATM    9  C   UNL     1      -9.090  15.013  69.517  1.00  0.00    -0.064 C  
BRANCH   9  10
HETATM   10  C   UNL     1      -9.821  15.186  68.192  1.00  0.00    -0.218 C  
BRANCH  10  11
HETATM   11  N   UNL     1     -10.167  16.667  67.892  1.00  0.00    -0.274 N  
HETATM   12  C   UNL     1      -8.964  17.379  67.273  1.00  0.00    -0.236 C  
HETATM   13  C   UNL     1     -11.362  16.749  66.939  1.00  0.00     0.567 C  
BRANCH  11  14
HETATM   14  C   UNL     1     -10.526  17.308  69.258  1.00  0.00    -0.220 C  
BRANCH  14  15
HETATM   15  C   UNL     1      -9.806  18.627  69.492  1.00  0.00     0.180 C  
BRANCH  15  16
HETATM   16  C   UNL     1      -9.258  19.218  68.201  1.00  0.00    -0.387 C  
BRANCH  16  17
HETATM   17  C   UNL     1      -8.717  20.612  68.502  1.00  0.00     0.639 C  
BRANCH  17  18
HETATM   18  C   UNL     1      -7.199  20.649  68.447  1.00  0.00     0.019 C  
BRANCH  18  19
HETATM   19  C   UNL     1      -6.682  19.440  67.678  1.00  0.00    -0.239 C  
BRANCH  19  20
HETATM   20  C   UNL     1      -5.262  19.689  67.181  1.00  0.00    -0.161 C  
BRANCH  20  21
HETATM   21  C   UNL     1      -5.244  19.914  65.672  1.00  0.00    -0.179 C  
BRANCH  21  22
HETATM   22  C   UNL     1      -6.635  20.278  65.165  1.00  0.00    -0.333 C  
HETATM   23  C   UNL     1      -6.562  21.289  64.036  1.00  0.00    -0.035 C  
ENDBRANCH  21  22
ENDBRANCH  20  21
ENDBRANCH  19  20
ENDBRANCH  18  19
ENDBRANCH  17  18
ENDBRANCH  16  17
ENDBRANCH  15  16
ENDBRANCH  14  15
ENDBRANCH  11  14
ENDBRANCH  10  11
ENDBRANCH   9  10
ENDBRANCH   8   9
ENDBRANCH   7   8
ENDBRANCH   6   7
ENDBRANCH   5   6
ENDBRANCH   4   5
ENDBRANCH   3   4
ENDBRANCH   2   3
TORSDOF 18
ENDMDL
MODEL      437
REMARK 921   NORMALIZED FREE ENERGY PREDICTED BY IDOCK:   15.53 KCAL/MOL
REMARK 922        TOTAL FREE ENERGY PREDICTED BY IDOCK:   29.17 KCAL/MOL
REMARK 923 INTER-LIGAND FREE ENERGY PREDICTED BY IDOCK:   22.17 KCAL/MOL
REMARK 924 INTRA-LIGAND FREE ENERGY PREDICTED BY IDOCK:    7.00 KCAL/MOL
REMARK 927      BINDING AFFINITY PREDICTED BY RF-SCORE:    0.00 PKD
ROOT
HETATM    1  C   UNL     1     -12.879   7.182  70.962  1.00  0.00    -0.268 C  
HETATM    2  C   UNL     1     -11.413   6.972  71.295  1.00  0.00    -0.324 C  
ENDROOT
BRANCH   2   3
HETATM    3  C   UNL     1     -10.643   8.288  71.252  1.00  0.00    -0.269 C  
BRANCH   3   4
HETATM    4  C   UNL     1     -10.668   8.970  72.615  1.00  0.00     0.584 C  
BRANCH   4   5
HETATM    5  C   UNL     1     -11.384  10.310  72.539  1.00  0.00     3.401 C  
BRANCH   5   6
HETATM    6  C   UNL     1     -10.668  11.250  71.575  1.00  0.00     4.707 C  
BRANCH   6   7
HETATM    7  C   UNL     1     -11.638  12.298  71.058  1.00  0.00     1.145 C  
BRANCH   7   8
HETATM    8  C   UNL     1     -12.661  12.692  72.118  1.00  0.00    -0.053 C  
BRANCH   8   9
HETATM    9  C   UNL     1     -12.975  14.172  71.952  1.00  0.00    -0.441 C  
BRANCH   9  10
HETATM   10  C   UNL     1     -11.961  15.055  72.667  1.00  0.00    -0.318 C  
BRANCH  10  11
HETATM   11  N   UNL     1     -10.717  15.359  71.794  1.00  0.00     0.162 N  
HETATM   12  C   UNL     1      -9.618  16.002  72.641  1.00  0.00     8.447 C  
HETATM   13  C   UNL     1     -10.190  14.071  71.156  1.00  0.00     3.815 C  
BRANCH  11  14
HETATM   14  C   UNL     1     -11.195  16.345  70.696  1.00  0.00    -0.189 C  
BRANCH  14  15
HETATM   15  C   UNL     1     -10.093  16.702  69.710  1.00  0.00     0.042 C  
BRANCH  15  16
HETATM   16  C   UNL     1     -10.561  16.598  68.265  1.00  0.00    -0.338 C  
BRANCH  16  17
HETATM   17  C   UNL     1      -9.442  15.969  67.442  1.00  0.00    -0.220 C  
BRANCH  17  18
HETATM   18  C   UNL     1      -9.132  14.556  67.906  1.00  0.00    -0.191 C  
BRANCH  18  19
HETATM   19  C   UNL     1      -9.867  13.551  67.029  1.00  0.00    -0.251 C  
BRANCH  19  20
HETATM   20  C   UNL     1      -8.909  12.474  66.530  1.00  0.00    -0.090 C  
BRANCH  20  21
HETATM   21  C   UNL     1      -7.606  13.090  66.032  1.00  0.00     2.569 C  
BRANCH  21  22
HETATM   22  C   UNL     1      -6.660  13.361  67.196  1.00  0.00     0.377 C  
HETATM   23  C   UNL     1      -7.320  14.229  68.251  1.00  0.00    -0.124 C  
ENDBRANCH  21  22
ENDBRANCH  20  21
ENDBRANCH  19  20
ENDBRANCH  18  19
ENDBRANCH  17  18
ENDBRANCH  16  17
ENDBRANCH  15  16
ENDBRANCH  14  15
ENDBRANCH  11  14
ENDBRANCH  10  11
ENDBRANCH   9  10
ENDBRANCH   8   9
ENDBRANCH   7   8
ENDBRANCH   6   7
ENDBRANCH   5   6
ENDBRANCH   4   5
ENDBRANCH   3   4
ENDBRANCH   2   3
TORSDOF 18
ENDMDL
