MODEL        1
REMARK 921   NORMALIZED FREE ENERGY PREDICTED BY IDOCK:   -7.54 KCAL/MOL
REMARK 922        TOTAL FREE ENERGY PREDICTED BY IDOCK:   -8.69 KCAL/MOL
REMARK 923 INTER-LIGAND FREE ENERGY PREDICTED BY IDOCK:   -8.43 KCAL/MOL
REMARK 924 INTRA-LIGAND FREE ENERGY PREDICTED BY IDOCK:   -0.26 KCAL/MOL
REMARK 927      BINDING AFFINITY PREDICTED BY RF-SCORE:    0.00 PKD
ROOT
HETATM    1  C   UNL     1      -9.415  13.763  67.206  1.00  0.00    -0.236 C  
HETATM    2  C   UNL     1      -8.453  13.739  68.253  1.00  0.00    -0.173 C  
HETATM    3  C   UNL     1      -9.539  12.734  68.261  1.00  0.00    -0.211 C  
HETATM    4  C   UNL     1     -10.730  12.629  66.569  1.00  0.00    -0.250 C  
HETATM    5  O   UNL     1     -11.714  11.605  66.251  1.00  0.00    -0.443 OA 
HETATM    6  C   UNL     1     -12.108  16.202  71.832  1.00  0.00    -0.548 C  
HETATM    7  C   UNL     1      -9.660  11.859  66.943  1.00  0.00    -0.208 C  
HETATM    8  C   UNL     1     -10.780  10.995  68.194  1.00  0.00    -0.246 C  
HETATM    9  C   UNL     1      -8.623  11.095  66.178  1.00  0.00    -0.172 C  
HETATM   10  C   UNL     1     -10.932  14.576  67.981  1.00  0.00    -0.269 C  
HETATM   11  H   UNL     1     -12.260  11.557  65.475  1.00  0.00     0.000 HD 
HETATM   12  C   UNL     1     -12.022  12.113  68.782  1.00  0.00    -0.292 C  
HETATM   13  C   UNL     1     -10.592  16.035  68.364  1.00  0.00    -0.270 C  
HETATM   14  C   UNL     1     -11.019  16.555  69.723  1.00  0.00    -0.292 C  
HETATM   15  C   UNL     1     -11.757  13.726  69.082  1.00  0.00    -0.379 C  
HETATM   16  C   UNL     1     -11.786  15.652  70.653  1.00  0.00    -0.409 C  
HETATM   17  C   UNL     1     -12.105  14.280  70.278  1.00  0.00    -0.403 C  
HETATM   18  C   UNL     1     -12.809  13.450  71.329  1.00  0.00    -0.407 C  
HETATM   19  C   UNL     1     -13.204  14.051  72.677  1.00  0.00    -0.606 C  
HETATM   20  C   UNL     1     -12.820  15.482  72.889  1.00  0.00    -0.457 C  
HETATM   21  O   UNL     1     -13.084  16.067  73.943  1.00  0.00    -0.615 OA 
ENDROOT
BRANCH   4  22
HETATM   22  C   UNL     1     -10.585  13.205  64.813  1.00  0.00    -0.390 C  
BRANCH  22  23
HETATM   23  C   UNL     1     -11.982  12.763  64.411  1.00  0.00    -0.399 C  
HETATM   24  H1  UNL     1     -14.078  12.097  63.808  1.00  0.00     0.000 HD 
HETATM   25  N   UNL     1     -13.140  12.394  64.078  1.00  0.00    -0.749 NA 
HETATM   26  H2  UNL     1     -13.004  11.478  64.504  1.00  0.00     0.000 HD 
ENDBRANCH  22  23
ENDBRANCH   4  22
TORSDOF 2
ENDMDL
MODEL        2
REMARK 921   NORMALIZED FREE ENERGY PREDICTED BY IDOCK:   -7.19 KCAL/MOL
REMARK 922        TOTAL FREE ENERGY PREDICTED BY IDOCK:   -8.30 KCAL/MOL
REMARK 923 INTER-LIGAND FREE ENERGY PREDICTED BY IDOCK:   -8.05 KCAL/MOL
REMARK 924 INTRA-LIGAND FREE ENERGY PREDICTED BY IDOCK:   -0.25 KCAL/MOL
REMARK 927      BINDING AFFINITY PREDICTED BY RF-SCORE:    0.00 PKD
ROOT
HETATM    1  C   UNL     1      -9.624  16.195  68.573  1.00  0.00    -0.215 C  
HETATM    2  C   UNL     1      -8.834  15.838  69.701  1.00  0.00    -0.062 C  
HETATM    3  C   UNL     1      -8.948  14.879  68.580  1.00  0.00    -0.179 C  
HETATM    4  C   UNL     1      -9.860  15.565  66.850  1.00  0.00    -0.237 C  
HETATM    5  O   UNL     1      -9.908  14.896  65.559  1.00  0.00    -0.343 OA 
HETATM    6  C   UNL     1     -12.947  12.450  71.659  1.00  0.00    -0.409 C  
HETATM    7  C   UNL     1      -8.531  15.448  67.158  1.00  0.00    -0.241 C  
HETATM    8  C   UNL     1      -8.684  13.584  66.900  1.00  0.00    -0.158 C  
HETATM    9  C   UNL     1      -7.302  16.189  66.725  1.00  0.00    -0.220 C  
HETATM   10  C   UNL     1     -11.235  15.241  68.808  1.00  0.00    -0.293 C  
HETATM   11  H   UNL     1     -10.326  15.211  64.766  1.00  0.00     0.000 HD 
HETATM   12  C   UNL     1     -10.313  13.036  67.330  1.00  0.00    -0.234 C  
HETATM   13  C   UNL     1     -11.949  15.746  70.082  1.00  0.00    -0.364 C  
HETATM   14  C   UNL     1     -12.526  14.732  71.051  1.00  0.00    -0.400 C  
HETATM   15  C   UNL     1     -11.192  13.636  68.606  1.00  0.00    -0.308 C  
HETATM   16  C   UNL     1     -12.415  13.263  70.737  1.00  0.00    -0.403 C  
HETATM   17  C   UNL     1     -11.744  12.799  69.529  1.00  0.00    -0.383 C  
HETATM   18  C   UNL     1     -11.629  11.299  69.367  1.00  0.00    -0.390 C  
HETATM   19  C   UNL     1     -12.238  10.345  70.391  1.00  0.00    -0.389 C  
HETATM   20  C   UNL     1     -12.912  10.989  71.562  1.00  0.00    -0.448 C  
HETATM   21  O   UNL     1     -13.433  10.314  72.453  1.00  0.00    -0.310 OA 
ENDROOT
BRANCH   4  22
HETATM   22  C   UNL     1     -10.258  17.229  66.138  1.00  0.00    -0.338 C  
BRANCH  22  23
HETATM   23  C   UNL     1     -10.982  16.683  64.918  1.00  0.00    -0.150 C  
HETATM   24  H1  UNL     1     -12.067  15.865  63.088  1.00  0.00     0.000 HD 
HETATM   25  N   UNL     1     -11.582  16.232  63.906  1.00  0.00    -1.573 NA 
HETATM   26  H2  UNL     1     -12.249  17.003  63.919  1.00  0.00     0.000 HD 
ENDBRANCH  22  23
ENDBRANCH   4  22
TORSDOF 2
ENDMDL
MODEL        3
REMARK 921   NORMALIZED FREE ENERGY PREDICTED BY IDOCK:   -6.42 KCAL/MOL
REMARK 922        TOTAL FREE ENERGY PREDICTED BY IDOCK:   -7.43 KCAL/MOL
REMARK 923 INTER-LIGAND FREE ENERGY PREDICTED BY IDOCK:   -7.06 KCAL/MOL
REMARK 924 INTRA-LIGAND FREE ENERGY PREDICTED BY IDOCK:   -0.37 KCAL/MOL
REMARK 927      BINDING AFFINITY PREDICTED BY RF-SCORE:    0.00 PKD
ROOT
HETATM    1  C   UNL     1     -11.743  13.481  67.932  1.00  0.00    -0.392 C  
HETATM    2  C   UNL     1     -11.453  14.093  69.182  1.00  0.00    -0.338 C  
HETATM    3  C   UNL     1     -10.328  13.702  68.303  1.00  0.00    -0.251 C  
HETATM    4  C   UNL     1     -10.811  13.089  66.383  1.00  0.00    -0.278 C  
HETATM    5  O   UNL     1      -9.892  12.855  65.279  1.00  0.00    -0.449 OA 
HETATM    6  C   UNL     1     -10.068   9.079  71.455  1.00  0.00    -0.409 C  
HETATM    7  C   UNL     1     -10.375  14.306  66.836  1.00  0.00    -0.268 C  
HETATM    8  C   UNL     1      -8.643  13.572  66.995  1.00  0.00    -0.169 C  
HETATM    9  C   UNL     1     -10.576  15.714  66.366  1.00  0.00    -0.308 C  
HETATM   10  C   UNL     1     -11.413  11.645  68.222  1.00  0.00    -0.369 C  
HETATM   11  H   UNL     1     -10.113  12.574  64.399  1.00  0.00     0.000 HD 
HETATM   12  C   UNL     1      -8.740  11.846  67.380  1.00  0.00    -0.166 C  
HETATM   13  C   UNL     1     -12.409  11.105  69.272  1.00  0.00    -0.170 C  
HETATM   14  C   UNL     1     -11.890  10.216  70.387  1.00  0.00    -0.373 C  
HETATM   15  C   UNL     1      -9.874  11.179  68.395  1.00  0.00    -0.188 C  
HETATM   16  C   UNL     1     -10.428   9.860  70.427  1.00  0.00    -0.347 C  
HETATM   17  C   UNL     1      -9.499  10.372  69.427  1.00  0.00    -0.204 C  
HETATM   18  C   UNL     1      -8.044  10.006  69.622  1.00  0.00    -0.180 C  
HETATM   19  C   UNL     1      -7.603   9.106  70.774  1.00  0.00    -0.149 C  
HETATM   20  C   UNL     1      -8.689   8.649  71.697  1.00  0.00    -0.203 C  
HETATM   21  O   UNL     1      -8.446   7.923  72.664  1.00  0.00    -0.122 OA 
ENDROOT
BRANCH   4  22
HETATM   22  C   UNL     1     -12.289  13.255  65.276  1.00  0.00    -0.525 C  
BRANCH  22  23
HETATM   23  C   UNL     1     -11.801  12.246  64.249  1.00  0.00    -0.403 C  
HETATM   24  H1  UNL     1     -11.069  10.730  62.711  1.00  0.00     0.000 HD 
HETATM   25  N   UNL     1     -11.397  11.407  63.399  1.00  0.00    -0.801 NA 
HETATM   26  H2  UNL     1     -11.793  10.632  63.930  1.00  0.00     0.000 HD 
ENDBRANCH  22  23
ENDBRANCH   4  22
TORSDOF 2
ENDMDL
MODEL        4
REMARK 921   NORMALIZED FREE ENERGY PREDICTED BY IDOCK:   -6.40 KCAL/MOL
REMARK 922        TOTAL FREE ENERGY PREDICTED BY IDOCK:   -7.41 KCAL/MOL
REMARK 923 INTER-LIGAND FREE ENERGY PREDICTED BY IDOCK:   -7.00 KCAL/MOL
REMARK 924 INTRA-LIGAND FREE ENERGY PREDICTED BY IDOCK:   -0.40 KCAL/MOL
REMARK 927      BINDING AFFINITY PREDICTED BY RF-SCORE:    0.00 PKD
ROOT
HETATM    1  C   UNL     1     -10.649  15.500  66.725  1.00  0.00    -0.307 C  
HETATM    2  C   UNL     1     -10.008  16.047  65.580  1.00  0.00    -0.346 C  
HETATM    3  C   UNL     1      -9.215  15.207  66.506  1.00  0.00    -0.318 C  
HETATM    4  C   UNL     1     -10.262  14.202  67.986  1.00  0.00    -0.232 C  
HETATM    5  O   UNL     1      -9.751  13.170  68.875  1.00  0.00    -0.409 OA 
HETATM    6  C   UNL     1      -7.524  20.059  68.735  1.00  0.00    -0.177 C  
HETATM    7  C   UNL     1      -9.803  13.757  66.775  1.00  0.00    -0.275 C  
HETATM    8  C   UNL     1      -8.062  13.710  67.505  1.00  0.00    -0.190 C  
HETATM    9  C   UNL     1     -10.268  12.700  65.820  1.00  0.00    -0.288 C  
HETATM   10  C   UNL     1     -10.088  16.605  68.149  1.00  0.00    -0.267 C  
HETATM   11  H   UNL     1     -10.231  12.710  69.554  1.00  0.00     0.000 HD 
HETATM   12  C   UNL     1      -7.879  14.970  68.738  1.00  0.00    -0.151 C  
HETATM   13  C   UNL     1     -10.624  18.037  67.928  1.00  0.00    -0.387 C  
HETATM   14  C   UNL     1      -9.688  19.212  68.140  1.00  0.00    -0.429 C  
HETATM   15  C   UNL     1      -8.546  16.488  68.625  1.00  0.00    -0.243 C  
HETATM   16  C   UNL     1      -8.272  18.958  68.586  1.00  0.00    -0.380 C  
HETATM   17  C   UNL     1      -7.780  17.602  68.796  1.00  0.00    -0.246 C  
HETATM   18  C   UNL     1      -6.319  17.475  69.167  1.00  0.00    -0.235 C  
HETATM   19  C   UNL     1      -5.442  18.710  69.361  1.00  0.00    -0.212 C  
HETATM   20  C   UNL     1      -6.113  20.028  69.127  1.00  0.00    -0.310 C  
HETATM   21  O   UNL     1      -5.499  21.091  69.249  1.00  0.00    -0.370 OA 
ENDROOT
BRANCH   4  22
HETATM   22  C   UNL     1     -12.034  13.735  68.265  1.00  0.00    -0.392 C  
BRANCH  22  23
HETATM   23  C   UNL     1     -11.957  13.817  69.781  1.00  0.00    -0.344 C  
HETATM   24  H1  UNL     1     -11.841  13.942  72.055  1.00  0.00     0.000 HD 
HETATM   25  N   UNL     1     -11.893  13.887  71.038  1.00  0.00    -0.493 NA 
HETATM   26  H2  UNL     1     -12.101  14.885  71.024  1.00  0.00     0.000 HD 
ENDBRANCH  22  23
ENDBRANCH   4  22
TORSDOF 2
ENDMDL
MODEL        5
REMARK 921   NORMALIZED FREE ENERGY PREDICTED BY IDOCK:   -6.39 KCAL/MOL
REMARK 922        TOTAL FREE ENERGY PREDICTED BY IDOCK:   -7.40 KCAL/MOL
REMARK 923 INTER-LIGAND FREE ENERGY PREDICTED BY IDOCK:   -7.01 KCAL/MOL
REMARK 924 INTRA-LIGAND FREE ENERGY PREDICTED BY IDOCK:   -0.39 KCAL/MOL
REMARK 927      BINDING AFFINITY PREDICTED BY RF-SCORE:    0.00 PKD
ROOT
HETATM    1  C   UNL     1      -7.890   9.159  66.096  1.00  0.00    -0.103 C  
HETATM    2  C   UNL     1      -7.112  10.345  66.007  1.00  0.00    -0.133 C  
HETATM    3  C   UNL     1      -8.109  10.229  67.094  1.00  0.00    -0.121 C  
HETATM    4  C   UNL     1      -9.000   8.376  67.353  1.00  0.00    -0.134 C  
HETATM    5  O   UNL     1      -9.842   7.955  68.462  1.00  0.00    -0.167 OA 
HETATM    6  C   UNL     1     -11.465  13.176  63.715  1.00  0.00    -0.426 C  
HETATM    7  C   UNL     1      -7.952   8.951  68.022  1.00  0.00    -0.102 C  
HETATM    8  C   UNL     1      -9.194  10.048  68.927  1.00  0.00    -0.169 C  
HETATM    9  C   UNL     1      -6.751   8.399  68.729  1.00  0.00    -0.058 C  
HETATM   10  C   UNL     1      -9.567   9.644  65.378  1.00  0.00    -0.361 C  
HETATM   11  H   UNL     1     -10.251   7.105  68.581  1.00  0.00     0.000 HD 
HETATM   12  C   UNL     1     -10.592  10.378  67.890  1.00  0.00    -0.273 C  
HETATM   13  C   UNL     1      -9.400  10.005  63.885  1.00  0.00    -0.315 C  
HETATM   14  C   UNL     1     -10.078  11.253  63.352  1.00  0.00    -0.445 C  
HETATM   15  C   UNL     1     -10.497  10.639  66.252  1.00  0.00    -0.268 C  
HETATM   16  C   UNL     1     -10.918  12.091  64.279  1.00  0.00    -0.401 C  
HETATM   17  C   UNL     1     -11.072  11.737  65.685  1.00  0.00    -0.340 C  
HETATM   18  C   UNL     1     -11.875  12.701  66.530  1.00  0.00    -0.463 C  
HETATM   19  C   UNL     1     -12.526  13.938  65.914  1.00  0.00    -0.519 C  
HETATM   20  C   UNL     1     -12.286  14.140  64.451  1.00  0.00    -0.439 C  
HETATM   21  O   UNL     1     -12.759  15.109  63.851  1.00  0.00    -0.759 OA 
ENDROOT
BRANCH   4  22
HETATM   22  C   UNL     1      -8.614   6.640  66.830  1.00  0.00    -0.118 C  
BRANCH  22  23
HETATM   23  C   UNL     1     -10.066   6.222  66.670  1.00  0.00    -0.155 C  
HETATM   24  H1  UNL     1     -12.246   5.595  66.433  1.00  0.00     0.000 HD 
HETATM   25  N   UNL     1     -11.271   5.876  66.540  1.00  0.00    -0.741 NA 
HETATM   26  H2  UNL     1     -11.454   6.026  67.532  1.00  0.00     0.000 HD 
ENDBRANCH  22  23
ENDBRANCH   4  22
TORSDOF 2
ENDMDL
MODEL        6
REMARK 921   NORMALIZED FREE ENERGY PREDICTED BY IDOCK:   -6.33 KCAL/MOL
REMARK 922        TOTAL FREE ENERGY PREDICTED BY IDOCK:   -7.33 KCAL/MOL
REMARK 923 INTER-LIGAND FREE ENERGY PREDICTED BY IDOCK:   -7.32 KCAL/MOL
REMARK 924 INTRA-LIGAND FREE ENERGY PREDICTED BY IDOCK:   -0.01 KCAL/MOL
REMARK 927      BINDING AFFINITY PREDICTED BY RF-SCORE:    0.00 PKD
ROOT
HETATM    1  C   UNL     1      -9.391  10.505  68.266  1.00  0.00    -0.156 C  
HETATM    2  C   UNL     1      -8.538  11.302  69.077  1.00  0.00     0.015 C  
HETATM    3  C   UNL     1      -9.432  10.322  69.733  1.00  0.00    -0.128 C  
HETATM    4  C   UNL     1     -10.430   8.992  68.496  1.00  0.00    -0.196 C  
HETATM    5  O   UNL     1     -11.192   7.820  68.901  1.00  0.00    -0.404 OA 
HETATM    6  C   UNL     1     -12.868  14.674  70.529  1.00  0.00    -0.371 C  
HETATM    7  C   UNL     1      -9.283   8.826  69.226  1.00  0.00    -0.149 C  
HETATM    8  C   UNL     1     -10.348   8.699  70.780  1.00  0.00    -0.249 C  
HETATM    9  C   UNL     1      -8.065   7.970  69.053  1.00  0.00    -0.123 C  
HETATM   10  C   UNL     1     -11.088  11.314  68.433  1.00  0.00    -0.296 C  
HETATM   11  H   UNL     1     -11.650   7.210  68.333  1.00  0.00     0.000 HD 
HETATM   12  C   UNL     1     -11.810   9.684  70.605  1.00  0.00    -0.331 C  
HETATM   13  C   UNL     1     -11.038  12.738  67.836  1.00  0.00    -0.281 C  
HETATM   14  C   UNL     1     -11.669  13.881  68.608  1.00  0.00    -0.396 C  
HETATM   15  C   UNL     1     -11.853  11.164  69.851  1.00  0.00    -0.439 C  
HETATM   16  C   UNL     1     -12.351  13.598  69.921  1.00  0.00    -0.310 C  
HETATM   17  C   UNL     1     -12.396  12.249  70.471  1.00  0.00    -0.349 C  
HETATM   18  C   UNL     1     -13.041  12.107  71.833  1.00  0.00    -0.475 C  
HETATM   19  C   UNL     1     -13.653  13.311  72.546  1.00  0.00    -0.637 C  
HETATM   20  C   UNL     1     -13.540  14.620  71.829  1.00  0.00    -0.394 C  
HETATM   21  O   UNL     1     -13.994  15.659  72.315  1.00  0.00    -0.515 OA 
ENDROOT
BRANCH   4  22
HETATM   22  C   UNL     1     -10.226   8.405  66.749  1.00  0.00    -0.376 C  
BRANCH  22  23
HETATM   23  C   UNL     1     -10.782   7.015  67.009  1.00  0.00    -0.353 C  
HETATM   24  H1  UNL     1     -11.617   4.929  67.399  1.00  0.00     0.000 HD 
HETATM   25  N   UNL     1     -11.244   5.862  67.224  1.00  0.00    -0.409 NA 
HETATM   26  H2  UNL     1     -11.844   5.916  66.401  1.00  0.00     0.000 HD 
ENDBRANCH  22  23
ENDBRANCH   4  22
TORSDOF 2
ENDMDL
MODEL        7
REMARK 921   NORMALIZED FREE ENERGY PREDICTED BY IDOCK:   -6.28 KCAL/MOL
REMARK 922        TOTAL FREE ENERGY PREDICTED BY IDOCK:   -7.28 KCAL/MOL
REMARK 923 INTER-LIGAND FREE ENERGY PREDICTED BY IDOCK:   -7.29 KCAL/MOL
REMARK 924 INTRA-LIGAND FREE ENERGY PREDICTED BY IDOCK:    0.01 KCAL/MOL
REMARK 927      BINDING AFFINITY PREDICTED BY RF-SCORE:    0.00 PKD
ROOT
HETATM    1  C   UNL     1     -11.147  13.778  67.969  1.00  0.00    -0.284 C  
HETATM    2  C   UNL     1     -10.048  13.994  68.846  1.00  0.00    -0.133 C  
HETATM    3  C   UNL     1      -9.907  12.998  67.760  1.00  0.00    -0.224 C  
HETATM    4  C   UNL     1     -11.418  12.937  66.343  1.00  0.00    -0.341 C  
HETATM    5  O   UNL     1     -11.413  12.204  65.086  1.00  0.00    -0.326 OA 
HETATM    6  C   UNL     1     -11.215   9.214  71.678  1.00  0.00    -0.447 C  
HETATM    7  C   UNL     1     -10.192  13.546  66.298  1.00  0.00    -0.299 C  
HETATM    8  C   UNL     1      -9.412  11.848  66.028  1.00  0.00    -0.241 C  
HETATM    9  C   UNL     1      -9.667  14.758  65.590  1.00  0.00    -0.313 C  
HETATM   10  C   UNL     1     -11.922  12.168  68.576  1.00  0.00    -0.273 C  
HETATM   11  H   UNL     1     -12.106  12.177  64.436  1.00  0.00     0.000 HD 
HETATM   12  C   UNL     1     -10.367  10.597  66.841  1.00  0.00    -0.288 C  
HETATM   13  C   UNL     1     -12.473  12.372  70.005  1.00  0.00    -0.037 C  
HETATM   14  C   UNL     1     -12.195  11.314  71.056  1.00  0.00    -0.417 C  
HETATM   15  C   UNL     1     -11.102  10.798  68.317  1.00  0.00    -0.327 C  
HETATM   16  C   UNL     1     -11.416  10.082  70.677  1.00  0.00    -0.425 C  
HETATM   17  C   UNL     1     -10.906   9.899  69.324  1.00  0.00    -0.255 C  
HETATM   18  C   UNL     1     -10.072   8.659  69.089  1.00  0.00    -0.203 C  
HETATM   19  C   UNL     1      -9.837   7.642  70.204  1.00  0.00    -0.184 C  
HETATM   20  C   UNL     1     -10.452   7.974  71.528  1.00  0.00    -0.217 C  
HETATM   21  O   UNL     1     -10.322   7.226  72.501  1.00  0.00    -0.197 OA 
ENDROOT
BRANCH   4  22
HETATM   22  C   UNL     1     -12.776  14.082  65.810  1.00  0.00    -0.487 C  
BRANCH  22  23
HETATM   23  C   UNL     1     -12.527  13.900  64.322  1.00  0.00    -0.259 C  
HETATM   24  H1  UNL     1     -12.154  13.628  62.089  1.00  0.00     0.000 HD 
HETATM   25  N   UNL     1     -12.322  13.750  63.087  1.00  0.00    -1.106 NA 
HETATM   26  H2  UNL     1     -12.789  14.630  62.872  1.00  0.00     0.000 HD 
ENDBRANCH  22  23
ENDBRANCH   4  22
TORSDOF 2
ENDMDL
MODEL        8
REMARK 921   NORMALIZED FREE ENERGY PREDICTED BY IDOCK:   -6.25 KCAL/MOL
REMARK 922        TOTAL FREE ENERGY PREDICTED BY IDOCK:   -7.24 KCAL/MOL
REMARK 923 INTER-LIGAND FREE ENERGY PREDICTED BY IDOCK:   -6.84 KCAL/MOL
REMARK 924 INTRA-LIGAND FREE ENERGY PREDICTED BY IDOCK:   -0.40 KCAL/MOL
REMARK 927      BINDING AFFINITY PREDICTED BY RF-SCORE:    0.00 PKD
ROOT
HETATM    1  C   UNL     1     -11.781   7.444  72.182  1.00  0.00    -0.328 C  
HETATM    2  C   UNL     1     -12.914   7.151  71.375  1.00  0.00    -0.419 C  
HETATM    3  C   UNL     1     -11.568   6.817  70.859  1.00  0.00    -0.403 C  
HETATM    4  C   UNL     1      -9.987   6.991  72.186  1.00  0.00    -0.165 C  
HETATM    5  O   UNL     1      -8.620   6.532  71.989  1.00  0.00    -0.125 OA 
HETATM    6  C   UNL     1     -11.911  11.684  68.109  1.00  0.00    -0.315 C  
HETATM    7  C   UNL     1     -10.696   5.884  71.801  1.00  0.00    -0.299 C  
HETATM    8  C   UNL     1      -9.760   5.916  70.161  1.00  0.00    -0.211 C  
HETATM    9  C   UNL     1     -11.030   4.588  72.473  1.00  0.00    -0.084 C  
HETATM   10  C   UNL     1     -11.060   9.015  71.426  1.00  0.00    -0.399 C  
HETATM   11  H   UNL     1      -7.895   6.612  72.598  1.00  0.00     0.000 HD 
HETATM   12  C   UNL     1      -9.344   7.582  69.723  1.00  0.00    -0.150 C  
HETATM   13  C   UNL     1     -12.076  10.170  71.577  1.00  0.00    -0.442 C  
HETATM   14  C   UNL     1     -12.344  11.072  70.387  1.00  0.00    -0.442 C  
HETATM   15  C   UNL     1     -10.335   8.889  69.984  1.00  0.00    -0.219 C  
HETATM   16  C   UNL     1     -11.596  10.841  69.101  1.00  0.00    -0.376 C  
HETATM   17  C   UNL     1     -10.636   9.752  68.972  1.00  0.00    -0.238 C  
HETATM   18  C   UNL     1     -10.009   9.575  67.607  1.00  0.00    -0.226 C  
HETATM   19  C   UNL     1     -10.334  10.529  66.459  1.00  0.00    -0.294 C  
HETATM   20  C   UNL     1     -11.325  11.607  66.769  1.00  0.00    -0.286 C  
HETATM   21  O   UNL     1     -11.665  12.430  65.915  1.00  0.00    -0.391 OA 
ENDROOT
BRANCH   4  22
HETATM   22  C   UNL     1      -9.814   7.091  74.030  1.00  0.00    -0.345 C  
BRANCH  22  23
HETATM   23  C   UNL     1      -8.571   7.964  74.001  1.00  0.00    -0.264 C  
HETATM   24  H1  UNL     1      -6.704   9.273  73.956  1.00  0.00     0.000 HD 
HETATM   25  N   UNL     1      -7.538   8.687  73.975  1.00  0.00    -0.416 NA 
HETATM   26  H2  UNL     1      -7.121   8.119  73.238  1.00  0.00     0.000 HD 
ENDBRANCH  22  23
ENDBRANCH   4  22
TORSDOF 2
ENDMDL
MODEL        9
REMARK 921   NORMALIZED FREE ENERGY PREDICTED BY IDOCK:   -6.20 KCAL/MOL
REMARK 922        TOTAL FREE ENERGY PREDICTED BY IDOCK:   -7.19 KCAL/MOL
REMARK 923 INTER-LIGAND FREE ENERGY PREDICTED BY IDOCK:   -6.77 KCAL/MOL
REMARK 924 INTRA-LIGAND FREE ENERGY PREDICTED BY IDOCK:   -0.41 KCAL/MOL
REMARK 927      BINDING AFFINITY PREDICTED BY RF-SCORE:    0.00 PKD
ROOT
HETATM    1  C   UNL     1      -9.707  12.611  66.481  1.00  0.00    -0.256 C  
HETATM    2  C   UNL     1     -10.437  11.525  65.925  1.00  0.00    -0.303 C  
HETATM    3  C   UNL     1     -11.176  12.577  66.657  1.00  0.00    -0.357 C  
HETATM    4  C   UNL     1     -10.108  14.273  67.187  1.00  0.00    -0.254 C  
HETATM    5  O   UNL     1     -10.644  15.517  67.719  1.00  0.00    -0.267 OA 
HETATM    6  C   UNL     1     -10.921   9.080  71.025  1.00  0.00    -0.352 C  
HETATM    7  C   UNL     1     -10.948  14.056  66.127  1.00  0.00    -0.295 C  
HETATM    8  C   UNL     1     -12.408  14.194  67.318  1.00  0.00    -0.182 C  
HETATM    9  C   UNL     1     -11.028  14.620  64.741  1.00  0.00    -0.399 C  
HETATM   10  C   UNL     1      -9.591  12.205  68.320  1.00  0.00    -0.210 C  
HETATM   11  H   UNL     1     -10.155  16.294  67.962  1.00  0.00     0.000 HD 
HETATM   12  C   UNL     1     -11.944  13.616  68.927  1.00  0.00    -0.392 C  
HETATM   13  C   UNL     1      -8.763  10.914  68.509  1.00  0.00    -0.153 C  
HETATM   14  C   UNL     1      -9.272   9.849  69.461  1.00  0.00    -0.238 C  
HETATM   15  C   UNL     1     -10.945  12.317  69.199  1.00  0.00    -0.217 C  
HETATM   16  C   UNL     1     -10.553  10.085  70.219  1.00  0.00    -0.354 C  
HETATM   17  C   UNL     1     -11.322  11.309  70.035  1.00  0.00    -0.292 C  
HETATM   18  C   UNL     1     -12.629  11.393  70.793  1.00  0.00    -0.409 C  
HETATM   19  C   UNL     1     -13.071  10.273  71.732  1.00  0.00    -0.570 C  
HETATM   20  C   UNL     1     -12.151   9.096  71.821  1.00  0.00    -0.376 C  
HETATM   21  O   UNL     1     -12.411   8.131  72.545  1.00  0.00    -0.323 OA 
ENDROOT
BRANCH   4  22
HETATM   22  C   UNL     1      -8.512  15.049  66.652  1.00  0.00    -0.192 C  
BRANCH  22  23
HETATM   23  C   UNL     1      -8.292  15.811  67.949  1.00  0.00    -0.149 C  
HETATM   24  H1  UNL     1      -7.962  16.952  69.896  1.00  0.00     0.000 HD 
HETATM   25  N   UNL     1      -8.109  16.441  69.025  1.00  0.00    -0.233 NA 
HETATM   26  H2  UNL     1      -7.369  15.801  69.310  1.00  0.00     0.000 HD 
ENDBRANCH  22  23
ENDBRANCH   4  22
TORSDOF 2
ENDMDL
MODEL       10
REMARK 921   NORMALIZED FREE ENERGY PREDICTED BY IDOCK:   -6.17 KCAL/MOL
REMARK 922        TOTAL FREE ENERGY PREDICTED BY IDOCK:   -7.15 KCAL/MOL
REMARK 923 INTER-LIGAND FREE ENERGY PREDICTED BY IDOCK:   -7.17 KCAL/MOL
REMARK 924 INTRA-LIGAND FREE ENERGY PREDICTED BY IDOCK:    0.02 KCAL/MOL
REMARK 927      BINDING AFFINITY PREDICTED BY RF-SCORE:    0.00 PKD
ROOT
HETATM    1  C   UNL     1      -9.500   8.633  69.153  1.00  0.00    -0.157 C  
HETATM    2  C   UNL     1      -8.413   9.549  69.198  1.00  0.00    -0.131 C  
HETATM    3  C   UNL     1      -9.709   9.953  69.788  1.00  0.00    -0.266 C  
HETATM    4  C   UNL     1     -11.160   8.484  69.957  1.00  0.00    -0.151 C  
HETATM    5  O   UNL     1     -12.420   8.574  70.679  1.00  0.00    -0.490 OA 
HETATM    6  C   UNL     1     -10.603  12.548  64.905  1.00  0.00    -0.330 C  
HETATM    7  C   UNL     1     -10.285   8.971  70.892  1.00  0.00    -0.324 C  
HETATM    8  C   UNL     1     -11.360  10.518  71.022  1.00  0.00    -0.081 C  
HETATM    9  C   UNL     1      -9.637   8.378  72.106  1.00  0.00    -0.367 C  
HETATM   10  C   UNL     1     -10.588   9.265  67.746  1.00  0.00    -0.307 C  
HETATM   11  H   UNL     1     -13.086   7.900  70.757  1.00  0.00     0.000 HD 
HETATM   12  C   UNL     1     -12.138  10.857  69.467  1.00  0.00    -0.380 C  
HETATM   13  C   UNL     1      -9.812   9.165  66.414  1.00  0.00    -0.350 C  
HETATM   14  C   UNL     1      -9.843  10.341  65.456  1.00  0.00    -0.347 C  
HETATM   15  C   UNL     1     -11.406  10.639  67.991  1.00  0.00    -0.350 C  
HETATM   16  C   UNL     1     -10.649  11.562  65.811  1.00  0.00    -0.315 C  
HETATM   17  C   UNL     1     -11.381  11.643  67.069  1.00  0.00    -0.373 C  
HETATM   18  C   UNL     1     -12.087  12.952  67.345  1.00  0.00    -0.258 C  
HETATM   19  C   UNL     1     -12.068  14.090  66.326  1.00  0.00    -0.482 C  
HETATM   20  C   UNL     1     -11.287  13.832  65.076  1.00  0.00    -0.328 C  
HETATM   21  O   UNL     1     -11.200  14.683  64.187  1.00  0.00    -0.115 OA 
ENDROOT
BRANCH   4  22
HETATM   22  C   UNL     1     -11.173   6.630  69.926  1.00  0.00    -0.421 C  
BRANCH  22  23
HETATM   23  C   UNL     1     -12.027   6.481  71.174  1.00  0.00    -0.306 C  
HETATM   24  H1  UNL     1     -13.309   6.256  73.046  1.00  0.00     0.000 HD 
HETATM   25  N   UNL     1     -12.736   6.356  72.208  1.00  0.00    -0.540 NA 
HETATM   26  H2  UNL     1     -12.677   5.339  72.163  1.00  0.00     0.000 HD 
ENDBRANCH  22  23
ENDBRANCH   4  22
TORSDOF 2
ENDMDL
MODEL       11
REMARK 921   NORMALIZED FREE ENERGY PREDICTED BY IDOCK:   -6.16 KCAL/MOL
REMARK 922        TOTAL FREE ENERGY PREDICTED BY IDOCK:   -7.14 KCAL/MOL
REMARK 923 INTER-LIGAND FREE ENERGY PREDICTED BY IDOCK:   -6.77 KCAL/MOL
REMARK 924 INTRA-LIGAND FREE ENERGY PREDICTED BY IDOCK:   -0.37 KCAL/MOL
REMARK 927      BINDING AFFINITY PREDICTED BY RF-SCORE:    0.00 PKD
ROOT
HETATM    1  C   UNL     1      -8.678   9.770  68.891  1.00  0.00    -0.136 C  
HETATM    2  C   UNL     1      -7.985  10.582  69.830  1.00  0.00    -0.014 C  
HETATM    3  C   UNL     1      -9.016   9.644  70.325  1.00  0.00    -0.263 C  
HETATM    4  C   UNL     1      -9.779   8.285  68.959  1.00  0.00    -0.167 C  
HETATM    5  O   UNL     1     -10.635   7.143  69.241  1.00  0.00    -0.213 OA 
HETATM    6  C   UNL     1     -12.433  14.082  70.268  1.00  0.00    -0.403 C  
HETATM    7  C   UNL     1      -8.806   8.127  69.909  1.00  0.00    -0.139 C  
HETATM    8  C   UNL     1     -10.163   8.078  71.221  1.00  0.00    -0.230 C  
HETATM    9  C   UNL     1      -7.600   7.244  70.013  1.00  0.00    -0.090 C  
HETATM   10  C   UNL     1     -10.353  10.614  68.687  1.00  0.00    -0.202 C  
HETATM   11  H   UNL     1     -10.985   6.520  68.614  1.00  0.00     0.000 HD 
HETATM   12  C   UNL     1     -11.536   9.081  70.723  1.00  0.00    -0.331 C  
HETATM   13  C   UNL     1     -10.149  12.014  68.064  1.00  0.00    -0.199 C  
HETATM   14  C   UNL     1     -10.894  13.196  68.655  1.00  0.00    -0.287 C  
HETATM   15  C   UNL     1     -11.390  10.531  69.926  1.00  0.00    -0.380 C  
HETATM   16  C   UNL     1     -11.832  12.974  69.812  1.00  0.00    -0.381 C  
HETATM   17  C   UNL     1     -12.019  11.649  70.388  1.00  0.00    -0.448 C  
HETATM   18  C   UNL     1     -12.927  11.570  71.596  1.00  0.00    -0.499 C  
HETATM   19  C   UNL     1     -13.639  12.810  72.131  1.00  0.00    -0.547 C  
HETATM   20  C   UNL     1     -13.353  14.089  71.408  1.00  0.00    -0.317 C  
HETATM   21  O   UNL     1     -13.869  15.153  71.757  1.00  0.00    -0.413 OA 
ENDROOT
BRANCH   4  22
HETATM   22  C   UNL     1      -9.245   7.629  67.309  1.00  0.00    -0.154 C  
BRANCH  22  23
HETATM   23  C   UNL     1     -10.564   6.940  67.005  1.00  0.00    -0.333 C  
HETATM   24  H1  UNL     1     -12.544   5.904  66.550  1.00  0.00     0.000 HD 
HETATM   25  N   UNL     1     -11.658   6.366  66.754  1.00  0.00    -0.628 NA 
HETATM   26  H2  UNL     1     -11.334   5.496  67.175  1.00  0.00     0.000 HD 
ENDBRANCH  22  23
ENDBRANCH   4  22
TORSDOF 2
ENDMDL
MODEL       12
REMARK 921   NORMALIZED FREE ENERGY PREDICTED BY IDOCK:   -6.14 KCAL/MOL
REMARK 922        TOTAL FREE ENERGY PREDICTED BY IDOCK:   -7.11 KCAL/MOL
REMARK 923 INTER-LIGAND FREE ENERGY PREDICTED BY IDOCK:   -6.71 KCAL/MOL
REMARK 924 INTRA-LIGAND FREE ENERGY PREDICTED BY IDOCK:   -0.40 KCAL/MOL
REMARK 927      BINDING AFFINITY PREDICTED BY RF-SCORE:    0.00 PKD
ROOT
HETATM    1  C   UNL     1     -11.250  15.118  66.497  1.00  0.00    -0.283 C  
HETATM    2  C   UNL     1     -11.004  15.224  65.100  1.00  0.00    -0.428 C  
HETATM    3  C   UNL     1      -9.998  14.550  65.951  1.00  0.00    -0.352 C  
HETATM    4  C   UNL     1     -10.538  14.166  67.914  1.00  0.00    -0.243 C  
HETATM    5  O   UNL     1      -9.820  13.345  68.877  1.00  0.00    -0.418 OA 
HETATM    6  C   UNL     1      -7.352  19.488  65.942  1.00  0.00    -0.314 C  
HETATM    7  C   UNL     1     -10.547  13.342  66.820  1.00  0.00    -0.276 C  
HETATM    8  C   UNL     1      -8.668  13.215  66.960  1.00  0.00    -0.193 C  
HETATM    9  C   UNL     1     -11.373  12.154  66.430  1.00  0.00    -0.411 C  
HETATM   10  C   UNL     1     -10.171  16.462  67.266  1.00  0.00    -0.278 C  
HETATM   11  H   UNL     1     -10.068  13.169  69.777  1.00  0.00     0.000 HD 
HETATM   12  C   UNL     1      -7.999  14.715  67.624  1.00  0.00    -0.193 C  
HETATM   13  C   UNL     1     -10.661  17.848  66.788  1.00  0.00    -0.253 C  
HETATM   14  C   UNL     1      -9.638  18.870  66.330  1.00  0.00    -0.377 C  
HETATM   15  C   UNL     1      -8.570  16.232  67.259  1.00  0.00    -0.199 C  
HETATM   16  C   UNL     1      -8.173  18.522  66.377  1.00  0.00    -0.289 C  
HETATM   17  C   UNL     1      -7.724  17.213  66.834  1.00  0.00    -0.256 C  
HETATM   18  C   UNL     1      -6.234  16.958  66.760  1.00  0.00    -0.228 C  
HETATM   19  C   UNL     1      -5.270  18.042  66.284  1.00  0.00    -0.204 C  
HETATM   20  C   UNL     1      -5.897  19.337  65.872  1.00  0.00    -0.167 C  
HETATM   21  O   UNL     1      -5.214  20.281  65.466  1.00  0.00    -0.162 OA 
ENDROOT
BRANCH   4  22
HETATM   22  C   UNL     1     -12.135  14.082  68.852  1.00  0.00    -0.351 C  
BRANCH  22  23
HETATM   23  C   UNL     1     -11.541  14.557  70.169  1.00  0.00    -0.276 C  
HETATM   24  H1  UNL     1     -10.651  15.271  72.143  1.00  0.00     0.000 HD 
HETATM   25  N   UNL     1     -11.050  14.953  71.260  1.00  0.00    -0.559 NA 
HETATM   26  H2  UNL     1     -11.463  15.878  71.146  1.00  0.00     0.000 HD 
ENDBRANCH  22  23
ENDBRANCH   4  22
TORSDOF 2
ENDMDL
MODEL       13
REMARK 921   NORMALIZED FREE ENERGY PREDICTED BY IDOCK:   -6.12 KCAL/MOL
REMARK 922        TOTAL FREE ENERGY PREDICTED BY IDOCK:   -7.10 KCAL/MOL
REMARK 923 INTER-LIGAND FREE ENERGY PREDICTED BY IDOCK:   -7.18 KCAL/MOL
REMARK 924 INTRA-LIGAND FREE ENERGY PREDICTED BY IDOCK:    0.08 KCAL/MOL
REMARK 927      BINDING AFFINITY PREDICTED BY RF-SCORE:    0.00 PKD
ROOT
HETATM    1  C   UNL     1     -11.297  12.933  66.724  1.00  0.00    -0.367 C  
HETATM    2  C   UNL     1     -12.484  13.357  67.383  1.00  0.00     0.102 C  
HETATM    3  C   UNL     1     -12.156  13.939  66.063  1.00  0.00    -0.465 C  
HETATM    4  C   UNL     1     -10.585  13.076  65.023  1.00  0.00    -0.319 C  
HETATM    5  O   UNL     1     -10.205  13.326  63.641  1.00  0.00    -0.610 OA 
HETATM    6  C   UNL     1     -10.007  18.207  68.986  1.00  0.00    -0.294 C  
HETATM    7  C   UNL     1     -11.936  12.887  64.896  1.00  0.00    -0.437 C  
HETATM    8  C   UNL     1     -12.038  14.557  64.020  1.00  0.00    -0.271 C  
HETATM    9  C   UNL     1     -12.778  11.730  64.452  1.00  0.00     0.103 C  
HETATM   10  C   UNL     1     -10.071  14.338  67.016  1.00  0.00    -0.260 C  
HETATM   11  H   UNL     1      -9.485  12.930  63.164  1.00  0.00     0.000 HD 
HETATM   12  C   UNL     1     -10.793  15.653  64.640  1.00  0.00    -0.266 C  
HETATM   13  C   UNL     1      -9.774  14.453  68.528  1.00  0.00    -0.225 C  
HETATM   14  C   UNL     1      -9.769  15.827  69.172  1.00  0.00    -0.250 C  
HETATM   15  C   UNL     1     -10.328  15.730  66.233  1.00  0.00    -0.320 C  
HETATM   16  C   UNL     1     -10.023  17.043  68.321  1.00  0.00    -0.285 C  
HETATM   17  C   UNL     1     -10.297  16.921  66.895  1.00  0.00    -0.304 C  
HETATM   18  C   UNL     1     -10.614  18.209  66.167  1.00  0.00    -0.289 C  
HETATM   19  C   UNL     1     -10.589  19.553  66.890  1.00  0.00    -0.602 C  
HETATM   20  C   UNL     1     -10.266  19.501  68.351  1.00  0.00    -0.431 C  
HETATM   21  O   UNL     1     -10.223  20.526  69.036  1.00  0.00    -0.066 OA 
ENDROOT
BRANCH   4  22
HETATM   22  C   UNL     1      -9.669  11.467  65.110  1.00  0.00    -0.280 C  
BRANCH  22  23
HETATM   23  C   UNL     1      -9.861  11.124  63.642  1.00  0.00    -0.345 C  
HETATM   24  H1  UNL     1     -10.150  10.608  61.440  1.00  0.00     0.000 HD 
HETATM   25  N   UNL     1     -10.021  10.838  62.425  1.00  0.00    -0.701 NA 
HETATM   26  H2  UNL     1     -10.445   9.941  62.660  1.00  0.00     0.000 HD 
ENDBRANCH  22  23
ENDBRANCH   4  22
TORSDOF 2
ENDMDL
MODEL       14
REMARK 921   NORMALIZED FREE ENERGY PREDICTED BY IDOCK:   -6.12 KCAL/MOL
REMARK 922        TOTAL FREE ENERGY PREDICTED BY IDOCK:   -7.10 KCAL/MOL
REMARK 923 INTER-LIGAND FREE ENERGY PREDICTED BY IDOCK:   -6.71 KCAL/MOL
REMARK 924 INTRA-LIGAND FREE ENERGY PREDICTED BY IDOCK:   -0.39 KCAL/MOL
REMARK 927      BINDING AFFINITY PREDICTED BY RF-SCORE:    0.00 PKD
ROOT
HETATM    1  C   UNL     1     -11.184  15.958  67.494  1.00  0.00    -0.171 C  
HETATM    2  C   UNL     1     -10.675  15.805  66.175  1.00  0.00    -0.293 C  
HETATM    3  C   UNL     1      -9.818  15.418  67.317  1.00  0.00    -0.217 C  
HETATM    4  C   UNL     1     -10.710  15.383  69.187  1.00  0.00    -0.246 C  
HETATM    5  O   UNL     1     -10.148  14.846  70.418  1.00  0.00    -0.467 OA 
HETATM    6  C   UNL     1      -7.516  20.490  66.723  1.00  0.00    -0.307 C  
HETATM    7  C   UNL     1     -10.455  14.360  68.313  1.00  0.00    -0.245 C  
HETATM    8  C   UNL     1      -8.637  14.450  68.812  1.00  0.00    -0.125 C  
HETATM    9  C   UNL     1     -11.118  13.042  68.045  1.00  0.00    -0.288 C  
HETATM   10  C   UNL     1     -10.358  17.528  68.137  1.00  0.00    -0.375 C  
HETATM   11  H   UNL     1     -10.558  14.830  71.275  1.00  0.00     0.000 HD 
HETATM   12  C   UNL     1      -8.201  16.111  69.248  1.00  0.00    -0.183 C  
HETATM   13  C   UNL     1     -10.825  18.735  67.292  1.00  0.00    -0.408 C  
HETATM   14  C   UNL     1      -9.793  19.740  66.817  1.00  0.00    -0.528 C  
HETATM   15  C   UNL     1      -8.776  17.460  68.468  1.00  0.00    -0.277 C  
HETATM   16  C   UNL     1      -8.348  19.555  67.200  1.00  0.00    -0.321 C  
HETATM   17  C   UNL     1      -7.922  18.415  68.002  1.00  0.00    -0.289 C  
HETATM   18  C   UNL     1      -6.434  18.299  68.253  1.00  0.00    -0.200 C  
HETATM   19  C   UNL     1      -5.460  19.355  67.737  1.00  0.00    -0.182 C  
HETATM   20  C   UNL     1      -6.070  20.473  66.950  1.00  0.00    -0.194 C  
HETATM   21  O   UNL     1      -5.376  21.379  66.480  1.00  0.00    -0.230 OA 
ENDROOT
BRANCH   4  22
HETATM   22  C   UNL     1     -12.452  15.332  69.818  1.00  0.00    -0.223 C  
BRANCH  22  23
HETATM   23  C   UNL     1     -12.090  15.723  71.242  1.00  0.00    -0.437 C  
HETATM   24  H1  UNL     1     -11.548  16.309  73.378  1.00  0.00     0.000 HD 
HETATM   25  N   UNL     1     -11.792  16.046  72.423  1.00  0.00    -0.507 NA 
HETATM   26  H2  UNL     1     -12.748  15.891  72.740  1.00  0.00     0.000 HD 
ENDBRANCH  22  23
ENDBRANCH   4  22
TORSDOF 2
ENDMDL
MODEL       15
REMARK 921   NORMALIZED FREE ENERGY PREDICTED BY IDOCK:   -6.09 KCAL/MOL
REMARK 922        TOTAL FREE ENERGY PREDICTED BY IDOCK:   -7.06 KCAL/MOL
REMARK 923 INTER-LIGAND FREE ENERGY PREDICTED BY IDOCK:   -6.66 KCAL/MOL
REMARK 924 INTRA-LIGAND FREE ENERGY PREDICTED BY IDOCK:   -0.40 KCAL/MOL
REMARK 927      BINDING AFFINITY PREDICTED BY RF-SCORE:    0.00 PKD
ROOT
HETATM    1  C   UNL     1     -11.709  13.770  67.672  1.00  0.00    -0.402 C  
HETATM    2  C   UNL     1     -11.548  14.290  68.986  1.00  0.00    -0.342 C  
HETATM    3  C   UNL     1     -10.342  14.054  68.162  1.00  0.00    -0.241 C  
HETATM    4  C   UNL     1     -10.649  13.580  66.168  1.00  0.00    -0.290 C  
HETATM    5  O   UNL     1      -9.644  13.507  65.118  1.00  0.00    -0.529 OA 
HETATM    6  C   UNL     1      -9.949   9.203  70.934  1.00  0.00    -0.357 C  
HETATM    7  C   UNL     1     -10.336  14.780  66.750  1.00  0.00    -0.268 C  
HETATM    8  C   UNL     1      -8.568  14.155  66.974  1.00  0.00    -0.204 C  
HETATM    9  C   UNL     1     -10.610  16.207  66.384  1.00  0.00    -0.269 C  
HETATM   10  C   UNL     1     -11.263  11.943  67.833  1.00  0.00    -0.325 C  
HETATM   11  H   UNL     1      -9.784  13.289  64.204  1.00  0.00     0.000 HD 
HETATM   12  C   UNL     1      -8.562  12.399  67.207  1.00  0.00    -0.185 C  
HETATM   13  C   UNL     1     -12.284  11.246  68.760  1.00  0.00    -0.101 C  
HETATM   14  C   UNL     1     -11.776  10.302  69.833  1.00  0.00    -0.298 C  
HETATM   15  C   UNL     1      -9.708  11.570  68.079  1.00  0.00    -0.187 C  
HETATM   16  C   UNL     1     -10.297  10.044  69.950  1.00  0.00    -0.315 C  
HETATM   17  C   UNL     1      -9.344  10.703  69.066  1.00  0.00    -0.191 C  
HETATM   18  C   UNL     1      -7.882  10.423  69.335  1.00  0.00    -0.163 C  
HETATM   19  C   UNL     1      -7.453   9.457  70.438  1.00  0.00    -0.141 C  
HETATM   20  C   UNL     1      -8.561   8.849  71.238  1.00  0.00    -0.198 C  
HETATM   21  O   UNL     1      -8.330   8.059  72.158  1.00  0.00    -0.119 OA 
ENDROOT
BRANCH   4  22
HETATM   22  C   UNL     1     -12.058  13.740  64.973  1.00  0.00    -0.424 C  
BRANCH  22  23
HETATM   23  C   UNL     1     -11.513  12.721  63.987  1.00  0.00    -0.417 C  
HETATM   24  H1  UNL     1     -10.698  11.190  62.507  1.00  0.00     0.000 HD 
HETATM   25  N   UNL     1     -11.063  11.874  63.169  1.00  0.00    -0.693 NA 
HETATM   26  H2  UNL     1     -11.787  11.201  63.420  1.00  0.00     0.000 HD 
ENDBRANCH  22  23
ENDBRANCH   4  22
TORSDOF 2
ENDMDL
MODEL       16
REMARK 921   NORMALIZED FREE ENERGY PREDICTED BY IDOCK:   -6.05 KCAL/MOL
REMARK 922        TOTAL FREE ENERGY PREDICTED BY IDOCK:   -7.02 KCAL/MOL
REMARK 923 INTER-LIGAND FREE ENERGY PREDICTED BY IDOCK:   -7.09 KCAL/MOL
REMARK 924 INTRA-LIGAND FREE ENERGY PREDICTED BY IDOCK:    0.08 KCAL/MOL
REMARK 927      BINDING AFFINITY PREDICTED BY RF-SCORE:    0.00 PKD
ROOT
HETATM    1  C   UNL     1      -9.386  12.324  66.472  1.00  0.00    -0.230 C  
HETATM    2  C   UNL     1      -9.895  11.114  65.926  1.00  0.00    -0.275 C  
HETATM    3  C   UNL     1     -10.847  12.092  66.498  1.00  0.00    -0.314 C  
HETATM    4  C   UNL     1     -10.086  13.950  67.008  1.00  0.00    -0.256 C  
HETATM    5  O   UNL     1     -10.842  15.134  67.389  1.00  0.00    -0.288 OA 
HETATM    6  C   UNL     1     -10.612   8.930  71.116  1.00  0.00    -0.335 C  
HETATM    7  C   UNL     1     -10.764  13.554  65.886  1.00  0.00    -0.279 C  
HETATM    8  C   UNL     1     -12.353  13.552  66.907  1.00  0.00    -0.289 C  
HETATM    9  C   UNL     1     -10.763  14.017  64.461  1.00  0.00    -0.355 C  
HETATM   10  C   UNL     1      -9.423  12.048  68.338  1.00  0.00    -0.181 C  
HETATM   11  H   UNL     1     -10.493  15.986  67.622  1.00  0.00     0.000 HD 
HETATM   12  C   UNL     1     -11.999  13.142  68.593  1.00  0.00    -0.319 C  
HETATM   13  C   UNL     1      -8.454  10.902  68.707  1.00  0.00    -0.150 C  
HETATM   14  C   UNL     1      -8.918   9.833  69.677  1.00  0.00    -0.229 C  
HETATM   15  C   UNL     1     -10.870  12.017  69.062  1.00  0.00    -0.223 C  
HETATM   16  C   UNL     1     -10.295   9.928  70.279  1.00  0.00    -0.339 C  
HETATM   17  C   UNL     1     -11.198  11.016  69.928  1.00  0.00    -0.327 C  
HETATM   18  C   UNL     1     -12.581  10.957  70.538  1.00  0.00    -0.409 C  
HETATM   19  C   UNL     1     -12.970   9.843  71.508  1.00  0.00    -0.523 C  
HETATM   20  C   UNL     1     -11.914   8.816  71.777  1.00  0.00    -0.349 C  
HETATM   21  O   UNL     1     -12.120   7.869  72.540  1.00  0.00    -0.315 OA 
ENDROOT
BRANCH   4  22
HETATM   22  C   UNL     1      -8.560  14.914  66.585  1.00  0.00    -0.207 C  
BRANCH  22  23
HETATM   23  C   UNL     1      -9.307  16.164  66.149  1.00  0.00    -0.336 C  
HETATM   24  H1  UNL     1     -10.429  18.038  65.496  1.00  0.00     0.000 HD 
HETATM   25  N   UNL     1      -9.928  17.200  65.789  1.00  0.00    -0.567 NA 
HETATM   26  H2  UNL     1     -10.413  17.258  66.684  1.00  0.00     0.000 HD 
ENDBRANCH  22  23
ENDBRANCH   4  22
TORSDOF 2
ENDMDL
MODEL       17
REMARK 921   NORMALIZED FREE ENERGY PREDICTED BY IDOCK:   -6.03 KCAL/MOL
REMARK 922        TOTAL FREE ENERGY PREDICTED BY IDOCK:   -6.99 KCAL/MOL
REMARK 923 INTER-LIGAND FREE ENERGY PREDICTED BY IDOCK:   -7.10 KCAL/MOL
REMARK 924 INTRA-LIGAND FREE ENERGY PREDICTED BY IDOCK:    0.11 KCAL/MOL
REMARK 927      BINDING AFFINITY PREDICTED BY RF-SCORE:    0.00 PKD
ROOT
HETATM    1  C   UNL     1      -9.146  12.844  66.448  1.00  0.00    -0.083 C  
HETATM    2  C   UNL     1      -8.309  13.239  67.528  1.00  0.00    -0.186 C  
HETATM    3  C   UNL     1      -8.915  11.889  67.555  1.00  0.00    -0.171 C  
HETATM    4  C   UNL     1      -9.878  11.261  65.830  1.00  0.00    -0.232 C  
HETATM    5  O   UNL     1     -10.366   9.923  65.536  1.00  0.00    -0.213 OA 
HETATM    6  C   UNL     1     -12.822  14.205  70.833  1.00  0.00    -0.404 C  
HETATM    7  C   UNL     1      -8.615  10.988  66.283  1.00  0.00    -0.167 C  
HETATM    8  C   UNL     1      -9.375   9.802  67.541  1.00  0.00    -0.152 C  
HETATM    9  C   UNL     1      -7.321  10.663  65.600  1.00  0.00    -0.087 C  
HETATM   10  C   UNL     1     -10.899  13.026  67.123  1.00  0.00    -0.278 C  
HETATM   11  H   UNL     1     -10.808   9.635  64.745  1.00  0.00     0.000 HD 
HETATM   12  C   UNL     1     -10.984  10.365  68.022  1.00  0.00    -0.347 C  
HETATM   13  C   UNL     1     -11.175  14.514  67.435  1.00  0.00    -0.337 C  
HETATM   14  C   UNL     1     -11.845  14.877  68.747  1.00  0.00    -0.328 C  
HETATM   15  C   UNL     1     -11.386  11.962  68.241  1.00  0.00    -0.335 C  
HETATM   16  C   UNL     1     -12.248  13.781  69.699  1.00  0.00    -0.359 C  
HETATM   17  C   UNL     1     -11.986  12.381  69.391  1.00  0.00    -0.319 C  
HETATM   18  C   UNL     1     -12.367  11.382  70.462  1.00  0.00    -0.439 C  
HETATM   19  C   UNL     1     -13.037  11.830  71.758  1.00  0.00    -0.480 C  
HETATM   20  C   UNL     1     -13.253  13.304  71.904  1.00  0.00    -0.431 C  
HETATM   21  O   UNL     1     -13.781  13.778  72.913  1.00  0.00    -0.684 OA 
ENDROOT
BRANCH   4  22
HETATM   22  C   UNL     1      -9.874  11.782  64.051  1.00  0.00    -0.265 C  
BRANCH  22  23
HETATM   23  C   UNL     1      -9.540  10.402  63.509  1.00  0.00    -0.310 C  
HETATM   24  H1  UNL     1      -9.040   8.331  62.696  1.00  0.00     0.000 HD 
HETATM   25  N   UNL     1      -9.264   9.257  63.060  1.00  0.00    -0.497 NA 
HETATM   26  H2  UNL     1      -9.834   8.806  63.775  1.00  0.00     0.000 HD 
ENDBRANCH  22  23
ENDBRANCH   4  22
TORSDOF 2
ENDMDL
MODEL       18
REMARK 921   NORMALIZED FREE ENERGY PREDICTED BY IDOCK:   -6.02 KCAL/MOL
REMARK 922        TOTAL FREE ENERGY PREDICTED BY IDOCK:   -6.98 KCAL/MOL
REMARK 923 INTER-LIGAND FREE ENERGY PREDICTED BY IDOCK:   -6.60 KCAL/MOL
REMARK 924 INTRA-LIGAND FREE ENERGY PREDICTED BY IDOCK:   -0.39 KCAL/MOL
REMARK 927      BINDING AFFINITY PREDICTED BY RF-SCORE:    0.00 PKD
ROOT
HETATM    1  C   UNL     1      -9.588  11.926  66.774  1.00  0.00    -0.214 C  
HETATM    2  C   UNL     1     -10.481  11.090  66.049  1.00  0.00    -0.304 C  
HETATM    3  C   UNL     1     -11.044  12.117  66.953  1.00  0.00    -0.348 C  
HETATM    4  C   UNL     1      -9.715  13.491  67.752  1.00  0.00    -0.226 C  
HETATM    5  O   UNL     1     -10.042  14.703  68.489  1.00  0.00    -0.225 OA 
HETATM    6  C   UNL     1     -11.488   7.951  70.671  1.00  0.00    -0.247 C  
HETATM    7  C   UNL     1     -10.556  13.602  66.677  1.00  0.00    -0.277 C  
HETATM    8  C   UNL     1     -11.996  13.789  67.884  1.00  0.00    -0.391 C  
HETATM    9  C   UNL     1     -10.507  14.393  65.405  1.00  0.00    -0.391 C  
HETATM   10  C   UNL     1      -9.584  11.206  68.519  1.00  0.00    -0.193 C  
HETATM   11  H   UNL     1      -9.432  15.333  68.855  1.00  0.00     0.000 HD 
HETATM   12  C   UNL     1     -11.674  12.880  69.370  1.00  0.00    -0.382 C  
HETATM   13  C   UNL     1      -8.993   9.779  68.483  1.00  0.00    -0.124 C  
HETATM   14  C   UNL     1      -9.698   8.674  69.246  1.00  0.00    -0.173 C  
HETATM   15  C   UNL     1     -10.918  11.402  69.413  1.00  0.00    -0.260 C  
HETATM   16  C   UNL     1     -10.935   8.997  70.042  1.00  0.00    -0.230 C  
HETATM   17  C   UNL     1     -11.480  10.349  70.072  1.00  0.00    -0.382 C  
HETATM   18  C   UNL     1     -12.770  10.529  70.841  1.00  0.00    -0.495 C  
HETATM   19  C   UNL     1     -13.417   9.362  71.583  1.00  0.00    -0.467 C  
HETATM   20  C   UNL     1     -12.714   8.045  71.466  1.00  0.00    -0.307 C  
HETATM   21  O   UNL     1     -13.151   7.033  72.020  1.00  0.00    -0.246 OA 
ENDROOT
BRANCH   4  22
HETATM   22  C   UNL     1      -7.998  14.059  67.344  1.00  0.00    -0.191 C  
BRANCH  22  23
HETATM   23  C   UNL     1      -7.590  14.301  68.788  1.00  0.00    -0.130 C  
HETATM   24  H1  UNL     1      -6.980  14.665  70.955  1.00  0.00     0.000 HD 
HETATM   25  N   UNL     1      -7.253  14.503  69.986  1.00  0.00    -0.396 NA 
HETATM   26  H2  UNL     1      -7.744  15.397  70.006  1.00  0.00     0.000 HD 
ENDBRANCH  22  23
ENDBRANCH   4  22
TORSDOF 2
ENDMDL
MODEL       19
REMARK 921   NORMALIZED FREE ENERGY PREDICTED BY IDOCK:   -5.99 KCAL/MOL
REMARK 922        TOTAL FREE ENERGY PREDICTED BY IDOCK:   -6.95 KCAL/MOL
REMARK 923 INTER-LIGAND FREE ENERGY PREDICTED BY IDOCK:   -6.95 KCAL/MOL
REMARK 924 INTRA-LIGAND FREE ENERGY PREDICTED BY IDOCK:    0.00 KCAL/MOL
REMARK 927      BINDING AFFINITY PREDICTED BY RF-SCORE:    0.00 PKD
ROOT
HETATM    1  C   UNL     1      -9.048   9.049  66.266  1.00  0.00    -0.224 C  
HETATM    2  C   UNL     1      -7.834   9.771  66.100  1.00  0.00    -0.107 C  
HETATM    3  C   UNL     1      -8.654  10.025  67.305  1.00  0.00    -0.125 C  
HETATM    4  C   UNL     1     -10.248   8.744  67.640  1.00  0.00    -0.239 C  
HETATM    5  O   UNL     1     -11.065   8.655  68.841  1.00  0.00    -0.435 OA 
HETATM    6  C   UNL     1     -10.672  14.405  64.456  1.00  0.00    -0.236 C  
HETATM    7  C   UNL     1      -8.988   8.742  68.178  1.00  0.00    -0.141 C  
HETATM    8  C   UNL     1      -9.500  10.202  69.260  1.00  0.00    -0.231 C  
HETATM    9  C   UNL     1      -8.095   7.663  68.710  1.00  0.00    -0.127 C  
HETATM   10  C   UNL     1     -10.395  10.280  65.783  1.00  0.00    -0.236 C  
HETATM   11  H   UNL     1     -11.796   8.068  68.994  1.00  0.00     0.000 HD 
HETATM   12  C   UNL     1     -10.704  11.196  68.422  1.00  0.00    -0.234 C  
HETATM   13  C   UNL     1     -10.245  10.644  64.289  1.00  0.00    -0.391 C  
HETATM   14  C   UNL     1     -10.344  12.100  63.875  1.00  0.00    -0.441 C  
HETATM   15  C   UNL     1     -10.678  11.513  66.792  1.00  0.00    -0.311 C  
HETATM   16  C   UNL     1     -10.613  13.150  64.922  1.00  0.00    -0.366 C  
HETATM   17  C   UNL     1     -10.757  12.793  66.328  1.00  0.00    -0.291 C  
HETATM   18  C   UNL     1     -10.946  13.944  67.290  1.00  0.00    -0.299 C  
HETATM   19  C   UNL     1     -11.034  15.385  66.791  1.00  0.00    -0.282 C  
HETATM   20  C   UNL     1     -10.888  15.572  65.313  1.00  0.00    -0.411 C  
HETATM   21  O   UNL     1     -10.937  16.694  64.801  1.00  0.00    -0.705 OA 
ENDROOT
BRANCH   4  22
HETATM   22  C   UNL     1     -10.741   7.063  67.035  1.00  0.00    -0.423 C  
BRANCH  22  23
HETATM   23  C   UNL     1     -11.156   6.544  68.402  1.00  0.00    -0.254 C  
HETATM   24  H1  UNL     1     -11.777   5.766  70.453  1.00  0.00     0.000 HD 
HETATM   25  N   UNL     1     -11.499   6.113  69.536  1.00  0.00    -0.442 NA 
HETATM   26  H2  UNL     1     -10.865   5.319  69.459  1.00  0.00     0.000 HD 
ENDBRANCH  22  23
ENDBRANCH   4  22
TORSDOF 2
ENDMDL
MODEL       20
REMARK 921   NORMALIZED FREE ENERGY PREDICTED BY IDOCK:   -5.97 KCAL/MOL
REMARK 922        TOTAL FREE ENERGY PREDICTED BY IDOCK:   -6.93 KCAL/MOL
REMARK 923 INTER-LIGAND FREE ENERGY PREDICTED BY IDOCK:   -7.27 KCAL/MOL
REMARK 924 INTRA-LIGAND FREE ENERGY PREDICTED BY IDOCK:    0.35 KCAL/MOL
REMARK 927      BINDING AFFINITY PREDICTED BY RF-SCORE:    0.00 PKD
ROOT
HETATM    1  C   UNL     1      -9.063   8.100  70.408  1.00  0.00    -0.150 C  
HETATM    2  C   UNL     1      -8.271   9.030  71.136  1.00  0.00    -0.198 C  
HETATM    3  C   UNL     1      -9.501   8.498  71.764  1.00  0.00    -0.328 C  
HETATM    4  C   UNL     1     -10.451   6.937  70.787  1.00  0.00    -0.216 C  
HETATM    5  O   UNL     1     -11.541   6.117  71.295  1.00  0.00    -0.290 OA 
HETATM    6  C   UNL     1     -11.913  13.228  69.977  1.00  0.00    -0.399 C  
HETATM    7  C   UNL     1      -9.587   6.916  71.849  1.00  0.00    -0.159 C  
HETATM    8  C   UNL     1     -10.997   7.530  72.945  1.00  0.00    -0.434 C  
HETATM    9  C   UNL     1      -8.599   5.910  72.355  1.00  0.00    -0.120 C  
HETATM   10  C   UNL     1     -10.513   9.123  69.764  1.00  0.00    -0.234 C  
HETATM   11  H   UNL     1     -11.976   5.401  70.846  1.00  0.00     0.000 HD 
HETATM   12  C   UNL     1     -12.101   8.553  72.011  1.00  0.00    -0.428 C  
HETATM   13  C   UNL     1      -9.988  10.192  68.779  1.00  0.00    -0.187 C  
HETATM   14  C   UNL     1     -10.503  11.614  68.897  1.00  0.00    -0.201 C  
HETATM   15  C   UNL     1     -11.612   9.625  70.840  1.00  0.00    -0.420 C  
HETATM   16  C   UNL     1     -11.530  11.944  69.948  1.00  0.00    -0.264 C  
HETATM   17  C   UNL     1     -12.021  10.925  70.868  1.00  0.00    -0.416 C  
HETATM   18  C   UNL     1     -12.992  11.398  71.928  1.00  0.00    -0.466 C  
HETATM   19  C   UNL     1     -13.460  12.850  71.979  1.00  0.00    -0.568 C  
HETATM   20  C   UNL     1     -12.874  13.760  70.945  1.00  0.00    -0.271 C  
HETATM   21  O   UNL     1     -13.177  14.955  70.896  1.00  0.00    -0.375 OA 
ENDROOT
BRANCH   4  22
HETATM   22  C   UNL     1      -9.972   5.707  69.484  1.00  0.00    -0.263 C  
BRANCH  22  23
HETATM   23  C   UNL     1     -10.892   6.277  68.417  1.00  0.00    -0.319 C  
HETATM   24  H1  UNL     1     -12.272   7.132  66.816  1.00  0.00     0.000 HD 
HETATM   25  N   UNL     1     -11.654   6.750  67.531  1.00  0.00    -0.566 NA 
HETATM   26  H2  UNL     1     -10.991   6.516  66.793  1.00  0.00     0.000 HD 
ENDBRANCH  22  23
ENDBRANCH   4  22
TORSDOF 2
ENDMDL
MODEL       21
REMARK 921   NORMALIZED FREE ENERGY PREDICTED BY IDOCK:   -5.96 KCAL/MOL
REMARK 922        TOTAL FREE ENERGY PREDICTED BY IDOCK:   -6.92 KCAL/MOL
REMARK 923 INTER-LIGAND FREE ENERGY PREDICTED BY IDOCK:   -6.70 KCAL/MOL
REMARK 924 INTRA-LIGAND FREE ENERGY PREDICTED BY IDOCK:   -0.22 KCAL/MOL
REMARK 927      BINDING AFFINITY PREDICTED BY RF-SCORE:    0.00 PKD
ROOT
HETATM    1  C   UNL     1      -8.878  15.081  68.664  1.00  0.00    -0.185 C  
HETATM    2  C   UNL     1      -7.751  15.273  67.819  1.00  0.00    -0.164 C  
HETATM    3  C   UNL     1      -9.095  15.607  67.298  1.00  0.00    -0.217 C  
HETATM    4  C   UNL     1     -10.657  15.587  68.660  1.00  0.00    -0.243 C  
HETATM    5  O   UNL     1     -12.013  16.072  68.448  1.00  0.00    -0.368 OA 
HETATM    6  C   UNL     1      -8.946  10.529  64.939  1.00  0.00    -0.222 C  
HETATM    7  C   UNL     1      -9.923  16.638  68.177  1.00  0.00    -0.259 C  
HETATM    8  C   UNL     1     -10.888  16.505  66.559  1.00  0.00    -0.046 C  
HETATM    9  C   UNL     1      -9.538  17.973  68.738  1.00  0.00    -0.309 C  
HETATM   10  C   UNL     1      -9.658  13.477  68.046  1.00  0.00    -0.221 C  
HETATM   11  H   UNL     1     -12.729  16.062  69.073  1.00  0.00     0.000 HD 
HETATM   12  C   UNL     1     -11.361  14.824  66.262  1.00  0.00    -0.334 C  
HETATM   13  C   UNL     1      -8.674  12.308  68.273  1.00  0.00    -0.178 C  
HETATM   14  C   UNL     1      -8.454  11.307  67.155  1.00  0.00    -0.149 C  
HETATM   15  C   UNL     1     -10.404  13.511  66.611  1.00  0.00    -0.271 C  
HETATM   16  C   UNL     1      -9.218  11.458  65.866  1.00  0.00    -0.231 C  
HETATM   17  C   UNL     1     -10.148  12.563  65.666  1.00  0.00    -0.285 C  
HETATM   18  C   UNL     1     -10.793  12.650  64.301  1.00  0.00    -0.411 C  
HETATM   19  C   UNL     1     -10.517  11.599  63.227  1.00  0.00    -0.438 C  
HETATM   20  C   UNL     1      -9.553  10.519  63.607  1.00  0.00    -0.320 C  
HETATM   21  O   UNL     1      -9.252   9.621  62.816  1.00  0.00    -0.271 OA 
ENDROOT
BRANCH   4  22
HETATM   22  C   UNL     1     -10.799  15.639  70.508  1.00  0.00    -0.347 C  
BRANCH  22  23
HETATM   23  C   UNL     1     -12.316  15.541  70.528  1.00  0.00    -0.418 C  
HETATM   24  H1  UNL     1     -14.591  15.393  70.557  1.00  0.00     0.000 HD 
HETATM   25  N   UNL     1     -13.573  15.459  70.543  1.00  0.00    -0.810 NA 
HETATM   26  H2  UNL     1     -13.600  15.204  69.557  1.00  0.00     0.000 HD 
ENDBRANCH  22  23
ENDBRANCH   4  22
TORSDOF 2
ENDMDL
MODEL       22
REMARK 921   NORMALIZED FREE ENERGY PREDICTED BY IDOCK:   -5.91 KCAL/MOL
REMARK 922        TOTAL FREE ENERGY PREDICTED BY IDOCK:   -6.87 KCAL/MOL
REMARK 923 INTER-LIGAND FREE ENERGY PREDICTED BY IDOCK:   -7.11 KCAL/MOL
REMARK 924 INTRA-LIGAND FREE ENERGY PREDICTED BY IDOCK:    0.25 KCAL/MOL
REMARK 927      BINDING AFFINITY PREDICTED BY RF-SCORE:    0.00 PKD
ROOT
HETATM    1  C   UNL     1      -9.588   8.039  70.723  1.00  0.00    -0.174 C  
HETATM    2  C   UNL     1      -8.820   8.887  71.567  1.00  0.00    -0.253 C  
HETATM    3  C   UNL     1     -10.296   8.968  71.632  1.00  0.00    -0.420 C  
HETATM    4  C   UNL     1     -11.358   7.515  70.605  1.00  0.00    -0.281 C  
HETATM    5  O   UNL     1     -12.788   7.255  70.681  1.00  0.00    -0.604 OA 
HETATM    6  C   UNL     1      -9.759  13.331  68.161  1.00  0.00    -0.227 C  
HETATM    7  C   UNL     1     -11.035   7.596  71.934  1.00  0.00    -0.282 C  
HETATM    8  C   UNL     1     -12.374   8.913  72.130  1.00  0.00    -0.449 C  
HETATM    9  C   UNL     1     -10.797   6.572  73.002  1.00  0.00    -0.291 C  
HETATM   10  C   UNL     1     -10.155   9.165  69.318  1.00  0.00    -0.196 C  
HETATM   11  H   UNL     1     -13.275   6.589  70.210  1.00  0.00     0.000 HD 
HETATM   12  C   UNL     1     -12.544   9.844  70.632  1.00  0.00    -0.250 C  
HETATM   13  C   UNL     1      -8.922   9.654  68.525  1.00  0.00    -0.124 C  
HETATM   14  C   UNL     1      -8.826  11.120  68.148  1.00  0.00    -0.148 C  
HETATM   15  C   UNL     1     -11.272  10.284  69.659  1.00  0.00    -0.322 C  
HETATM   16  C   UNL     1      -9.943  12.056  68.530  1.00  0.00    -0.188 C  
HETATM   17  C   UNL     1     -11.103  11.581  69.274  1.00  0.00    -0.305 C  
HETATM   18  C   UNL     1     -12.118  12.633  69.666  1.00  0.00    -0.277 C  
HETATM   19  C   UNL     1     -11.946  14.091  69.248  1.00  0.00    -0.396 C  
HETATM   20  C   UNL     1     -10.707  14.403  68.467  1.00  0.00    -0.253 C  
HETATM   21  O   UNL     1     -10.464  15.550  68.082  1.00  0.00    -0.249 OA 
ENDROOT
BRANCH   4  22
HETATM   22  C   UNL     1     -10.970   5.843  69.903  1.00  0.00    -0.444 C  
BRANCH  22  23
HETATM   23  C   UNL     1     -11.198   6.251  68.456  1.00  0.00    -0.209 C  
HETATM   24  H1  UNL     1     -11.538   6.860  66.286  1.00  0.00     0.000 HD 
HETATM   25  N   UNL     1     -11.385   6.587  67.256  1.00  0.00    -0.769 NA 
HETATM   26  H2  UNL     1     -10.715   5.894  66.925  1.00  0.00     0.000 HD 
ENDBRANCH  22  23
ENDBRANCH   4  22
TORSDOF 2
ENDMDL
MODEL       23
REMARK 921   NORMALIZED FREE ENERGY PREDICTED BY IDOCK:   -5.91 KCAL/MOL
REMARK 922        TOTAL FREE ENERGY PREDICTED BY IDOCK:   -6.86 KCAL/MOL
REMARK 923 INTER-LIGAND FREE ENERGY PREDICTED BY IDOCK:   -6.82 KCAL/MOL
REMARK 924 INTRA-LIGAND FREE ENERGY PREDICTED BY IDOCK:   -0.04 KCAL/MOL
REMARK 927      BINDING AFFINITY PREDICTED BY RF-SCORE:    0.00 PKD
ROOT
HETATM    1  C   UNL     1     -11.279  13.181  67.807  1.00  0.00    -0.308 C  
HETATM    2  C   UNL     1     -10.920  13.883  68.990  1.00  0.00    -0.281 C  
HETATM    3  C   UNL     1      -9.859  13.192  68.224  1.00  0.00    -0.227 C  
HETATM    4  C   UNL     1     -10.385  12.440  66.366  1.00  0.00    -0.234 C  
HETATM    5  O   UNL     1      -9.490  11.912  65.347  1.00  0.00    -0.357 OA 
HETATM    6  C   UNL     1     -10.546   9.026  71.904  1.00  0.00    -0.388 C  
HETATM    7  C   UNL     1      -9.749  13.607  66.696  1.00  0.00    -0.287 C  
HETATM    8  C   UNL     1      -8.186  12.603  67.032  1.00  0.00    -0.110 C  
HETATM    9  C   UNL     1      -9.675  14.959  66.054  1.00  0.00    -0.358 C  
HETATM   10  C   UNL     1     -11.298  11.366  68.326  1.00  0.00    -0.354 C  
HETATM   11  H   UNL     1      -9.732  11.567  64.495  1.00  0.00     0.000 HD 
HETATM   12  C   UNL     1      -8.608  10.983  67.610  1.00  0.00    -0.125 C  
HETATM   13  C   UNL     1     -12.409  11.146  69.378  1.00  0.00    -0.224 C  
HETATM   14  C   UNL     1     -12.096  10.326  70.614  1.00  0.00    -0.433 C  
HETATM   15  C   UNL     1      -9.876  10.660  68.634  1.00  0.00    -0.183 C  
HETATM   16  C   UNL     1     -10.724   9.723  70.774  1.00  0.00    -0.393 C  
HETATM   17  C   UNL     1      -9.687   9.934  69.772  1.00  0.00    -0.266 C  
HETATM   18  C   UNL     1      -8.330   9.343  70.086  1.00  0.00    -0.197 C  
HETATM   19  C   UNL     1      -8.097   8.530  71.357  1.00  0.00    -0.176 C  
HETATM   20  C   UNL     1      -9.277   8.391  72.267  1.00  0.00    -0.259 C  
HETATM   21  O   UNL     1      -9.201   7.760  73.324  1.00  0.00    -0.203 OA 
ENDROOT
BRANCH   4  22
HETATM   22  C   UNL     1     -11.772  12.726  65.169  1.00  0.00    -0.396 C  
BRANCH  22  23
HETATM   23  C   UNL     1     -11.053  12.109  63.981  1.00  0.00    -0.386 C  
HETATM   24  H1  UNL     1      -9.975  11.182  62.199  1.00  0.00     0.000 HD 
HETATM   25  N   UNL     1     -10.457  11.596  62.996  1.00  0.00    -0.675 NA 
HETATM   26  H2  UNL     1     -10.237  10.755  63.529  1.00  0.00     0.000 HD 
ENDBRANCH  22  23
ENDBRANCH   4  22
TORSDOF 2
ENDMDL
MODEL       24
REMARK 921   NORMALIZED FREE ENERGY PREDICTED BY IDOCK:   -5.89 KCAL/MOL
REMARK 922        TOTAL FREE ENERGY PREDICTED BY IDOCK:   -6.84 KCAL/MOL
REMARK 923 INTER-LIGAND FREE ENERGY PREDICTED BY IDOCK:   -7.04 KCAL/MOL
REMARK 924 INTRA-LIGAND FREE ENERGY PREDICTED BY IDOCK:    0.20 KCAL/MOL
REMARK 927      BINDING AFFINITY PREDICTED BY RF-SCORE:    0.00 PKD
ROOT
HETATM    1  C   UNL     1      -9.360   9.418  69.027  1.00  0.00    -0.153 C  
HETATM    2  C   UNL     1      -8.497  10.271  69.768  1.00  0.00    -0.082 C  
HETATM    3  C   UNL     1      -9.530   9.499  70.495  1.00  0.00    -0.306 C  
HETATM    4  C   UNL     1     -10.557   8.061  69.413  1.00  0.00    -0.205 C  
HETATM    5  O   UNL     1     -11.457   7.045  69.938  1.00  0.00    -0.460 OA 
HETATM    6  C   UNL     1     -12.574  14.194  70.234  1.00  0.00    -0.367 C  
HETATM    7  C   UNL     1      -9.489   7.930  70.262  1.00  0.00    -0.163 C  
HETATM    8  C   UNL     1     -10.675   8.167  71.712  1.00  0.00    -0.313 C  
HETATM    9  C   UNL     1      -8.351   6.959  70.347  1.00  0.00    -0.130 C  
HETATM   10  C   UNL     1     -10.978  10.382  68.902  1.00  0.00    -0.289 C  
HETATM   11  H   UNL     1     -11.928   6.385  69.442  1.00  0.00     0.000 HD 
HETATM   12  C   UNL     1     -12.017   9.224  71.242  1.00  0.00    -0.414 C  
HETATM   13  C   UNL     1     -10.745  11.670  68.081  1.00  0.00    -0.248 C  
HETATM   14  C   UNL     1     -11.317  12.979  68.590  1.00  0.00    -0.329 C  
HETATM   15  C   UNL     1     -11.858  10.547  70.250  1.00  0.00    -0.418 C  
HETATM   16  C   UNL     1     -12.121  12.988  69.864  1.00  0.00    -0.347 C  
HETATM   17  C   UNL     1     -12.338  11.765  70.627  1.00  0.00    -0.421 C  
HETATM   18  C   UNL     1     -13.094  11.919  71.929  1.00  0.00    -0.474 C  
HETATM   19  C   UNL     1     -13.638  13.276  72.371  1.00  0.00    -0.694 C  
HETATM   20  C   UNL     1     -13.344  14.425  71.458  1.00  0.00    -0.355 C  
HETATM   21  O   UNL     1     -13.730  15.567  71.719  1.00  0.00    -0.476 OA 
ENDROOT
BRANCH   4  22
HETATM   22  C   UNL     1     -10.280   7.162  67.816  1.00  0.00    -0.234 C  
BRANCH  22  23
HETATM   23  C   UNL     1     -10.345   5.773  68.431  1.00  0.00    -0.213 C  
HETATM   24  H1  UNL     1     -10.441   3.690  69.353  1.00  0.00     0.000 HD 
HETATM   25  N   UNL     1     -10.397   4.622  68.941  1.00  0.00     0.052 NA 
HETATM   26  H2  UNL     1      -9.454   4.713  69.318  1.00  0.00     0.000 HD 
ENDBRANCH  22  23
ENDBRANCH   4  22
TORSDOF 2
ENDMDL
MODEL       25
REMARK 921   NORMALIZED FREE ENERGY PREDICTED BY IDOCK:   -5.88 KCAL/MOL
REMARK 922        TOTAL FREE ENERGY PREDICTED BY IDOCK:   -6.83 KCAL/MOL
REMARK 923 INTER-LIGAND FREE ENERGY PREDICTED BY IDOCK:   -6.79 KCAL/MOL
REMARK 924 INTRA-LIGAND FREE ENERGY PREDICTED BY IDOCK:   -0.05 KCAL/MOL
REMARK 927      BINDING AFFINITY PREDICTED BY RF-SCORE:    0.00 PKD
ROOT
HETATM    1  C   UNL     1      -9.447  13.116  67.507  1.00  0.00    -0.212 C  
HETATM    2  C   UNL     1      -9.787  13.610  68.797  1.00  0.00    -0.069 C  
HETATM    3  C   UNL     1     -10.690  13.902  67.662  1.00  0.00    -0.255 C  
HETATM    4  C   UNL     1     -10.303  12.917  65.880  1.00  0.00    -0.285 C  
HETATM    5  O   UNL     1     -11.152  12.874  64.699  1.00  0.00    -0.298 OA 
HETATM    6  C   UNL     1      -8.028  18.822  67.398  1.00  0.00    -0.254 C  
HETATM    7  C   UNL     1     -11.209  12.630  66.866  1.00  0.00    -0.348 C  
HETATM    8  C   UNL     1     -12.275  14.056  66.235  1.00  0.00    -0.493 C  
HETATM    9  C   UNL     1     -11.833  11.359  67.357  1.00  0.00    -0.038 C  
HETATM   10  C   UNL     1      -8.747  14.615  66.601  1.00  0.00    -0.197 C  
HETATM   11  H   UNL     1     -10.975  12.422  63.882  1.00  0.00     0.000 HD 
HETATM   12  C   UNL     1     -11.253  15.329  65.548  1.00  0.00    -0.277 C  
HETATM   13  C   UNL     1      -7.451  15.080  67.302  1.00  0.00    -0.215 C  
HETATM   14  C   UNL     1      -7.248  16.560  67.564  1.00  0.00    -0.168 C  
HETATM   15  C   UNL     1      -9.782  15.783  66.174  1.00  0.00    -0.351 C  
HETATM   16  C   UNL     1      -8.296  17.541  67.111  1.00  0.00    -0.232 C  
HETATM   17  C   UNL     1      -9.513  17.091  66.445  1.00  0.00    -0.294 C  
HETATM   18  C   UNL     1     -10.524  18.166  66.110  1.00  0.00    -0.377 C  
HETATM   19  C   UNL     1     -10.242  19.637  66.409  1.00  0.00    -0.592 C  
HETATM   20  C   UNL     1      -8.934  19.927  67.076  1.00  0.00    -0.340 C  
HETATM   21  O   UNL     1      -8.605  21.079  67.369  1.00  0.00    -0.174 OA 
ENDROOT
BRANCH   4  22
HETATM   22  C   UNL     1      -9.330  11.419  65.383  1.00  0.00    -0.206 C  
BRANCH  22  23
HETATM   23  C   UNL     1     -10.009  11.261  64.032  1.00  0.00    -0.312 C  
HETATM   24  H1  UNL     1     -11.026  11.022  62.006  1.00  0.00     0.000 HD 
HETATM   25  N   UNL     1     -10.570  11.128  62.912  1.00  0.00    -0.800 NA 
HETATM   26  H2  UNL     1      -9.699  10.828  62.476  1.00  0.00     0.000 HD 
ENDBRANCH  22  23
ENDBRANCH   4  22
TORSDOF 2
ENDMDL
MODEL       26
REMARK 921   NORMALIZED FREE ENERGY PREDICTED BY IDOCK:   -5.79 KCAL/MOL
REMARK 922        TOTAL FREE ENERGY PREDICTED BY IDOCK:   -6.73 KCAL/MOL
REMARK 923 INTER-LIGAND FREE ENERGY PREDICTED BY IDOCK:   -6.95 KCAL/MOL
REMARK 924 INTRA-LIGAND FREE ENERGY PREDICTED BY IDOCK:    0.22 KCAL/MOL
REMARK 927      BINDING AFFINITY PREDICTED BY RF-SCORE:    0.00 PKD
ROOT
HETATM    1  C   UNL     1      -9.439  17.397  68.800  1.00  0.00    -0.256 C  
HETATM    2  C   UNL     1      -8.377  16.580  69.276  1.00  0.00    -0.062 C  
HETATM    3  C   UNL     1      -8.923  16.322  67.924  1.00  0.00    -0.187 C  
HETATM    4  C   UNL     1     -10.256  17.718  67.172  1.00  0.00    -0.353 C  
HETATM    5  O   UNL     1     -10.765  17.801  65.811  1.00  0.00    -0.422 OA 
HETATM    6  C   UNL     1     -11.983  12.347  70.415  1.00  0.00    -0.342 C  
HETATM    7  C   UNL     1      -8.914  17.569  66.942  1.00  0.00    -0.264 C  
HETATM    8  C   UNL     1      -9.317  16.092  65.836  1.00  0.00    -0.316 C  
HETATM    9  C   UNL     1      -7.816  18.524  66.586  1.00  0.00    -0.270 C  
HETATM   10  C   UNL     1     -10.981  16.330  69.009  1.00  0.00    -0.325 C  
HETATM   11  H   UNL     1     -11.377  18.441  65.466  1.00  0.00     0.000 HD 
HETATM   12  C   UNL     1     -10.777  15.272  66.414  1.00  0.00    -0.318 C  
HETATM   13  C   UNL     1     -11.214  16.055  70.511  1.00  0.00    -0.397 C  
HETATM   14  C   UNL     1     -11.556  14.645  70.954  1.00  0.00    -0.276 C  
HETATM   15  C   UNL     1     -11.156  15.063  68.018  1.00  0.00    -0.304 C  
HETATM   16  C   UNL     1     -11.689  13.557  69.921  1.00  0.00    -0.341 C  
HETATM   17  C   UNL     1     -11.472  13.831  68.507  1.00  0.00    -0.342 C  
HETATM   18  C   UNL     1     -11.556  12.639  67.578  1.00  0.00    -0.418 C  
HETATM   19  C   UNL     1     -11.905  11.249  68.106  1.00  0.00    -0.276 C  
HETATM   20  C   UNL     1     -12.119  11.149  69.584  1.00  0.00    -0.336 C  
HETATM   21  O   UNL     1     -12.401  10.074  70.119  1.00  0.00    -0.143 OA 
ENDROOT
BRANCH   4  22
HETATM   22  C   UNL     1     -10.695  19.475  67.571  1.00  0.00    -0.565 C  
BRANCH  22  23
HETATM   23  C   UNL     1     -10.388  20.009  66.181  1.00  0.00    -0.458 C  
HETATM   24  H1  UNL     1      -9.928  20.811  64.097  1.00  0.00     0.000 HD 
HETATM   25  N   UNL     1     -10.134  20.453  65.030  1.00  0.00     0.020 NA 
HETATM   26  H2  UNL     1     -10.506  21.372  65.268  1.00  0.00     0.000 HD 
ENDBRANCH  22  23
ENDBRANCH   4  22
TORSDOF 2
ENDMDL
MODEL       27
REMARK 921   NORMALIZED FREE ENERGY PREDICTED BY IDOCK:   -5.79 KCAL/MOL
REMARK 922        TOTAL FREE ENERGY PREDICTED BY IDOCK:   -6.72 KCAL/MOL
REMARK 923 INTER-LIGAND FREE ENERGY PREDICTED BY IDOCK:   -6.62 KCAL/MOL
REMARK 924 INTRA-LIGAND FREE ENERGY PREDICTED BY IDOCK:   -0.10 KCAL/MOL
REMARK 927      BINDING AFFINITY PREDICTED BY RF-SCORE:    0.00 PKD
ROOT
HETATM    1  C   UNL     1      -6.531  18.143  67.208  1.00  0.00    -0.192 C  
HETATM    2  C   UNL     1      -6.954  17.882  65.876  1.00  0.00    -0.313 C  
HETATM    3  C   UNL     1      -7.915  18.493  66.821  1.00  0.00    -0.265 C  
HETATM    4  C   UNL     1      -7.161  19.118  68.648  1.00  0.00    -0.321 C  
HETATM    5  O   UNL     1      -7.844  19.922  69.650  1.00  0.00     0.005 OA 
HETATM    6  C   UNL     1      -9.814  13.275  67.557  1.00  0.00    -0.220 C  
HETATM    7  C   UNL     1      -7.423  19.835  67.511  1.00  0.00    -0.306 C  
HETATM    8  C   UNL     1      -9.262  19.731  67.926  1.00  0.00    -0.427 C  
HETATM    9  C   UNL     1      -6.836  21.080  66.918  1.00  0.00    -0.361 C  
HETATM   10  C   UNL     1      -7.290  16.745  68.223  1.00  0.00    -0.183 C  
HETATM   11  H   UNL     1      -7.499  20.208  70.488  1.00  0.00     0.000 HD 
HETATM   12  C   UNL     1      -9.613  18.222  68.787  1.00  0.00    -0.317 C  
HETATM   13  C   UNL     1      -6.683  15.397  67.774  1.00  0.00    -0.187 C  
HETATM   14  C   UNL     1      -7.606  14.215  67.549  1.00  0.00    -0.200 C  
HETATM   15  C   UNL     1      -8.892  16.765  68.445  1.00  0.00    -0.237 C  
HETATM   16  C   UNL     1      -9.084  14.374  67.794  1.00  0.00    -0.192 C  
HETATM   17  C   UNL     1      -9.644  15.649  68.223  1.00  0.00    -0.200 C  
HETATM   18  C   UNL     1     -11.150  15.702  68.359  1.00  0.00    -0.326 C  
HETATM   19  C   UNL     1     -12.009  14.465  68.112  1.00  0.00    -0.320 C  
HETATM   20  C   UNL     1     -11.271  13.230  67.700  1.00  0.00    -0.280 C  
HETATM   21  O   UNL     1     -11.865  12.174  67.469  1.00  0.00    -0.499 OA 
ENDROOT
BRANCH   4  22
HETATM   22  C   UNL     1      -5.476  19.490  69.324  1.00  0.00    -0.214 C  
BRANCH  22  23
HETATM   23  C   UNL     1      -5.982  20.067  70.636  1.00  0.00    -0.327 C  
HETATM   24  H1  UNL     1      -6.741  20.934  72.603  1.00  0.00     0.000 HD 
HETATM   25  N   UNL     1      -6.401  20.547  71.723  1.00  0.00    -0.738 NA 
HETATM   26  H2  UNL     1      -5.512  21.016  71.894  1.00  0.00     0.000 HD 
ENDBRANCH  22  23
ENDBRANCH   4  22
TORSDOF 2
ENDMDL
MODEL       28
REMARK 921   NORMALIZED FREE ENERGY PREDICTED BY IDOCK:   -5.78 KCAL/MOL
REMARK 922        TOTAL FREE ENERGY PREDICTED BY IDOCK:   -6.71 KCAL/MOL
REMARK 923 INTER-LIGAND FREE ENERGY PREDICTED BY IDOCK:   -6.30 KCAL/MOL
REMARK 924 INTRA-LIGAND FREE ENERGY PREDICTED BY IDOCK:   -0.41 KCAL/MOL
REMARK 927      BINDING AFFINITY PREDICTED BY RF-SCORE:    0.00 PKD
ROOT
HETATM    1  C   UNL     1     -10.285  14.244  66.566  1.00  0.00    -0.277 C  
HETATM    2  C   UNL     1     -11.569  13.898  66.063  1.00  0.00    -0.359 C  
HETATM    3  C   UNL     1     -11.482  14.815  67.221  1.00  0.00    -0.378 C  
HETATM    4  C   UNL     1      -9.596  15.513  67.722  1.00  0.00    -0.209 C  
HETATM    5  O   UNL     1      -9.274  16.568  68.672  1.00  0.00    -0.221 OA 
HETATM    6  C   UNL     1     -12.392  10.245  70.329  1.00  0.00    -0.267 C  
HETATM    7  C   UNL     1     -10.591  16.109  66.993  1.00  0.00    -0.292 C  
HETATM    8  C   UNL     1     -11.510  16.440  68.609  1.00  0.00    -0.224 C  
HETATM    9  C   UNL     1     -10.595  17.115  65.883  1.00  0.00    -0.219 C  
HETATM   10  C   UNL     1     -10.086  13.181  68.112  1.00  0.00    -0.237 C  
HETATM   11  H   UNL     1      -8.409  16.887  68.901  1.00  0.00     0.000 HD 
HETATM   12  C   UNL     1     -11.158  15.166  69.788  1.00  0.00    -0.295 C  
HETATM   13  C   UNL     1     -10.066  11.690  67.711  1.00  0.00    -0.200 C  
HETATM   14  C   UNL     1     -10.893  10.703  68.512  1.00  0.00    -0.275 C  
HETATM   15  C   UNL     1     -10.987  13.559  69.402  1.00  0.00    -0.101 C  
HETATM   16  C   UNL     1     -11.688  11.193  69.694  1.00  0.00    -0.410 C  
HETATM   17  C   UNL     1     -11.694  12.602  70.066  1.00  0.00    -0.289 C  
HETATM   18  C   UNL     1     -12.594  12.980  71.223  1.00  0.00    -0.373 C  
HETATM   19  C   UNL     1     -13.397  11.923  71.978  1.00  0.00    -0.425 C  
HETATM   20  C   UNL     1     -13.257  10.519  71.478  1.00  0.00    -0.371 C  
HETATM   21  O   UNL     1     -13.864   9.586  72.010  1.00  0.00    -0.363 OA 
ENDROOT
BRANCH   4  22
HETATM   22  C   UNL     1      -7.956  15.619  66.864  1.00  0.00    -0.278 C  
BRANCH  22  23
HETATM   23  C   UNL     1      -7.132  15.507  68.137  1.00  0.00    -0.119 C  
HETATM   24  H1  UNL     1      -5.896  15.339  70.045  1.00  0.00     0.000 HD 
HETATM   25  N   UNL     1      -6.448  15.414  69.191  1.00  0.00    -0.121 NA 
HETATM   26  H2  UNL     1      -5.756  14.827  68.727  1.00  0.00     0.000 HD 
ENDBRANCH  22  23
ENDBRANCH   4  22
TORSDOF 2
ENDMDL
MODEL       29
REMARK 921   NORMALIZED FREE ENERGY PREDICTED BY IDOCK:   -5.73 KCAL/MOL
REMARK 922        TOTAL FREE ENERGY PREDICTED BY IDOCK:   -6.66 KCAL/MOL
REMARK 923 INTER-LIGAND FREE ENERGY PREDICTED BY IDOCK:   -6.25 KCAL/MOL
REMARK 924 INTRA-LIGAND FREE ENERGY PREDICTED BY IDOCK:   -0.41 KCAL/MOL
REMARK 927      BINDING AFFINITY PREDICTED BY RF-SCORE:    0.00 PKD
ROOT
HETATM    1  C   UNL     1      -8.869   9.547  64.727  1.00  0.00    -0.244 C  
HETATM    2  C   UNL     1      -8.117  10.210  63.719  1.00  0.00    -0.160 C  
HETATM    3  C   UNL     1      -7.864  10.553  65.136  1.00  0.00    -0.076 C  
HETATM    4  C   UNL     1      -8.769   9.354  66.564  1.00  0.00    -0.134 C  
HETATM    5  O   UNL     1      -8.517   9.354  67.997  1.00  0.00    -0.119 OA 
HETATM    6  C   UNL     1     -11.313  14.874  64.235  1.00  0.00    -0.086 C  
HETATM    7  C   UNL     1      -7.491   9.326  66.072  1.00  0.00    -0.095 C  
HETATM    8  C   UNL     1      -7.109  10.855  67.113  1.00  0.00    -0.103 C  
HETATM    9  C   UNL     1      -6.476   8.238  65.897  1.00  0.00    -0.053 C  
HETATM   10  C   UNL     1     -10.175  10.807  65.244  1.00  0.00    -0.351 C  
HETATM   11  H   UNL     1      -8.932   8.804  68.652  1.00  0.00     0.000 HD 
HETATM   12  C   UNL     1      -8.559  11.856  67.290  1.00  0.00    -0.170 C  
HETATM   13  C   UNL     1     -11.111  11.095  64.049  1.00  0.00    -0.173 C  
HETATM   14  C   UNL     1     -11.475  12.533  63.732  1.00  0.00    -0.542 C  
HETATM   15  C   UNL     1      -9.679  12.096  66.087  1.00  0.00    -0.254 C  
HETATM   16  C   UNL     1     -10.942  13.640  64.604  1.00  0.00    -0.403 C  
HETATM   17  C   UNL     1     -10.063  13.355  65.731  1.00  0.00    -0.297 C  
HETATM   18  C   UNL     1      -9.531  14.557  66.481  1.00  0.00    -0.310 C  
HETATM   19  C   UNL     1      -9.947  15.975  66.096  1.00  0.00    -0.347 C  
HETATM   20  C   UNL     1     -10.874  16.088  64.926  1.00  0.00    -0.372 C  
HETATM   21  O   UNL     1     -11.270  17.185  64.525  1.00  0.00    -1.104 OA 
ENDROOT
BRANCH   4  22
HETATM   22  C   UNL     1      -9.539   7.668  66.578  1.00  0.00    -0.254 C  
BRANCH  22  23
HETATM   23  C   UNL     1     -10.406   7.926  67.799  1.00  0.00    -0.226 C  
HETATM   24  H1  UNL     1     -11.706   8.315  69.631  1.00  0.00     0.000 HD 
HETATM   25  N   UNL     1     -11.125   8.142  68.812  1.00  0.00    -0.376 NA 
HETATM   26  H2  UNL     1     -11.501   8.996  68.401  1.00  0.00     0.000 HD 
ENDBRANCH  22  23
ENDBRANCH   4  22
TORSDOF 2
ENDMDL
MODEL       30
REMARK 921   NORMALIZED FREE ENERGY PREDICTED BY IDOCK:   -5.71 KCAL/MOL
REMARK 922        TOTAL FREE ENERGY PREDICTED BY IDOCK:   -6.64 KCAL/MOL
REMARK 923 INTER-LIGAND FREE ENERGY PREDICTED BY IDOCK:   -6.79 KCAL/MOL
REMARK 924 INTRA-LIGAND FREE ENERGY PREDICTED BY IDOCK:    0.14 KCAL/MOL
REMARK 927      BINDING AFFINITY PREDICTED BY RF-SCORE:    0.00 PKD
ROOT
HETATM    1  C   UNL     1     -10.764  16.845  68.216  1.00  0.00    -0.377 C  
HETATM    2  C   UNL     1     -10.742  16.630  69.622  1.00  0.00    -0.286 C  
HETATM    3  C   UNL     1      -9.479  16.500  68.863  1.00  0.00    -0.260 C  
HETATM    4  C   UNL     1      -9.511  17.107  66.882  1.00  0.00    -0.259 C  
HETATM    5  O   UNL     1      -8.368  17.272  65.996  1.00  0.00    -0.490 OA 
HETATM    6  C   UNL     1     -10.562  11.005  68.884  1.00  0.00    -0.239 C  
HETATM    7  C   UNL     1      -9.075  17.769  67.999  1.00  0.00    -0.269 C  
HETATM    8  C   UNL     1      -7.536  16.675  67.989  1.00  0.00    -0.171 C  
HETATM    9  C   UNL     1      -8.990  19.218  68.373  1.00  0.00    -0.397 C  
HETATM   10  C   UNL     1     -10.727  15.109  67.477  1.00  0.00    -0.284 C  
HETATM   11  H   UNL     1      -8.383  17.551  65.087  1.00  0.00     0.000 HD 
HETATM   12  C   UNL     1      -7.921  15.080  67.321  1.00  0.00    -0.234 C  
HETATM   13  C   UNL     1     -12.015  14.354  67.874  1.00  0.00    -0.348 C  
HETATM   14  C   UNL     1     -11.906  12.924  68.366  1.00  0.00    -0.357 C  
HETATM   15  C   UNL     1      -9.347  14.273  67.597  1.00  0.00    -0.201 C  
HETATM   16  C   UNL     1     -10.553  12.264  68.427  1.00  0.00    -0.250 C  
HETATM   17  C   UNL     1      -9.345  12.985  68.045  1.00  0.00    -0.213 C  
HETATM   18  C   UNL     1      -8.041  12.240  68.226  1.00  0.00    -0.166 C  
HETATM   19  C   UNL     1      -8.017  10.799  68.728  1.00  0.00    -0.136 C  
HETATM   20  C   UNL     1      -9.350  10.201  69.055  1.00  0.00    -0.188 C  
HETATM   21  O   UNL     1      -9.449   9.045  69.474  1.00  0.00    -0.158 OA 
ENDROOT
BRANCH   4  22
HETATM   22  C   UNL     1     -10.621  18.168  65.843  1.00  0.00    -0.247 C  
BRANCH  22  23
HETATM   23  C   UNL     1     -10.996  17.059  64.873  1.00  0.00     0.092 C  
HETATM   24  H1  UNL     1     -11.556  15.395  63.418  1.00  0.00     0.000 HD 
HETATM   25  N   UNL     1     -11.305  16.139  64.068  1.00  0.00    -1.347 NA 
HETATM   26  H2  UNL     1     -10.450  16.280  63.531  1.00  0.00     0.000 HD 
ENDBRANCH  22  23
ENDBRANCH   4  22
TORSDOF 2
ENDMDL
MODEL       31
REMARK 921   NORMALIZED FREE ENERGY PREDICTED BY IDOCK:   -5.69 KCAL/MOL
REMARK 922        TOTAL FREE ENERGY PREDICTED BY IDOCK:   -6.61 KCAL/MOL
REMARK 923 INTER-LIGAND FREE ENERGY PREDICTED BY IDOCK:   -6.20 KCAL/MOL
REMARK 924 INTRA-LIGAND FREE ENERGY PREDICTED BY IDOCK:   -0.41 KCAL/MOL
REMARK 927      BINDING AFFINITY PREDICTED BY RF-SCORE:    0.00 PKD
ROOT
HETATM    1  C   UNL     1     -10.186  10.455  69.606  1.00  0.00    -0.245 C  
HETATM    2  C   UNL     1     -11.592  10.630  69.732  1.00  0.00    -0.385 C  
HETATM    3  C   UNL     1     -11.072   9.853  68.586  1.00  0.00    -0.182 C  
HETATM    4  C   UNL     1      -9.054   9.382  68.611  1.00  0.00    -0.132 C  
HETATM    5  O   UNL     1      -8.354   8.467  67.722  1.00  0.00    -0.127 OA 
HETATM    6  C   UNL     1     -11.580  14.627  65.701  1.00  0.00    -0.328 C  
HETATM    7  C   UNL     1     -10.139   8.627  68.967  1.00  0.00    -0.207 C  
HETATM    8  C   UNL     1     -10.514   8.388  67.132  1.00  0.00    -0.380 C  
HETATM    9  C   UNL     1     -10.343   7.512  69.948  1.00  0.00    -0.224 C  
HETATM   10  C   UNL     1      -9.679  11.689  68.271  1.00  0.00    -0.197 C  
HETATM   11  H   UNL     1      -7.429   8.252  67.734  1.00  0.00     0.000 HD 
HETATM   12  C   UNL     1      -9.990   9.806  66.209  1.00  0.00    -0.331 C  
HETATM   13  C   UNL     1      -9.947  13.126  68.772  1.00  0.00    -0.038 C  
HETATM   14  C   UNL     1     -10.620  14.115  67.839  1.00  0.00    -0.244 C  
HETATM   15  C   UNL     1     -10.125  11.372  66.749  1.00  0.00    -0.250 C  
HETATM   16  C   UNL     1     -10.982  13.684  66.442  1.00  0.00    -0.297 C  
HETATM   17  C   UNL     1     -10.719  12.328  65.980  1.00  0.00    -0.296 C  
HETATM   18  C   UNL     1     -11.201  11.996  64.584  1.00  0.00    -0.380 C  
HETATM   19  C   UNL     1     -11.871  13.051  63.708  1.00  0.00    -0.566 C  
HETATM   20  C   UNL     1     -12.044  14.401  64.331  1.00  0.00    -0.470 C  
HETATM   21  O   UNL     1     -12.578  15.328  63.716  1.00  0.00    -0.733 OA 
ENDROOT
BRANCH   4  22
HETATM   22  C   UNL     1      -7.725   9.332  69.904  1.00  0.00    -0.101 C  
BRANCH  22  23
HETATM   23  C   UNL     1      -6.576   9.479  68.920  1.00  0.00    -0.047 C  
HETATM   24  H1  UNL     1      -4.852   9.699  67.445  1.00  0.00     0.000 HD 
HETATM   25  N   UNL     1      -5.623   9.600  68.105  1.00  0.00    -0.040 NA 
HETATM   26  H2  UNL     1      -5.349   8.626  68.234  1.00  0.00     0.000 HD 
ENDBRANCH  22  23
ENDBRANCH   4  22
TORSDOF 2
ENDMDL
MODEL       32
REMARK 921   NORMALIZED FREE ENERGY PREDICTED BY IDOCK:   -5.64 KCAL/MOL
REMARK 922        TOTAL FREE ENERGY PREDICTED BY IDOCK:   -6.56 KCAL/MOL
REMARK 923 INTER-LIGAND FREE ENERGY PREDICTED BY IDOCK:   -6.15 KCAL/MOL
REMARK 924 INTRA-LIGAND FREE ENERGY PREDICTED BY IDOCK:   -0.41 KCAL/MOL
REMARK 927      BINDING AFFINITY PREDICTED BY RF-SCORE:    0.00 PKD
ROOT
HETATM    1  C   UNL     1      -8.568   9.736  65.927  1.00  0.00    -0.149 C  
HETATM    2  C   UNL     1      -7.727  10.314  64.936  1.00  0.00    -0.124 C  
HETATM    3  C   UNL     1      -7.669  10.844  66.317  1.00  0.00    -0.147 C  
HETATM    4  C   UNL     1      -8.690   9.780  67.772  1.00  0.00    -0.129 C  
HETATM    5  O   UNL     1      -8.619   9.973  69.213  1.00  0.00    -0.143 OA 
HETATM    6  C   UNL     1     -11.168  14.804  64.459  1.00  0.00    -0.283 C  
HETATM    7  C   UNL     1      -7.361   9.768  67.442  1.00  0.00    -0.090 C  
HETATM    8  C   UNL     1      -7.180  11.434  68.312  1.00  0.00    -0.082 C  
HETATM    9  C   UNL     1      -6.284   8.730  67.532  1.00  0.00    -0.052 C  
HETATM   10  C   UNL     1      -9.984  10.970  66.117  1.00  0.00    -0.277 C  
HETATM   11  H   UNL     1      -9.088   9.484  69.880  1.00  0.00     0.000 HD 
HETATM   12  C   UNL     1      -8.685  12.360  68.185  1.00  0.00    -0.190 C  
HETATM   13  C   UNL     1     -10.775  11.051  64.793  1.00  0.00    -0.304 C  
HETATM   14  C   UNL     1     -11.161  12.414  64.251  1.00  0.00    -0.408 C  
HETATM   15  C   UNL     1      -9.655  12.381  66.837  1.00  0.00    -0.219 C  
HETATM   16  C   UNL     1     -10.791  13.650  65.027  1.00  0.00    -0.358 C  
HETATM   17  C   UNL     1     -10.049  13.561  66.278  1.00  0.00    -0.298 C  
HETATM   18  C   UNL     1      -9.669  14.876  66.921  1.00  0.00    -0.248 C  
HETATM   19  C   UNL     1     -10.096  16.208  66.309  1.00  0.00    -0.337 C  
HETATM   20  C   UNL     1     -10.874  16.118  65.033  1.00  0.00    -0.363 C  
HETATM   21  O   UNL     1     -11.266  17.132  64.448  1.00  0.00    -1.143 OA 
ENDROOT
BRANCH   4  22
HETATM   22  C   UNL     1      -9.379   8.065  67.915  1.00  0.00    -0.148 C  
BRANCH  22  23
HETATM   23  C   UNL     1     -10.357   8.405  69.027  1.00  0.00    -0.218 C  
HETATM   24  H1  UNL     1     -11.825   8.918  70.696  1.00  0.00     0.000 HD 
HETATM   25  N   UNL     1     -11.169   8.689  69.949  1.00  0.00    -0.440 NA 
HETATM   26  H2  UNL     1     -11.658   9.357  69.354  1.00  0.00     0.000 HD 
ENDBRANCH  22  23
ENDBRANCH   4  22
TORSDOF 2
ENDMDL
MODEL       33
REMARK 921   NORMALIZED FREE ENERGY PREDICTED BY IDOCK:   -5.59 KCAL/MOL
REMARK 922        TOTAL FREE ENERGY PREDICTED BY IDOCK:   -6.51 KCAL/MOL
REMARK 923 INTER-LIGAND FREE ENERGY PREDICTED BY IDOCK:   -6.11 KCAL/MOL
REMARK 924 INTRA-LIGAND FREE ENERGY PREDICTED BY IDOCK:   -0.40 KCAL/MOL
REMARK 927      BINDING AFFINITY PREDICTED BY RF-SCORE:    0.00 PKD
ROOT
HETATM    1  C   UNL     1     -11.339  11.944  67.226  1.00  0.00    -0.393 C  
HETATM    2  C   UNL     1     -11.635  12.689  66.052  1.00  0.00    -0.443 C  
HETATM    3  C   UNL     1     -10.218  12.440  66.399  1.00  0.00    -0.253 C  
HETATM    4  C   UNL     1      -9.852  11.109  67.944  1.00  0.00    -0.174 C  
HETATM    5  O   UNL     1      -8.568  10.547  68.333  1.00  0.00    -0.121 OA 
HETATM    6  C   UNL     1     -10.348  17.557  68.673  1.00  0.00    -0.369 C  
HETATM    7  C   UNL     1      -9.826  10.914  66.589  1.00  0.00    -0.237 C  
HETATM    8  C   UNL     1      -8.175  11.828  66.537  1.00  0.00    -0.066 C  
HETATM    9  C   UNL     1     -10.078   9.725  65.712  1.00  0.00    -0.308 C  
HETATM   10  C   UNL     1     -10.831  13.247  68.493  1.00  0.00    -0.286 C  
HETATM   11  H   UNL     1      -8.400   9.936  69.041  1.00  0.00     0.000 HD 
HETATM   12  C   UNL     1      -8.111  13.054  67.815  1.00  0.00    -0.168 C  
HETATM   13  C   UNL     1     -12.035  14.168  68.792  1.00  0.00    -0.367 C  
HETATM   14  C   UNL     1     -11.817  15.668  68.839  1.00  0.00    -0.368 C  
HETATM   15  C   UNL     1      -9.406  13.983  68.280  1.00  0.00    -0.208 C  
HETATM   16  C   UNL     1     -10.433  16.221  68.622  1.00  0.00    -0.282 C  
HETATM   17  C   UNL     1      -9.304  15.341  68.346  1.00  0.00    -0.194 C  
HETATM   18  C   UNL     1      -7.982  16.022  68.069  1.00  0.00    -0.142 C  
HETATM   19  C   UNL     1      -7.847  17.542  68.134  1.00  0.00    -0.244 C  
HETATM   20  C   UNL     1      -9.101  18.294  68.453  1.00  0.00    -0.316 C  
HETATM   21  O   UNL     1      -9.109  19.526  68.526  1.00  0.00    -0.351 OA 
ENDROOT
BRANCH   4  22
HETATM   22  C   UNL     1     -10.827   9.792  68.811  1.00  0.00    -0.219 C  
BRANCH  22  23
HETATM   23  C   UNL     1      -9.928   9.744  70.036  1.00  0.00    -0.254 C  
HETATM   24  H1  UNL     1      -8.581   9.673  71.874  1.00  0.00     0.000 HD 
HETATM   25  N   UNL     1      -9.184   9.704  71.052  1.00  0.00    -0.343 NA 
HETATM   26  H2  UNL     1      -9.870   9.157  71.571  1.00  0.00     0.000 HD 
ENDBRANCH  22  23
ENDBRANCH   4  22
TORSDOF 2
ENDMDL
MODEL       34
REMARK 921   NORMALIZED FREE ENERGY PREDICTED BY IDOCK:   -5.59 KCAL/MOL
REMARK 922        TOTAL FREE ENERGY PREDICTED BY IDOCK:   -6.51 KCAL/MOL
REMARK 923 INTER-LIGAND FREE ENERGY PREDICTED BY IDOCK:   -6.57 KCAL/MOL
REMARK 924 INTRA-LIGAND FREE ENERGY PREDICTED BY IDOCK:    0.07 KCAL/MOL
REMARK 927      BINDING AFFINITY PREDICTED BY RF-SCORE:    0.00 PKD
ROOT
HETATM    1  C   UNL     1     -11.256  16.553  67.638  1.00  0.00    -0.038 C  
HETATM    2  C   UNL     1     -11.615  15.881  68.839  1.00  0.00    -0.392 C  
HETATM    3  C   UNL     1     -10.181  16.014  68.500  1.00  0.00    -0.236 C  
HETATM    4  C   UNL     1      -9.706  17.249  66.905  1.00  0.00    -0.273 C  
HETATM    5  O   UNL     1      -8.381  17.702  66.510  1.00  0.00    -0.246 OA 
HETATM    6  C   UNL     1     -10.651  10.826  66.443  1.00  0.00    -0.266 C  
HETATM    7  C   UNL     1      -9.680  17.500  68.251  1.00  0.00    -0.311 C  
HETATM    8  C   UNL     1      -8.098  16.475  68.362  1.00  0.00    -0.196 C  
HETATM    9  C   UNL     1      -9.855  18.740  69.073  1.00  0.00    -0.351 C  
HETATM   10  C   UNL     1     -10.829  15.164  66.434  1.00  0.00    -0.326 C  
HETATM   11  H   UNL     1      -8.164  18.268  65.778  1.00  0.00     0.000 HD 
HETATM   12  C   UNL     1      -8.109  15.194  67.139  1.00  0.00    -0.245 C  
HETATM   13  C   UNL     1     -12.092  14.318  66.159  1.00  0.00    -0.424 C  
HETATM   14  C   UNL     1     -11.981  12.805  66.179  1.00  0.00    -0.476 C  
HETATM   15  C   UNL     1      -9.462  14.338  66.697  1.00  0.00    -0.302 C  
HETATM   16  C   UNL     1     -10.642  12.166  66.436  1.00  0.00    -0.275 C  
HETATM   17  C   UNL     1      -9.456  12.975  66.689  1.00  0.00    -0.256 C  
HETATM   18  C   UNL     1      -8.188  12.215  67.012  1.00  0.00    -0.164 C  
HETATM   19  C   UNL     1      -8.161  10.688  67.013  1.00  0.00    -0.120 C  
HETATM   20  C   UNL     1      -9.462  10.013  66.710  1.00  0.00    -0.168 C  
HETATM   21  O   UNL     1      -9.557   8.784  66.689  1.00  0.00    -0.181 OA 
ENDROOT
BRANCH   4  22
HETATM   22  C   UNL     1     -10.577  18.593  65.971  1.00  0.00    -0.410 C  
BRANCH  22  23
HETATM   23  C   UNL     1      -9.453  19.606  66.117  1.00  0.00    -0.369 C  
HETATM   24  H1  UNL     1      -7.768  21.127  66.336  1.00  0.00     0.000 HD 
HETATM   25  N   UNL     1      -8.522  20.447  66.238  1.00  0.00    -0.549 NA 
HETATM   26  H2  UNL     1      -9.184  21.198  66.431  1.00  0.00     0.000 HD 
ENDBRANCH  22  23
ENDBRANCH   4  22
TORSDOF 2
ENDMDL
MODEL       35
REMARK 921   NORMALIZED FREE ENERGY PREDICTED BY IDOCK:   -5.56 KCAL/MOL
REMARK 922        TOTAL FREE ENERGY PREDICTED BY IDOCK:   -6.47 KCAL/MOL
REMARK 923 INTER-LIGAND FREE ENERGY PREDICTED BY IDOCK:   -6.20 KCAL/MOL
REMARK 924 INTRA-LIGAND FREE ENERGY PREDICTED BY IDOCK:   -0.26 KCAL/MOL
REMARK 927      BINDING AFFINITY PREDICTED BY RF-SCORE:    0.00 PKD
ROOT
HETATM    1  C   UNL     1      -8.730  19.177  67.596  1.00  0.00    -0.329 C  
HETATM    2  C   UNL     1      -9.695  18.867  68.593  1.00  0.00    -0.454 C  
HETATM    3  C   UNL     1      -8.466  18.046  68.513  1.00  0.00    -0.314 C  
HETATM    4  C   UNL     1      -6.972  18.720  67.245  1.00  0.00    -0.204 C  
HETATM    5  O   UNL     1      -5.611  18.214  67.146  1.00  0.00    -0.132 OA 
HETATM    6  C   UNL     1     -11.599  14.466  65.556  1.00  0.00    -0.347 C  
HETATM    7  C   UNL     1      -7.104  18.856  68.601  1.00  0.00    -0.327 C  
HETATM    8  C   UNL     1      -6.596  17.047  68.784  1.00  0.00    -0.187 C  
HETATM    9  C   UNL     1      -6.645  19.890  69.584  1.00  0.00    -0.373 C  
HETATM   10  C   UNL     1      -9.007  17.878  66.256  1.00  0.00    -0.192 C  
HETATM   11  H   UNL     1      -4.926  18.523  66.564  1.00  0.00     0.000 HD 
HETATM   12  C   UNL     1      -7.127  16.114  67.375  1.00  0.00    -0.209 C  
HETATM   13  C   UNL     1     -10.414  18.063  65.646  1.00  0.00    -0.101 C  
HETATM   14  C   UNL     1     -11.285  16.840  65.426  1.00  0.00     0.201 C  
HETATM   15  C   UNL     1      -8.569  16.355  66.586  1.00  0.00    -0.295 C  
HETATM   16  C   UNL     1     -10.749  15.478  65.779  1.00  0.00    -0.362 C  
HETATM   17  C   UNL     1      -9.418  15.316  66.349  1.00  0.00    -0.326 C  
HETATM   18  C   UNL     1      -9.026  13.906  66.734  1.00  0.00    -0.206 C  
HETATM   19  C   UNL     1      -9.964  12.728  66.479  1.00  0.00    -0.256 C  
HETATM   20  C   UNL     1     -11.286  13.069  65.865  1.00  0.00    -0.289 C  
HETATM   21  O   UNL     1     -12.123  12.196  65.621  1.00  0.00    -0.545 OA 
ENDROOT
BRANCH   4  22
HETATM   22  C   UNL     1      -6.560  20.332  66.427  1.00  0.00    -0.259 C  
BRANCH  22  23
HETATM   23  C   UNL     1      -6.203  19.714  65.085  1.00  0.00    -0.258 C  
HETATM   24  H1  UNL     1      -5.666  18.786  63.073  1.00  0.00     0.000 HD 
HETATM   25  N   UNL     1      -5.906  19.200  63.973  1.00  0.00    -0.440 NA 
HETATM   26  H2  UNL     1      -5.896  18.263  64.374  1.00  0.00     0.000 HD 
ENDBRANCH  22  23
ENDBRANCH   4  22
TORSDOF 2
ENDMDL
MODEL       36
REMARK 921   NORMALIZED FREE ENERGY PREDICTED BY IDOCK:   -5.51 KCAL/MOL
REMARK 922        TOTAL FREE ENERGY PREDICTED BY IDOCK:   -6.42 KCAL/MOL
REMARK 923 INTER-LIGAND FREE ENERGY PREDICTED BY IDOCK:   -6.10 KCAL/MOL
REMARK 924 INTRA-LIGAND FREE ENERGY PREDICTED BY IDOCK:   -0.32 KCAL/MOL
REMARK 927      BINDING AFFINITY PREDICTED BY RF-SCORE:    0.00 PKD
ROOT
HETATM    1  C   UNL     1     -10.773  11.599  66.370  1.00  0.00    -0.316 C  
HETATM    2  C   UNL     1     -10.240  11.688  65.055  1.00  0.00    -0.321 C  
HETATM    3  C   UNL     1      -9.304  11.570  66.195  1.00  0.00    -0.230 C  
HETATM    4  C   UNL     1     -10.134  11.150  68.047  1.00  0.00    -0.174 C  
HETATM    5  O   UNL     1      -9.424  10.787  69.264  1.00  0.00    -0.342 OA 
HETATM    6  C   UNL     1      -8.885  17.144  65.840  1.00  0.00    -0.008 C  
HETATM    7  C   UNL     1      -9.542  10.315  67.137  1.00  0.00    -0.199 C  
HETATM    8  C   UNL     1      -7.865  11.002  67.670  1.00  0.00    -0.114 C  
HETATM    9  C   UNL     1      -9.710   8.863  66.806  1.00  0.00    -0.282 C  
HETATM   10  C   UNL     1     -10.538  13.329  67.088  1.00  0.00    -0.259 C  
HETATM   11  H   UNL     1      -9.805  10.594  70.113  1.00  0.00     0.000 HD 
HETATM   12  C   UNL     1      -8.028  12.692  68.178  1.00  0.00    -0.158 C  
HETATM   13  C   UNL     1     -11.390  14.337  66.285  1.00  0.00    -0.347 C  
HETATM   14  C   UNL     1     -10.766  15.655  65.866  1.00  0.00    -0.336 C  
HETATM   15  C   UNL     1      -9.030  13.794  67.443  1.00  0.00    -0.224 C  
HETATM   16  C   UNL     1      -9.346  15.961  66.267  1.00  0.00    -0.357 C  
HETATM   17  C   UNL     1      -8.555  15.003  67.029  1.00  0.00    -0.266 C  
HETATM   18  C   UNL     1      -7.119  15.393  67.300  1.00  0.00    -0.206 C  
HETATM   19  C   UNL     1      -6.566  16.741  66.843  1.00  0.00    -0.248 C  
HETATM   20  C   UNL     1      -7.521  17.615  66.091  1.00  0.00    -0.299 C  
HETATM   21  O   UNL     1      -7.180  18.723  65.669  1.00  0.00    -0.448 OA 
ENDROOT
BRANCH   4  22
HETATM   22  C   UNL     1     -11.754  10.477  68.647  1.00  0.00    -0.157 C  
BRANCH  22  23
HETATM   23  C   UNL     1     -11.854  11.414  69.839  1.00  0.00    -0.359 C  
HETATM   24  H1  UNL     1     -12.006  12.818  71.630  1.00  0.00     0.000 HD 
HETATM   25  N   UNL     1     -11.939  12.189  70.829  1.00  0.00    -0.447 NA 
HETATM   26  H2  UNL     1     -12.521  11.525  71.339  1.00  0.00     0.000 HD 
ENDBRANCH  22  23
ENDBRANCH   4  22
TORSDOF 2
ENDMDL
MODEL       37
REMARK 921   NORMALIZED FREE ENERGY PREDICTED BY IDOCK:   -5.50 KCAL/MOL
REMARK 922        TOTAL FREE ENERGY PREDICTED BY IDOCK:   -6.40 KCAL/MOL
REMARK 923 INTER-LIGAND FREE ENERGY PREDICTED BY IDOCK:   -6.02 KCAL/MOL
REMARK 924 INTRA-LIGAND FREE ENERGY PREDICTED BY IDOCK:   -0.39 KCAL/MOL
REMARK 927      BINDING AFFINITY PREDICTED BY RF-SCORE:    0.00 PKD
ROOT
HETATM    1  C   UNL     1      -8.917   9.046  66.657  1.00  0.00    -0.163 C  
HETATM    2  C   UNL     1     -10.015   8.164  66.462  1.00  0.00    -0.302 C  
HETATM    3  C   UNL     1     -10.270   9.621  66.495  1.00  0.00    -0.294 C  
HETATM    4  C   UNL     1      -8.611  10.862  66.486  1.00  0.00    -0.156 C  
HETATM    5  O   UNL     1      -8.596  12.306  66.308  1.00  0.00    -0.399 OA 
HETATM    6  C   UNL     1     -11.644   8.799  71.862  1.00  0.00    -0.432 C  
HETATM    7  C   UNL     1      -9.429  10.478  65.457  1.00  0.00    -0.265 C  
HETATM    8  C   UNL     1     -10.736  11.672  66.115  1.00  0.00    -0.325 C  
HETATM    9  C   UNL     1      -9.220  10.299  63.984  1.00  0.00    -0.311 C  
HETATM   10  C   UNL     1      -9.042   9.556  68.470  1.00  0.00    -0.131 C  
HETATM   11  H   UNL     1      -7.835  12.876  66.304  1.00  0.00     0.000 HD 
HETATM   12  C   UNL     1     -10.610  11.811  67.877  1.00  0.00    -0.231 C  
HETATM   13  C   UNL     1      -8.835   8.314  69.367  1.00  0.00    -0.146 C  
HETATM   14  C   UNL     1      -9.774   8.090  70.537  1.00  0.00    -0.179 C  
HETATM   15  C   UNL     1     -10.254  10.542  68.888  1.00  0.00    -0.223 C  
HETATM   16  C   UNL     1     -10.863   9.093  70.814  1.00  0.00    -0.331 C  
HETATM   17  C   UNL     1     -11.045  10.263  69.963  1.00  0.00    -0.373 C  
HETATM   18  C   UNL     1     -12.222  11.152  70.298  1.00  0.00    -0.436 C  
HETATM   19  C   UNL     1     -13.122  10.854  71.495  1.00  0.00    -0.503 C  
HETATM   20  C   UNL     1     -12.780   9.624  72.277  1.00  0.00    -0.282 C  
HETATM   21  O   UNL     1     -13.443   9.285  73.261  1.00  0.00     0.049 OA 
ENDROOT
BRANCH   4  22
HETATM   22  C   UNL     1      -6.819  10.670  66.050  1.00  0.00    -0.129 C  
BRANCH  22  23
HETATM   23  C   UNL     1      -6.378  11.957  66.726  1.00  0.00    -0.038 C  
HETATM   24  H1  UNL     1      -5.716  13.888  67.743  1.00  0.00     0.000 HD 
HETATM   25  N   UNL     1      -6.012  13.024  67.289  1.00  0.00    -0.417 NA 
HETATM   26  H2  UNL     1      -6.412  12.728  68.179  1.00  0.00     0.000 HD 
ENDBRANCH  22  23
ENDBRANCH   4  22
TORSDOF 2
ENDMDL
MODEL       38
REMARK 921   NORMALIZED FREE ENERGY PREDICTED BY IDOCK:   -5.49 KCAL/MOL
REMARK 922        TOTAL FREE ENERGY PREDICTED BY IDOCK:   -6.40 KCAL/MOL
REMARK 923 INTER-LIGAND FREE ENERGY PREDICTED BY IDOCK:   -6.04 KCAL/MOL
REMARK 924 INTRA-LIGAND FREE ENERGY PREDICTED BY IDOCK:   -0.36 KCAL/MOL
REMARK 927      BINDING AFFINITY PREDICTED BY RF-SCORE:    0.00 PKD
ROOT
HETATM    1  C   UNL     1     -10.418  10.796  65.879  1.00  0.00    -0.270 C  
HETATM    2  C   UNL     1     -10.234  11.230  64.538  1.00  0.00    -0.370 C  
HETATM    3  C   UNL     1      -9.080  11.272  65.465  1.00  0.00    -0.184 C  
HETATM    4  C   UNL     1      -9.328  10.359  67.308  1.00  0.00    -0.146 C  
HETATM    5  O   UNL     1      -8.296  10.087  68.298  1.00  0.00    -0.108 OA 
HETATM    6  C   UNL     1     -10.406  16.671  66.147  1.00  0.00    -0.340 C  
HETATM    7  C   UNL     1      -8.728   9.894  66.168  1.00  0.00    -0.150 C  
HETATM    8  C   UNL     1      -7.254  11.013  66.544  1.00  0.00    -0.143 C  
HETATM    9  C   UNL     1      -8.530   8.525  65.591  1.00  0.00    -0.170 C  
HETATM   10  C   UNL     1     -10.552  12.394  66.875  1.00  0.00    -0.251 C  
HETATM   11  H   UNL     1      -8.410   9.668  69.144  1.00  0.00     0.000 HD 
HETATM   12  C   UNL     1      -7.792  12.472  67.393  1.00  0.00    -0.175 C  
HETATM   13  C   UNL     1     -11.816  13.167  66.435  1.00  0.00    -0.455 C  
HETATM   14  C   UNL     1     -11.713  14.660  66.187  1.00  0.00    -0.316 C  
HETATM   15  C   UNL     1      -9.208  13.274  67.063  1.00  0.00    -0.237 C  
HETATM   16  C   UNL     1     -10.394  15.356  66.402  1.00  0.00    -0.303 C  
HETATM   17  C   UNL     1      -9.211  14.616  66.822  1.00  0.00    -0.285 C  
HETATM   18  C   UNL     1      -7.930  15.414  66.927  1.00  0.00    -0.230 C  
HETATM   19  C   UNL     1      -7.911  16.917  66.658  1.00  0.00    -0.300 C  
HETATM   20  C   UNL     1      -9.220  17.524  66.259  1.00  0.00    -0.203 C  
HETATM   21  O   UNL     1      -9.320  18.728  66.013  1.00  0.00    -0.478 OA 
ENDROOT
BRANCH   4  22
HETATM   22  C   UNL     1     -10.508   9.119  68.021  1.00  0.00    -0.276 C  
BRANCH  22  23
HETATM   23  C   UNL     1     -10.565   9.764  69.396  1.00  0.00    -0.228 C  
HETATM   24  H1  UNL     1     -10.649  10.731  71.459  1.00  0.00     0.000 HD 
HETATM   25  N   UNL     1     -10.611  10.299  70.536  1.00  0.00    -0.421 NA 
HETATM   26  H2  UNL     1      -9.593  10.336  70.593  1.00  0.00     0.000 HD 
ENDBRANCH  22  23
ENDBRANCH   4  22
TORSDOF 2
ENDMDL
MODEL       39
REMARK 921   NORMALIZED FREE ENERGY PREDICTED BY IDOCK:   -5.49 KCAL/MOL
REMARK 922        TOTAL FREE ENERGY PREDICTED BY IDOCK:   -6.39 KCAL/MOL
REMARK 923 INTER-LIGAND FREE ENERGY PREDICTED BY IDOCK:   -6.35 KCAL/MOL
REMARK 924 INTRA-LIGAND FREE ENERGY PREDICTED BY IDOCK:   -0.04 KCAL/MOL
REMARK 927      BINDING AFFINITY PREDICTED BY RF-SCORE:    0.00 PKD
ROOT
HETATM    1  C   UNL     1      -8.949  15.275  68.181  1.00  0.00    -0.173 C  
HETATM    2  C   UNL     1      -8.048  15.605  67.132  1.00  0.00    -0.247 C  
HETATM    3  C   UNL     1      -9.458  15.313  66.793  1.00  0.00    -0.264 C  
HETATM    4  C   UNL     1     -10.783  15.128  68.375  1.00  0.00    -0.248 C  
HETATM    5  O   UNL     1     -12.234  15.050  68.300  1.00  0.00    -0.568 OA 
HETATM    6  C   UNL     1      -7.629  10.153  65.609  1.00  0.00    -0.144 C  
HETATM    7  C   UNL     1     -10.534  16.196  67.554  1.00  0.00    -0.302 C  
HETATM    8  C   UNL     1     -11.511  15.319  66.197  1.00  0.00    -0.083 C  
HETATM    9  C   UNL     1     -10.627  17.681  67.736  1.00  0.00    -0.380 C  
HETATM   10  C   UNL     1      -9.126  13.399  68.073  1.00  0.00    -0.205 C  
HETATM   11  H   UNL     1     -12.842  14.965  69.026  1.00  0.00     0.000 HD 
HETATM   12  C   UNL     1     -11.348  13.563  66.360  1.00  0.00    -0.335 C  
HETATM   13  C   UNL     1      -7.763  12.737  68.376  1.00  0.00    -0.132 C  
HETATM   14  C   UNL     1      -7.280  11.610  67.483  1.00  0.00    -0.119 C  
HETATM   15  C   UNL     1      -9.947  12.795  66.816  1.00  0.00    -0.237 C  
HETATM   16  C   UNL     1      -8.149  11.145  66.344  1.00  0.00    -0.159 C  
HETATM   17  C   UNL     1      -9.435  11.774  66.072  1.00  0.00    -0.245 C  
HETATM   18  C   UNL     1     -10.177  11.271  64.853  1.00  0.00    -0.341 C  
HETATM   19  C   UNL     1      -9.620  10.130  64.004  1.00  0.00    -0.320 C  
HETATM   20  C   UNL     1      -8.297   9.582  64.437  1.00  0.00    -0.171 C  
HETATM   21  O   UNL     1      -7.750   8.664  63.821  1.00  0.00    -0.121 OA 
ENDROOT
BRANCH   4  22
HETATM   22  C   UNL     1     -10.782  15.619  70.163  1.00  0.00    -0.355 C  
BRANCH  22  23
HETATM   23  C   UNL     1     -12.289  15.523  70.329  1.00  0.00    -0.396 C  
HETATM   24  H1  UNL     1     -14.551  15.379  70.577  1.00  0.00     0.000 HD 
HETATM   25  N   UNL     1     -13.540  15.443  70.466  1.00  0.00    -0.810 NA 
HETATM   26  H2  UNL     1     -13.557  14.515  70.042  1.00  0.00     0.000 HD 
ENDBRANCH  22  23
ENDBRANCH   4  22
TORSDOF 2
ENDMDL
MODEL       40
REMARK 921   NORMALIZED FREE ENERGY PREDICTED BY IDOCK:   -5.49 KCAL/MOL
REMARK 922        TOTAL FREE ENERGY PREDICTED BY IDOCK:   -6.39 KCAL/MOL
REMARK 923 INTER-LIGAND FREE ENERGY PREDICTED BY IDOCK:   -5.98 KCAL/MOL
REMARK 924 INTRA-LIGAND FREE ENERGY PREDICTED BY IDOCK:   -0.41 KCAL/MOL
REMARK 927      BINDING AFFINITY PREDICTED BY RF-SCORE:    0.00 PKD
ROOT
HETATM    1  C   UNL     1      -9.563  17.097  66.241  1.00  0.00    -0.273 C  
HETATM    2  C   UNL     1     -10.907  16.950  65.800  1.00  0.00    -0.061 C  
HETATM    3  C   UNL     1     -10.633  17.807  66.975  1.00  0.00    -0.266 C  
HETATM    4  C   UNL     1      -8.646  18.219  67.391  1.00  0.00    -0.249 C  
HETATM    5  O   UNL     1      -8.132  19.186  68.349  1.00  0.00    -0.315 OA 
HETATM    6  C   UNL     1     -12.020  13.307  70.008  1.00  0.00    -0.399 C  
HETATM    7  C   UNL     1      -9.582  18.971  66.733  1.00  0.00    -0.374 C  
HETATM    8  C   UNL     1     -10.364  19.373  68.405  1.00  0.00    -0.461 C  
HETATM    9  C   UNL     1      -9.500  20.005  65.651  1.00  0.00     0.026 C  
HETATM   10  C   UNL     1      -9.438  15.966  67.747  1.00  0.00    -0.216 C  
HETATM   11  H   UNL     1      -7.220  19.375  68.540  1.00  0.00     0.000 HD 
HETATM   12  C   UNL     1     -10.136  18.023  69.529  1.00  0.00     0.185 C  
HETATM   13  C   UNL     1      -9.649  14.500  67.306  1.00  0.00    -0.226 C  
HETATM   14  C   UNL     1     -10.565  13.612  68.125  1.00  0.00    -0.255 C  
HETATM   15  C   UNL     1     -10.212  16.423  69.092  1.00  0.00    -0.280 C  
HETATM   16  C   UNL     1     -11.223  14.168  69.361  1.00  0.00    -0.298 C  
HETATM   17  C   UNL     1     -11.013  15.551  69.769  1.00  0.00    -0.299 C  
HETATM   18  C   UNL     1     -11.791  16.012  70.982  1.00  0.00    -0.435 C  
HETATM   19  C   UNL     1     -12.695  15.052  71.752  1.00  0.00    -0.411 C  
HETATM   20  C   UNL     1     -12.780  13.660  71.209  1.00  0.00    -0.361 C  
HETATM   21  O   UNL     1     -13.485  12.803  71.748  1.00  0.00    -0.390 OA 
ENDROOT
BRANCH   4  22
HETATM   22  C   UNL     1      -7.052  18.125  66.449  1.00  0.00    -0.274 C  
BRANCH  22  23
HETATM   23  C   UNL     1      -6.169  18.075  67.685  1.00  0.00    -0.169 C  
HETATM   24  H1  UNL     1      -4.844  18.002  69.539  1.00  0.00     0.000 HD 
HETATM   25  N   UNL     1      -5.436  18.036  68.710  1.00  0.00    -0.179 NA 
HETATM   26  H2  UNL     1      -5.344  19.051  68.721  1.00  0.00     0.000 HD 
ENDBRANCH  22  23
ENDBRANCH   4  22
TORSDOF 2
ENDMDL
MODEL       41
REMARK 921   NORMALIZED FREE ENERGY PREDICTED BY IDOCK:   -5.48 KCAL/MOL
REMARK 922        TOTAL FREE ENERGY PREDICTED BY IDOCK:   -6.38 KCAL/MOL
REMARK 923 INTER-LIGAND FREE ENERGY PREDICTED BY IDOCK:   -5.97 KCAL/MOL
REMARK 924 INTRA-LIGAND FREE ENERGY PREDICTED BY IDOCK:   -0.41 KCAL/MOL
REMARK 927      BINDING AFFINITY PREDICTED BY RF-SCORE:    0.00 PKD
ROOT
HETATM    1  C   UNL     1      -8.049   7.443  68.782  1.00  0.00    -0.128 C  
HETATM    2  C   UNL     1      -7.435   8.126  69.868  1.00  0.00    -0.069 C  
HETATM    3  C   UNL     1      -8.452   7.092  70.162  1.00  0.00    -0.139 C  
HETATM    4  C   UNL     1      -9.094   5.932  68.569  1.00  0.00    -0.111 C  
HETATM    5  O   UNL     1      -9.918   4.734  68.632  1.00  0.00    -0.155 OA 
HETATM    6  C   UNL     1     -12.030  11.382  70.578  1.00  0.00    -0.451 C  
HETATM    7  C   UNL     1      -8.163   5.662  69.537  1.00  0.00    -0.103 C  
HETATM    8  C   UNL     1      -9.580   5.376  70.752  1.00  0.00    -0.228 C  
HETATM    9  C   UNL     1      -6.930   4.811  69.575  1.00  0.00    -0.053 C  
HETATM   10  C   UNL     1      -9.743   8.257  68.615  1.00  0.00    -0.162 C  
HETATM   11  H   UNL     1     -10.213   4.202  67.902  1.00  0.00     0.000 HD 
HETATM   12  C   UNL     1     -10.964   6.399  70.334  1.00  0.00    -0.367 C  
HETATM   13  C   UNL     1      -9.563   9.739  68.219  1.00  0.00    -0.155 C  
HETATM   14  C   UNL     1     -10.381  10.795  68.937  1.00  0.00    -0.220 C  
HETATM   15  C   UNL     1     -10.836   7.956  69.770  1.00  0.00    -0.202 C  
HETATM   16  C   UNL     1     -11.366  10.374  69.996  1.00  0.00    -0.384 C  
HETATM   17  C   UNL     1     -11.530   8.972  70.358  1.00  0.00    -0.202 C  
HETATM   18  C   UNL     1     -12.492   8.685  71.490  1.00  0.00    -0.364 C  
HETATM   19  C   UNL     1     -13.277   9.808  72.163  1.00  0.00    -0.530 C  
HETATM   20  C   UNL     1     -13.005  11.189  71.654  1.00  0.00    -0.443 C  
HETATM   21  O   UNL     1     -13.578  12.173  72.129  1.00  0.00    -0.431 OA 
ENDROOT
BRANCH   4  22
HETATM   22  C   UNL     1      -8.454   5.548  66.872  1.00  0.00    -0.110 C  
BRANCH  22  23
HETATM   23  C   UNL     1      -9.823   5.274  66.272  1.00  0.00    -0.182 C  
HETATM   24  H1  UNL     1     -11.878   4.865  65.371  1.00  0.00     0.000 HD 
HETATM   25  N   UNL     1     -10.959   5.049  65.775  1.00  0.00    -0.773 NA 
HETATM   26  H2  UNL     1     -11.351   5.882  66.213  1.00  0.00     0.000 HD 
ENDBRANCH  22  23
ENDBRANCH   4  22
TORSDOF 2
ENDMDL
MODEL       42
REMARK 921   NORMALIZED FREE ENERGY PREDICTED BY IDOCK:   -5.47 KCAL/MOL
REMARK 922        TOTAL FREE ENERGY PREDICTED BY IDOCK:   -6.37 KCAL/MOL
REMARK 923 INTER-LIGAND FREE ENERGY PREDICTED BY IDOCK:   -6.00 KCAL/MOL
REMARK 924 INTRA-LIGAND FREE ENERGY PREDICTED BY IDOCK:   -0.38 KCAL/MOL
REMARK 927      BINDING AFFINITY PREDICTED BY RF-SCORE:    0.00 PKD
ROOT
HETATM    1  C   UNL     1     -10.179  12.540  65.827  1.00  0.00    -0.289 C  
HETATM    2  C   UNL     1     -11.233  11.985  65.049  1.00  0.00    -0.374 C  
HETATM    3  C   UNL     1     -11.345  11.954  66.524  1.00  0.00    -0.403 C  
HETATM    4  C   UNL     1      -9.934  13.030  67.593  1.00  0.00    -0.215 C  
HETATM    5  O   UNL     1      -9.948  13.324  69.019  1.00  0.00    -0.424 OA 
HETATM    6  C   UNL     1      -9.403   6.716  66.107  1.00  0.00    -0.097 C  
HETATM    7  C   UNL     1     -11.215  13.363  67.242  1.00  0.00    -0.319 C  
HETATM    8  C   UNL     1     -11.836  12.196  68.590  1.00  0.00    -0.358 C  
HETATM    9  C   UNL     1     -11.905  14.665  66.971  1.00  0.00    -0.358 C  
HETATM   10  C   UNL     1      -9.206  11.041  66.435  1.00  0.00    -0.192 C  
HETATM   11  H   UNL     1      -9.301  13.818  69.509  1.00  0.00     0.000 HD 
HETATM   12  C   UNL     1     -10.708  10.846  68.802  1.00  0.00    -0.243 C  
HETATM   13  C   UNL     1      -8.585  10.308  65.225  1.00  0.00    -0.175 C  
HETATM   14  C   UNL     1      -8.684   8.797  65.152  1.00  0.00    -0.202 C  
HETATM   15  C   UNL     1      -9.899  10.103  67.556  1.00  0.00    -0.211 C  
HETATM   16  C   UNL     1      -9.358   8.045  66.270  1.00  0.00    -0.246 C  
HETATM   17  C   UNL     1      -9.937   8.748  67.409  1.00  0.00    -0.267 C  
HETATM   18  C   UNL     1     -10.655   7.888  68.426  1.00  0.00    -0.154 C  
HETATM   19  C   UNL     1     -10.711   6.369  68.278  1.00  0.00    -0.351 C  
HETATM   20  C   UNL     1     -10.046   5.809  67.060  1.00  0.00    -0.187 C  
HETATM   21  O   UNL     1     -10.034   4.595  66.837  1.00  0.00    -0.199 OA 
ENDROOT
BRANCH   4  22
HETATM   22  C   UNL     1      -8.737  14.392  67.203  1.00  0.00    -0.243 C  
BRANCH  22  23
HETATM   23  C   UNL     1      -7.955  14.258  68.500  1.00  0.00    -0.145 C  
HETATM   24  H1  UNL     1      -6.782  14.059  70.445  1.00  0.00     0.000 HD 
HETATM   25  N   UNL     1      -7.307  14.149  69.575  1.00  0.00    -0.347 NA 
HETATM   26  H2  UNL     1      -7.242  15.162  69.675  1.00  0.00     0.000 HD 
ENDBRANCH  22  23
ENDBRANCH   4  22
TORSDOF 2
ENDMDL
MODEL       43
REMARK 921   NORMALIZED FREE ENERGY PREDICTED BY IDOCK:   -5.47 KCAL/MOL
REMARK 922        TOTAL FREE ENERGY PREDICTED BY IDOCK:   -6.37 KCAL/MOL
REMARK 923 INTER-LIGAND FREE ENERGY PREDICTED BY IDOCK:   -6.05 KCAL/MOL
REMARK 924 INTRA-LIGAND FREE ENERGY PREDICTED BY IDOCK:   -0.32 KCAL/MOL
REMARK 927      BINDING AFFINITY PREDICTED BY RF-SCORE:    0.00 PKD
ROOT
HETATM    1  C   UNL     1     -11.223   6.106  70.334  1.00  0.00    -0.423 C  
HETATM    2  C   UNL     1     -10.121   5.270  70.004  1.00  0.00    -0.336 C  
HETATM    3  C   UNL     1      -9.994   6.195  71.152  1.00  0.00    -0.218 C  
HETATM    4  C   UNL     1     -11.718   7.168  71.766  1.00  0.00    -0.290 C  
HETATM    5  O   UNL     1     -11.898   7.954  72.977  1.00  0.00    -0.612 OA 
HETATM    6  C   UNL     1      -7.417   9.608  67.535  1.00  0.00    -0.091 C  
HETATM    7  C   UNL     1     -11.113   6.046  72.268  1.00  0.00    -0.324 C  
HETATM    8  C   UNL     1      -9.804   7.160  73.050  1.00  0.00    -0.233 C  
HETATM    9  C   UNL     1     -11.622   4.833  72.985  1.00  0.00    -0.252 C  
HETATM   10  C   UNL     1     -10.751   7.799  69.646  1.00  0.00    -0.223 C  
HETATM   11  H   UNL     1     -12.688   8.400  73.259  1.00  0.00     0.000 HD 
HETATM   12  C   UNL     1      -9.555   8.606  72.057  1.00  0.00    -0.385 C  
HETATM   13  C   UNL     1     -10.648   7.715  68.106  1.00  0.00    -0.187 C  
HETATM   14  C   UNL     1      -9.461   8.358  67.415  1.00  0.00    -0.185 C  
HETATM   15  C   UNL     1      -9.569   8.609  70.396  1.00  0.00    -0.196 C  
HETATM   16  C   UNL     1      -8.430   9.084  68.238  1.00  0.00    -0.129 C  
HETATM   17  C   UNL     1      -8.541   9.160  69.689  1.00  0.00    -0.143 C  
HETATM   18  C   UNL     1      -7.402   9.849  70.408  1.00  0.00    -0.139 C  
HETATM   19  C   UNL     1      -6.241  10.470  69.636  1.00  0.00    -0.063 C  
HETATM   20  C   UNL     1      -6.294  10.321  68.148  1.00  0.00    -0.056 C  
HETATM   21  O   UNL     1      -5.406  10.779  67.425  1.00  0.00    -0.039 OA 
ENDROOT
BRANCH   4  22
HETATM   22  C   UNL     1     -13.537   6.916  71.516  1.00  0.00    -0.277 C  
BRANCH  22  23
HETATM   23  C   UNL     1     -13.945   8.227  72.167  1.00  0.00    -0.319 C  
HETATM   24  H1  UNL     1     -14.555  10.196  73.142  1.00  0.00     0.000 HD 
HETATM   25  N   UNL     1     -14.282   9.316  72.706  1.00  0.00    -0.933 NA 
HETATM   26  H2  UNL     1     -13.546   9.822  72.214  1.00  0.00     0.000 HD 
ENDBRANCH  22  23
ENDBRANCH   4  22
TORSDOF 2
ENDMDL
MODEL       44
REMARK 921   NORMALIZED FREE ENERGY PREDICTED BY IDOCK:   -5.43 KCAL/MOL
REMARK 922        TOTAL FREE ENERGY PREDICTED BY IDOCK:   -6.33 KCAL/MOL
REMARK 923 INTER-LIGAND FREE ENERGY PREDICTED BY IDOCK:   -5.91 KCAL/MOL
REMARK 924 INTRA-LIGAND FREE ENERGY PREDICTED BY IDOCK:   -0.41 KCAL/MOL
REMARK 927      BINDING AFFINITY PREDICTED BY RF-SCORE:    0.00 PKD
ROOT
HETATM    1  C   UNL     1     -11.173   7.089  71.443  1.00  0.00    -0.283 C  
HETATM    2  C   UNL     1     -12.034   6.890  70.329  1.00  0.00    -0.257 C  
HETATM    3  C   UNL     1     -10.596   7.138  70.082  1.00  0.00    -0.247 C  
HETATM    4  C   UNL     1      -9.346   7.126  71.735  1.00  0.00    -0.147 C  
HETATM    5  O   UNL     1      -7.891   7.138  71.735  1.00  0.00    -0.092 OA 
HETATM    6  C   UNL     1     -12.122  12.463  69.250  1.00  0.00    -0.218 C  
HETATM    7  C   UNL     1      -9.602   6.142  70.817  1.00  0.00    -0.191 C  
HETATM    8  C   UNL     1      -8.518   7.077  69.585  1.00  0.00    -0.134 C  
HETATM    9  C   UNL     1      -9.587   4.645  70.878  1.00  0.00    -0.249 C  
HETATM   10  C   UNL     1     -10.904   8.956  71.501  1.00  0.00    -0.396 C  
HETATM   11  H   UNL     1      -7.318   7.132  72.493  1.00  0.00     0.000 HD 
HETATM   12  C   UNL     1      -8.608   8.820  69.887  1.00  0.00    -0.133 C  
HETATM   13  C   UNL     1     -12.248   9.658  71.794  1.00  0.00    -0.464 C  
HETATM   14  C   UNL     1     -12.633  10.877  70.976  1.00  0.00    -0.517 C  
HETATM   15  C   UNL     1      -9.993   9.618  70.339  1.00  0.00    -0.330 C  
HETATM   16  C   UNL     1     -11.686  11.389  69.923  1.00  0.00    -0.424 C  
HETATM   17  C   UNL     1     -10.418  10.720  69.660  1.00  0.00    -0.183 C  
HETATM   18  C   UNL     1      -9.592  11.283  68.524  1.00  0.00    -0.199 C  
HETATM   19  C   UNL     1     -10.052  12.515  67.748  1.00  0.00    -0.218 C  
HETATM   20  C   UNL     1     -11.370  13.092  68.162  1.00  0.00    -0.292 C  
HETATM   21  O   UNL     1     -11.841  14.084  67.601  1.00  0.00    -0.357 OA 
ENDROOT
BRANCH   4  22
HETATM   22  C   UNL     1      -9.461   6.493  73.474  1.00  0.00    -0.161 C  
BRANCH  22  23
HETATM   23  C   UNL     1      -8.440   7.466  74.038  1.00  0.00    -0.197 C  
HETATM   24  H1  UNL     1      -6.907   8.926  74.887  1.00  0.00     0.000 HD 
HETATM   25  N   UNL     1      -7.593   8.273  74.508  1.00  0.00    -0.223 NA 
HETATM   26  H2  UNL     1      -8.178   8.461  75.322  1.00  0.00     0.000 HD 
ENDBRANCH  22  23
ENDBRANCH   4  22
TORSDOF 2
ENDMDL
MODEL       45
REMARK 921   NORMALIZED FREE ENERGY PREDICTED BY IDOCK:   -5.40 KCAL/MOL
REMARK 922        TOTAL FREE ENERGY PREDICTED BY IDOCK:   -6.29 KCAL/MOL
REMARK 923 INTER-LIGAND FREE ENERGY PREDICTED BY IDOCK:   -5.88 KCAL/MOL
REMARK 924 INTRA-LIGAND FREE ENERGY PREDICTED BY IDOCK:   -0.42 KCAL/MOL
REMARK 927      BINDING AFFINITY PREDICTED BY RF-SCORE:    0.00 PKD
ROOT
HETATM    1  C   UNL     1      -9.949  12.948  65.593  1.00  0.00    -0.245 C  
HETATM    2  C   UNL     1     -10.574  11.792  65.049  1.00  0.00    -0.338 C  
HETATM    3  C   UNL     1     -11.321  12.608  66.032  1.00  0.00    -0.369 C  
HETATM    4  C   UNL     1     -10.485  14.428  66.564  1.00  0.00    -0.289 C  
HETATM    5  O   UNL     1     -11.112  15.489  67.339  1.00  0.00    -0.318 OA 
HETATM    6  C   UNL     1      -9.560   8.859  69.802  1.00  0.00    -0.175 C  
HETATM    7  C   UNL     1     -11.473  14.144  65.659  1.00  0.00    -0.325 C  
HETATM    8  C   UNL     1     -12.657  13.884  67.107  1.00  0.00     0.126 C  
HETATM    9  C   UNL     1     -11.933  14.801  64.394  1.00  0.00    -0.433 C  
HETATM   10  C   UNL     1      -9.389  12.412  67.313  1.00  0.00    -0.184 C  
HETATM   11  H   UNL     1     -10.728  16.324  67.583  1.00  0.00     0.000 HD 
HETATM   12  C   UNL     1     -11.779  13.269  68.517  1.00  0.00    -0.388 C  
HETATM   13  C   UNL     1      -8.324  11.299  67.182  1.00  0.00    -0.151 C  
HETATM   14  C   UNL     1      -8.430  10.074  68.070  1.00  0.00    -0.117 C  
HETATM   15  C   UNL     1     -10.531  12.175  68.434  1.00  0.00    -0.242 C  
HETATM   16  C   UNL     1      -9.549   9.984  69.074  1.00  0.00    -0.200 C  
HETATM   17  C   UNL     1     -10.544  11.042  69.192  1.00  0.00    -0.253 C  
HETATM   18  C   UNL     1     -11.661  10.797  70.182  1.00  0.00    -0.425 C  
HETATM   19  C   UNL     1     -11.695   9.534  71.039  1.00  0.00    -0.419 C  
HETATM   20  C   UNL     1     -10.583   8.559  70.806  1.00  0.00    -0.206 C  
HETATM   21  O   UNL     1     -10.514   7.502  71.439  1.00  0.00    -0.209 OA 
ENDROOT
BRANCH   4  22
HETATM   22  C   UNL     1      -9.195  15.550  65.846  1.00  0.00    -0.305 C  
BRANCH  22  23
HETATM   23  C   UNL     1      -8.830  16.199  67.171  1.00  0.00    -0.198 C  
HETATM   24  H1  UNL     1      -8.280  17.173  69.158  1.00  0.00     0.000 HD 
HETATM   25  N   UNL     1      -8.525  16.737  68.269  1.00  0.00    -0.213 NA 
HETATM   26  H2  UNL     1      -7.558  16.866  67.973  1.00  0.00     0.000 HD 
ENDBRANCH  22  23
ENDBRANCH   4  22
TORSDOF 2
ENDMDL
MODEL       46
REMARK 921   NORMALIZED FREE ENERGY PREDICTED BY IDOCK:   -5.39 KCAL/MOL
REMARK 922        TOTAL FREE ENERGY PREDICTED BY IDOCK:   -6.28 KCAL/MOL
REMARK 923 INTER-LIGAND FREE ENERGY PREDICTED BY IDOCK:   -5.87 KCAL/MOL
REMARK 924 INTRA-LIGAND FREE ENERGY PREDICTED BY IDOCK:   -0.41 KCAL/MOL
REMARK 927      BINDING AFFINITY PREDICTED BY RF-SCORE:    0.00 PKD
ROOT
HETATM    1  C   UNL     1      -9.849  12.663  68.574  1.00  0.00    -0.152 C  
HETATM    2  C   UNL     1     -11.065  13.146  69.131  1.00  0.00    -0.248 C  
HETATM    3  C   UNL     1     -10.926  13.102  67.659  1.00  0.00    -0.282 C  
HETATM    4  C   UNL     1      -9.263  12.121  66.905  1.00  0.00    -0.203 C  
HETATM    5  O   UNL     1      -9.009  11.766  65.517  1.00  0.00    -0.403 OA 
HETATM    6  C   UNL     1      -9.554  18.516  68.080  1.00  0.00    -0.353 C  
HETATM    7  C   UNL     1     -10.551  11.681  67.057  1.00  0.00    -0.272 C  
HETATM    8  C   UNL     1     -11.034  12.723  65.558  1.00  0.00    -0.310 C  
HETATM    9  C   UNL     1     -11.160  10.332  67.288  1.00  0.00    -0.215 C  
HETATM   10  C   UNL     1      -8.923  14.220  68.047  1.00  0.00    -0.183 C  
HETATM   11  H   UNL     1      -8.246  11.316  65.171  1.00  0.00     0.000 HD 
HETATM   12  C   UNL     1     -10.010  14.165  65.456  1.00  0.00    -0.323 C  
HETATM   13  C   UNL     1      -8.584  15.062  69.298  1.00  0.00    -0.167 C  
HETATM   14  C   UNL     1      -8.828  16.559  69.263  1.00  0.00    -0.073 C  
HETATM   15  C   UNL     1      -9.495  15.037  66.773  1.00  0.00    -0.263 C  
HETATM   16  C   UNL     1      -9.365  17.192  68.006  1.00  0.00    -0.254 C  
HETATM   17  C   UNL     1      -9.676  16.387  66.831  1.00  0.00    -0.260 C  
HETATM   18  C   UNL     1     -10.284  17.128  65.660  1.00  0.00    -0.162 C  
HETATM   19  C   UNL     1     -10.498  18.639  65.706  1.00  0.00    -0.294 C  
HETATM   20  C   UNL     1     -10.102  19.314  66.981  1.00  0.00    -0.374 C  
HETATM   21  O   UNL     1     -10.237  20.531  67.131  1.00  0.00    -0.380 OA 
ENDROOT
BRANCH   4  22
HETATM   22  C   UNL     1      -8.035  10.901  67.568  1.00  0.00    -0.115 C  
BRANCH  22  23
HETATM   23  C   UNL     1      -6.936  11.271  66.586  1.00  0.00    -0.129 C  
HETATM   24  H1  UNL     1      -5.286  11.824  65.113  1.00  0.00     0.000 HD 
HETATM   25  N   UNL     1      -6.024  11.576  65.771  1.00  0.00    -0.453 NA 
HETATM   26  H2  UNL     1      -6.276  10.805  65.153  1.00  0.00     0.000 HD 
ENDBRANCH  22  23
ENDBRANCH   4  22
TORSDOF 2
ENDMDL
MODEL       47
REMARK 921   NORMALIZED FREE ENERGY PREDICTED BY IDOCK:   -5.38 KCAL/MOL
REMARK 922        TOTAL FREE ENERGY PREDICTED BY IDOCK:   -6.27 KCAL/MOL
REMARK 923 INTER-LIGAND FREE ENERGY PREDICTED BY IDOCK:   -5.86 KCAL/MOL
REMARK 924 INTRA-LIGAND FREE ENERGY PREDICTED BY IDOCK:   -0.41 KCAL/MOL
REMARK 927      BINDING AFFINITY PREDICTED BY RF-SCORE:    0.00 PKD
ROOT
HETATM    1  C   UNL     1      -7.805   7.552  66.035  1.00  0.00    -0.101 C  
HETATM    2  C   UNL     1      -6.900   8.523  66.545  1.00  0.00    -0.071 C  
HETATM    3  C   UNL     1      -7.933   7.968  67.449  1.00  0.00    -0.122 C  
HETATM    4  C   UNL     1      -9.026   6.356  66.743  1.00  0.00    -0.130 C  
HETATM    5  O   UNL     1      -9.939   5.514  67.502  1.00  0.00    -0.138 OA 
HETATM    6  C   UNL     1     -10.858  12.577  66.193  1.00  0.00    -0.304 C  
HETATM    7  C   UNL     1      -7.940   6.386  67.577  1.00  0.00    -0.116 C  
HETATM    8  C   UNL     1      -9.079   6.983  68.959  1.00  0.00    -0.135 C  
HETATM    9  C   UNL     1      -6.826   5.424  67.856  1.00  0.00    -0.060 C  
HETATM   10  C   UNL     1      -9.400   8.514  65.727  1.00  0.00    -0.187 C  
HETATM   11  H   UNL     1     -10.440   4.775  67.178  1.00  0.00     0.000 HD 
HETATM   12  C   UNL     1     -10.405   7.948  68.290  1.00  0.00    -0.239 C  
HETATM   13  C   UNL     1      -9.155   9.575  64.631  1.00  0.00    -0.263 C  
HETATM   14  C   UNL     1      -9.679  10.983  64.843  1.00  0.00    -0.303 C  
HETATM   15  C   UNL     1     -10.239   9.007  67.020  1.00  0.00    -0.336 C  
HETATM   16  C   UNL     1     -10.448  11.305  66.097  1.00  0.00    -0.305 C  
HETATM   17  C   UNL     1     -10.676  10.294  67.122  1.00  0.00    -0.303 C  
HETATM   18  C   UNL     1     -11.392  10.761  68.370  1.00  0.00    -0.367 C  
HETATM   19  C   UNL     1     -11.888  12.199  68.505  1.00  0.00    -0.365 C  
HETATM   20  C   UNL     1     -11.589  13.102  67.349  1.00  0.00    -0.356 C  
HETATM   21  O   UNL     1     -11.937  14.286  67.353  1.00  0.00    -0.395 OA 
ENDROOT
BRANCH   4  22
HETATM   22  C   UNL     1      -8.817   5.111  65.385  1.00  0.00    -0.153 C  
BRANCH  22  23
HETATM   23  C   UNL     1     -10.296   4.779  65.279  1.00  0.00     0.000 C  
HETATM   24  H1  UNL     1     -12.516   4.282  65.119  1.00  0.00     0.000 HD 
HETATM   25  N   UNL     1     -11.523   4.505  65.190  1.00  0.00    -1.109 NA 
HETATM   26  H2  UNL     1     -11.683   5.284  64.551  1.00  0.00     0.000 HD 
ENDBRANCH  22  23
ENDBRANCH   4  22
TORSDOF 2
ENDMDL
MODEL       48
REMARK 921   NORMALIZED FREE ENERGY PREDICTED BY IDOCK:   -5.34 KCAL/MOL
REMARK 922        TOTAL FREE ENERGY PREDICTED BY IDOCK:   -6.22 KCAL/MOL
REMARK 923 INTER-LIGAND FREE ENERGY PREDICTED BY IDOCK:   -5.88 KCAL/MOL
REMARK 924 INTRA-LIGAND FREE ENERGY PREDICTED BY IDOCK:   -0.34 KCAL/MOL
REMARK 927      BINDING AFFINITY PREDICTED BY RF-SCORE:    0.00 PKD
ROOT
HETATM    1  C   UNL     1      -9.335  10.262  67.184  1.00  0.00    -0.175 C  
HETATM    2  C   UNL     1     -10.115   9.180  66.690  1.00  0.00    -0.343 C  
HETATM    3  C   UNL     1     -10.756  10.169  67.585  1.00  0.00    -0.339 C  
HETATM    4  C   UNL     1      -9.663  11.872  68.034  1.00  0.00    -0.191 C  
HETATM    5  O   UNL     1     -10.140  13.068  68.711  1.00  0.00    -0.391 OA 
HETATM    6  C   UNL     1      -9.727   6.469  71.662  1.00  0.00    -0.174 C  
HETATM    7  C   UNL     1     -10.654  11.679  67.108  1.00  0.00    -0.269 C  
HETATM    8  C   UNL     1     -11.910  11.708  68.517  1.00  0.00    -0.357 C  
HETATM    9  C   UNL     1     -10.965  12.309  65.784  1.00  0.00    -0.338 C  
HETATM   10  C   UNL     1      -8.921   9.768  68.958  1.00  0.00    -0.154 C  
HETATM   11  H   UNL     1      -9.639  13.849  68.917  1.00  0.00     0.000 HD 
HETATM   12  C   UNL     1     -11.185  11.066  70.000  1.00  0.00    -0.303 C  
HETATM   13  C   UNL     1      -8.040   8.499  68.944  1.00  0.00    -0.119 C  
HETATM   14  C   UNL     1      -8.365   7.370  69.904  1.00  0.00    -0.134 C  
HETATM   15  C   UNL     1     -10.122   9.790  70.042  1.00  0.00    -0.301 C  
HETATM   16  C   UNL     1      -9.516   7.524  70.864  1.00  0.00    -0.165 C  
HETATM   17  C   UNL     1     -10.336   8.729  70.870  1.00  0.00    -0.281 C  
HETATM   18  C   UNL     1     -11.509   8.730  71.825  1.00  0.00    -0.413 C  
HETATM   19  C   UNL     1     -11.768   7.550  72.760  1.00  0.00    -0.232 C  
HETATM   20  C   UNL     1     -10.816   6.402  72.639  1.00  0.00    -0.240 C  
HETATM   21  O   UNL     1     -10.934   5.394  73.341  1.00  0.00    -0.278 OA 
ENDROOT
BRANCH   4  22
HETATM   22  C   UNL     1      -8.191  12.728  67.301  1.00  0.00    -0.181 C  
BRANCH  22  23
HETATM   23  C   UNL     1      -8.018  13.705  68.452  1.00  0.00    -0.147 C  
HETATM   24  H1  UNL     1      -7.757  15.171  70.179  1.00  0.00     0.000 HD 
HETATM   25  N   UNL     1      -7.873  14.515  69.407  1.00  0.00    -0.357 NA 
HETATM   26  H2  UNL     1      -6.957  14.129  69.635  1.00  0.00     0.000 HD 
ENDBRANCH  22  23
ENDBRANCH   4  22
TORSDOF 2
ENDMDL
MODEL       49
REMARK 921   NORMALIZED FREE ENERGY PREDICTED BY IDOCK:   -5.21 KCAL/MOL
REMARK 922        TOTAL FREE ENERGY PREDICTED BY IDOCK:   -6.08 KCAL/MOL
REMARK 923 INTER-LIGAND FREE ENERGY PREDICTED BY IDOCK:   -5.66 KCAL/MOL
REMARK 924 INTRA-LIGAND FREE ENERGY PREDICTED BY IDOCK:   -0.41 KCAL/MOL
REMARK 927      BINDING AFFINITY PREDICTED BY RF-SCORE:    0.00 PKD
ROOT
HETATM    1  C   UNL     1     -10.553   6.771  70.709  1.00  0.00    -0.254 C  
HETATM    2  C   UNL     1     -11.877   6.637  70.208  1.00  0.00    -0.378 C  
HETATM    3  C   UNL     1     -10.746   6.575  69.256  1.00  0.00    -0.329 C  
HETATM    4  C   UNL     1      -8.842   6.479  70.069  1.00  0.00    -0.144 C  
HETATM    5  O   UNL     1      -7.599   6.207  69.363  1.00  0.00    -0.093 OA 
HETATM    6  C   UNL     1     -11.830  11.990  68.318  1.00  0.00    -0.351 C  
HETATM    7  C   UNL     1      -9.645   5.480  69.584  1.00  0.00    -0.210 C  
HETATM    8  C   UNL     1      -9.233   6.063  67.836  1.00  0.00    -0.111 C  
HETATM    9  C   UNL     1      -9.781   4.022  69.900  1.00  0.00    -0.263 C  
HETATM   10  C   UNL     1     -10.070   8.546  70.291  1.00  0.00    -0.199 C  
HETATM   11  H   UNL     1      -6.726   6.163  69.735  1.00  0.00     0.000 HD 
HETATM   12  C   UNL     1      -8.946   7.811  67.822  1.00  0.00    -0.128 C  
HETATM   13  C   UNL     1     -10.984   9.522  71.065  1.00  0.00    -0.424 C  
HETATM   14  C   UNL     1     -11.580  10.708  70.330  1.00  0.00    -0.441 C  
HETATM   15  C   UNL     1      -9.802   8.903  68.735  1.00  0.00    -0.182 C  
HETATM   16  C   UNL     1     -11.246  10.922  68.877  1.00  0.00    -0.327 C  
HETATM   17  C   UNL     1     -10.378   9.996  68.159  1.00  0.00    -0.228 C  
HETATM   18  C   UNL     1     -10.182  10.276  66.685  1.00  0.00    -0.294 C  
HETATM   19  C   UNL     1     -10.820  11.493  66.020  1.00  0.00    -0.330 C  
HETATM   20  C   UNL     1     -11.664  12.353  66.909  1.00  0.00    -0.362 C  
HETATM   21  O   UNL     1     -12.232  13.359  66.476  1.00  0.00    -0.399 OA 
ENDROOT
BRANCH   4  22
HETATM   22  C   UNL     1      -8.134   6.051  71.728  1.00  0.00    -0.114 C  
BRANCH  22  23
HETATM   23  C   UNL     1      -6.886   6.903  71.565  1.00  0.00    -0.065 C  
HETATM   24  H1  UNL     1      -5.015   8.183  71.321  1.00  0.00     0.000 HD 
HETATM   25  N   UNL     1      -5.853   7.611  71.431  1.00  0.00    -0.035 NA 
HETATM   26  H2  UNL     1      -6.261   8.367  71.980  1.00  0.00     0.000 HD 
ENDBRANCH  22  23
ENDBRANCH   4  22
TORSDOF 2
ENDMDL
MODEL       50
REMARK 921   NORMALIZED FREE ENERGY PREDICTED BY IDOCK:   -5.18 KCAL/MOL
REMARK 922        TOTAL FREE ENERGY PREDICTED BY IDOCK:   -6.05 KCAL/MOL
REMARK 923 INTER-LIGAND FREE ENERGY PREDICTED BY IDOCK:   -5.67 KCAL/MOL
REMARK 924 INTRA-LIGAND FREE ENERGY PREDICTED BY IDOCK:   -0.38 KCAL/MOL
REMARK 927      BINDING AFFINITY PREDICTED BY RF-SCORE:    0.00 PKD
ROOT
HETATM    1  C   UNL     1     -11.557  11.508  67.350  1.00  0.00    -0.307 C  
HETATM    2  C   UNL     1     -11.575  11.494  68.772  1.00  0.00    -0.379 C  
HETATM    3  C   UNL     1     -10.466  12.188  68.081  1.00  0.00    -0.225 C  
HETATM    4  C   UNL     1     -10.644  12.430  66.031  1.00  0.00    -0.256 C  
HETATM    5  O   UNL     1      -9.804  13.245  65.167  1.00  0.00    -0.507 OA 
HETATM    6  C   UNL     1      -7.591   7.452  68.905  1.00  0.00    -0.103 C  
HETATM    7  C   UNL     1     -10.908  13.309  67.048  1.00  0.00    -0.278 C  
HETATM    8  C   UNL     1      -9.048  13.556  67.252  1.00  0.00    -0.225 C  
HETATM    9  C   UNL     1     -11.861  14.456  67.199  1.00  0.00    -0.437 C  
HETATM   10  C   UNL     1     -10.276  10.202  66.885  1.00  0.00    -0.295 C  
HETATM   11  H   UNL     1      -9.886  13.356  64.226  1.00  0.00     0.000 HD 
HETATM   12  C   UNL     1      -8.180  12.072  66.824  1.00  0.00    -0.110 C  
HETATM   13  C   UNL     1     -10.767   8.813  67.352  1.00  0.00    -0.216 C  
HETATM   14  C   UNL     1      -9.793   7.890  68.059  1.00  0.00    -0.195 C  
HETATM   15  C   UNL     1      -8.721  10.541  67.175  1.00  0.00    -0.130 C  
HETATM   16  C   UNL     1      -8.368   8.335  68.262  1.00  0.00    -0.132 C  
HETATM   17  C   UNL     1      -7.916   9.645  67.813  1.00  0.00    -0.105 C  
HETATM   18  C   UNL     1      -6.485  10.005  68.146  1.00  0.00    -0.055 C  
HETATM   19  C   UNL     1      -5.568   9.017  68.863  1.00  0.00    -0.040 C  
HETATM   20  C   UNL     1      -6.187   7.706  69.234  1.00  0.00    -0.035 C  
HETATM   21  O   UNL     1      -5.540   6.834  69.821  1.00  0.00    -0.014 OA 
ENDROOT
BRANCH   4  22
HETATM   22  C   UNL     1     -12.036  12.353  64.808  1.00  0.00    -0.462 C  
BRANCH  22  23
HETATM   23  C   UNL     1     -11.195  11.764  63.686  1.00  0.00    -0.435 C  
HETATM   24  H1  UNL     1      -9.935  10.882  62.004  1.00  0.00     0.000 HD 
HETATM   25  N   UNL     1     -10.498  11.277  62.756  1.00  0.00    -0.725 NA 
HETATM   26  H2  UNL     1      -9.920  12.116  62.709  1.00  0.00     0.000 HD 
ENDBRANCH  22  23
ENDBRANCH   4  22
TORSDOF 2
ENDMDL
MODEL       51
REMARK 921   NORMALIZED FREE ENERGY PREDICTED BY IDOCK:   -5.18 KCAL/MOL
REMARK 922        TOTAL FREE ENERGY PREDICTED BY IDOCK:   -6.04 KCAL/MOL
REMARK 923 INTER-LIGAND FREE ENERGY PREDICTED BY IDOCK:   -5.63 KCAL/MOL
REMARK 924 INTRA-LIGAND FREE ENERGY PREDICTED BY IDOCK:   -0.41 KCAL/MOL
REMARK 927      BINDING AFFINITY PREDICTED BY RF-SCORE:    0.00 PKD
ROOT
HETATM    1  C   UNL     1     -10.973   7.535  71.426  1.00  0.00    -0.254 C  
HETATM    2  C   UNL     1     -12.143   7.155  70.713  1.00  0.00    -0.331 C  
HETATM    3  C   UNL     1     -10.821   6.819  70.141  1.00  0.00    -0.311 C  
HETATM    4  C   UNL     1      -9.169   7.131  71.352  1.00  0.00    -0.150 C  
HETATM    5  O   UNL     1      -7.803   6.694  71.104  1.00  0.00    -0.099 OA 
HETATM    6  C   UNL     1     -11.474  11.462  67.076  1.00  0.00    -0.234 C  
HETATM    7  C   UNL     1      -9.866   5.981  71.091  1.00  0.00    -0.214 C  
HETATM    8  C   UNL     1      -9.031   5.917  69.398  1.00  0.00    -0.122 C  
HETATM    9  C   UNL     1     -10.120   4.728  71.874  1.00  0.00    -0.264 C  
HETATM   10  C   UNL     1     -10.346   9.066  70.516  1.00  0.00    -0.266 C  
HETATM   11  H   UNL     1      -7.046   6.837  71.660  1.00  0.00     0.000 HD 
HETATM   12  C   UNL     1      -8.693   7.556  68.818  1.00  0.00    -0.128 C  
HETATM   13  C   UNL     1     -11.386  10.201  70.647  1.00  0.00    -0.433 C  
HETATM   14  C   UNL     1     -11.752  11.007  69.415  1.00  0.00    -0.394 C  
HETATM   15  C   UNL     1      -9.706   8.853  69.046  1.00  0.00    -0.171 C  
HETATM   16  C   UNL     1     -11.075  10.702  68.105  1.00  0.00    -0.343 C  
HETATM   17  C   UNL     1     -10.092   9.631  67.995  1.00  0.00    -0.213 C  
HETATM   18  C   UNL     1      -9.542   9.372  66.610  1.00  0.00    -0.250 C  
HETATM   19  C   UNL     1      -9.964  10.230  65.419  1.00  0.00    -0.371 C  
HETATM   20  C   UNL     1     -10.967  11.302  65.712  1.00  0.00    -0.145 C  
HETATM   21  O   UNL     1     -11.382  12.051  64.824  1.00  0.00    -0.317 OA 
ENDROOT
BRANCH   4  22
HETATM   22  C   UNL     1      -8.890   7.369  73.170  1.00  0.00    -0.192 C  
BRANCH  22  23
HETATM   23  C   UNL     1      -7.660   8.246  73.002  1.00  0.00    -0.110 C  
HETATM   24  H1  UNL     1      -5.815   9.562  72.749  1.00  0.00     0.000 HD 
HETATM   25  N   UNL     1      -6.641   8.974  72.861  1.00  0.00    -0.318 NA 
HETATM   26  H2  UNL     1      -6.852   9.133  71.877  1.00  0.00     0.000 HD 
ENDBRANCH  22  23
ENDBRANCH   4  22
TORSDOF 2
ENDMDL
MODEL       52
REMARK 921   NORMALIZED FREE ENERGY PREDICTED BY IDOCK:   -5.17 KCAL/MOL
REMARK 922        TOTAL FREE ENERGY PREDICTED BY IDOCK:   -6.04 KCAL/MOL
REMARK 923 INTER-LIGAND FREE ENERGY PREDICTED BY IDOCK:   -5.70 KCAL/MOL
REMARK 924 INTRA-LIGAND FREE ENERGY PREDICTED BY IDOCK:   -0.34 KCAL/MOL
REMARK 927      BINDING AFFINITY PREDICTED BY RF-SCORE:    0.00 PKD
ROOT
HETATM    1  C   UNL     1     -11.135  12.816  63.923  1.00  0.00    -0.477 C  
HETATM    2  C   UNL     1     -12.070  11.875  63.411  1.00  0.00    -0.539 C  
HETATM    3  C   UNL     1     -11.762  11.856  64.858  1.00  0.00    -0.262 C  
HETATM    4  C   UNL     1     -10.627  13.426  65.594  1.00  0.00    -0.282 C  
HETATM    5  O   UNL     1     -10.368  13.743  66.990  1.00  0.00    -0.257 OA 
HETATM    6  C   UNL     1      -8.185   7.739  63.581  1.00  0.00     0.022 C  
HETATM    7  C   UNL     1     -11.983  13.234  65.615  1.00  0.00    -0.455 C  
HETATM    8  C   UNL     1     -11.734  11.967  66.993  1.00  0.00    -0.341 C  
HETATM    9  C   UNL     1     -13.158  14.165  65.625  1.00  0.00    -0.132 C  
HETATM   10  C   UNL     1      -9.547  11.823  64.149  1.00  0.00    -0.095 C  
HETATM   11  H   UNL     1      -9.848  14.463  67.327  1.00  0.00     0.000 HD 
HETATM   12  C   UNL     1     -10.169  11.157  66.807  1.00  0.00    -0.272 C  
HETATM   13  C   UNL     1      -9.045  11.339  62.770  1.00  0.00    -0.327 C  
HETATM   14  C   UNL     1      -8.585   9.901  62.620  1.00  0.00    -0.194 C  
HETATM   15  C   UNL     1      -9.508  10.732  65.343  1.00  0.00    -0.258 C  
HETATM   16  C   UNL     1      -8.601   8.991  63.820  1.00  0.00    -0.147 C  
HETATM   17  C   UNL     1      -9.072   9.461  65.116  1.00  0.00    -0.280 C  
HETATM   18  C   UNL     1      -9.113   8.430  66.223  1.00  0.00    -0.241 C  
HETATM   19  C   UNL     1      -8.632   7.000  65.989  1.00  0.00    -0.154 C  
HETATM   20  C   UNL     1      -8.158   6.691  64.603  1.00  0.00    -0.088 C  
HETATM   21  O   UNL     1      -7.753   5.566  64.300  1.00  0.00    -0.079 OA 
ENDROOT
BRANCH   4  22
HETATM   22  C   UNL     1     -10.182  15.126  65.001  1.00  0.00    -0.332 C  
BRANCH  22  23
HETATM   23  C   UNL     1      -9.154  15.382  66.090  1.00  0.00    -0.304 C  
HETATM   24  H1  UNL     1      -7.611  15.768  67.724  1.00  0.00     0.000 HD 
HETATM   25  N   UNL     1      -8.300  15.596  66.993  1.00  0.00    -0.207 NA 
HETATM   26  H2  UNL     1      -7.726  16.153  66.361  1.00  0.00     0.000 HD 
ENDBRANCH  22  23
ENDBRANCH   4  22
TORSDOF 2
ENDMDL
MODEL       53
REMARK 921   NORMALIZED FREE ENERGY PREDICTED BY IDOCK:   -5.15 KCAL/MOL
REMARK 922        TOTAL FREE ENERGY PREDICTED BY IDOCK:   -6.01 KCAL/MOL
REMARK 923 INTER-LIGAND FREE ENERGY PREDICTED BY IDOCK:   -6.01 KCAL/MOL
REMARK 924 INTRA-LIGAND FREE ENERGY PREDICTED BY IDOCK:    0.00 KCAL/MOL
REMARK 927      BINDING AFFINITY PREDICTED BY RF-SCORE:    0.00 PKD
ROOT
HETATM    1  C   UNL     1      -9.314  10.995  67.837  1.00  0.00    -0.160 C  
HETATM    2  C   UNL     1      -8.297  10.952  68.829  1.00  0.00    -0.151 C  
HETATM    3  C   UNL     1      -8.445   9.800  67.911  1.00  0.00    -0.125 C  
HETATM    4  C   UNL     1      -9.739  10.041  66.310  1.00  0.00    -0.214 C  
HETATM    5  O   UNL     1      -9.900   9.150  65.171  1.00  0.00    -0.414 OA 
HETATM    6  C   UNL     1     -11.414   7.468  72.049  1.00  0.00    -0.319 C  
HETATM    7  C   UNL     1      -8.375  10.154  66.366  1.00  0.00    -0.125 C  
HETATM    8  C   UNL     1      -8.269   8.270  66.430  1.00  0.00    -0.107 C  
HETATM    9  C   UNL     1      -7.374  10.957  65.592  1.00  0.00     0.052 C  
HETATM   10  C   UNL     1     -10.687   9.899  68.526  1.00  0.00    -0.260 C  
HETATM   11  H   UNL     1     -10.493   9.260  64.437  1.00  0.00     0.000 HD 
HETATM   12  C   UNL     1      -9.691   7.602  67.250  1.00  0.00    -0.221 C  
HETATM   13  C   UNL     1     -11.244  10.528  69.823  1.00  0.00    -0.361 C  
HETATM   14  C   UNL     1     -11.476   9.639  71.029  1.00  0.00    -0.444 C  
HETATM   15  C   UNL     1     -10.423   8.303  68.566  1.00  0.00    -0.199 C  
HETATM   16  C   UNL     1     -11.186   8.164  70.927  1.00  0.00    -0.286 C  
HETATM   17  C   UNL     1     -10.666   7.582  69.697  1.00  0.00    -0.236 C  
HETATM   18  C   UNL     1     -10.342   6.105  69.745  1.00  0.00    -0.269 C  
HETATM   19  C   UNL     1     -10.605   5.279  71.003  1.00  0.00    -0.240 C  
HETATM   20  C   UNL     1     -11.163   6.031  72.171  1.00  0.00    -0.291 C  
HETATM   21  O   UNL     1     -11.408   5.465  73.239  1.00  0.00    -0.289 OA 
ENDROOT
BRANCH   4  22
HETATM   22  C   UNL     1     -10.515  11.484  65.445  1.00  0.00    -0.333 C  
BRANCH  22  23
HETATM   23  C   UNL     1     -10.299  10.933  64.045  1.00  0.00    -0.349 C  
HETATM   24  H1  UNL     1      -9.974  10.106  61.945  1.00  0.00     0.000 HD 
HETATM   25  N   UNL     1     -10.120  10.475  62.884  1.00  0.00    -0.670 NA 
HETATM   26  H2  UNL     1     -10.758   9.699  63.059  1.00  0.00     0.000 HD 
ENDBRANCH  22  23
ENDBRANCH   4  22
TORSDOF 2
ENDMDL
MODEL       54
REMARK 921   NORMALIZED FREE ENERGY PREDICTED BY IDOCK:   -5.14 KCAL/MOL
REMARK 922        TOTAL FREE ENERGY PREDICTED BY IDOCK:   -6.01 KCAL/MOL
REMARK 923 INTER-LIGAND FREE ENERGY PREDICTED BY IDOCK:   -5.61 KCAL/MOL
REMARK 924 INTRA-LIGAND FREE ENERGY PREDICTED BY IDOCK:   -0.40 KCAL/MOL
REMARK 927      BINDING AFFINITY PREDICTED BY RF-SCORE:    0.00 PKD
ROOT
HETATM    1  C   UNL     1      -9.617   8.033  67.960  1.00  0.00    -0.170 C  
HETATM    2  C   UNL     1     -10.869   7.589  67.453  1.00  0.00    -0.272 C  
HETATM    3  C   UNL     1      -9.747   7.783  66.508  1.00  0.00    -0.265 C  
HETATM    4  C   UNL     1      -7.880   8.143  67.332  1.00  0.00    -0.106 C  
HETATM    5  O   UNL     1      -6.603   8.162  66.637  1.00  0.00    -0.054 OA 
HETATM    6  C   UNL     1     -12.060  12.785  65.503  1.00  0.00    -0.517 C  
HETATM    7  C   UNL     1      -8.423   6.980  66.855  1.00  0.00    -0.119 C  
HETATM    8  C   UNL     1      -8.145   7.625  65.103  1.00  0.00    -0.134 C  
HETATM    9  C   UNL     1      -8.217   5.533  67.187  1.00  0.00    -0.101 C  
HETATM   10  C   UNL     1      -9.559   9.868  67.524  1.00  0.00    -0.183 C  
HETATM   11  H   UNL     1      -5.746   8.327  67.015  1.00  0.00     0.000 HD 
HETATM   12  C   UNL     1      -8.275   9.392  65.071  1.00  0.00    -0.139 C  
HETATM   13  C   UNL     1     -10.682  10.610  68.282  1.00  0.00    -0.260 C  
HETATM   14  C   UNL     1     -11.533  11.616  67.531  1.00  0.00    -0.360 C  
HETATM   15  C   UNL     1      -9.370  10.262  65.967  1.00  0.00    -0.224 C  
HETATM   16  C   UNL     1     -11.247  11.888  66.077  1.00  0.00    -0.377 C  
HETATM   17  C   UNL     1     -10.181  11.185  65.375  1.00  0.00    -0.327 C  
HETATM   18  C   UNL     1     -10.044  11.488  63.899  1.00  0.00    -0.388 C  
HETATM   19  C   UNL     1     -10.944  12.516  63.217  1.00  0.00    -0.248 C  
HETATM   20  C   UNL     1     -11.972  13.163  64.091  1.00  0.00    -0.436 C  
HETATM   21  O   UNL     1     -12.756  14.004  63.643  1.00  0.00    -0.778 OA 
ENDROOT
BRANCH   4  22
HETATM   22  C   UNL     1      -7.105   7.908  69.000  1.00  0.00    -0.070 C  
BRANCH  22  23
HETATM   23  C   UNL     1      -6.192   9.119  68.895  1.00  0.00    -0.044 C  
HETATM   24  H1  UNL     1      -4.822  10.934  68.736  1.00  0.00     0.000 HD 
HETATM   25  N   UNL     1      -5.434  10.122  68.807  1.00  0.00    -0.038 NA 
HETATM   26  H2  UNL     1      -4.780   9.614  68.211  1.00  0.00     0.000 HD 
ENDBRANCH  22  23
ENDBRANCH   4  22
TORSDOF 2
ENDMDL
MODEL       55
REMARK 921   NORMALIZED FREE ENERGY PREDICTED BY IDOCK:   -5.10 KCAL/MOL
REMARK 922        TOTAL FREE ENERGY PREDICTED BY IDOCK:   -5.96 KCAL/MOL
REMARK 923 INTER-LIGAND FREE ENERGY PREDICTED BY IDOCK:   -5.95 KCAL/MOL
REMARK 924 INTRA-LIGAND FREE ENERGY PREDICTED BY IDOCK:   -0.01 KCAL/MOL
REMARK 927      BINDING AFFINITY PREDICTED BY RF-SCORE:    0.00 PKD
ROOT
HETATM    1  C   UNL     1     -11.742  12.801  67.720  1.00  0.00    -0.412 C  
HETATM    2  C   UNL     1     -11.601  12.548  69.112  1.00  0.00    -0.375 C  
HETATM    3  C   UNL     1     -10.534  13.298  68.412  1.00  0.00    -0.261 C  
HETATM    4  C   UNL     1     -10.927  13.889  66.466  1.00  0.00    -0.300 C  
HETATM    5  O   UNL     1     -10.138  14.799  65.648  1.00  0.00    -0.322 OA 
HETATM    6  C   UNL     1      -7.900   8.364  68.102  1.00  0.00    -0.111 C  
HETATM    7  C   UNL     1     -11.016  14.595  67.636  1.00  0.00    -0.296 C  
HETATM    8  C   UNL     1      -9.132  14.719  67.648  1.00  0.00    -0.185 C  
HETATM    9  C   UNL     1     -11.868  15.743  68.086  1.00  0.00    -0.054 C  
HETATM   10  C   UNL     1     -10.611  11.534  66.897  1.00  0.00    -0.284 C  
HETATM   11  H   UNL     1     -10.319  15.070  64.756  1.00  0.00     0.000 HD 
HETATM   12  C   UNL     1      -8.417  13.291  66.882  1.00  0.00    -0.074 C  
HETATM   13  C   UNL     1     -11.135  10.111  67.190  1.00  0.00    -0.122 C  
HETATM   14  C   UNL     1     -10.150   9.038  67.613  1.00  0.00    -0.271 C  
HETATM   15  C   UNL     1      -9.014  11.749  67.045  1.00  0.00    -0.186 C  
HETATM   16  C   UNL     1      -8.686   9.377  67.710  1.00  0.00    -0.116 C  
HETATM   17  C   UNL     1      -8.202  10.722  67.426  1.00  0.00    -0.116 C  
HETATM   18  C   UNL     1      -6.722  10.955  67.636  1.00  0.00    -0.069 C  
HETATM   19  C   UNL     1      -5.797   9.819  68.066  1.00  0.00    -0.040 C  
HETATM   20  C   UNL     1      -6.454   8.494  68.293  1.00  0.00    -0.060 C  
HETATM   21  O   UNL     1      -5.803   7.508  68.648  1.00  0.00    -0.022 OA 
ENDROOT
BRANCH   4  22
HETATM   22  C   UNL     1     -12.450  14.083  65.426  1.00  0.00    -0.520 C  
BRANCH  22  23
HETATM   23  C   UNL     1     -11.938  15.295  64.665  1.00  0.00    -0.233 C  
HETATM   24  H1  UNL     1     -11.172  17.113  63.522  1.00  0.00     0.000 HD 
HETATM   25  N   UNL     1     -11.515  16.299  64.032  1.00  0.00    -1.521 NA 
HETATM   26  H2  UNL     1     -12.205  16.163  63.293  1.00  0.00     0.000 HD 
ENDBRANCH  22  23
ENDBRANCH   4  22
TORSDOF 2
ENDMDL
MODEL       56
REMARK 921   NORMALIZED FREE ENERGY PREDICTED BY IDOCK:   -5.10 KCAL/MOL
REMARK 922        TOTAL FREE ENERGY PREDICTED BY IDOCK:   -5.95 KCAL/MOL
REMARK 923 INTER-LIGAND FREE ENERGY PREDICTED BY IDOCK:   -6.00 KCAL/MOL
REMARK 924 INTRA-LIGAND FREE ENERGY PREDICTED BY IDOCK:    0.04 KCAL/MOL
REMARK 927      BINDING AFFINITY PREDICTED BY RF-SCORE:    0.00 PKD
ROOT
HETATM    1  C   UNL     1      -8.609   7.522  68.784  1.00  0.00    -0.129 C  
HETATM    2  C   UNL     1      -7.559   8.466  68.615  1.00  0.00    -0.102 C  
HETATM    3  C   UNL     1      -8.524   8.665  69.719  1.00  0.00    -0.129 C  
HETATM    4  C   UNL     1      -9.845   7.115  70.099  1.00  0.00    -0.179 C  
HETATM    5  O   UNL     1     -10.736   6.981  71.241  1.00  0.00    -0.219 OA 
HETATM    6  C   UNL     1     -11.120  12.179  66.214  1.00  0.00    -0.353 C  
HETATM    7  C   UNL     1      -8.668   7.441  70.719  1.00  0.00    -0.145 C  
HETATM    8  C   UNL     1      -9.569   8.864  71.573  1.00  0.00    -0.362 C  
HETATM    9  C   UNL     1      -7.627   6.642  71.442  1.00  0.00    -0.093 C  
HETATM   10  C   UNL     1     -10.128   8.376  68.060  1.00  0.00    -0.245 C  
HETATM   11  H   UNL     1     -11.343   6.270  71.415  1.00  0.00     0.000 HD 
HETATM   12  C   UNL     1     -10.867   9.481  70.536  1.00  0.00    -0.352 C  
HETATM   13  C   UNL     1      -9.916   8.602  66.546  1.00  0.00    -0.353 C  
HETATM   14  C   UNL     1     -10.272   9.950  65.948  1.00  0.00    -0.264 C  
HETATM   15  C   UNL     1     -10.753   9.620  68.884  1.00  0.00    -0.230 C  
HETATM   16  C   UNL     1     -10.849  11.023  66.835  1.00  0.00    -0.324 C  
HETATM   17  C   UNL     1     -11.049  10.796  68.261  1.00  0.00    -0.327 C  
HETATM   18  C   UNL     1     -11.560  11.976  69.057  1.00  0.00    -0.370 C  
HETATM   19  C   UNL     1     -11.894  13.302  68.378  1.00  0.00    -0.395 C  
HETATM   20  C   UNL     1     -11.651  13.358  66.902  1.00  0.00    -0.365 C  
HETATM   21  O   UNL     1     -11.880  14.381  66.252  1.00  0.00    -0.378 OA 
ENDROOT
BRANCH   4  22
HETATM   22  C   UNL     1      -9.923   5.312  69.674  1.00  0.00    -0.302 C  
BRANCH  22  23
HETATM   23  C   UNL     1     -10.185   4.850  71.098  1.00  0.00    -0.191 C  
HETATM   24  H1  UNL     1     -10.579   4.158  73.235  1.00  0.00     0.000 HD 
HETATM   25  N   UNL     1     -10.404   4.468  72.279  1.00  0.00    -0.190 NA 
HETATM   26  H2  UNL     1     -11.386   4.734  72.216  1.00  0.00     0.000 HD 
ENDBRANCH  22  23
ENDBRANCH   4  22
TORSDOF 2
ENDMDL
MODEL       57
REMARK 921   NORMALIZED FREE ENERGY PREDICTED BY IDOCK:   -5.07 KCAL/MOL
REMARK 922        TOTAL FREE ENERGY PREDICTED BY IDOCK:   -5.93 KCAL/MOL
REMARK 923 INTER-LIGAND FREE ENERGY PREDICTED BY IDOCK:   -5.53 KCAL/MOL
REMARK 924 INTRA-LIGAND FREE ENERGY PREDICTED BY IDOCK:   -0.39 KCAL/MOL
REMARK 927      BINDING AFFINITY PREDICTED BY RF-SCORE:    0.00 PKD
ROOT
HETATM    1  C   UNL     1      -9.833   5.965  70.622  1.00  0.00    -0.230 C  
HETATM    2  C   UNL     1      -8.512   5.885  70.103  1.00  0.00    -0.126 C  
HETATM    3  C   UNL     1      -8.905   7.091  70.867  1.00  0.00    -0.148 C  
HETATM    4  C   UNL     1     -10.730   7.026  71.845  1.00  0.00    -0.217 C  
HETATM    5  O   UNL     1     -11.241   7.983  72.814  1.00  0.00    -0.384 OA 
HETATM    6  C   UNL     1      -9.840   9.408  65.854  1.00  0.00    -0.362 C  
HETATM    7  C   UNL     1      -9.465   6.814  72.325  1.00  0.00    -0.149 C  
HETATM    8  C   UNL     1      -9.183   8.680  72.268  1.00  0.00    -0.297 C  
HETATM    9  C   UNL     1      -8.912   5.983  73.443  1.00  0.00    -0.129 C  
HETATM   10  C   UNL     1     -10.736   7.119  69.432  1.00  0.00    -0.246 C  
HETATM   11  H   UNL     1     -12.079   7.954  73.262  1.00  0.00     0.000 HD 
HETATM   12  C   UNL     1     -10.117   9.403  70.948  1.00  0.00    -0.366 C  
HETATM   13  C   UNL     1     -10.802   6.463  68.034  1.00  0.00    -0.396 C  
HETATM   14  C   UNL     1     -10.474   7.303  66.814  1.00  0.00    -0.311 C  
HETATM   15  C   UNL     1     -10.342   8.687  69.465  1.00  0.00    -0.214 C  
HETATM   16  C   UNL     1     -10.122   8.757  66.990  1.00  0.00    -0.335 C  
HETATM   17  C   UNL     1     -10.069   9.365  68.314  1.00  0.00    -0.210 C  
HETATM   18  C   UNL     1      -9.627  10.810  68.365  1.00  0.00    -0.177 C  
HETATM   19  C   UNL     1      -9.313  11.586  67.087  1.00  0.00    -0.177 C  
HETATM   20  C   UNL     1      -9.440  10.816  65.810  1.00  0.00    -0.204 C  
HETATM   21  O   UNL     1      -9.206  11.341  64.718  1.00  0.00    -0.185 OA 
ENDROOT
BRANCH   4  22
HETATM   22  C   UNL     1     -11.900   5.687  72.371  1.00  0.00    -0.181 C  
BRANCH  22  23
HETATM   23  C   UNL     1     -13.155   6.522  72.176  1.00  0.00     0.133 C  
HETATM   24  H1  UNL     1     -15.037   7.776  71.886  1.00  0.00     0.000 HD 
HETATM   25  N   UNL     1     -14.195   7.216  72.017  1.00  0.00    -0.619 NA 
HETATM   26  H2  UNL     1     -14.071   7.667  72.923  1.00  0.00     0.000 HD 
ENDBRANCH  22  23
ENDBRANCH   4  22
TORSDOF 2
ENDMDL
MODEL       58
REMARK 921   NORMALIZED FREE ENERGY PREDICTED BY IDOCK:   -5.03 KCAL/MOL
REMARK 922        TOTAL FREE ENERGY PREDICTED BY IDOCK:   -5.88 KCAL/MOL
REMARK 923 INTER-LIGAND FREE ENERGY PREDICTED BY IDOCK:   -5.46 KCAL/MOL
REMARK 924 INTRA-LIGAND FREE ENERGY PREDICTED BY IDOCK:   -0.41 KCAL/MOL
REMARK 927      BINDING AFFINITY PREDICTED BY RF-SCORE:    0.00 PKD
ROOT
HETATM    1  C   UNL     1      -9.674   9.257  67.399  1.00  0.00    -0.208 C  
HETATM    2  C   UNL     1     -11.030   8.961  67.093  1.00  0.00     0.119 C  
HETATM    3  C   UNL     1     -10.526  10.330  66.842  1.00  0.00    -0.291 C  
HETATM    4  C   UNL     1      -8.483  10.623  67.028  1.00  0.00    -0.129 C  
HETATM    5  O   UNL     1      -7.727  11.804  66.640  1.00  0.00    -0.293 OA 
HETATM    6  C   UNL     1     -12.794  11.585  71.808  1.00  0.00    -0.441 C  
HETATM    7  C   UNL     1      -9.245  10.418  65.909  1.00  0.00    -0.205 C  
HETATM    8  C   UNL     1      -9.853  12.200  66.056  1.00  0.00    -0.260 C  
HETATM    9  C   UNL     1      -8.969   9.806  64.570  1.00  0.00    -0.278 C  
HETATM   10  C   UNL     1      -9.756  10.196  69.034  1.00  0.00    -0.212 C  
HETATM   11  H   UNL     1      -6.790  11.938  66.725  1.00  0.00     0.000 HD 
HETATM   12  C   UNL     1      -9.899  12.695  67.757  1.00  0.00    -0.212 C  
HETATM   13  C   UNL     1     -10.312   9.263  70.134  1.00  0.00    -0.258 C  
HETATM   14  C   UNL     1     -11.377   9.793  71.075  1.00  0.00    -0.460 C  
HETATM   15  C   UNL     1     -10.356  11.699  69.005  1.00  0.00    -0.119 C  
HETATM   16  C   UNL     1     -11.846  11.218  70.936  1.00  0.00    -0.177 C  
HETATM   17  C   UNL     1     -11.310  12.089  69.898  1.00  0.00    -0.144 C  
HETATM   18  C   UNL     1     -11.917  13.472  69.811  1.00  0.00    -0.405 C  
HETATM   19  C   UNL     1     -12.989  13.927  70.799  1.00  0.00    -0.265 C  
HETATM   20  C   UNL     1     -13.409  12.914  71.817  1.00  0.00    -0.359 C  
HETATM   21  O   UNL     1     -14.272  13.172  72.660  1.00  0.00    -0.677 OA 
ENDROOT
BRANCH   4  22
HETATM   22  C   UNL     1      -6.988   9.527  67.053  1.00  0.00    -0.085 C  
BRANCH  22  23
HETATM   23  C   UNL     1      -6.162  10.446  67.938  1.00  0.00    -0.059 C  
HETATM   24  H1  UNL     1      -4.925  11.826  69.266  1.00  0.00     0.000 HD 
HETATM   25  N   UNL     1      -5.479  11.209  68.672  1.00  0.00    -0.043 NA 
HETATM   26  H2  UNL     1      -6.210  11.230  69.383  1.00  0.00     0.000 HD 
ENDBRANCH  22  23
ENDBRANCH   4  22
TORSDOF 2
ENDMDL
MODEL       59
REMARK 921   NORMALIZED FREE ENERGY PREDICTED BY IDOCK:   -4.98 KCAL/MOL
REMARK 922        TOTAL FREE ENERGY PREDICTED BY IDOCK:   -5.83 KCAL/MOL
REMARK 923 INTER-LIGAND FREE ENERGY PREDICTED BY IDOCK:   -5.41 KCAL/MOL
REMARK 924 INTRA-LIGAND FREE ENERGY PREDICTED BY IDOCK:   -0.42 KCAL/MOL
REMARK 927      BINDING AFFINITY PREDICTED BY RF-SCORE:    0.00 PKD
ROOT
HETATM    1  C   UNL     1      -9.770   6.468  68.546  1.00  0.00    -0.129 C  
HETATM    2  C   UNL     1     -11.147   6.339  68.213  1.00  0.00    -0.364 C  
HETATM    3  C   UNL     1     -10.388   7.486  67.667  1.00  0.00    -0.295 C  
HETATM    4  C   UNL     1      -8.334   7.464  67.940  1.00  0.00    -0.119 C  
HETATM    5  O   UNL     1      -7.357   8.353  67.329  1.00  0.00    -0.083 OA 
HETATM    6  C   UNL     1     -12.554  10.376  71.948  1.00  0.00    -0.387 C  
HETATM    7  C   UNL     1      -9.081   7.104  66.850  1.00  0.00    -0.159 C  
HETATM    8  C   UNL     1      -9.351   8.938  66.491  1.00  0.00    -0.252 C  
HETATM    9  C   UNL     1      -8.877   6.122  65.737  1.00  0.00    -0.133 C  
HETATM   10  C   UNL     1      -9.733   7.806  69.877  1.00  0.00    -0.176 C  
HETATM   11  H   UNL     1      -6.415   8.343  67.454  1.00  0.00     0.000 HD 
HETATM   12  C   UNL     1      -9.363   9.865  68.001  1.00  0.00    -0.140 C  
HETATM   13  C   UNL     1     -10.492   7.306  71.127  1.00  0.00    -0.221 C  
HETATM   14  C   UNL     1     -11.471   8.239  71.813  1.00  0.00    -0.353 C  
HETATM   15  C   UNL     1     -10.041   9.327  69.419  1.00  0.00    -0.200 C  
HETATM   16  C   UNL     1     -11.660   9.635  71.279  1.00  0.00    -0.466 C  
HETATM   17  C   UNL     1     -10.935  10.096  70.102  1.00  0.00    -0.376 C  
HETATM   18  C   UNL     1     -11.271  11.490  69.618  1.00  0.00    -0.276 C  
HETATM   19  C   UNL     1     -12.272  12.366  70.367  1.00  0.00    -0.370 C  
HETATM   20  C   UNL     1     -12.910  11.745  71.570  1.00  0.00    -0.345 C  
HETATM   21  O   UNL     1     -13.738  12.360  72.247  1.00  0.00    -0.441 OA 
ENDROOT
BRANCH   4  22
HETATM   22  C   UNL     1      -7.071   6.174  68.364  1.00  0.00    -0.082 C  
BRANCH  22  23
HETATM   23  C   UNL     1      -6.077   7.153  68.966  1.00  0.00    -0.023 C  
HETATM   24  H1  UNL     1      -4.584   8.621  69.869  1.00  0.00     0.000 HD 
HETATM   25  N   UNL     1      -5.251   7.964  69.466  1.00  0.00    -0.022 NA 
HETATM   26  H2  UNL     1      -4.886   7.251  70.097  1.00  0.00     0.000 HD 
ENDBRANCH  22  23
ENDBRANCH   4  22
TORSDOF 2
ENDMDL
MODEL       60
REMARK 921   NORMALIZED FREE ENERGY PREDICTED BY IDOCK:   -4.92 KCAL/MOL
REMARK 922        TOTAL FREE ENERGY PREDICTED BY IDOCK:   -5.76 KCAL/MOL
REMARK 923 INTER-LIGAND FREE ENERGY PREDICTED BY IDOCK:   -5.84 KCAL/MOL
REMARK 924 INTRA-LIGAND FREE ENERGY PREDICTED BY IDOCK:    0.07 KCAL/MOL
REMARK 927      BINDING AFFINITY PREDICTED BY RF-SCORE:    0.00 PKD
ROOT
HETATM    1  C   UNL     1      -8.921   7.899  70.646  1.00  0.00    -0.148 C  
HETATM    2  C   UNL     1      -8.148   8.936  71.238  1.00  0.00    -0.185 C  
HETATM    3  C   UNL     1      -9.308   8.398  71.984  1.00  0.00    -0.332 C  
HETATM    4  C   UNL     1     -10.212   6.701  71.211  1.00  0.00    -0.200 C  
HETATM    5  O   UNL     1     -11.220   5.873  71.856  1.00  0.00    -0.268 OA 
HETATM    6  C   UNL     1     -12.098  12.796  69.924  1.00  0.00    -0.329 C  
HETATM    7  C   UNL     1      -9.292   6.828  72.217  1.00  0.00    -0.145 C  
HETATM    8  C   UNL     1     -10.674   7.463  73.336  1.00  0.00    -0.407 C  
HETATM    9  C   UNL     1      -8.217   5.931  72.752  1.00  0.00    -0.118 C  
HETATM   10  C   UNL     1     -10.463   8.775  70.000  1.00  0.00    -0.222 C  
HETATM   11  H   UNL     1     -11.635   5.095  71.501  1.00  0.00     0.000 HD 
HETATM   12  C   UNL     1     -11.888   8.330  72.381  1.00  0.00    -0.461 C  
HETATM   13  C   UNL     1     -10.059   9.774  68.893  1.00  0.00    -0.194 C  
HETATM   14  C   UNL     1     -10.653  11.170  68.913  1.00  0.00    -0.239 C  
HETATM   15  C   UNL     1     -11.531   9.313  71.090  1.00  0.00    -0.403 C  
HETATM   16  C   UNL     1     -11.640  11.539  69.989  1.00  0.00    -0.364 C  
HETATM   17  C   UNL     1     -12.017  10.585  71.025  1.00  0.00    -0.466 C  
HETATM   18  C   UNL     1     -12.955  11.100  72.094  1.00  0.00    -0.220 C  
HETATM   19  C   UNL     1     -13.508  12.523  72.041  1.00  0.00    -0.486 C  
HETATM   20  C   UNL     1     -13.036  13.363  70.896  1.00  0.00    -0.123 C  
HETATM   21  O   UNL     1     -13.414  14.529  70.758  1.00  0.00    -0.304 OA 
ENDROOT
BRANCH   4  22
HETATM   22  C   UNL     1      -9.731   5.383  69.999  1.00  0.00    -0.248 C  
BRANCH  22  23
HETATM   23  C   UNL     1     -10.047   4.224  70.930  1.00  0.00    -0.091 C  
HETATM   24  H1  UNL     1     -10.520   2.485  72.326  1.00  0.00     0.000 HD 
HETATM   25  N   UNL     1     -10.308   3.262  71.702  1.00  0.00     0.121 NA 
HETATM   26  H2  UNL     1      -9.331   2.969  71.716  1.00  0.00     0.000 HD 
ENDBRANCH  22  23
ENDBRANCH   4  22
TORSDOF 2
ENDMDL
MODEL       61
REMARK 921   NORMALIZED FREE ENERGY PREDICTED BY IDOCK:   -4.90 KCAL/MOL
REMARK 922        TOTAL FREE ENERGY PREDICTED BY IDOCK:   -5.74 KCAL/MOL
REMARK 923 INTER-LIGAND FREE ENERGY PREDICTED BY IDOCK:   -5.71 KCAL/MOL
REMARK 924 INTRA-LIGAND FREE ENERGY PREDICTED BY IDOCK:   -0.03 KCAL/MOL
REMARK 927      BINDING AFFINITY PREDICTED BY RF-SCORE:    0.00 PKD
ROOT
HETATM    1  C   UNL     1      -9.976  11.904  68.523  1.00  0.00    -0.196 C  
HETATM    2  C   UNL     1      -8.672  11.528  68.949  1.00  0.00     0.031 C  
HETATM    3  C   UNL     1      -9.045  11.322  67.531  1.00  0.00    -0.151 C  
HETATM    4  C   UNL     1     -10.836  12.153  66.904  1.00  0.00    -0.250 C  
HETATM    5  O   UNL     1     -11.319  12.268  65.536  1.00  0.00    -0.324 OA 
HETATM    6  C   UNL     1     -10.159   6.051  69.062  1.00  0.00    -0.223 C  
HETATM    7  C   UNL     1      -9.555  12.619  66.771  1.00  0.00    -0.241 C  
HETATM    8  C   UNL     1      -9.284  11.341  65.407  1.00  0.00    -0.202 C  
HETATM    9  C   UNL     1      -8.960  13.990  66.672  1.00  0.00    -0.177 C  
HETATM   10  C   UNL     1     -10.924  10.276  68.419  1.00  0.00    -0.308 C  
HETATM   11  H   UNL     1     -12.141  12.650  65.249  1.00  0.00     0.000 HD 
HETATM   12  C   UNL     1     -10.265   9.898  65.714  1.00  0.00    -0.251 C  
HETATM   13  C   UNL     1     -11.033   9.656  69.830  1.00  0.00    -0.281 C  
HETATM   14  C   UNL     1     -10.751   8.176  70.005  1.00  0.00    -0.243 C  
HETATM   15  C   UNL     1     -10.536   9.258  67.223  1.00  0.00    -0.334 C  
HETATM   16  C   UNL     1     -10.400   7.343  68.800  1.00  0.00    -0.209 C  
HETATM   17  C   UNL     1     -10.305   7.938  67.474  1.00  0.00    -0.329 C  
HETATM   18  C   UNL     1      -9.868   7.013  66.359  1.00  0.00    -0.103 C  
HETATM   19  C   UNL     1      -9.602   5.533  66.620  1.00  0.00    -0.163 C  
HETATM   20  C   UNL     1      -9.768   5.081  68.037  1.00  0.00    -0.151 C  
HETATM   21  O   UNL     1      -9.573   3.907  68.363  1.00  0.00    -0.162 OA 
ENDROOT
BRANCH   4  22
HETATM   22  C   UNL     1     -11.981  13.463  67.546  1.00  0.00    -0.381 C  
BRANCH  22  23
HETATM   23  C   UNL     1     -12.641  13.733  66.203  1.00  0.00    -0.371 C  
HETATM   24  H1  UNL     1     -13.631  14.137  64.189  1.00  0.00     0.000 HD 
HETATM   25  N   UNL     1     -13.187  13.955  65.090  1.00  0.00    -0.690 NA 
HETATM   26  H2  UNL     1     -12.464  13.433  64.596  1.00  0.00     0.000 HD 
ENDBRANCH  22  23
ENDBRANCH   4  22
TORSDOF 2
ENDMDL
MODEL       62
REMARK 921   NORMALIZED FREE ENERGY PREDICTED BY IDOCK:   -4.83 KCAL/MOL
REMARK 922        TOTAL FREE ENERGY PREDICTED BY IDOCK:   -5.65 KCAL/MOL
REMARK 923 INTER-LIGAND FREE ENERGY PREDICTED BY IDOCK:   -5.52 KCAL/MOL
REMARK 924 INTRA-LIGAND FREE ENERGY PREDICTED BY IDOCK:   -0.13 KCAL/MOL
REMARK 927      BINDING AFFINITY PREDICTED BY RF-SCORE:    0.00 PKD
ROOT
HETATM    1  C   UNL     1      -9.381   9.886  69.911  1.00  0.00    -0.250 C  
HETATM    2  C   UNL     1      -8.016   9.610  69.625  1.00  0.00    -0.137 C  
HETATM    3  C   UNL     1      -8.995   9.579  68.516  1.00  0.00    -0.128 C  
HETATM    4  C   UNL     1     -10.903  10.272  68.932  1.00  0.00    -0.228 C  
HETATM    5  O   UNL     1     -11.969  10.534  67.976  1.00  0.00    -0.758 OA 
HETATM    6  C   UNL     1      -9.074   4.040  69.346  1.00  0.00    -0.191 C  
HETATM    7  C   UNL     1      -9.848  10.904  68.329  1.00  0.00    -0.179 C  
HETATM    8  C   UNL     1     -10.192   9.891  66.773  1.00  0.00    -0.301 C  
HETATM    9  C   UNL     1      -9.418  12.337  68.238  1.00  0.00    -0.209 C  
HETATM   10  C   UNL     1     -10.208   8.189  69.935  1.00  0.00    -0.204 C  
HETATM   11  H   UNL     1     -12.844  10.852  68.167  1.00  0.00     0.000 HD 
HETATM   12  C   UNL     1     -10.864   8.310  67.205  1.00  0.00    -0.103 C  
HETATM   13  C   UNL     1      -9.627   7.353  71.097  1.00  0.00    -0.162 C  
HETATM   14  C   UNL     1      -9.240   5.909  70.841  1.00  0.00    -0.167 C  
HETATM   15  C   UNL     1     -10.381   7.420  68.522  1.00  0.00    -0.221 C  
HETATM   16  C   UNL     1      -9.457   5.318  69.472  1.00  0.00    -0.192 C  
HETATM   17  C   UNL     1     -10.010   6.115  68.385  1.00  0.00    -0.162 C  
HETATM   18  C   UNL     1     -10.106   5.431  67.040  1.00  0.00    -0.234 C  
HETATM   19  C   UNL     1      -9.693   3.971  66.865  1.00  0.00    -0.215 C  
HETATM   20  C   UNL     1      -9.166   3.292  68.090  1.00  0.00    -0.191 C  
HETATM   21  O   UNL     1      -8.799   2.114  68.063  1.00  0.00    -0.093 OA 
ENDROOT
BRANCH   4  22
HETATM   22  C   UNL     1     -11.668  11.320  70.256  1.00  0.00    -0.415 C  
BRANCH  22  23
HETATM   23  C   UNL     1     -12.826  10.372  70.524  1.00  0.00    -0.254 C  
HETATM   24  H1  UNL     1     -14.562   8.950  70.926  1.00  0.00     0.000 HD 
HETATM   25  N   UNL     1     -13.786   9.586  70.745  1.00  0.00    -0.530 NA 
HETATM   26  H2  UNL     1     -14.247   9.856  69.877  1.00  0.00     0.000 HD 
ENDBRANCH  22  23
ENDBRANCH   4  22
TORSDOF 2
ENDMDL
MODEL       63
REMARK 921   NORMALIZED FREE ENERGY PREDICTED BY IDOCK:   -4.75 KCAL/MOL
REMARK 922        TOTAL FREE ENERGY PREDICTED BY IDOCK:   -5.56 KCAL/MOL
REMARK 923 INTER-LIGAND FREE ENERGY PREDICTED BY IDOCK:   -5.15 KCAL/MOL
REMARK 924 INTRA-LIGAND FREE ENERGY PREDICTED BY IDOCK:   -0.41 KCAL/MOL
REMARK 927      BINDING AFFINITY PREDICTED BY RF-SCORE:    0.00 PKD
ROOT
HETATM    1  C   UNL     1      -9.261   6.704  72.070  1.00  0.00    -0.142 C  
HETATM    2  C   UNL     1     -10.026   6.031  71.078  1.00  0.00    -0.230 C  
HETATM    3  C   UNL     1      -8.744   6.657  70.685  1.00  0.00    -0.143 C  
HETATM    4  C   UNL     1      -7.538   7.361  72.215  1.00  0.00    -0.088 C  
HETATM    5  O   UNL     1      -6.161   7.821  72.107  1.00  0.00    -0.039 OA 
HETATM    6  C   UNL     1     -11.891  10.971  68.995  1.00  0.00    -0.399 C  
HETATM    7  C   UNL     1      -7.478   6.184  71.517  1.00  0.00    -0.094 C  
HETATM    8  C   UNL     1      -6.760   7.143  70.057  1.00  0.00    -0.051 C  
HETATM    9  C   UNL     1      -6.988   4.809  71.852  1.00  0.00    -0.060 C  
HETATM   10  C   UNL     1      -9.598   8.535  71.761  1.00  0.00    -0.337 C  
HETATM   11  H   UNL     1      -5.608   8.144  72.808  1.00  0.00     0.000 HD 
HETATM   12  C   UNL     1      -7.395   8.797  70.036  1.00  0.00    -0.053 C  
HETATM   13  C   UNL     1     -11.093   8.831  72.016  1.00  0.00    -0.441 C  
HETATM   14  C   UNL     1     -11.853   9.682  71.018  1.00  0.00    -0.428 C  
HETATM   15  C   UNL     1      -8.957   9.200  70.433  1.00  0.00    -0.263 C  
HETATM   16  C   UNL     1     -11.129  10.241  69.821  1.00  0.00    -0.340 C  
HETATM   17  C   UNL     1      -9.718   9.959  69.594  1.00  0.00    -0.252 C  
HETATM   18  C   UNL     1      -9.126  10.512  68.316  1.00  0.00    -0.146 C  
HETATM   19  C   UNL     1      -9.962  11.361  67.361  1.00  0.00    -0.207 C  
HETATM   20  C   UNL     1     -11.389  11.573  67.757  1.00  0.00    -0.296 C  
HETATM   21  O   UNL     1     -12.157  12.238  67.057  1.00  0.00    -0.575 OA 
ENDROOT
BRANCH   4  22
HETATM   22  C   UNL     1      -7.427   7.082  74.045  1.00  0.00    -0.108 C  
BRANCH  22  23
HETATM   23  C   UNL     1      -6.659   8.363  74.329  1.00  0.00    -0.138 C  
HETATM   24  H1  UNL     1      -5.509  10.285  74.755  1.00  0.00     0.000 HD 
HETATM   25  N   UNL     1      -6.024   9.426  74.565  1.00  0.00    -0.323 NA 
HETATM   26  H2  UNL     1      -6.868   9.893  74.896  1.00  0.00     0.000 HD 
ENDBRANCH  22  23
ENDBRANCH   4  22
TORSDOF 2
ENDMDL
MODEL       64
REMARK 921   NORMALIZED FREE ENERGY PREDICTED BY IDOCK:   -4.67 KCAL/MOL
REMARK 922        TOTAL FREE ENERGY PREDICTED BY IDOCK:   -5.48 KCAL/MOL
REMARK 923 INTER-LIGAND FREE ENERGY PREDICTED BY IDOCK:   -5.06 KCAL/MOL
REMARK 924 INTRA-LIGAND FREE ENERGY PREDICTED BY IDOCK:   -0.42 KCAL/MOL
REMARK 927      BINDING AFFINITY PREDICTED BY RF-SCORE:    0.00 PKD
ROOT
HETATM    1  C   UNL     1     -10.583   7.294  70.796  1.00  0.00    -0.237 C  
HETATM    2  C   UNL     1     -11.643   6.799  69.989  1.00  0.00    -0.367 C  
HETATM    3  C   UNL     1     -10.248   6.532  69.573  1.00  0.00    -0.219 C  
HETATM    4  C   UNL     1      -8.759   7.017  70.930  1.00  0.00    -0.143 C  
HETATM    5  O   UNL     1      -7.348   6.668  70.847  1.00  0.00    -0.079 OA 
HETATM    6  C   UNL     1     -10.880  10.971  66.216  1.00  0.00    -0.234 C  
HETATM    7  C   UNL     1      -9.345   5.809  70.660  1.00  0.00    -0.186 C  
HETATM    8  C   UNL     1      -8.333   5.728  69.068  1.00  0.00    -0.101 C  
HETATM    9  C   UNL     1      -9.598   4.579  71.477  1.00  0.00    -0.227 C  
HETATM   10  C   UNL     1      -9.966   8.822  69.876  1.00  0.00    -0.193 C  
HETATM   11  H   UNL     1      -6.665   6.890  71.469  1.00  0.00     0.000 HD 
HETATM   12  C   UNL     1      -8.045   7.359  68.439  1.00  0.00    -0.125 C  
HETATM   13  C   UNL     1     -11.087   9.885  69.839  1.00  0.00    -0.318 C  
HETATM   14  C   UNL     1     -11.373  10.605  68.535  1.00  0.00    -0.348 C  
HETATM   15  C   UNL     1      -9.161   8.589  68.492  1.00  0.00    -0.135 C  
HETATM   16  C   UNL     1     -10.542  10.289  67.319  1.00  0.00    -0.324 C  
HETATM   17  C   UNL     1      -9.484   9.288  67.368  1.00  0.00    -0.165 C  
HETATM   18  C   UNL     1      -8.775   9.006  66.062  1.00  0.00    -0.184 C  
HETATM   19  C   UNL     1      -9.124   9.776  64.790  1.00  0.00    -0.290 C  
HETATM   20  C   UNL     1     -10.221  10.786  64.921  1.00  0.00    -0.320 C  
HETATM   21  O   UNL     1     -10.589  11.461  63.957  1.00  0.00    -0.328 OA 
ENDROOT
BRANCH   4  22
HETATM   22  C   UNL     1      -8.690   7.358  72.751  1.00  0.00    -0.160 C  
BRANCH  22  23
HETATM   23  C   UNL     1      -7.435   8.211  72.680  1.00  0.00    -0.121 C  
HETATM   24  H1  UNL     1      -5.551   9.492  72.573  1.00  0.00     0.000 HD 
HETATM   25  N   UNL     1      -6.393   8.918  72.620  1.00  0.00    -0.259 NA 
HETATM   26  H2  UNL     1      -5.969   8.290  71.939  1.00  0.00     0.000 HD 
ENDBRANCH  22  23
ENDBRANCH   4  22
TORSDOF 2
ENDMDL
MODEL       65
REMARK 921   NORMALIZED FREE ENERGY PREDICTED BY IDOCK:   -4.67 KCAL/MOL
REMARK 922        TOTAL FREE ENERGY PREDICTED BY IDOCK:   -5.48 KCAL/MOL
REMARK 923 INTER-LIGAND FREE ENERGY PREDICTED BY IDOCK:   -5.10 KCAL/MOL
REMARK 924 INTRA-LIGAND FREE ENERGY PREDICTED BY IDOCK:   -0.37 KCAL/MOL
REMARK 927      BINDING AFFINITY PREDICTED BY RF-SCORE:    0.00 PKD
ROOT
HETATM    1  C   UNL     1     -10.716   7.686  68.241  1.00  0.00    -0.107 C  
HETATM    2  C   UNL     1     -10.063   7.623  66.980  1.00  0.00    -0.338 C  
HETATM    3  C   UNL     1      -9.242   7.564  68.209  1.00  0.00    -0.138 C  
HETATM    4  C   UNL     1     -10.259   7.364  70.004  1.00  0.00    -0.209 C  
HETATM    5  O   UNL     1      -9.685   7.081  71.311  1.00  0.00    -0.172 OA 
HETATM    6  C   UNL     1      -8.456  13.051  67.402  1.00  0.00    -0.200 C  
HETATM    7  C   UNL     1      -9.639   6.418  69.233  1.00  0.00    -0.145 C  
HETATM    8  C   UNL     1      -7.979   7.064  69.859  1.00  0.00    -0.123 C  
HETATM    9  C   UNL     1      -9.865   4.952  69.018  1.00  0.00    -0.250 C  
HETATM   10  C   UNL     1     -10.443   9.461  68.822  1.00  0.00    -0.236 C  
HETATM   11  H   UNL     1     -10.151   6.989  72.134  1.00  0.00     0.000 HD 
HETATM   12  C   UNL     1      -8.083   8.800  70.197  1.00  0.00    -0.114 C  
HETATM   13  C   UNL     1     -11.156  10.432  67.855  1.00  0.00    -0.363 C  
HETATM   14  C   UNL     1     -10.418  11.671  67.382  1.00  0.00    -0.239 C  
HETATM   15  C   UNL     1      -8.947   9.879  69.275  1.00  0.00    -0.184 C  
HETATM   16  C   UNL     1      -9.024  11.938  67.886  1.00  0.00    -0.179 C  
HETATM   17  C   UNL     1      -8.364  11.017  68.802  1.00  0.00    -0.144 C  
HETATM   18  C   UNL     1      -6.937  11.356  69.173  1.00  0.00    -0.118 C  
HETATM   19  C   UNL     1      -6.265  12.624  68.652  1.00  0.00    -0.070 C  
HETATM   20  C   UNL     1      -7.094  13.472  67.738  1.00  0.00    -0.159 C  
HETATM   21  O   UNL     1      -6.650  14.516  67.253  1.00  0.00    -0.288 OA 
ENDROOT
BRANCH   4  22
HETATM   22  C   UNL     1     -11.964   6.836  70.505  1.00  0.00    -0.385 C  
BRANCH  22  23
HETATM   23  C   UNL     1     -11.840   7.326  71.939  1.00  0.00    -0.297 C  
HETATM   24  H1  UNL     1     -11.653   8.059  74.090  1.00  0.00     0.000 HD 
HETATM   25  N   UNL     1     -11.736   7.730  73.128  1.00  0.00    -0.646 NA 
HETATM   26  H2  UNL     1     -10.964   7.090  73.311  1.00  0.00     0.000 HD 
ENDBRANCH  22  23
ENDBRANCH   4  22
TORSDOF 2
ENDMDL
MODEL       66
REMARK 921   NORMALIZED FREE ENERGY PREDICTED BY IDOCK:   -4.54 KCAL/MOL
REMARK 922        TOTAL FREE ENERGY PREDICTED BY IDOCK:   -5.33 KCAL/MOL
REMARK 923 INTER-LIGAND FREE ENERGY PREDICTED BY IDOCK:   -4.96 KCAL/MOL
REMARK 924 INTRA-LIGAND FREE ENERGY PREDICTED BY IDOCK:   -0.38 KCAL/MOL
REMARK 927      BINDING AFFINITY PREDICTED BY RF-SCORE:    0.00 PKD
ROOT
HETATM    1  C   UNL     1      -7.545   9.954  67.768  1.00  0.00    -0.090 C  
HETATM    2  C   UNL     1      -7.480  10.150  69.175  1.00  0.00    -0.098 C  
HETATM    3  C   UNL     1      -8.805   9.958  68.543  1.00  0.00    -0.122 C  
HETATM    4  C   UNL     1      -8.818   9.387  66.551  1.00  0.00    -0.136 C  
HETATM    5  O   UNL     1      -9.965   8.942  65.774  1.00  0.00    -0.459 OA 
HETATM    6  C   UNL     1      -9.147  15.548  68.623  1.00  0.00    -0.202 C  
HETATM    7  C   UNL     1      -8.959   8.632  67.685  1.00  0.00    -0.141 C  
HETATM    8  C   UNL     1     -10.718   9.300  67.853  1.00  0.00    -0.248 C  
HETATM    9  C   UNL     1      -8.639   7.208  68.022  1.00  0.00    -0.128 C  
HETATM   10  C   UNL     1      -8.093  11.627  67.087  1.00  0.00    -0.166 C  
HETATM   11  H   UNL     1      -9.971   8.680  64.860  1.00  0.00     0.000 HD 
HETATM   12  C   UNL     1     -10.816  10.943  67.199  1.00  0.00    -0.337 C  
HETATM   13  C   UNL     1      -7.003  12.682  67.382  1.00  0.00    -0.143 C  
HETATM   14  C   UNL     1      -7.421  14.036  67.923  1.00  0.00    -0.153 C  
HETATM   15  C   UNL     1      -9.620  12.084  67.362  1.00  0.00    -0.176 C  
HETATM   16  C   UNL     1      -8.883  14.330  68.133  1.00  0.00    -0.183 C  
HETATM   17  C   UNL     1      -9.902  13.327  67.845  1.00  0.00    -0.234 C  
HETATM   18  C   UNL     1     -11.327  13.716  68.172  1.00  0.00    -0.321 C  
HETATM   19  C   UNL     1     -11.664  15.102  68.717  1.00  0.00    -0.366 C  
HETATM   20  C   UNL     1     -10.499  16.017  68.932  1.00  0.00    -0.245 C  
HETATM   21  O   UNL     1     -10.654  17.159  69.374  1.00  0.00    -0.321 OA 
ENDROOT
BRANCH   4  22
HETATM   22  C   UNL     1      -7.585   8.649  65.380  1.00  0.00    -0.087 C  
BRANCH  22  23
HETATM   23  C   UNL     1      -8.406   8.923  64.131  1.00  0.00    -0.163 C  
HETATM   24  H1  UNL     1      -9.637   9.333  62.256  1.00  0.00     0.000 HD 
HETATM   25  N   UNL     1      -9.087   9.149  63.095  1.00  0.00    -0.439 NA 
HETATM   26  H2  UNL     1      -9.194   8.152  62.910  1.00  0.00     0.000 HD 
ENDBRANCH  22  23
ENDBRANCH   4  22
TORSDOF 2
ENDMDL
MODEL       67
REMARK 921   NORMALIZED FREE ENERGY PREDICTED BY IDOCK:   -4.53 KCAL/MOL
REMARK 922        TOTAL FREE ENERGY PREDICTED BY IDOCK:   -5.32 KCAL/MOL
REMARK 923 INTER-LIGAND FREE ENERGY PREDICTED BY IDOCK:   -4.91 KCAL/MOL
REMARK 924 INTRA-LIGAND FREE ENERGY PREDICTED BY IDOCK:   -0.41 KCAL/MOL
REMARK 927      BINDING AFFINITY PREDICTED BY RF-SCORE:    0.00 PKD
ROOT
HETATM    1  C   UNL     1     -10.794   6.912  70.631  1.00  0.00    -0.280 C  
HETATM    2  C   UNL     1     -10.303   5.587  70.797  1.00  0.00    -0.321 C  
HETATM    3  C   UNL     1      -9.336   6.707  70.774  1.00  0.00    -0.159 C  
HETATM    4  C   UNL     1     -10.121   8.624  70.826  1.00  0.00    -0.198 C  
HETATM    5  O   UNL     1      -9.390   9.867  71.019  1.00  0.00    -0.294 OA 
HETATM    6  C   UNL     1      -8.638   5.395  65.374  1.00  0.00    -0.150 C  
HETATM    7  C   UNL     1      -9.605   7.855  71.836  1.00  0.00    -0.226 C  
HETATM    8  C   UNL     1      -7.878   8.220  71.166  1.00  0.00    -0.102 C  
HETATM    9  C   UNL     1      -9.861   7.782  73.311  1.00  0.00    -0.362 C  
HETATM   10  C   UNL     1     -10.444   7.318  68.822  1.00  0.00    -0.214 C  
HETATM   11  H   UNL     1      -9.750  10.746  71.043  1.00  0.00     0.000 HD 
HETATM   12  C   UNL     1      -7.934   8.436  69.408  1.00  0.00    -0.112 C  
HETATM   13  C   UNL     1     -11.269   6.376  67.916  1.00  0.00    -0.262 C  
HETATM   14  C   UNL     1     -10.591   5.723  66.727  1.00  0.00    -0.373 C  
HETATM   15  C   UNL     1      -8.902   7.549  68.391  1.00  0.00    -0.126 C  
HETATM   16  C   UNL     1      -9.145   6.029  66.440  1.00  0.00    -0.159 C  
HETATM   17  C   UNL     1      -8.379   6.923  67.299  1.00  0.00    -0.121 C  
HETATM   18  C   UNL     1      -6.916   7.088  66.951  1.00  0.00    -0.070 C  
HETATM   19  C   UNL     1      -6.310   6.392  65.734  1.00  0.00    -0.039 C  
HETATM   20  C   UNL     1      -7.243   5.527  64.946  1.00  0.00    -0.062 C  
HETATM   21  O   UNL     1      -6.859   4.913  63.947  1.00  0.00    -0.045 OA 
ENDROOT
BRANCH   4  22
HETATM   22  C   UNL     1     -11.752   9.371  71.294  1.00  0.00    -0.432 C  
BRANCH  22  23
HETATM   23  C   UNL     1     -11.560  10.636  70.475  1.00  0.00    -0.350 C  
HETATM   24  H1  UNL     1     -11.272  12.535  69.246  1.00  0.00     0.000 HD 
HETATM   25  N   UNL     1     -11.401  11.686  69.795  1.00  0.00    -0.448 NA 
HETATM   26  H2  UNL     1     -12.266  11.520  69.281  1.00  0.00     0.000 HD 
ENDBRANCH  22  23
ENDBRANCH   4  22
TORSDOF 2
ENDMDL
MODEL       68
REMARK 921   NORMALIZED FREE ENERGY PREDICTED BY IDOCK:   -4.49 KCAL/MOL
REMARK 922        TOTAL FREE ENERGY PREDICTED BY IDOCK:   -5.28 KCAL/MOL
REMARK 923 INTER-LIGAND FREE ENERGY PREDICTED BY IDOCK:   -4.88 KCAL/MOL
REMARK 924 INTRA-LIGAND FREE ENERGY PREDICTED BY IDOCK:   -0.40 KCAL/MOL
REMARK 927      BINDING AFFINITY PREDICTED BY RF-SCORE:    0.00 PKD
ROOT
HETATM    1  C   UNL     1      -9.661   7.705  69.969  1.00  0.00    -0.164 C  
HETATM    2  C   UNL     1     -10.786   7.150  69.299  1.00  0.00    -0.231 C  
HETATM    3  C   UNL     1      -9.564   7.440  68.516  1.00  0.00    -0.146 C  
HETATM    4  C   UNL     1      -7.870   7.967  69.587  1.00  0.00    -0.105 C  
HETATM    5  O   UNL     1      -6.513   8.096  69.077  1.00  0.00    -0.039 OA 
HETATM    6  C   UNL     1     -12.139  12.213  67.118  1.00  0.00     0.054 C  
HETATM    7  C   UNL     1      -8.237   6.758  69.058  1.00  0.00    -0.117 C  
HETATM    8  C   UNL     1      -7.772   7.419  67.351  1.00  0.00    -0.114 C  
HETATM    9  C   UNL     1      -7.954   5.336  69.438  1.00  0.00    -0.088 C  
HETATM   10  C   UNL     1      -9.702   9.536  69.516  1.00  0.00    -0.201 C  
HETATM   11  H   UNL     1      -5.737   8.338  69.568  1.00  0.00     0.000 HD 
HETATM   12  C   UNL     1      -8.050   9.167  67.273  1.00  0.00    -0.106 C  
HETATM   13  C   UNL     1     -10.982  10.179  70.097  1.00  0.00    -0.376 C  
HETATM   14  C   UNL     1     -11.803  11.103  69.218  1.00  0.00    -0.422 C  
HETATM   15  C   UNL     1      -9.332   9.940  67.993  1.00  0.00    -0.140 C  
HETATM   16  C   UNL     1     -11.340  11.394  67.815  1.00  0.00    -0.354 C  
HETATM   17  C   UNL     1     -10.129  10.785  67.280  1.00  0.00    -0.233 C  
HETATM   18  C   UNL     1      -9.813  11.094  65.833  1.00  0.00    -0.275 C  
HETATM   19  C   UNL     1     -10.694  12.036  65.015  1.00  0.00    -0.341 C  
HETATM   20  C   UNL     1     -11.888  12.592  65.726  1.00  0.00    -0.444 C  
HETATM   21  O   UNL     1     -12.671  13.359  65.160  1.00  0.00    -0.605 OA 
ENDROOT
BRANCH   4  22
HETATM   22  C   UNL     1      -7.319   7.807  71.351  1.00  0.00    -0.067 C  
BRANCH  22  23
HETATM   23  C   UNL     1      -6.506   9.092  71.353  1.00  0.00    -0.079 C  
HETATM   24  H1  UNL     1      -5.286  11.018  71.358  1.00  0.00     0.000 HD 
HETATM   25  N   UNL     1      -5.831  10.156  71.357  1.00  0.00    -0.285 NA 
HETATM   26  H2  UNL     1      -5.137   9.750  71.983  1.00  0.00     0.000 HD 
ENDBRANCH  22  23
ENDBRANCH   4  22
TORSDOF 2
ENDMDL
MODEL       69
REMARK 921   NORMALIZED FREE ENERGY PREDICTED BY IDOCK:   -4.49 KCAL/MOL
REMARK 922        TOTAL FREE ENERGY PREDICTED BY IDOCK:   -5.28 KCAL/MOL
REMARK 923 INTER-LIGAND FREE ENERGY PREDICTED BY IDOCK:   -4.88 KCAL/MOL
REMARK 924 INTRA-LIGAND FREE ENERGY PREDICTED BY IDOCK:   -0.40 KCAL/MOL
REMARK 927      BINDING AFFINITY PREDICTED BY RF-SCORE:    0.00 PKD
ROOT
HETATM    1  C   UNL     1      -9.227   9.022  67.030  1.00  0.00    -0.169 C  
HETATM    2  C   UNL     1     -10.279   8.155  66.625  1.00  0.00    -0.329 C  
HETATM    3  C   UNL     1     -10.545   9.149  67.688  1.00  0.00    -0.307 C  
HETATM    4  C   UNL     1      -9.078  10.572  68.029  1.00  0.00    -0.138 C  
HETATM    5  O   UNL     1      -9.184  11.762  68.860  1.00  0.00    -0.393 OA 
HETATM    6  C   UNL     1      -9.567   4.936  71.246  1.00  0.00    -0.229 C  
HETATM    7  C   UNL     1     -10.233  10.656  67.298  1.00  0.00    -0.250 C  
HETATM    8  C   UNL     1     -11.193  10.771  68.920  1.00  0.00    -0.328 C  
HETATM    9  C   UNL     1     -10.641  11.460  66.101  1.00  0.00    -0.316 C  
HETATM   10  C   UNL     1      -8.614   8.287  68.656  1.00  0.00    -0.133 C  
HETATM   11  H   UNL     1      -8.511  12.414  69.016  1.00  0.00     0.000 HD 
HETATM   12  C   UNL     1     -10.360   9.864  70.193  1.00  0.00    -0.336 C  
HETATM   13  C   UNL     1      -8.016   6.887  68.393  1.00  0.00    -0.122 C  
HETATM   14  C   UNL     1      -8.384   5.746  69.323  1.00  0.00    -0.108 C  
HETATM   15  C   UNL     1      -9.579   8.418  69.948  1.00  0.00    -0.171 C  
HETATM   16  C   UNL     1      -9.296   6.010  70.492  1.00  0.00    -0.177 C  
HETATM   17  C   UNL     1      -9.849   7.337  70.732  1.00  0.00    -0.178 C  
HETATM   18  C   UNL     1     -10.814   7.455  71.892  1.00  0.00    -0.262 C  
HETATM   19  C   UNL     1     -11.132   6.255  72.780  1.00  0.00    -0.284 C  
HETATM   20  C   UNL     1     -10.460   4.971  72.406  1.00  0.00    -0.217 C  
HETATM   21  O   UNL     1     -10.649   3.936  73.051  1.00  0.00    -0.167 OA 
ENDROOT
BRANCH   4  22
HETATM   22  C   UNL     1      -7.617  11.216  67.085  1.00  0.00    -0.125 C  
BRANCH  22  23
HETATM   23  C   UNL     1      -6.770  11.487  68.317  1.00  0.00    -0.064 C  
HETATM   24  H1  UNL     1      -5.501  11.893  70.167  1.00  0.00     0.000 HD 
HETATM   25  N   UNL     1      -6.069  11.711  69.340  1.00  0.00    -0.077 NA 
HETATM   26  H2  UNL     1      -6.891  11.699  69.944  1.00  0.00     0.000 HD 
ENDBRANCH  22  23
ENDBRANCH   4  22
TORSDOF 2
ENDMDL
MODEL       70
REMARK 921   NORMALIZED FREE ENERGY PREDICTED BY IDOCK:   -4.46 KCAL/MOL
REMARK 922        TOTAL FREE ENERGY PREDICTED BY IDOCK:   -5.24 KCAL/MOL
REMARK 923 INTER-LIGAND FREE ENERGY PREDICTED BY IDOCK:   -4.83 KCAL/MOL
REMARK 924 INTRA-LIGAND FREE ENERGY PREDICTED BY IDOCK:   -0.41 KCAL/MOL
REMARK 927      BINDING AFFINITY PREDICTED BY RF-SCORE:    0.00 PKD
ROOT
HETATM    1  C   UNL     1      -7.109   9.708  66.354  1.00  0.00    -0.093 C  
HETATM    2  C   UNL     1      -6.322   9.247  67.446  1.00  0.00    -0.062 C  
HETATM    3  C   UNL     1      -7.081   8.258  66.648  1.00  0.00    -0.077 C  
HETATM    4  C   UNL     1      -7.966   8.943  64.904  1.00  0.00    -0.129 C  
HETATM    5  O   UNL     1      -8.580   8.140  63.858  1.00  0.00    -0.396 OA 
HETATM    6  C   UNL     1     -10.947   8.648  70.682  1.00  0.00    -0.274 C  
HETATM    7  C   UNL     1      -6.784   8.276  65.089  1.00  0.00    -0.055 C  
HETATM    8  C   UNL     1      -7.776   6.694  65.368  1.00  0.00    -0.100 C  
HETATM    9  C   UNL     1      -5.486   8.251  64.342  1.00  0.00    -0.044 C  
HETATM   10  C   UNL     1      -8.878   9.691  67.011  1.00  0.00    -0.142 C  
HETATM   11  H   UNL     1      -8.986   8.454  63.058  1.00  0.00     0.000 HD 
HETATM   12  C   UNL     1      -9.343   7.073  66.103  1.00  0.00    -0.090 C  
HETATM   13  C   UNL     1      -9.005  10.709  68.166  1.00  0.00    -0.141 C  
HETATM   14  C   UNL     1      -9.733  10.296  69.431  1.00  0.00    -0.242 C  
HETATM   15  C   UNL     1      -9.574   8.251  67.251  1.00  0.00    -0.215 C  
HETATM   16  C   UNL     1     -10.336   8.918  69.521  1.00  0.00    -0.213 C  
HETATM   17  C   UNL     1     -10.213   7.969  68.422  1.00  0.00    -0.239 C  
HETATM   18  C   UNL     1     -10.793   6.593  68.664  1.00  0.00    -0.319 C  
HETATM   19  C   UNL     1     -11.510   6.256  69.970  1.00  0.00    -0.460 C  
HETATM   20  C   UNL     1     -11.566   7.355  70.984  1.00  0.00    -0.288 C  
HETATM   21  O   UNL     1     -12.116   7.192  72.077  1.00  0.00    -0.299 OA 
ENDROOT
BRANCH   4  22
HETATM   22  C   UNL     1      -7.757  10.425  63.810  1.00  0.00    -0.042 C  
BRANCH  22  23
HETATM   23  C   UNL     1      -9.202  10.449  63.339  1.00  0.00    -0.285 C  
HETATM   24  H1  UNL     1     -11.369  10.484  62.633  1.00  0.00     0.000 HD 
HETATM   25  N   UNL     1     -10.400  10.468  62.950  1.00  0.00    -0.622 NA 
HETATM   26  H2  UNL     1     -10.739  10.236  63.883  1.00  0.00     0.000 HD 
ENDBRANCH  22  23
ENDBRANCH   4  22
TORSDOF 2
ENDMDL
MODEL       71
REMARK 921   NORMALIZED FREE ENERGY PREDICTED BY IDOCK:   -4.45 KCAL/MOL
REMARK 922        TOTAL FREE ENERGY PREDICTED BY IDOCK:   -5.23 KCAL/MOL
REMARK 923 INTER-LIGAND FREE ENERGY PREDICTED BY IDOCK:   -4.83 KCAL/MOL
REMARK 924 INTRA-LIGAND FREE ENERGY PREDICTED BY IDOCK:   -0.40 KCAL/MOL
REMARK 927      BINDING AFFINITY PREDICTED BY RF-SCORE:    0.00 PKD
ROOT
HETATM    1  C   UNL     1      -8.658   5.619  65.585  1.00  0.00    -0.150 C  
HETATM    2  C   UNL     1      -7.758   6.430  66.330  1.00  0.00    -0.099 C  
HETATM    3  C   UNL     1      -7.701   4.961  66.501  1.00  0.00    -0.095 C  
HETATM    4  C   UNL     1      -8.822   3.821  65.182  1.00  0.00    -0.123 C  
HETATM    5  O   UNL     1      -8.775   2.377  65.011  1.00  0.00    -0.102 OA 
HETATM    6  C   UNL     1     -10.898   5.817  71.019  1.00  0.00    -0.316 C  
HETATM    7  C   UNL     1      -7.489   4.133  65.163  1.00  0.00    -0.073 C  
HETATM    8  C   UNL     1      -7.225   2.878  66.549  1.00  0.00    -0.065 C  
HETATM    9  C   UNL     1      -6.482   4.292  64.065  1.00  0.00    -0.041 C  
HETATM   10  C   UNL     1      -9.997   5.143  66.826  1.00  0.00    -0.231 C  
HETATM   11  H   UNL     1      -9.290   1.854  64.407  1.00  0.00     0.000 HD 
HETATM   12  C   UNL     1      -8.665   2.785  67.577  1.00  0.00    -0.136 C  
HETATM   13  C   UNL     1     -10.749   6.414  67.281  1.00  0.00    -0.426 C  
HETATM   14  C   UNL     1     -11.036   6.607  68.758  1.00  0.00    -0.322 C  
HETATM   15  C   UNL     1      -9.599   4.095  67.992  1.00  0.00    -0.200 C  
HETATM   16  C   UNL     1     -10.608   5.547  69.739  1.00  0.00    -0.388 C  
HETATM   17  C   UNL     1      -9.904   4.350  69.296  1.00  0.00    -0.218 C  
HETATM   18  C   UNL     1      -9.458   3.400  70.386  1.00  0.00    -0.245 C  
HETATM   19  C   UNL     1      -9.786   3.669  71.852  1.00  0.00    -0.241 C  
HETATM   20  C   UNL     1     -10.536   4.934  72.130  1.00  0.00    -0.192 C  
HETATM   21  O   UNL     1     -10.849   5.255  73.280  1.00  0.00    -0.247 OA 
ENDROOT
BRANCH   4  22
HETATM   22  C   UNL     1      -9.621   4.111  63.535  1.00  0.00    -0.128 C  
BRANCH  22  23
HETATM   23  C   UNL     1     -10.553   2.914  63.625  1.00  0.00    -0.204 C  
HETATM   24  H1  UNL     1     -11.951   1.118  63.760  1.00  0.00     0.000 HD 
HETATM   25  N   UNL     1     -11.326   1.922  63.699  1.00  0.00    -0.588 NA 
HETATM   26  H2  UNL     1     -11.783   2.173  62.823  1.00  0.00     0.000 HD 
ENDBRANCH  22  23
ENDBRANCH   4  22
TORSDOF 2
ENDMDL
MODEL       72
REMARK 921   NORMALIZED FREE ENERGY PREDICTED BY IDOCK:   -4.39 KCAL/MOL
REMARK 922        TOTAL FREE ENERGY PREDICTED BY IDOCK:   -5.16 KCAL/MOL
REMARK 923 INTER-LIGAND FREE ENERGY PREDICTED BY IDOCK:   -5.17 KCAL/MOL
REMARK 924 INTRA-LIGAND FREE ENERGY PREDICTED BY IDOCK:    0.01 KCAL/MOL
REMARK 927      BINDING AFFINITY PREDICTED BY RF-SCORE:    0.00 PKD
ROOT
HETATM    1  C   UNL     1     -11.174  14.933  67.680  1.00  0.00    -0.330 C  
HETATM    2  C   UNL     1     -11.880  14.585  68.864  1.00  0.00    -0.359 C  
HETATM    3  C   UNL     1     -10.407  14.710  68.925  1.00  0.00    -0.245 C  
HETATM    4  C   UNL     1      -9.465  15.501  67.257  1.00  0.00    -0.213 C  
HETATM    5  O   UNL     1      -8.074  15.911  67.147  1.00  0.00    -0.170 OA 
HETATM    6  C   UNL     1     -10.365   9.142  68.314  1.00  0.00    -0.256 C  
HETATM    7  C   UNL     1      -9.825  16.102  68.433  1.00  0.00    -0.222 C  
HETATM    8  C   UNL     1      -8.365  15.241  69.265  1.00  0.00    -0.243 C  
HETATM    9  C   UNL     1     -10.206  17.504  68.801  1.00  0.00    -0.373 C  
HETATM   10  C   UNL     1     -10.445  13.302  67.073  1.00  0.00    -0.249 C  
HETATM   11  H   UNL     1      -7.642  16.274  66.382  1.00  0.00     0.000 HD 
HETATM   12  C   UNL     1      -8.046  13.682  68.486  1.00  0.00    -0.118 C  
HETATM   13  C   UNL     1     -11.591  12.338  66.691  1.00  0.00    -0.438 C  
HETATM   14  C   UNL     1     -11.521  10.895  67.153  1.00  0.00    -0.031 C  
HETATM   15  C   UNL     1      -9.230  12.660  67.928  1.00  0.00    -0.201 C  
HETATM   16  C   UNL     1     -10.327  10.430  67.945  1.00  0.00    -0.227 C  
HETATM   17  C   UNL     1      -9.250  11.347  68.294  1.00  0.00    -0.183 C  
HETATM   18  C   UNL     1      -8.146  10.779  69.159  1.00  0.00    -0.133 C  
HETATM   19  C   UNL     1      -8.151   9.312  69.583  1.00  0.00    -0.116 C  
HETATM   20  C   UNL     1      -9.322   8.503  69.119  1.00  0.00    -0.153 C  
HETATM   21  O   UNL     1      -9.431   7.309  69.408  1.00  0.00    -0.155 OA 
ENDROOT
BRANCH   4  22
HETATM   22  C   UNL     1     -10.000  16.492  65.784  1.00  0.00    -0.302 C  
BRANCH  22  23
HETATM   23  C   UNL     1      -8.821  17.451  65.834  1.00  0.00     0.070 C  
HETATM   24  H1  UNL     1      -7.053  18.888  65.907  1.00  0.00     0.000 HD 
HETATM   25  N   UNL     1      -7.843  18.245  65.873  1.00  0.00    -0.519 NA 
HETATM   26  H2  UNL     1      -7.396  17.782  65.082  1.00  0.00     0.000 HD 
ENDBRANCH  22  23
ENDBRANCH   4  22
TORSDOF 2
ENDMDL
MODEL       73
REMARK 921   NORMALIZED FREE ENERGY PREDICTED BY IDOCK:   -4.38 KCAL/MOL
REMARK 922        TOTAL FREE ENERGY PREDICTED BY IDOCK:   -5.15 KCAL/MOL
REMARK 923 INTER-LIGAND FREE ENERGY PREDICTED BY IDOCK:   -4.79 KCAL/MOL
REMARK 924 INTRA-LIGAND FREE ENERGY PREDICTED BY IDOCK:   -0.36 KCAL/MOL
REMARK 927      BINDING AFFINITY PREDICTED BY RF-SCORE:    0.00 PKD
ROOT
HETATM    1  C   UNL     1      -8.208  10.727  69.316  1.00  0.00    -0.087 C  
HETATM    2  C   UNL     1      -9.231   9.739  69.319  1.00  0.00    -0.197 C  
HETATM    3  C   UNL     1      -8.222   9.716  68.236  1.00  0.00    -0.106 C  
HETATM    4  C   UNL     1      -6.598  10.986  68.443  1.00  0.00    -0.058 C  
HETATM    5  O   UNL     1      -5.388  11.002  67.635  1.00  0.00    -0.040 OA 
HETATM    6  C   UNL     1     -12.056  12.474  65.224  1.00  0.00    -0.500 C  
HETATM    7  C   UNL     1      -6.712   9.649  68.720  1.00  0.00    -0.051 C  
HETATM    8  C   UNL     1      -6.635   9.307  66.865  1.00  0.00    -0.068 C  
HETATM    9  C   UNL     1      -6.040   8.738  69.702  1.00  0.00    -0.032 C  
HETATM   10  C   UNL     1      -8.760  11.968  68.004  1.00  0.00    -0.175 C  
HETATM   11  H   UNL     1      -4.643  11.584  67.729  1.00  0.00     0.000 HD 
HETATM   12  C   UNL     1      -7.347  10.653  65.961  1.00  0.00    -0.132 C  
HETATM   13  C   UNL     1     -10.080  12.634  68.452  1.00  0.00    -0.222 C  
HETATM   14  C   UNL     1     -11.205  12.783  67.446  1.00  0.00    -0.337 C  
HETATM   15  C   UNL     1      -8.686  11.503  66.456  1.00  0.00    -0.183 C  
HETATM   16  C   UNL     1     -11.000  12.306  66.032  1.00  0.00    -0.327 C  
HETATM   17  C   UNL     1      -9.748  11.683  65.621  1.00  0.00    -0.262 C  
HETATM   18  C   UNL     1      -9.694  11.175  64.196  1.00  0.00    -0.318 C  
HETATM   19  C   UNL     1     -10.874  11.364  63.245  1.00  0.00    -0.292 C  
HETATM   20  C   UNL     1     -12.075  12.045  63.824  1.00  0.00    -0.499 C  
HETATM   21  O   UNL     1     -13.087  12.245  63.147  1.00  0.00    -0.588 OA 
ENDROOT
BRANCH   4  22
HETATM   22  C   UNL     1      -5.818  11.916  69.844  1.00  0.00    -0.137 C  
BRANCH  22  23
HETATM   23  C   UNL     1      -5.443  13.128  69.007  1.00  0.00    -0.069 C  
HETATM   24  H1  UNL     1      -4.880  14.946  67.751  1.00  0.00     0.000 HD 
HETATM   25  N   UNL     1      -5.132  14.133  68.313  1.00  0.00    -0.105 NA 
HETATM   26  H2  UNL     1      -6.037  14.125  67.842  1.00  0.00     0.000 HD 
ENDBRANCH  22  23
ENDBRANCH   4  22
TORSDOF 2
ENDMDL
MODEL       74
REMARK 921   NORMALIZED FREE ENERGY PREDICTED BY IDOCK:   -4.34 KCAL/MOL
REMARK 922        TOTAL FREE ENERGY PREDICTED BY IDOCK:   -5.11 KCAL/MOL
REMARK 923 INTER-LIGAND FREE ENERGY PREDICTED BY IDOCK:   -4.70 KCAL/MOL
REMARK 924 INTRA-LIGAND FREE ENERGY PREDICTED BY IDOCK:   -0.41 KCAL/MOL
REMARK 927      BINDING AFFINITY PREDICTED BY RF-SCORE:    0.00 PKD
ROOT
HETATM    1  C   UNL     1      -9.125   7.336  71.870  1.00  0.00    -0.146 C  
HETATM    2  C   UNL     1      -9.786   8.442  72.473  1.00  0.00    -0.359 C  
HETATM    3  C   UNL     1     -10.485   7.690  71.407  1.00  0.00    -0.230 C  
HETATM    4  C   UNL     1      -9.604   5.924  70.776  1.00  0.00    -0.170 C  
HETATM    5  O   UNL     1     -10.187   4.914  69.905  1.00  0.00    -0.257 OA 
HETATM    6  C   UNL     1      -8.649  11.724  67.982  1.00  0.00    -0.158 C  
HETATM    7  C   UNL     1     -10.627   6.130  71.663  1.00  0.00    -0.276 C  
HETATM    8  C   UNL     1     -11.764   6.479  70.196  1.00  0.00    -0.419 C  
HETATM    9  C   UNL     1     -11.122   5.377  72.860  1.00  0.00    -0.360 C  
HETATM   10  C   UNL     1      -8.512   8.002  70.214  1.00  0.00    -0.127 C  
HETATM   11  H   UNL     1      -9.783   4.104  69.616  1.00  0.00     0.000 HD 
HETATM   12  C   UNL     1     -10.845   7.205  68.866  1.00  0.00    -0.160 C  
HETATM   13  C   UNL     1      -7.470   9.115  70.464  1.00  0.00    -0.119 C  
HETATM   14  C   UNL     1      -7.563  10.400  69.663  1.00  0.00    -0.158 C  
HETATM   15  C   UNL     1      -9.618   8.305  69.073  1.00  0.00    -0.156 C  
HETATM   16  C   UNL     1      -8.646  10.549  68.628  1.00  0.00    -0.139 C  
HETATM   17  C   UNL     1      -9.621   9.490  68.398  1.00  0.00    -0.152 C  
HETATM   18  C   UNL     1     -10.706   9.792  67.388  1.00  0.00    -0.314 C  
HETATM   19  C   UNL     1     -10.729  11.114  66.624  1.00  0.00    -0.322 C  
HETATM   20  C   UNL     1      -9.640  12.082  66.966  1.00  0.00    -0.195 C  
HETATM   21  O   UNL     1      -9.564  13.183  66.414  1.00  0.00    -0.264 OA 
ENDROOT
BRANCH   4  22
HETATM   22  C   UNL     1      -8.324   4.769  71.458  1.00  0.00    -0.109 C  
BRANCH  22  23
HETATM   23  C   UNL     1      -7.870   4.256  70.101  1.00  0.00    -0.052 C  
HETATM   24  H1  UNL     1      -7.189   3.487  68.065  1.00  0.00     0.000 HD 
HETATM   25  N   UNL     1      -7.495   3.831  68.975  1.00  0.00    -0.053 NA 
HETATM   26  H2  UNL     1      -8.429   3.486  68.760  1.00  0.00     0.000 HD 
ENDBRANCH  22  23
ENDBRANCH   4  22
TORSDOF 2
ENDMDL
MODEL       75
REMARK 921   NORMALIZED FREE ENERGY PREDICTED BY IDOCK:   -4.30 KCAL/MOL
REMARK 922        TOTAL FREE ENERGY PREDICTED BY IDOCK:   -5.07 KCAL/MOL
REMARK 923 INTER-LIGAND FREE ENERGY PREDICTED BY IDOCK:   -4.65 KCAL/MOL
REMARK 924 INTRA-LIGAND FREE ENERGY PREDICTED BY IDOCK:   -0.42 KCAL/MOL
REMARK 927      BINDING AFFINITY PREDICTED BY RF-SCORE:    0.00 PKD
ROOT
HETATM    1  C   UNL     1     -10.765  14.308  66.356  1.00  0.00    -0.297 C  
HETATM    2  C   UNL     1     -12.118  13.870  66.323  1.00  0.00    -0.484 C  
HETATM    3  C   UNL     1     -11.412  13.903  67.624  1.00  0.00    -0.354 C  
HETATM    4  C   UNL     1      -9.555  14.821  67.658  1.00  0.00    -0.208 C  
HETATM    5  O   UNL     1      -8.766  15.161  68.832  1.00  0.00    -0.181 OA 
HETATM    6  C   UNL     1     -10.498   8.446  66.749  1.00  0.00    -0.315 C  
HETATM    7  C   UNL     1     -10.785  15.306  68.017  1.00  0.00    -0.268 C  
HETATM    8  C   UNL     1     -10.676  14.275  69.595  1.00  0.00    -0.034 C  
HETATM    9  C   UNL     1     -11.389  16.677  68.031  1.00  0.00    -0.052 C  
HETATM   10  C   UNL     1      -9.760  12.717  66.493  1.00  0.00    -0.256 C  
HETATM   11  H   UNL     1      -7.914  15.582  68.848  1.00  0.00     0.000 HD 
HETATM   12  C   UNL     1      -9.743  12.798  69.302  1.00  0.00     0.725 C  
HETATM   13  C   UNL     1      -9.966  11.870  65.217  1.00  0.00    -0.280 C  
HETATM   14  C   UNL     1     -10.227  10.382  65.358  1.00  0.00    -0.329 C  
HETATM   15  C   UNL     1      -9.815  11.914  67.897  1.00  0.00    -0.190 C  
HETATM   16  C   UNL     1     -10.251   9.763  66.731  1.00  0.00    -0.300 C  
HETATM   17  C   UNL     1     -10.050  10.572  67.927  1.00  0.00    -0.204 C  
HETATM   18  C   UNL     1     -10.175   9.847  69.249  1.00  0.00    -0.222 C  
HETATM   19  C   UNL     1     -10.441   8.345  69.304  1.00  0.00    -0.223 C  
HETATM   20  C   UNL     1     -10.599   7.662  67.982  1.00  0.00    -0.151 C  
HETATM   21  O   UNL     1     -10.822   6.451  67.908  1.00  0.00    -0.265 OA 
ENDROOT
BRANCH   4  22
HETATM   22  C   UNL     1      -8.644  16.001  66.556  1.00  0.00    -0.344 C  
BRANCH  22  23
HETATM   23  C   UNL     1      -7.260  15.565  67.007  1.00  0.00    -0.089 C  
HETATM   24  H1  UNL     1      -5.184  14.908  67.684  1.00  0.00     0.000 HD 
HETATM   25  N   UNL     1      -6.113  15.201  67.381  1.00  0.00    -0.331 NA 
HETATM   26  H2  UNL     1      -6.504  14.464  67.968  1.00  0.00     0.000 HD 
ENDBRANCH  22  23
ENDBRANCH   4  22
TORSDOF 2
ENDMDL
MODEL       76
REMARK 921   NORMALIZED FREE ENERGY PREDICTED BY IDOCK:   -4.28 KCAL/MOL
REMARK 922        TOTAL FREE ENERGY PREDICTED BY IDOCK:   -5.05 KCAL/MOL
REMARK 923 INTER-LIGAND FREE ENERGY PREDICTED BY IDOCK:   -5.05 KCAL/MOL
REMARK 924 INTRA-LIGAND FREE ENERGY PREDICTED BY IDOCK:    0.00 KCAL/MOL
REMARK 927      BINDING AFFINITY PREDICTED BY RF-SCORE:    0.00 PKD
ROOT
HETATM    1  C   UNL     1      -9.363  13.529  68.643  1.00  0.00    -0.036 C  
HETATM    2  C   UNL     1     -10.018  14.282  69.656  1.00  0.00     0.399 C  
HETATM    3  C   UNL     1     -10.147  14.720  68.248  1.00  0.00    -0.221 C  
HETATM    4  C   UNL     1      -9.425  13.429  66.797  1.00  0.00    -0.261 C  
HETATM    5  O   UNL     1      -9.616  13.532  65.358  1.00  0.00    -0.512 OA 
HETATM    6  C   UNL     1      -5.996  18.283  69.451  1.00  0.00    -0.247 C  
HETATM    7  C   UNL     1     -10.704  13.622  67.247  1.00  0.00    -0.283 C  
HETATM    8  C   UNL     1     -10.756  15.234  66.265  1.00  0.00    -0.315 C  
HETATM    9  C   UNL     1     -11.909  12.736  67.341  1.00  0.00    -0.404 C  
HETATM   10  C   UNL     1      -7.827  14.542  68.224  1.00  0.00    -0.131 C  
HETATM   11  H   UNL     1      -9.285  12.940  64.692  1.00  0.00     0.000 HD 
HETATM   12  C   UNL     1      -9.139  15.952  66.178  1.00  0.00    -0.385 C  
HETATM   13  C   UNL     1      -6.902  14.604  69.460  1.00  0.00    -0.165 C  
HETATM   14  C   UNL     1      -6.290  15.936  69.852  1.00  0.00    -0.138 C  
HETATM   15  C   UNL     1      -8.042  15.933  67.425  1.00  0.00    -0.187 C  
HETATM   16  C   UNL     1      -6.574  17.155  69.015  1.00  0.00    -0.218 C  
HETATM   17  C   UNL     1      -7.445  17.083  67.849  1.00  0.00    -0.175 C  
HETATM   18  C   UNL     1      -7.716  18.391  67.139  1.00  0.00    -0.233 C  
HETATM   19  C   UNL     1      -7.060  19.691  67.599  1.00  0.00    -0.275 C  
HETATM   20  C   UNL     1      -6.175  19.583  68.801  1.00  0.00    -0.249 C  
HETATM   21  O   UNL     1      -5.598  20.571  69.264  1.00  0.00    -0.287 OA 
ENDROOT
BRANCH   4  22
HETATM   22  C   UNL     1      -8.981  11.631  66.731  1.00  0.00    -0.189 C  
BRANCH  22  23
HETATM   23  C   UNL     1      -9.643  11.378  65.386  1.00  0.00    -0.228 C  
HETATM   24  H1  UNL     1     -10.637  11.001  63.369  1.00  0.00     0.000 HD 
HETATM   25  N   UNL     1     -10.193  11.170  64.271  1.00  0.00    -0.312 NA 
HETATM   26  H2  UNL     1     -10.913  11.867  64.462  1.00  0.00     0.000 HD 
ENDBRANCH  22  23
ENDBRANCH   4  22
TORSDOF 2
ENDMDL
MODEL       77
REMARK 921   NORMALIZED FREE ENERGY PREDICTED BY IDOCK:   -4.28 KCAL/MOL
REMARK 922        TOTAL FREE ENERGY PREDICTED BY IDOCK:   -5.04 KCAL/MOL
REMARK 923 INTER-LIGAND FREE ENERGY PREDICTED BY IDOCK:   -4.65 KCAL/MOL
REMARK 924 INTRA-LIGAND FREE ENERGY PREDICTED BY IDOCK:   -0.39 KCAL/MOL
REMARK 927      BINDING AFFINITY PREDICTED BY RF-SCORE:    0.00 PKD
ROOT
HETATM    1  C   UNL     1      -9.982   8.792  71.354  1.00  0.00    -0.354 C  
HETATM    2  C   UNL     1     -10.332   9.708  70.325  1.00  0.00    -0.336 C  
HETATM    3  C   UNL     1     -11.080   8.436  70.430  1.00  0.00    -0.240 C  
HETATM    4  C   UNL     1     -10.730   7.280  72.113  1.00  0.00    -0.219 C  
HETATM    5  O   UNL     1     -11.479   6.109  72.545  1.00  0.00    -0.282 OA 
HETATM    6  C   UNL     1      -7.599   6.588  66.450  1.00  0.00    -0.090 C  
HETATM    7  C   UNL     1     -11.746   8.158  71.843  1.00  0.00    -0.362 C  
HETATM    8  C   UNL     1     -12.498   6.859  70.697  1.00  0.00    -0.179 C  
HETATM    9  C   UNL     1     -12.616   9.025  72.701  1.00  0.00    -0.244 C  
HETATM   10  C   UNL     1      -8.966   7.466  70.476  1.00  0.00    -0.156 C  
HETATM   11  H   UNL     1     -11.318   5.579  73.318  1.00  0.00     0.000 HD 
HETATM   12  C   UNL     1     -11.222   5.869  69.969  1.00  0.00    -0.341 C  
HETATM   13  C   UNL     1      -7.668   8.097  69.924  1.00  0.00    -0.098 C  
HETATM   14  C   UNL     1      -7.235   7.764  68.509  1.00  0.00    -0.086 C  
HETATM   15  C   UNL     1      -9.749   6.461  69.479  1.00  0.00    -0.167 C  
HETATM   16  C   UNL     1      -8.061   6.808  67.688  1.00  0.00    -0.116 C  
HETATM   17  C   UNL     1      -9.280   6.216  68.223  1.00  0.00    -0.114 C  
HETATM   18  C   UNL     1     -10.062   5.334  67.274  1.00  0.00    -0.234 C  
HETATM   19  C   UNL     1      -9.557   5.049  65.861  1.00  0.00    -0.176 C  
HETATM   20  C   UNL     1      -8.274   5.721  65.481  1.00  0.00    -0.132 C  
HETATM   21  O   UNL     1      -7.776   5.566  64.363  1.00  0.00    -0.082 OA 
ENDROOT
BRANCH   4  22
HETATM   22  C   UNL     1      -9.992   7.575  73.788  1.00  0.00    -0.275 C  
BRANCH  22  23
HETATM   23  C   UNL     1      -9.795   6.103  74.109  1.00  0.00    -0.238 C  
HETATM   24  H1  UNL     1      -9.499   3.894  74.590  1.00  0.00     0.000 HD 
HETATM   25  N   UNL     1      -9.630   4.882  74.375  1.00  0.00    -0.128 NA 
HETATM   26  H2  UNL     1      -8.678   4.899  74.011  1.00  0.00     0.000 HD 
ENDBRANCH  22  23
ENDBRANCH   4  22
TORSDOF 2
ENDMDL
MODEL       78
REMARK 921   NORMALIZED FREE ENERGY PREDICTED BY IDOCK:   -4.27 KCAL/MOL
REMARK 922        TOTAL FREE ENERGY PREDICTED BY IDOCK:   -5.04 KCAL/MOL
REMARK 923 INTER-LIGAND FREE ENERGY PREDICTED BY IDOCK:   -4.71 KCAL/MOL
REMARK 924 INTRA-LIGAND FREE ENERGY PREDICTED BY IDOCK:   -0.32 KCAL/MOL
REMARK 927      BINDING AFFINITY PREDICTED BY RF-SCORE:    0.00 PKD
ROOT
HETATM    1  C   UNL     1      -8.491  10.004  69.062  1.00  0.00    -0.147 C  
HETATM    2  C   UNL     1      -7.279   9.350  68.707  1.00  0.00    -0.073 C  
HETATM    3  C   UNL     1      -8.551   8.848  68.140  1.00  0.00    -0.130 C  
HETATM    4  C   UNL     1     -10.238  10.009  68.453  1.00  0.00    -0.172 C  
HETATM    5  O   UNL     1     -11.545   9.844  67.834  1.00  0.00    -0.583 OA 
HETATM    6  C   UNL     1      -8.388   5.088  72.289  1.00  0.00    -0.121 C  
HETATM    7  C   UNL     1      -9.416   9.926  67.361  1.00  0.00    -0.173 C  
HETATM    8  C   UNL     1     -10.223   8.271  66.940  1.00  0.00    -0.388 C  
HETATM    9  C   UNL     1      -9.032  10.893  66.283  1.00  0.00    -0.188 C  
HETATM   10  C   UNL     1      -9.275   8.870  70.352  1.00  0.00    -0.222 C  
HETATM   11  H   UNL     1     -12.318  10.377  67.978  1.00  0.00     0.000 HD 
HETATM   12  C   UNL     1     -10.735   7.444  68.421  1.00  0.00    -0.142 C  
HETATM   13  C   UNL     1      -8.368   8.813  71.602  1.00  0.00    -0.190 C  
HETATM   14  C   UNL     1      -8.083   7.467  72.240  1.00  0.00    -0.113 C  
HETATM   15  C   UNL     1      -9.874   7.457  69.841  1.00  0.00    -0.178 C  
HETATM   16  C   UNL     1      -8.710   6.226  71.660  1.00  0.00    -0.134 C  
HETATM   17  C   UNL     1      -9.567   6.294  70.483  1.00  0.00    -0.183 C  
HETATM   18  C   UNL     1     -10.072   4.971  69.950  1.00  0.00    -0.344 C  
HETATM   19  C   UNL     1      -9.737   3.657  70.653  1.00  0.00    -0.215 C  
HETATM   20  C   UNL     1      -8.862   3.769  71.862  1.00  0.00    -0.100 C  
HETATM   21  O   UNL     1      -8.524   2.771  72.504  1.00  0.00    -0.069 OA 
ENDROOT
BRANCH   4  22
HETATM   22  C   UNL     1     -10.558  11.769  68.942  1.00  0.00    -0.211 C  
BRANCH  22  23
HETATM   23  C   UNL     1     -11.741  11.446  69.839  1.00  0.00    -0.346 C  
HETATM   24  H1  UNL     1     -13.516  10.959  71.185  1.00  0.00     0.000 HD 
HETATM   25  N   UNL     1     -12.723  11.176  70.583  1.00  0.00    -0.294 NA 
HETATM   26  H2  UNL     1     -12.766  10.220  70.231  1.00  0.00     0.000 HD 
ENDBRANCH  22  23
ENDBRANCH   4  22
TORSDOF 2
ENDMDL
MODEL       79
REMARK 921   NORMALIZED FREE ENERGY PREDICTED BY IDOCK:   -4.27 KCAL/MOL
REMARK 922        TOTAL FREE ENERGY PREDICTED BY IDOCK:   -5.03 KCAL/MOL
REMARK 923 INTER-LIGAND FREE ENERGY PREDICTED BY IDOCK:   -5.04 KCAL/MOL
REMARK 924 INTRA-LIGAND FREE ENERGY PREDICTED BY IDOCK:    0.00 KCAL/MOL
REMARK 927      BINDING AFFINITY PREDICTED BY RF-SCORE:    0.00 PKD
ROOT
HETATM    1  C   UNL     1      -9.548   8.892  69.878  1.00  0.00    -0.185 C  
HETATM    2  C   UNL     1     -10.302   9.515  68.846  1.00  0.00    -0.225 C  
HETATM    3  C   UNL     1     -10.768   8.217  69.383  1.00  0.00    -0.164 C  
HETATM    4  C   UNL     1      -9.805   7.504  71.074  1.00  0.00    -0.179 C  
HETATM    5  O   UNL     1     -10.205   6.376  71.901  1.00  0.00    -0.194 OA 
HETATM    6  C   UNL     1      -8.155   5.968  64.968  1.00  0.00    -0.133 C  
HETATM    7  C   UNL     1     -10.993   8.177  70.953  1.00  0.00    -0.266 C  
HETATM    8  C   UNL     1     -11.777   6.581  70.318  1.00  0.00    -0.430 C  
HETATM    9  C   UNL     1     -11.750   9.102  71.856  1.00  0.00    -0.436 C  
HETATM   10  C   UNL     1      -8.578   7.535  68.995  1.00  0.00    -0.136 C  
HETATM   11  H   UNL     1      -9.764   6.049  72.677  1.00  0.00     0.000 HD 
HETATM   12  C   UNL     1     -10.578   5.613  69.444  1.00  0.00    -0.374 C  
HETATM   13  C   UNL     1      -7.593   8.178  67.993  1.00  0.00    -0.106 C  
HETATM   14  C   UNL     1      -7.485   7.598  66.596  1.00  0.00    -0.093 C  
HETATM   15  C   UNL     1      -9.404   6.252  68.458  1.00  0.00    -0.121 C  
HETATM   16  C   UNL     1      -8.315   6.397  66.228  1.00  0.00    -0.123 C  
HETATM   17  C   UNL     1      -9.237   5.796  67.184  1.00  0.00    -0.115 C  
HETATM   18  C   UNL     1     -10.071   4.644  66.669  1.00  0.00    -0.263 C  
HETATM   19  C   UNL     1      -9.902   4.120  65.245  1.00  0.00    -0.212 C  
HETATM   20  C   UNL     1      -8.895   4.838  64.402  1.00  0.00    -0.142 C  
HETATM   21  O   UNL     1      -8.680   4.503  63.234  1.00  0.00    -0.115 OA 
ENDROOT
BRANCH   4  22
HETATM   22  C   UNL     1      -8.726   8.241  72.389  1.00  0.00    -0.279 C  
BRANCH  22  23
HETATM   23  C   UNL     1      -9.404   7.515  73.540  1.00  0.00    -0.263 C  
HETATM   24  H1  UNL     1     -10.419   6.427  75.267  1.00  0.00     0.000 HD 
HETATM   25  N   UNL     1      -9.964   6.914  74.495  1.00  0.00    -0.483 NA 
HETATM   26  H2  UNL     1      -9.094   6.880  75.025  1.00  0.00     0.000 HD 
ENDBRANCH  22  23
ENDBRANCH   4  22
TORSDOF 2
ENDMDL
MODEL       80
REMARK 921   NORMALIZED FREE ENERGY PREDICTED BY IDOCK:   -4.25 KCAL/MOL
REMARK 922        TOTAL FREE ENERGY PREDICTED BY IDOCK:   -5.01 KCAL/MOL
REMARK 923 INTER-LIGAND FREE ENERGY PREDICTED BY IDOCK:   -5.02 KCAL/MOL
REMARK 924 INTRA-LIGAND FREE ENERGY PREDICTED BY IDOCK:    0.00 KCAL/MOL
REMARK 927      BINDING AFFINITY PREDICTED BY RF-SCORE:    0.00 PKD
ROOT
HETATM    1  C   UNL     1      -9.581  10.584  68.842  1.00  0.00    -0.199 C  
HETATM    2  C   UNL     1      -8.345  10.301  69.487  1.00  0.00    -0.162 C  
HETATM    3  C   UNL     1      -8.607   9.706  68.158  1.00  0.00    -0.119 C  
HETATM    4  C   UNL     1     -10.282  10.382  67.142  1.00  0.00    -0.222 C  
HETATM    5  O   UNL     1     -10.638  10.112  65.758  1.00  0.00    -0.115 OA 
HETATM    6  C   UNL     1     -10.180   5.151  71.012  1.00  0.00    -0.295 C  
HETATM    7  C   UNL     1      -8.967  10.743  67.011  1.00  0.00    -0.148 C  
HETATM    8  C   UNL     1      -8.662   9.115  66.104  1.00  0.00    -0.169 C  
HETATM    9  C   UNL     1      -8.280  12.004  66.584  1.00  0.00    -0.056 C  
HETATM   10  C   UNL     1     -10.618   9.031  69.114  1.00  0.00    -0.219 C  
HETATM   11  H   UNL     1     -11.406  10.422  65.292  1.00  0.00     0.000 HD 
HETATM   12  C   UNL     1      -9.755   7.859  66.710  1.00  0.00    -0.303 C  
HETATM   13  C   UNL     1     -10.886   8.852  70.626  1.00  0.00    -0.286 C  
HETATM   14  C   UNL     1     -10.714   7.478  71.244  1.00  0.00    -0.242 C  
HETATM   15  C   UNL     1     -10.194   7.696  68.304  1.00  0.00    -0.229 C  
HETATM   16  C   UNL     1     -10.315   6.318  70.369  1.00  0.00    -0.260 C  
HETATM   17  C   UNL     1     -10.070   6.499  68.944  1.00  0.00    -0.183 C  
HETATM   18  C   UNL     1      -9.598   5.275  68.190  1.00  0.00    -0.164 C  
HETATM   19  C   UNL     1      -9.449   3.925  68.889  1.00  0.00    -0.234 C  
HETATM   20  C   UNL     1      -9.765   3.911  70.352  1.00  0.00    -0.175 C  
HETATM   21  O   UNL     1      -9.673   2.877  71.018  1.00  0.00    -0.157 OA 
ENDROOT
BRANCH   4  22
HETATM   22  C   UNL     1     -11.393  11.862  67.264  1.00  0.00    -0.393 C  
BRANCH  22  23
HETATM   23  C   UNL     1     -11.440  12.117  65.767  1.00  0.00    -0.361 C  
HETATM   24  H1  UNL     1     -11.513  12.501  63.521  1.00  0.00     0.000 HD 
HETATM   25  N   UNL     1     -11.481  12.330  64.525  1.00  0.00    -0.327 NA 
HETATM   26  H2  UNL     1     -11.865  13.264  64.667  1.00  0.00     0.000 HD 
ENDBRANCH  22  23
ENDBRANCH   4  22
TORSDOF 2
ENDMDL
MODEL       81
REMARK 921   NORMALIZED FREE ENERGY PREDICTED BY IDOCK:   -4.21 KCAL/MOL
REMARK 922        TOTAL FREE ENERGY PREDICTED BY IDOCK:   -4.97 KCAL/MOL
REMARK 923 INTER-LIGAND FREE ENERGY PREDICTED BY IDOCK:   -5.06 KCAL/MOL
REMARK 924 INTRA-LIGAND FREE ENERGY PREDICTED BY IDOCK:    0.09 KCAL/MOL
REMARK 927      BINDING AFFINITY PREDICTED BY RF-SCORE:    0.00 PKD
ROOT
HETATM    1  C   UNL     1     -10.896  15.003  68.128  1.00  0.00    -0.263 C  
HETATM    2  C   UNL     1     -11.063  15.078  69.538  1.00  0.00    -0.292 C  
HETATM    3  C   UNL     1      -9.700  15.203  68.975  1.00  0.00    -0.234 C  
HETATM    4  C   UNL     1      -9.550  15.381  66.916  1.00  0.00    -0.226 C  
HETATM    5  O   UNL     1      -8.361  15.718  66.149  1.00  0.00    -0.335 OA 
HETATM    6  C   UNL     1      -9.201   9.752  70.165  1.00  0.00    -0.253 C  
HETATM    7  C   UNL     1      -9.519  16.345  67.889  1.00  0.00    -0.223 C  
HETATM    8  C   UNL     1      -7.760  15.800  68.305  1.00  0.00    -0.132 C  
HETATM    9  C   UNL     1      -9.906  17.792  67.919  1.00  0.00    -0.306 C  
HETATM   10  C   UNL     1     -10.248  13.256  67.825  1.00  0.00    -0.228 C  
HETATM   11  H   UNL     1      -8.292  15.800  65.204  1.00  0.00     0.000 HD 
HETATM   12  C   UNL     1      -7.563  14.067  67.992  1.00  0.00    -0.143 C  
HETATM   13  C   UNL     1     -11.326  12.231  68.244  1.00  0.00    -0.339 C  
HETATM   14  C   UNL     1     -10.912  11.025  69.066  1.00  0.00    -0.284 C  
HETATM   15  C   UNL     1      -8.734  12.927  68.291  1.00  0.00    -0.168 C  
HETATM   16  C   UNL     1      -9.462  10.841  69.430  1.00  0.00    -0.037 C  
HETATM   17  C   UNL     1      -8.454  11.813  69.025  1.00  0.00     0.206 C  
HETATM   18  C   UNL     1      -7.047  11.558  69.519  1.00  0.00     0.016 C  
HETATM   19  C   UNL     1      -6.713  10.318  70.345  1.00  0.00    -0.122 C  
HETATM   20  C   UNL     1      -7.863   9.411  70.653  1.00  0.00    -0.151 C  
HETATM   21  O   UNL     1      -7.709   8.383  71.318  1.00  0.00    -0.079 OA 
ENDROOT
BRANCH   4  22
HETATM   22  C   UNL     1     -10.711  15.826  65.541  1.00  0.00    -0.397 C  
BRANCH  22  23
HETATM   23  C   UNL     1     -10.536  14.517  64.789  1.00  0.00    -0.377 C  
HETATM   24  H1  UNL     1     -10.274  12.553  63.660  1.00  0.00     0.000 HD 
HETATM   25  N   UNL     1     -10.392  13.432  64.164  1.00  0.00    -0.690 NA 
HETATM   26  H2  UNL     1     -10.587  13.884  63.272  1.00  0.00     0.000 HD 
ENDBRANCH  22  23
ENDBRANCH   4  22
TORSDOF 2
ENDMDL
MODEL       82
REMARK 921   NORMALIZED FREE ENERGY PREDICTED BY IDOCK:   -4.21 KCAL/MOL
REMARK 922        TOTAL FREE ENERGY PREDICTED BY IDOCK:   -4.96 KCAL/MOL
REMARK 923 INTER-LIGAND FREE ENERGY PREDICTED BY IDOCK:   -4.86 KCAL/MOL
REMARK 924 INTRA-LIGAND FREE ENERGY PREDICTED BY IDOCK:   -0.10 KCAL/MOL
REMARK 927      BINDING AFFINITY PREDICTED BY RF-SCORE:    0.00 PKD
ROOT
HETATM    1  C   UNL     1      -7.613  17.326  67.355  1.00  0.00    -0.201 C  
HETATM    2  C   UNL     1      -7.071  16.682  66.209  1.00  0.00     0.018 C  
HETATM    3  C   UNL     1      -8.511  17.021  66.220  1.00  0.00    -0.304 C  
HETATM    4  C   UNL     1      -9.181  18.213  67.777  1.00  0.00    -0.263 C  
HETATM    5  O   UNL     1     -10.485  18.846  67.899  1.00  0.00    -0.390 OA 
HETATM    6  C   UNL     1      -9.285  11.705  67.807  1.00  0.00    -0.178 C  
HETATM    7  C   UNL     1      -8.844  18.548  66.492  1.00  0.00    -0.301 C  
HETATM    8  C   UNL     1     -10.479  17.798  65.919  1.00  0.00    -0.251 C  
HETATM    9  C   UNL     1      -8.303  19.794  65.860  1.00  0.00    -0.211 C  
HETATM   10  C   UNL     1      -8.509  15.950  68.285  1.00  0.00    -0.170 C  
HETATM   11  H   UNL     1     -10.792  19.392  68.614  1.00  0.00     0.000 HD 
HETATM   12  C   UNL     1     -10.945  16.457  66.980  1.00  0.00    -0.048 C  
HETATM   13  C   UNL     1      -7.482  14.898  68.759  1.00  0.00    -0.132 C  
HETATM   14  C   UNL     1      -7.795  13.427  68.564  1.00  0.00    -0.115 C  
HETATM   15  C   UNL     1      -9.873  15.371  67.635  1.00  0.00    -0.220 C  
HETATM   16  C   UNL     1      -9.108  13.026  67.943  1.00  0.00    -0.207 C  
HETATM   17  C   UNL     1     -10.071  14.029  67.506  1.00  0.00    -0.237 C  
HETATM   18  C   UNL     1     -11.316  13.502  66.826  1.00  0.00    -0.351 C  
HETATM   19  C   UNL     1     -11.556  12.002  66.668  1.00  0.00    -0.389 C  
HETATM   20  C   UNL     1     -10.475  11.111  67.194  1.00  0.00    -0.231 C  
HETATM   21  O   UNL     1     -10.561   9.883  67.115  1.00  0.00    -0.245 OA 
ENDROOT
BRANCH   4  22
HETATM   22  C   UNL     1      -8.384  19.340  69.015  1.00  0.00    -0.268 C  
BRANCH  22  23
HETATM   23  C   UNL     1      -9.693  19.898  69.549  1.00  0.00     0.073 C  
HETATM   24  H1  UNL     1     -11.657  20.734  70.351  1.00  0.00     0.000 HD 
HETATM   25  N   UNL     1     -10.779  20.360  69.992  1.00  0.00    -0.242 NA 
HETATM   26  H2  UNL     1     -11.310  19.909  69.247  1.00  0.00     0.000 HD 
ENDBRANCH  22  23
ENDBRANCH   4  22
TORSDOF 2
ENDMDL
MODEL       83
REMARK 921   NORMALIZED FREE ENERGY PREDICTED BY IDOCK:   -4.19 KCAL/MOL
REMARK 922        TOTAL FREE ENERGY PREDICTED BY IDOCK:   -4.94 KCAL/MOL
REMARK 923 INTER-LIGAND FREE ENERGY PREDICTED BY IDOCK:   -4.99 KCAL/MOL
REMARK 924 INTRA-LIGAND FREE ENERGY PREDICTED BY IDOCK:    0.05 KCAL/MOL
REMARK 927      BINDING AFFINITY PREDICTED BY RF-SCORE:    0.00 PKD
ROOT
HETATM    1  C   UNL     1      -7.984  17.037  69.238  1.00  0.00     0.047 C  
HETATM    2  C   UNL     1      -7.154  15.950  69.628  1.00  0.00    -0.130 C  
HETATM    3  C   UNL     1      -7.312  16.243  68.186  1.00  0.00    -0.144 C  
HETATM    4  C   UNL     1      -8.288  18.003  67.690  1.00  0.00    -0.238 C  
HETATM    5  O   UNL     1      -8.387  18.610  66.371  1.00  0.00    -0.285 OA 
HETATM    6  C   UNL     1     -11.196  12.208  68.258  1.00  0.00    -0.319 C  
HETATM    7  C   UNL     1      -6.948  17.726  67.753  1.00  0.00    -0.191 C  
HETATM    8  C   UNL     1      -7.116  16.782  66.127  1.00  0.00     0.060 C  
HETATM    9  C   UNL     1      -5.735  18.558  68.041  1.00  0.00    -0.173 C  
HETATM   10  C   UNL     1      -9.588  16.220  68.670  1.00  0.00    -0.237 C  
HETATM   11  H   UNL     1      -8.835  19.417  66.144  1.00  0.00     0.000 HD 
HETATM   12  C   UNL     1      -8.728  16.059  65.999  1.00  0.00    -0.267 C  
HETATM   13  C   UNL     1     -10.251  15.504  69.868  1.00  0.00    -0.305 C  
HETATM   14  C   UNL     1     -10.793  14.101  69.676  1.00  0.00    -0.059 C  
HETATM   15  C   UNL     1      -9.556  15.396  67.278  1.00  0.00    -0.213 C  
HETATM   16  C   UNL     1     -10.698  13.450  68.321  1.00  0.00    -0.273 C  
HETATM   17  C   UNL     1     -10.074  14.138  67.197  1.00  0.00    -0.258 C  
HETATM   18  C   UNL     1      -9.970  13.349  65.910  1.00  0.00    -0.287 C  
HETATM   19  C   UNL     1     -10.541  11.937  65.800  1.00  0.00    -0.309 C  
HETATM   20  C   UNL     1     -11.168  11.389  67.044  1.00  0.00    -0.283 C  
HETATM   21  O   UNL     1     -11.657  10.257  67.071  1.00  0.00     0.021 OA 
ENDROOT
BRANCH   4  22
HETATM   22  C   UNL     1      -8.710  19.575  68.578  1.00  0.00    -0.388 C  
BRANCH  22  23
HETATM   23  C   UNL     1      -8.135  20.490  67.509  1.00  0.00    -0.256 C  
HETATM   24  H1  UNL     1      -7.273  21.864  65.907  1.00  0.00     0.000 HD 
HETATM   25  N   UNL     1      -7.658  21.250  66.624  1.00  0.00    -0.508 NA 
HETATM   26  H2  UNL     1      -7.408  21.953  67.319  1.00  0.00     0.000 HD 
ENDBRANCH  22  23
ENDBRANCH   4  22
TORSDOF 2
ENDMDL
MODEL       84
REMARK 921   NORMALIZED FREE ENERGY PREDICTED BY IDOCK:   -4.16 KCAL/MOL
REMARK 922        TOTAL FREE ENERGY PREDICTED BY IDOCK:   -4.90 KCAL/MOL
REMARK 923 INTER-LIGAND FREE ENERGY PREDICTED BY IDOCK:   -4.50 KCAL/MOL
REMARK 924 INTRA-LIGAND FREE ENERGY PREDICTED BY IDOCK:   -0.40 KCAL/MOL
REMARK 927      BINDING AFFINITY PREDICTED BY RF-SCORE:    0.00 PKD
ROOT
HETATM    1  C   UNL     1      -9.049  11.720  68.938  1.00  0.00     0.104 C  
HETATM    2  C   UNL     1      -7.837  12.027  68.261  1.00  0.00    -0.145 C  
HETATM    3  C   UNL     1      -8.926  11.368  67.507  1.00  0.00    -0.150 C  
HETATM    4  C   UNL     1     -10.762  11.214  68.456  1.00  0.00    -0.201 C  
HETATM    5  O   UNL     1     -12.025  10.802  67.862  1.00  0.00    -0.753 OA 
HETATM    6  C   UNL     1      -6.160   6.612  68.554  1.00  0.00    -0.026 C  
HETATM    7  C   UNL     1     -10.321  12.125  67.534  1.00  0.00    -0.219 C  
HETATM    8  C   UNL     1     -10.521  10.802  66.202  1.00  0.00    -0.278 C  
HETATM    9  C   UNL     1     -10.661  13.558  67.255  1.00  0.00    -0.263 C  
HETATM   10  C   UNL     1      -8.936   9.869  69.286  1.00  0.00    -0.184 C  
HETATM   11  H   UNL     1     -12.867  10.731  68.298  1.00  0.00     0.000 HD 
HETATM   12  C   UNL     1     -10.231   9.193  66.885  1.00  0.00    -0.336 C  
HETATM   13  C   UNL     1      -7.759   9.599  70.249  1.00  0.00    -0.184 C  
HETATM   14  C   UNL     1      -6.812   8.453  69.948  1.00  0.00    -0.043 C  
HETATM   15  C   UNL     1      -9.072   8.861  68.027  1.00  0.00    -0.143 C  
HETATM   16  C   UNL     1      -7.057   7.590  68.738  1.00  0.00    -0.080 C  
HETATM   17  C   UNL     1      -8.175   7.852  67.839  1.00  0.00    -0.129 C  
HETATM   18  C   UNL     1      -8.268   6.965  66.617  1.00  0.00    -0.115 C  
HETATM   19  C   UNL     1      -7.271   5.831  66.387  1.00  0.00    -0.077 C  
HETATM   20  C   UNL     1      -6.198   5.687  67.420  1.00  0.00    -0.030 C  
HETATM   21  O   UNL     1      -5.336   4.808  67.331  1.00  0.00    -0.011 OA 
ENDROOT
BRANCH   4  22
HETATM   22  C   UNL     1     -11.573  12.037  69.905  1.00  0.00    -0.315 C  
BRANCH  22  23
HETATM   23  C   UNL     1     -12.382  10.818  70.316  1.00  0.00    -0.341 C  
HETATM   24  H1  UNL     1     -13.596   8.989  70.932  1.00  0.00     0.000 HD 
HETATM   25  N   UNL     1     -13.053   9.806  70.656  1.00  0.00    -0.586 NA 
HETATM   26  H2  UNL     1     -12.401   9.179  70.186  1.00  0.00     0.000 HD 
ENDBRANCH  22  23
ENDBRANCH   4  22
TORSDOF 2
ENDMDL
MODEL       85
REMARK 921   NORMALIZED FREE ENERGY PREDICTED BY IDOCK:   -4.13 KCAL/MOL
REMARK 922        TOTAL FREE ENERGY PREDICTED BY IDOCK:   -4.87 KCAL/MOL
REMARK 923 INTER-LIGAND FREE ENERGY PREDICTED BY IDOCK:   -4.87 KCAL/MOL
REMARK 924 INTRA-LIGAND FREE ENERGY PREDICTED BY IDOCK:   -0.00 KCAL/MOL
REMARK 927      BINDING AFFINITY PREDICTED BY RF-SCORE:    0.00 PKD
ROOT
HETATM    1  C   UNL     1      -9.447   8.151  70.149  1.00  0.00    -0.167 C  
HETATM    2  C   UNL     1     -10.660   8.833  70.445  1.00  0.00    -0.251 C  
HETATM    3  C   UNL     1     -10.606   7.962  69.250  1.00  0.00    -0.195 C  
HETATM    4  C   UNL     1      -8.923   6.772  69.033  1.00  0.00    -0.131 C  
HETATM    5  O   UNL     1      -8.727   5.697  68.073  1.00  0.00    -0.102 OA 
HETATM    6  C   UNL     1      -9.618  12.688  66.409  1.00  0.00    -0.248 C  
HETATM    7  C   UNL     1     -10.164   6.463  69.525  1.00  0.00    -0.228 C  
HETATM    8  C   UNL     1     -10.811   6.452  67.751  1.00  0.00    -0.418 C  
HETATM    9  C   UNL     1     -10.656   5.469  70.532  1.00  0.00    -0.339 C  
HETATM   10  C   UNL     1      -8.672   9.157  68.752  1.00  0.00    -0.132 C  
HETATM   11  H   UNL     1      -7.955   5.151  67.974  1.00  0.00     0.000 HD 
HETATM   12  C   UNL     1      -9.905   7.606  66.759  1.00  0.00    -0.307 C  
HETATM   13  C   UNL     1      -8.323  10.570  69.271  1.00  0.00    -0.144 C  
HETATM   14  C   UNL     1      -8.678  11.773  68.419  1.00  0.00    -0.155 C  
HETATM   15  C   UNL     1      -9.378   9.087  67.298  1.00  0.00    -0.172 C  
HETATM   16  C   UNL     1      -9.335  11.562  67.080  1.00  0.00    -0.185 C  
HETATM   17  C   UNL     1      -9.656  10.224  66.600  1.00  0.00    -0.220 C  
HETATM   18  C   UNL     1     -10.385  10.149  65.276  1.00  0.00    -0.154 C  
HETATM   19  C   UNL     1     -10.708  11.411  64.479  1.00  0.00    -0.391 C  
HETATM   20  C   UNL     1     -10.288  12.703  65.108  1.00  0.00    -0.292 C  
HETATM   21  O   UNL     1     -10.503  13.785  64.555  1.00  0.00    -0.434 OA 
ENDROOT
BRANCH   4  22
HETATM   22  C   UNL     1      -7.571   6.180  70.155  1.00  0.00    -0.096 C  
BRANCH  22  23
HETATM   23  C   UNL     1      -7.533   4.771  69.587  1.00  0.00    -0.056 C  
HETATM   24  H1  UNL     1      -7.476   2.657  68.736  1.00  0.00     0.000 HD 
HETATM   25  N   UNL     1      -7.501   3.602  69.117  1.00  0.00    -0.053 NA 
HETATM   26  H2  UNL     1      -6.487   3.558  69.215  1.00  0.00     0.000 HD 
ENDBRANCH  22  23
ENDBRANCH   4  22
TORSDOF 2
ENDMDL
MODEL       86
REMARK 921   NORMALIZED FREE ENERGY PREDICTED BY IDOCK:   -4.12 KCAL/MOL
REMARK 922        TOTAL FREE ENERGY PREDICTED BY IDOCK:   -4.86 KCAL/MOL
REMARK 923 INTER-LIGAND FREE ENERGY PREDICTED BY IDOCK:   -4.49 KCAL/MOL
REMARK 924 INTRA-LIGAND FREE ENERGY PREDICTED BY IDOCK:   -0.38 KCAL/MOL
REMARK 927      BINDING AFFINITY PREDICTED BY RF-SCORE:    0.00 PKD
ROOT
HETATM    1  C   UNL     1      -9.672   4.809  70.000  1.00  0.00    -0.280 C  
HETATM    2  C   UNL     1      -8.980   4.197  68.919  1.00  0.00    -0.162 C  
HETATM    3  C   UNL     1      -8.247   5.143  69.790  1.00  0.00    -0.089 C  
HETATM    4  C   UNL     1      -9.213   5.773  71.511  1.00  0.00    -0.146 C  
HETATM    5  O   UNL     1      -8.637   6.524  72.616  1.00  0.00    -0.125 OA 
HETATM    6  C   UNL     1      -9.362   8.944  65.830  1.00  0.00    -0.286 C  
HETATM    7  C   UNL     1      -8.270   4.794  71.338  1.00  0.00    -0.103 C  
HETATM    8  C   UNL     1      -6.965   6.149  71.173  1.00  0.00    -0.068 C  
HETATM    9  C   UNL     1      -7.968   3.514  72.056  1.00  0.00    -0.063 C  
HETATM   10  C   UNL     1     -10.054   6.552  69.386  1.00  0.00    -0.198 C  
HETATM   11  H   UNL     1      -9.080   6.813  73.405  1.00  0.00     0.000 HD 
HETATM   12  C   UNL     1      -7.676   7.603  70.454  1.00  0.00    -0.090 C  
HETATM   13  C   UNL     1     -11.013   6.471  68.178  1.00  0.00    -0.365 C  
HETATM   14  C   UNL     1     -10.726   7.322  66.955  1.00  0.00    -0.406 C  
HETATM   15  C   UNL     1      -8.815   7.584  69.245  1.00  0.00    -0.136 C  
HETATM   16  C   UNL     1      -9.534   8.244  66.959  1.00  0.00    -0.226 C  
HETATM   17  C   UNL     1      -8.640   8.314  68.107  1.00  0.00    -0.132 C  
HETATM   18  C   UNL     1      -7.435   9.218  67.958  1.00  0.00    -0.083 C  
HETATM   19  C   UNL     1      -7.218  10.042  66.691  1.00  0.00    -0.099 C  
HETATM   20  C   UNL     1      -8.245   9.867  65.616  1.00  0.00    -0.138 C  
HETATM   21  O   UNL     1      -8.167  10.479  64.548  1.00  0.00    -0.154 OA 
ENDROOT
BRANCH   4  22
HETATM   22  C   UNL     1     -10.653   5.172  72.513  1.00  0.00    -0.275 C  
BRANCH  22  23
HETATM   23  C   UNL     1     -11.134   6.561  72.901  1.00  0.00    -0.223 C  
HETATM   24  H1  UNL     1     -11.856   8.644  73.482  1.00  0.00     0.000 HD 
HETATM   25  N   UNL     1     -11.533   7.712  73.221  1.00  0.00    -0.638 NA 
HETATM   26  H2  UNL     1     -11.525   8.019  72.249  1.00  0.00     0.000 HD 
ENDBRANCH  22  23
ENDBRANCH   4  22
TORSDOF 2
ENDMDL
MODEL       87
REMARK 921   NORMALIZED FREE ENERGY PREDICTED BY IDOCK:   -4.10 KCAL/MOL
REMARK 922        TOTAL FREE ENERGY PREDICTED BY IDOCK:   -4.84 KCAL/MOL
REMARK 923 INTER-LIGAND FREE ENERGY PREDICTED BY IDOCK:   -4.43 KCAL/MOL
REMARK 924 INTRA-LIGAND FREE ENERGY PREDICTED BY IDOCK:   -0.41 KCAL/MOL
REMARK 927      BINDING AFFINITY PREDICTED BY RF-SCORE:    0.00 PKD
ROOT
HETATM    1  C   UNL     1      -7.019   6.649  68.350  1.00  0.00    -0.080 C  
HETATM    2  C   UNL     1      -6.797   6.101  69.643  1.00  0.00    -0.065 C  
HETATM    3  C   UNL     1      -7.909   5.568  68.825  1.00  0.00    -0.095 C  
HETATM    4  C   UNL     1      -8.003   6.192  66.851  1.00  0.00    -0.105 C  
HETATM    5  O   UNL     1      -8.861   5.663  65.803  1.00  0.00    -0.149 OA 
HETATM    6  C   UNL     1     -11.148   9.056  71.777  1.00  0.00    -0.444 C  
HETATM    7  C   UNL     1      -7.497   5.037  67.387  1.00  0.00    -0.083 C  
HETATM    8  C   UNL     1      -9.269   4.432  67.630  1.00  0.00    -0.169 C  
HETATM    9  C   UNL     1      -6.410   4.095  66.968  1.00  0.00    -0.040 C  
HETATM   10  C   UNL     1      -8.492   7.807  68.578  1.00  0.00    -0.129 C  
HETATM   11  H   UNL     1      -8.904   5.949  64.898  1.00  0.00     0.000 HD 
HETATM   12  C   UNL     1     -10.351   5.803  67.929  1.00  0.00    -0.266 C  
HETATM   13  C   UNL     1      -8.098   8.956  69.533  1.00  0.00    -0.101 C  
HETATM   14  C   UNL     1      -9.057   9.352  70.639  1.00  0.00    -0.292 C  
HETATM   15  C   UNL     1      -9.941   7.134  68.834  1.00  0.00    -0.163 C  
HETATM   16  C   UNL     1     -10.378   8.639  70.763  1.00  0.00    -0.249 C  
HETATM   17  C   UNL     1     -10.740   7.561  69.852  1.00  0.00    -0.254 C  
HETATM   18  C   UNL     1     -12.059   6.872  70.128  1.00  0.00    -0.111 C  
HETATM   19  C   UNL     1     -12.968   7.332  71.266  1.00  0.00    -0.377 C  
HETATM   20  C   UNL     1     -12.453   8.470  72.091  1.00  0.00    -0.379 C  
HETATM   21  O   UNL     1     -13.102   8.919  73.039  1.00  0.00    -0.309 OA 
ENDROOT
BRANCH   4  22
HETATM   22  C   UNL     1      -6.820   6.972  65.655  1.00  0.00    -0.052 C  
BRANCH  22  23
HETATM   23  C   UNL     1      -7.890   7.720  64.877  1.00  0.00    -0.123 C  
HETATM   24  H1  UNL     1      -9.496   8.842  63.711  1.00  0.00     0.000 HD 
HETATM   25  N   UNL     1      -8.778   8.341  64.233  1.00  0.00    -0.392 NA 
HETATM   26  H2  UNL     1      -9.152   8.754  65.087  1.00  0.00     0.000 HD 
ENDBRANCH  22  23
ENDBRANCH   4  22
TORSDOF 2
ENDMDL
MODEL       88
REMARK 921   NORMALIZED FREE ENERGY PREDICTED BY IDOCK:   -4.08 KCAL/MOL
REMARK 922        TOTAL FREE ENERGY PREDICTED BY IDOCK:   -4.82 KCAL/MOL
REMARK 923 INTER-LIGAND FREE ENERGY PREDICTED BY IDOCK:   -4.80 KCAL/MOL
REMARK 924 INTRA-LIGAND FREE ENERGY PREDICTED BY IDOCK:   -0.02 KCAL/MOL
REMARK 927      BINDING AFFINITY PREDICTED BY RF-SCORE:    0.00 PKD
ROOT
HETATM    1  C   UNL     1      -7.742   9.405  69.156  1.00  0.00    -0.079 C  
HETATM    2  C   UNL     1      -7.236  10.054  70.316  1.00  0.00    -0.155 C  
HETATM    3  C   UNL     1      -8.675  10.186  69.997  1.00  0.00    -0.011 C  
HETATM    4  C   UNL     1      -9.410   8.988  68.474  1.00  0.00    -0.139 C  
HETATM    5  O   UNL     1     -10.805   8.783  68.115  1.00  0.00    -0.446 OA 
HETATM    6  C   UNL     1      -7.244  15.072  67.661  1.00  0.00    -0.208 C  
HETATM    7  C   UNL     1      -9.459   8.816  69.832  1.00  0.00    -0.174 C  
HETATM    8  C   UNL     1     -10.810  10.134  69.902  1.00  0.00    -0.347 C  
HETATM    9  C   UNL     1      -9.513   7.609  70.718  1.00  0.00    -0.162 C  
HETATM   10  C   UNL     1      -7.913  10.788  67.883  1.00  0.00    -0.110 C  
HETATM   11  H   UNL     1     -11.142   8.234  67.417  1.00  0.00     0.000 HD 
HETATM   12  C   UNL     1     -10.573  11.325  68.611  1.00  0.00    -0.231 C  
HETATM   13  C   UNL     1      -6.515  11.356  67.552  1.00  0.00    -0.074 C  
HETATM   14  C   UNL     1      -6.330  12.860  67.492  1.00  0.00    -0.161 C  
HETATM   15  C   UNL     1      -9.088  11.876  68.113  1.00  0.00    -0.190 C  
HETATM   16  C   UNL     1      -7.514  13.761  67.726  1.00  0.00    -0.168 C  
HETATM   17  C   UNL     1      -8.829  13.212  68.032  1.00  0.00    -0.191 C  
HETATM   18  C   UNL     1      -9.919  14.220  68.325  1.00  0.00    -0.239 C  
HETATM   19  C   UNL     1      -9.649  15.721  68.244  1.00  0.00    -0.201 C  
HETATM   20  C   UNL     1      -8.248  16.113  67.894  1.00  0.00    -0.153 C  
HETATM   21  O   UNL     1      -7.916  17.298  67.806  1.00  0.00    -0.185 OA 
ENDROOT
BRANCH   4  22
HETATM   22  C   UNL     1      -8.835   7.454  67.606  1.00  0.00    -0.127 C  
BRANCH  22  23
HETATM   23  C   UNL     1     -10.231   6.980  67.235  1.00  0.00    -0.234 C  
HETATM   24  H1  UNL     1     -12.324   6.268  66.679  1.00  0.00     0.000 HD 
HETATM   25  N   UNL     1     -11.388   6.586  66.929  1.00  0.00    -0.817 NA 
HETATM   26  H2  UNL     1     -11.416   5.950  67.725  1.00  0.00     0.000 HD 
ENDBRANCH  22  23
ENDBRANCH   4  22
TORSDOF 2
ENDMDL
MODEL       89
REMARK 921   NORMALIZED FREE ENERGY PREDICTED BY IDOCK:   -4.08 KCAL/MOL
REMARK 922        TOTAL FREE ENERGY PREDICTED BY IDOCK:   -4.81 KCAL/MOL
REMARK 923 INTER-LIGAND FREE ENERGY PREDICTED BY IDOCK:   -4.80 KCAL/MOL
REMARK 924 INTRA-LIGAND FREE ENERGY PREDICTED BY IDOCK:   -0.01 KCAL/MOL
REMARK 927      BINDING AFFINITY PREDICTED BY RF-SCORE:    0.00 PKD
ROOT
HETATM    1  C   UNL     1      -9.078  10.539  68.222  1.00  0.00    -0.146 C  
HETATM    2  C   UNL     1      -8.078   9.951  69.043  1.00  0.00    -0.111 C  
HETATM    3  C   UNL     1      -7.889   9.942  67.575  1.00  0.00    -0.098 C  
HETATM    4  C   UNL     1      -9.222  11.065  66.454  1.00  0.00    -0.175 C  
HETATM    5  O   UNL     1      -9.127  11.383  65.037  1.00  0.00    -0.373 OA 
HETATM    6  C   UNL     1      -9.949   4.738  67.796  1.00  0.00    -0.169 C  
HETATM    7  C   UNL     1      -7.954  11.366  66.877  1.00  0.00    -0.158 C  
HETATM    8  C   UNL     1      -7.286  10.210  65.542  1.00  0.00    -0.142 C  
HETATM    9  C   UNL     1      -7.254  12.649  67.208  1.00  0.00    -0.106 C  
HETATM   10  C   UNL     1     -10.046   9.071  67.537  1.00  0.00    -0.285 C  
HETATM   11  H   UNL     1      -9.738  11.898  64.523  1.00  0.00     0.000 HD 
HETATM   12  C   UNL     1      -8.427   8.888  65.248  1.00  0.00    -0.185 C  
HETATM   13  C   UNL     1     -10.744   8.330  68.699  1.00  0.00    -0.068 C  
HETATM   14  C   UNL     1     -10.678   6.816  68.749  1.00  0.00    -0.280 C  
HETATM   15  C   UNL     1      -9.314   8.139  66.436  1.00  0.00    -0.269 C  
HETATM   16  C   UNL     1      -9.960   6.071  67.654  1.00  0.00    -0.154 C  
HETATM   17  C   UNL     1      -9.310   6.781  66.560  1.00  0.00    -0.197 C  
HETATM   18  C   UNL     1      -8.556   5.925  65.567  1.00  0.00    -0.150 C  
HETATM   19  C   UNL     1      -8.537   4.403  65.690  1.00  0.00    -0.119 C  
HETATM   20  C   UNL     1      -9.275   3.835  66.861  1.00  0.00    -0.179 C  
HETATM   21  O   UNL     1      -9.322   2.618  67.061  1.00  0.00    -0.141 OA 
ENDROOT
BRANCH   4  22
HETATM   22  C   UNL     1     -10.411  12.443  66.806  1.00  0.00    -0.239 C  
BRANCH  22  23
HETATM   23  C   UNL     1     -10.266  13.097  65.442  1.00  0.00    -0.290 C  
HETATM   24  H1  UNL     1     -10.049  14.079  63.395  1.00  0.00     0.000 HD 
HETATM   25  N   UNL     1     -10.147  13.641  64.311  1.00  0.00    -0.763 NA 
HETATM   26  H2  UNL     1     -10.579  14.501  64.645  1.00  0.00     0.000 HD 
ENDBRANCH  22  23
ENDBRANCH   4  22
TORSDOF 2
ENDMDL
MODEL       90
REMARK 921   NORMALIZED FREE ENERGY PREDICTED BY IDOCK:   -3.98 KCAL/MOL
REMARK 922        TOTAL FREE ENERGY PREDICTED BY IDOCK:   -4.70 KCAL/MOL
REMARK 923 INTER-LIGAND FREE ENERGY PREDICTED BY IDOCK:   -4.29 KCAL/MOL
REMARK 924 INTRA-LIGAND FREE ENERGY PREDICTED BY IDOCK:   -0.41 KCAL/MOL
REMARK 927      BINDING AFFINITY PREDICTED BY RF-SCORE:    0.00 PKD
ROOT
HETATM    1  C   UNL     1     -10.335   9.593  67.189  1.00  0.00    -0.319 C  
HETATM    2  C   UNL     1     -11.388  10.163  67.955  1.00  0.00    -0.152 C  
HETATM    3  C   UNL     1      -9.993  10.363  68.405  1.00  0.00    -0.177 C  
HETATM    4  C   UNL     1      -8.495   9.768  67.103  1.00  0.00    -0.125 C  
HETATM    5  O   UNL     1      -7.071  10.042  67.219  1.00  0.00    -0.083 OA 
HETATM    6  C   UNL     1     -10.959   6.043  71.837  1.00  0.00    -0.316 C  
HETATM    7  C   UNL     1      -9.022  11.011  67.330  1.00  0.00    -0.138 C  
HETATM    8  C   UNL     1      -8.052  11.074  68.949  1.00  0.00    -0.135 C  
HETATM    9  C   UNL     1      -9.184  12.234  66.479  1.00  0.00    -0.219 C  
HETATM   10  C   UNL     1      -9.828   8.055  68.160  1.00  0.00    -0.195 C  
HETATM   11  H   UNL     1      -6.384   9.769  66.622  1.00  0.00     0.000 HD 
HETATM   12  C   UNL     1      -7.871   9.445  69.620  1.00  0.00    -0.105 C  
HETATM   13  C   UNL     1     -11.006   7.055  68.187  1.00  0.00    -0.165 C  
HETATM   14  C   UNL     1     -11.367   6.382  69.497  1.00  0.00    -0.460 C  
HETATM   15  C   UNL     1      -9.050   8.276  69.561  1.00  0.00    -0.154 C  
HETATM   16  C   UNL     1     -10.554   6.680  70.730  1.00  0.00    -0.265 C  
HETATM   17  C   UNL     1      -9.442   7.621  70.690  1.00  0.00    -0.163 C  
HETATM   18  C   UNL     1      -8.754   7.894  72.010  1.00  0.00    -0.180 C  
HETATM   19  C   UNL     1      -9.180   7.173  73.287  1.00  0.00    -0.193 C  
HETATM   20  C   UNL     1     -10.327   6.222  73.146  1.00  0.00    -0.222 C  
HETATM   21  O   UNL     1     -10.758   5.589  74.113  1.00  0.00    -0.261 OA 
ENDROOT
BRANCH   4  22
HETATM   22  C   UNL     1      -8.395   9.382  65.292  1.00  0.00    -0.147 C  
BRANCH  22  23
HETATM   23  C   UNL     1      -7.121   8.560  65.400  1.00  0.00    -0.082 C  
HETATM   24  H1  UNL     1      -5.210   7.327  65.562  1.00  0.00     0.000 HD 
HETATM   25  N   UNL     1      -6.065   7.879  65.489  1.00  0.00    -0.038 NA 
HETATM   26  H2  UNL     1      -5.723   8.235  64.597  1.00  0.00     0.000 HD 
ENDBRANCH  22  23
ENDBRANCH   4  22
TORSDOF 2
ENDMDL
MODEL       91
REMARK 921   NORMALIZED FREE ENERGY PREDICTED BY IDOCK:   -3.87 KCAL/MOL
REMARK 922        TOTAL FREE ENERGY PREDICTED BY IDOCK:   -4.58 KCAL/MOL
REMARK 923 INTER-LIGAND FREE ENERGY PREDICTED BY IDOCK:   -4.65 KCAL/MOL
REMARK 924 INTRA-LIGAND FREE ENERGY PREDICTED BY IDOCK:    0.06 KCAL/MOL
REMARK 927      BINDING AFFINITY PREDICTED BY RF-SCORE:    0.00 PKD
ROOT
HETATM    1  C   UNL     1      -8.981  11.977  68.393  1.00  0.00    -0.153 C  
HETATM    2  C   UNL     1      -7.967  12.783  67.807  1.00  0.00    -0.157 C  
HETATM    3  C   UNL     1      -9.205  12.525  67.037  1.00  0.00    -0.214 C  
HETATM    4  C   UNL     1     -10.759  11.598  68.047  1.00  0.00    -0.208 C  
HETATM    5  O   UNL     1     -12.127  11.425  67.583  1.00  0.00    -0.630 OA 
HETATM    6  C   UNL     1      -6.262   8.470  64.533  1.00  0.00    -0.066 C  
HETATM    7  C   UNL     1     -10.553  12.924  67.772  1.00  0.00    -0.231 C  
HETATM    8  C   UNL     1     -11.065  12.584  65.987  1.00  0.00    -0.329 C  
HETATM    9  C   UNL     1     -10.952  14.195  68.460  1.00  0.00    -0.271 C  
HETATM   10  C   UNL     1      -8.786  10.296  67.557  1.00  0.00    -0.128 C  
HETATM   11  H   UNL     1     -12.840  11.000  68.046  1.00  0.00     0.000 HD 
HETATM   12  C   UNL     1     -10.618  10.934  65.523  1.00  0.00    -0.240 C  
HETATM   13  C   UNL     1      -7.412   9.696  67.928  1.00  0.00    -0.083 C  
HETATM   14  C   UNL     1      -6.563   9.074  66.835  1.00  0.00    -0.064 C  
HETATM   15  C   UNL     1      -9.218  10.178  66.002  1.00  0.00    -0.198 C  
HETATM   16  C   UNL     1      -7.090   9.030  65.424  1.00  0.00    -0.081 C  
HETATM   17  C   UNL     1      -8.391   9.596  65.088  1.00  0.00    -0.142 C  
HETATM   18  C   UNL     1      -8.772   9.561  63.624  1.00  0.00    -0.239 C  
HETATM   19  C   UNL     1      -7.859   8.916  62.585  1.00  0.00    -0.132 C  
HETATM   20  C   UNL     1      -6.569   8.363  63.105  1.00  0.00    -0.086 C  
HETATM   21  O   UNL     1      -5.752   7.825  62.353  1.00  0.00    -0.064 OA 
ENDROOT
BRANCH   4  22
HETATM   22  C   UNL     1     -11.200  11.324  69.827  1.00  0.00    -0.294 C  
BRANCH  22  23
HETATM   23  C   UNL     1     -11.254   9.809  69.719  1.00  0.00    -0.202 C  
HETATM   24  H1  UNL     1     -11.333   7.536  69.557  1.00  0.00     0.000 HD 
HETATM   25  N   UNL     1     -11.297   8.553  69.628  1.00  0.00    -0.435 NA 
HETATM   26  H2  UNL     1     -10.775   8.567  68.753  1.00  0.00     0.000 HD 
ENDBRANCH  22  23
ENDBRANCH   4  22
TORSDOF 2
ENDMDL
MODEL       92
REMARK 921   NORMALIZED FREE ENERGY PREDICTED BY IDOCK:   -3.86 KCAL/MOL
REMARK 922        TOTAL FREE ENERGY PREDICTED BY IDOCK:   -4.58 KCAL/MOL
REMARK 923 INTER-LIGAND FREE ENERGY PREDICTED BY IDOCK:   -4.58 KCAL/MOL
REMARK 924 INTRA-LIGAND FREE ENERGY PREDICTED BY IDOCK:   -0.00 KCAL/MOL
REMARK 927      BINDING AFFINITY PREDICTED BY RF-SCORE:    0.00 PKD
ROOT
HETATM    1  C   UNL     1      -7.770   6.483  67.549  1.00  0.00    -0.106 C  
HETATM    2  C   UNL     1      -6.858   7.490  67.969  1.00  0.00    -0.067 C  
HETATM    3  C   UNL     1      -7.856   6.986  68.938  1.00  0.00    -0.115 C  
HETATM    4  C   UNL     1      -8.957   5.325  68.368  1.00  0.00    -0.108 C  
HETATM    5  O   UNL     1      -9.838   4.526  69.206  1.00  0.00    -0.192 OA 
HETATM    6  C   UNL     1     -10.861  11.487  67.493  1.00  0.00    -0.285 C  
HETATM    7  C   UNL     1      -7.846   5.415  69.163  1.00  0.00    -0.090 C  
HETATM    8  C   UNL     1      -8.947   6.088  70.542  1.00  0.00    -0.150 C  
HETATM    9  C   UNL     1      -6.715   4.479  69.466  1.00  0.00    -0.044 C  
HETATM   10  C   UNL     1      -9.381   7.413  67.233  1.00  0.00    -0.159 C  
HETATM   11  H   UNL     1     -10.343   3.764  68.945  1.00  0.00     0.000 HD 
HETATM   12  C   UNL     1     -10.301   7.001  69.856  1.00  0.00    -0.225 C  
HETATM   13  C   UNL     1      -9.180   8.406  66.066  1.00  0.00    -0.247 C  
HETATM   14  C   UNL     1      -9.710   9.820  66.206  1.00  0.00    -0.295 C  
HETATM   15  C   UNL     1     -10.184   7.979  68.519  1.00  0.00    -0.231 C  
HETATM   16  C   UNL     1     -10.442  10.214  67.463  1.00  0.00    -0.304 C  
HETATM   17  C   UNL     1     -10.629   9.267  68.554  1.00  0.00    -0.222 C  
HETATM   18  C   UNL     1     -11.310   9.807  69.793  1.00  0.00    -0.201 C  
HETATM   19  C   UNL     1     -11.814  11.247  69.854  1.00  0.00    -0.436 C  
HETATM   20  C   UNL     1     -11.559  12.078  68.636  1.00  0.00    -0.319 C  
HETATM   21  O   UNL     1     -11.918  13.257  68.577  1.00  0.00    -0.339 OA 
ENDROOT
BRANCH   4  22
HETATM   22  C   UNL     1      -8.780   3.999  67.084  1.00  0.00    -0.118 C  
BRANCH  22  23
HETATM   23  C   UNL     1      -9.240   2.871  67.992  1.00  0.00    -0.198 C  
HETATM   24  H1  UNL     1      -9.930   1.179  69.355  1.00  0.00     0.000 HD 
HETATM   25  N   UNL     1      -9.621   1.936  68.746  1.00  0.00    -0.124 NA 
HETATM   26  H2  UNL     1      -9.138   2.343  69.546  1.00  0.00     0.000 HD 
ENDBRANCH  22  23
ENDBRANCH   4  22
TORSDOF 2
ENDMDL
MODEL       93
REMARK 921   NORMALIZED FREE ENERGY PREDICTED BY IDOCK:   -3.86 KCAL/MOL
REMARK 922        TOTAL FREE ENERGY PREDICTED BY IDOCK:   -4.57 KCAL/MOL
REMARK 923 INTER-LIGAND FREE ENERGY PREDICTED BY IDOCK:   -4.18 KCAL/MOL
REMARK 924 INTRA-LIGAND FREE ENERGY PREDICTED BY IDOCK:   -0.39 KCAL/MOL
REMARK 927      BINDING AFFINITY PREDICTED BY RF-SCORE:    0.00 PKD
ROOT
HETATM    1  C   UNL     1      -7.065   4.668  66.679  1.00  0.00    -0.071 C  
HETATM    2  C   UNL     1      -7.073   3.659  67.681  1.00  0.00    -0.055 C  
HETATM    3  C   UNL     1      -8.341   3.988  66.992  1.00  0.00    -0.100 C  
HETATM    4  C   UNL     1      -8.215   5.244  65.349  1.00  0.00    -0.127 C  
HETATM    5  O   UNL     1      -9.269   5.548  64.393  1.00  0.00    -0.343 OA 
HETATM    6  C   UNL     1      -9.383   7.239  71.433  1.00  0.00    -0.153 C  
HETATM    7  C   UNL     1      -8.298   3.879  65.410  1.00  0.00    -0.105 C  
HETATM    8  C   UNL     1     -10.131   4.058  65.827  1.00  0.00    -0.112 C  
HETATM    9  C   UNL     1      -7.814   2.775  64.520  1.00  0.00    -0.078 C  
HETATM   10  C   UNL     1      -7.794   6.184  67.533  1.00  0.00    -0.102 C  
HETATM   11  H   UNL     1      -9.211   6.124  63.639  1.00  0.00     0.000 HD 
HETATM   12  C   UNL     1     -10.412   5.557  66.728  1.00  0.00    -0.355 C  
HETATM   13  C   UNL     1      -6.856   6.628  68.678  1.00  0.00    -0.070 C  
HETATM   14  C   UNL     1      -7.458   6.981  70.024  1.00  0.00    -0.090 C  
HETATM   15  C   UNL     1      -9.375   6.163  67.875  1.00  0.00    -0.113 C  
HETATM   16  C   UNL     1      -8.952   6.919  70.205  1.00  0.00    -0.152 C  
HETATM   17  C   UNL     1      -9.827   6.503  69.116  1.00  0.00    -0.156 C  
HETATM   18  C   UNL     1     -11.300   6.405  69.446  1.00  0.00    -0.443 C  
HETATM   19  C   UNL     1     -11.826   6.778  70.830  1.00  0.00    -0.438 C  
HETATM   20  C   UNL     1     -10.794   7.207  71.826  1.00  0.00    -0.225 C  
HETATM   21  O   UNL     1     -11.105   7.525  72.976  1.00  0.00    -0.360 OA 
ENDROOT
BRANCH   4  22
HETATM   22  C   UNL     1      -6.859   5.802  64.213  1.00  0.00    -0.050 C  
BRANCH  22  23
HETATM   23  C   UNL     1      -7.645   6.962  63.626  1.00  0.00    -0.101 C  
HETATM   24  H1  UNL     1      -8.826   8.703  62.746  1.00  0.00     0.000 HD 
HETATM   25  N   UNL     1      -8.298   7.924  63.140  1.00  0.00    -0.384 NA 
HETATM   26  H2  UNL     1      -9.021   7.835  63.854  1.00  0.00     0.000 HD 
ENDBRANCH  22  23
ENDBRANCH   4  22
TORSDOF 2
ENDMDL
MODEL       94
REMARK 921   NORMALIZED FREE ENERGY PREDICTED BY IDOCK:   -3.84 KCAL/MOL
REMARK 922        TOTAL FREE ENERGY PREDICTED BY IDOCK:   -4.55 KCAL/MOL
REMARK 923 INTER-LIGAND FREE ENERGY PREDICTED BY IDOCK:   -4.18 KCAL/MOL
REMARK 924 INTRA-LIGAND FREE ENERGY PREDICTED BY IDOCK:   -0.37 KCAL/MOL
REMARK 927      BINDING AFFINITY PREDICTED BY RF-SCORE:    0.00 PKD
ROOT
HETATM    1  C   UNL     1      -8.897   5.533  70.664  1.00  0.00    -0.142 C  
HETATM    2  C   UNL     1     -10.107   5.243  69.975  1.00  0.00    -0.336 C  
HETATM    3  C   UNL     1      -9.230   6.315  69.453  1.00  0.00    -0.139 C  
HETATM    4  C   UNL     1      -7.355   6.493  70.316  1.00  0.00    -0.089 C  
HETATM    5  O   UNL     1      -6.249   7.316  69.850  1.00  0.00    -0.027 OA 
HETATM    6  C   UNL     1     -12.620   9.811  72.222  1.00  0.00    -0.264 C  
HETATM    7  C   UNL     1      -7.734   5.878  69.152  1.00  0.00    -0.091 C  
HETATM    8  C   UNL     1      -7.902   7.585  68.362  1.00  0.00    -0.122 C  
HETATM    9  C   UNL     1      -7.193   4.717  68.375  1.00  0.00    -0.061 C  
HETATM   10  C   UNL     1      -9.278   7.100  71.643  1.00  0.00    -0.149 C  
HETATM   11  H   UNL     1      -5.389   7.398  70.245  1.00  0.00     0.000 HD 
HETATM   12  C   UNL     1      -8.380   8.781  69.578  1.00  0.00    -0.119 C  
HETATM   13  C   UNL     1     -10.373   6.797  72.690  1.00  0.00    -0.225 C  
HETATM   14  C   UNL     1     -11.524   7.772  72.851  1.00  0.00    -0.359 C  
HETATM   15  C   UNL     1      -9.449   8.479  70.813  1.00  0.00    -0.213 C  
HETATM   16  C   UNL     1     -11.558   9.021  72.011  1.00  0.00    -0.413 C  
HETATM   17  C   UNL     1     -10.516   9.298  71.030  1.00  0.00    -0.384 C  
HETATM   18  C   UNL     1     -10.704  10.545  70.194  1.00  0.00    -0.232 C  
HETATM   19  C   UNL     1     -11.894  11.475  70.419  1.00  0.00    -0.413 C  
HETATM   20  C   UNL     1     -12.859  11.053  71.483  1.00  0.00    -0.450 C  
HETATM   21  O   UNL     1     -13.859  11.726  71.746  1.00  0.00     0.157 OA 
ENDROOT
BRANCH   4  22
HETATM   22  C   UNL     1      -6.266   5.403  71.348  1.00  0.00    -0.034 C  
BRANCH  22  23
HETATM   23  C   UNL     1      -5.694   6.537  72.183  1.00  0.00    -0.037 C  
HETATM   24  H1  UNL     1      -4.837   8.238  73.436  1.00  0.00     0.000 HD 
HETATM   25  N   UNL     1      -5.221   7.477  72.876  1.00  0.00    -0.037 NA 
HETATM   26  H2  UNL     1      -5.717   7.155  73.707  1.00  0.00     0.000 HD 
ENDBRANCH  22  23
ENDBRANCH   4  22
TORSDOF 2
ENDMDL
MODEL       95
REMARK 921   NORMALIZED FREE ENERGY PREDICTED BY IDOCK:   -3.83 KCAL/MOL
REMARK 922        TOTAL FREE ENERGY PREDICTED BY IDOCK:   -4.53 KCAL/MOL
REMARK 923 INTER-LIGAND FREE ENERGY PREDICTED BY IDOCK:   -4.12 KCAL/MOL
REMARK 924 INTRA-LIGAND FREE ENERGY PREDICTED BY IDOCK:   -0.41 KCAL/MOL
REMARK 927      BINDING AFFINITY PREDICTED BY RF-SCORE:    0.00 PKD
ROOT
HETATM    1  C   UNL     1     -10.894  10.596  66.413  1.00  0.00    -0.132 C  
HETATM    2  C   UNL     1     -11.502  10.999  67.633  1.00  0.00    -0.303 C  
HETATM    3  C   UNL     1     -10.061  11.270  67.434  1.00  0.00    -0.214 C  
HETATM    4  C   UNL     1      -9.300  10.932  65.537  1.00  0.00    -0.206 C  
HETATM    5  O   UNL     1      -7.986  11.312  65.038  1.00  0.00    -0.263 OA 
HETATM    6  C   UNL     1      -9.234   6.571  70.367  1.00  0.00    -0.156 C  
HETATM    7  C   UNL     1      -9.704  12.099  66.128  1.00  0.00    -0.254 C  
HETATM    8  C   UNL     1      -8.108  12.085  67.137  1.00  0.00    -0.177 C  
HETATM    9  C   UNL     1     -10.272  13.381  65.600  1.00  0.00    -0.300 C  
HETATM   10  C   UNL     1      -9.956   9.019  66.855  1.00  0.00    -0.313 C  
HETATM   11  H   UNL     1      -7.637  11.157  64.168  1.00  0.00     0.000 HD 
HETATM   12  C   UNL     1      -7.592  10.419  67.448  1.00  0.00    -0.094 C  
HETATM   13  C   UNL     1     -10.962   7.927  67.281  1.00  0.00    -0.016 C  
HETATM   14  C   UNL     1     -10.669   7.101  68.519  1.00  0.00    -0.191 C  
HETATM   15  C   UNL     1      -8.634   9.167  67.776  1.00  0.00    -0.121 C  
HETATM   16  C   UNL     1      -9.395   7.344  69.285  1.00  0.00    -0.154 C  
HETATM   17  C   UNL     1      -8.451   8.375  68.870  1.00  0.00    -0.124 C  
HETATM   18  C   UNL     1      -7.249   8.575  69.766  1.00  0.00    -0.052 C  
HETATM   19  C   UNL     1      -7.027   7.700  70.998  1.00  0.00    -0.049 C  
HETATM   20  C   UNL     1      -8.083   6.674  71.267  1.00  0.00    -0.112 C  
HETATM   21  O   UNL     1      -8.009   5.916  72.238  1.00  0.00    -0.105 OA 
ENDROOT
BRANCH   4  22
HETATM   22  C   UNL     1     -10.020  10.734  63.840  1.00  0.00    -0.404 C  
BRANCH  22  23
HETATM   23  C   UNL     1      -8.888   9.866  63.314  1.00  0.00    -0.245 C  
HETATM   24  H1  UNL     1      -7.190   8.565  62.525  1.00  0.00     0.000 HD 
HETATM   25  N   UNL     1      -7.950   9.148  62.877  1.00  0.00    -0.134 NA 
HETATM   26  H2  UNL     1      -7.984   9.603  61.966  1.00  0.00     0.000 HD 
ENDBRANCH  22  23
ENDBRANCH   4  22
TORSDOF 2
ENDMDL
MODEL       96
REMARK 921   NORMALIZED FREE ENERGY PREDICTED BY IDOCK:   -3.80 KCAL/MOL
REMARK 922        TOTAL FREE ENERGY PREDICTED BY IDOCK:   -4.50 KCAL/MOL
REMARK 923 INTER-LIGAND FREE ENERGY PREDICTED BY IDOCK:   -4.09 KCAL/MOL
REMARK 924 INTRA-LIGAND FREE ENERGY PREDICTED BY IDOCK:   -0.41 KCAL/MOL
REMARK 927      BINDING AFFINITY PREDICTED BY RF-SCORE:    0.00 PKD
ROOT
HETATM    1  C   UNL     1      -7.464   7.306  65.854  1.00  0.00    -0.080 C  
HETATM    2  C   UNL     1      -6.603   8.082  66.677  1.00  0.00    -0.056 C  
HETATM    3  C   UNL     1      -7.237   6.874  67.250  1.00  0.00    -0.089 C  
HETATM    4  C   UNL     1      -8.239   5.628  65.931  1.00  0.00    -0.119 C  
HETATM    5  O   UNL     1      -8.760   4.297  66.205  1.00  0.00    -0.112 OA 
HETATM    6  C   UNL     1     -11.044  10.415  69.334  1.00  0.00    -0.304 C  
HETATM    7  C   UNL     1      -6.975   5.528  66.450  1.00  0.00    -0.064 C  
HETATM    8  C   UNL     1      -7.741   4.971  68.083  1.00  0.00    -0.083 C  
HETATM    9  C   UNL     1      -5.699   4.922  65.949  1.00  0.00    -0.018 C  
HETATM   10  C   UNL     1      -9.203   7.790  66.407  1.00  0.00    -0.229 C  
HETATM   11  H   UNL     1      -9.219   3.726  65.600  1.00  0.00     0.000 HD 
HETATM   12  C   UNL     1      -9.331   5.721  68.304  1.00  0.00    -0.123 C  
HETATM   13  C   UNL     1      -9.443   9.284  66.092  1.00  0.00    -0.298 C  
HETATM   14  C   UNL     1     -10.085  10.162  67.150  1.00  0.00    -0.260 C  
HETATM   15  C   UNL     1      -9.695   7.280  67.861  1.00  0.00    -0.161 C  
HETATM   16  C   UNL     1     -10.497   9.554  68.465  1.00  0.00    -0.247 C  
HETATM   17  C   UNL     1     -10.269   8.143  68.747  1.00  0.00    -0.221 C  
HETATM   18  C   UNL     1     -10.654   7.671  70.132  1.00  0.00    -0.239 C  
HETATM   19  C   UNL     1     -11.295   8.621  71.141  1.00  0.00    -0.329 C  
HETATM   20  C   UNL     1     -11.478  10.034  70.680  1.00  0.00    -0.345 C  
HETATM   21  O   UNL     1     -11.981  10.888  71.414  1.00  0.00    -0.220 OA 
ENDROOT
BRANCH   4  22
HETATM   22  C   UNL     1      -8.251   5.386  64.093  1.00  0.00    -0.127 C  
BRANCH  22  23
HETATM   23  C   UNL     1      -9.607   4.701  64.057  1.00  0.00     0.116 C  
HETATM   24  H1  UNL     1     -11.643   3.675  64.002  1.00  0.00     0.000 HD 
HETATM   25  N   UNL     1     -10.733   4.134  64.026  1.00  0.00    -0.485 NA 
HETATM   26  H2  UNL     1     -11.061   4.759  63.291  1.00  0.00     0.000 HD 
ENDBRANCH  22  23
ENDBRANCH   4  22
TORSDOF 2
ENDMDL
MODEL       97
REMARK 921   NORMALIZED FREE ENERGY PREDICTED BY IDOCK:   -3.79 KCAL/MOL
REMARK 922        TOTAL FREE ENERGY PREDICTED BY IDOCK:   -4.50 KCAL/MOL
REMARK 923 INTER-LIGAND FREE ENERGY PREDICTED BY IDOCK:   -4.48 KCAL/MOL
REMARK 924 INTRA-LIGAND FREE ENERGY PREDICTED BY IDOCK:   -0.01 KCAL/MOL
REMARK 927      BINDING AFFINITY PREDICTED BY RF-SCORE:    0.00 PKD
ROOT
HETATM    1  C   UNL     1      -9.195   5.333  69.721  1.00  0.00    -0.167 C  
HETATM    2  C   UNL     1     -10.563   5.277  70.103  1.00  0.00    -0.297 C  
HETATM    3  C   UNL     1     -10.230   5.560  68.689  1.00  0.00    -0.261 C  
HETATM    4  C   UNL     1      -8.246   5.340  68.133  1.00  0.00    -0.098 C  
HETATM    5  O   UNL     1      -7.706   5.357  66.782  1.00  0.00    -0.097 OA 
HETATM    6  C   UNL     1     -10.930  10.942  70.076  1.00  0.00    -0.221 C  
HETATM    7  C   UNL     1      -9.303   4.482  67.984  1.00  0.00    -0.182 C  
HETATM    8  C   UNL     1      -9.926   5.572  66.574  1.00  0.00    -0.214 C  
HETATM    9  C   UNL     1      -9.419   2.989  67.915  1.00  0.00    -0.210 C  
HETATM   10  C   UNL     1      -8.820   7.178  69.589  1.00  0.00    -0.141 C  
HETATM   11  H   UNL     1      -6.796   5.256  66.527  1.00  0.00     0.000 HD 
HETATM   12  C   UNL     1      -9.475   7.261  66.857  1.00  0.00    -0.208 C  
HETATM   13  C   UNL     1      -8.965   7.832  70.981  1.00  0.00    -0.147 C  
HETATM   14  C   UNL     1      -9.716   9.144  71.101  1.00  0.00    -0.360 C  
HETATM   15  C   UNL     1      -9.476   7.988  68.351  1.00  0.00    -0.148 C  
HETATM   16  C   UNL     1     -10.276   9.792  69.862  1.00  0.00    -0.291 C  
HETATM   17  C   UNL     1     -10.129   9.167  68.553  1.00  0.00    -0.212 C  
HETATM   18  C   UNL     1     -10.803   9.876  67.399  1.00  0.00    -0.293 C  
HETATM   19  C   UNL     1     -11.543  11.196  67.605  1.00  0.00    -0.266 C  
HETATM   20  C   UNL     1     -11.579  11.709  69.011  1.00  0.00    -0.316 C  
HETATM   21  O   UNL     1     -12.154  12.764  69.294  1.00  0.00    -0.262 OA 
ENDROOT
BRANCH   4  22
HETATM   22  C   UNL     1      -6.761   4.487  68.844  1.00  0.00    -0.046 C  
BRANCH  22  23
HETATM   23  C   UNL     1      -6.095   4.236  67.502  1.00  0.00    -0.028 C  
HETATM   24  H1  UNL     1      -5.097   3.858  65.487  1.00  0.00     0.000 HD 
HETATM   25  N   UNL     1      -5.544   4.027  66.388  1.00  0.00    -0.017 NA 
HETATM   26  H2  UNL     1      -6.369   3.542  66.035  1.00  0.00     0.000 HD 
ENDBRANCH  22  23
ENDBRANCH   4  22
TORSDOF 2
ENDMDL
MODEL       98
REMARK 921   NORMALIZED FREE ENERGY PREDICTED BY IDOCK:   -3.54 KCAL/MOL
REMARK 922        TOTAL FREE ENERGY PREDICTED BY IDOCK:   -4.22 KCAL/MOL
REMARK 923 INTER-LIGAND FREE ENERGY PREDICTED BY IDOCK:   -3.81 KCAL/MOL
REMARK 924 INTRA-LIGAND FREE ENERGY PREDICTED BY IDOCK:   -0.41 KCAL/MOL
REMARK 927      BINDING AFFINITY PREDICTED BY RF-SCORE:    0.00 PKD
ROOT
HETATM    1  C   UNL     1     -10.910   7.402  68.957  1.00  0.00    -0.108 C  
HETATM    2  C   UNL     1     -11.082   6.296  69.835  1.00  0.00    -0.469 C  
HETATM    3  C   UNL     1      -9.812   7.054  69.885  1.00  0.00    -0.173 C  
HETATM    4  C   UNL     1      -9.732   8.820  68.803  1.00  0.00    -0.165 C  
HETATM    5  O   UNL     1      -8.689   9.834  68.854  1.00  0.00    -0.125 OA 
HETATM    6  C   UNL     1      -7.803   3.025  66.553  1.00  0.00    -0.077 C  
HETATM    7  C   UNL     1      -9.965   8.614  70.137  1.00  0.00    -0.193 C  
HETATM    8  C   UNL     1      -8.121   8.273  70.357  1.00  0.00    -0.108 C  
HETATM    9  C   UNL     1     -10.740   9.364  71.177  1.00  0.00    -0.417 C  
HETATM   10  C   UNL     1      -9.803   6.739  67.580  1.00  0.00    -0.155 C  
HETATM   11  H   UNL     1      -8.653  10.643  68.357  1.00  0.00     0.000 HD 
HETATM   12  C   UNL     1      -7.450   7.548  68.886  1.00  0.00    -0.096 C  
HETATM   13  C   UNL     1     -10.548   5.622  66.816  1.00  0.00    -0.372 C  
HETATM   14  C   UNL     1      -9.808   4.340  66.485  1.00  0.00    -0.238 C  
HETATM   15  C   UNL     1      -8.254   6.443  67.941  1.00  0.00    -0.115 C  
HETATM   16  C   UNL     1      -8.362   4.197  66.882  1.00  0.00    -0.100 C  
HETATM   17  C   UNL     1      -7.669   5.261  67.598  1.00  0.00    -0.092 C  
HETATM   18  C   UNL     1      -6.243   4.965  68.009  1.00  0.00    -0.035 C  
HETATM   19  C   UNL     1      -5.571   3.646  67.637  1.00  0.00    -0.021 C  
HETATM   20  C   UNL     1      -6.420   2.673  66.880  1.00  0.00    -0.035 C  
HETATM   21  O   UNL     1      -5.981   1.574  66.533  1.00  0.00    -0.018 OA 
ENDROOT
BRANCH   4  22
HETATM   22  C   UNL     1     -10.980   9.968  68.055  1.00  0.00    -0.296 C  
BRANCH  22  23
HETATM   23  C   UNL     1     -10.079  10.423  66.918  1.00  0.00    -0.219 C  
HETATM   24  H1  UNL     1      -8.729  11.104  65.212  1.00  0.00     0.000 HD 
HETATM   25  N   UNL     1      -9.334  10.799  65.975  1.00  0.00    -0.179 NA 
HETATM   26  H2  UNL     1     -10.019  10.511  65.277  1.00  0.00     0.000 HD 
ENDBRANCH  22  23
ENDBRANCH   4  22
TORSDOF 2
ENDMDL
MODEL       99
REMARK 921   NORMALIZED FREE ENERGY PREDICTED BY IDOCK:   -3.46 KCAL/MOL
REMARK 922        TOTAL FREE ENERGY PREDICTED BY IDOCK:   -4.13 KCAL/MOL
REMARK 923 INTER-LIGAND FREE ENERGY PREDICTED BY IDOCK:   -4.18 KCAL/MOL
REMARK 924 INTRA-LIGAND FREE ENERGY PREDICTED BY IDOCK:    0.05 KCAL/MOL
REMARK 927      BINDING AFFINITY PREDICTED BY RF-SCORE:    0.00 PKD
ROOT
HETATM    1  C   UNL     1      -7.127   9.149  66.826  1.00  0.00    -0.082 C  
HETATM    2  C   UNL     1      -6.564   9.394  68.108  1.00  0.00    -0.059 C  
HETATM    3  C   UNL     1      -7.810   8.601  68.018  1.00  0.00    -0.103 C  
HETATM    4  C   UNL     1      -8.421   8.030  66.122  1.00  0.00    -0.135 C  
HETATM    5  O   UNL     1      -9.479   7.088  65.787  1.00  0.00    -0.391 OA 
HETATM    6  C   UNL     1     -10.421  13.421  69.169  1.00  0.00     0.034 C  
HETATM    7  C   UNL     1      -7.734   7.326  67.076  1.00  0.00    -0.111 C  
HETATM    8  C   UNL     1      -9.355   7.124  68.024  1.00  0.00    -0.129 C  
HETATM    9  C   UNL     1      -6.731   6.215  67.016  1.00  0.00    -0.061 C  
HETATM   10  C   UNL     1      -8.563  10.368  66.704  1.00  0.00    -0.128 C  
HETATM   11  H   UNL     1      -9.758   6.826  64.918  1.00  0.00     0.000 HD 
HETATM   12  C   UNL     1     -10.407   8.522  67.748  1.00  0.00    -0.298 C  
HETATM   13  C   UNL     1      -8.013  11.812  66.728  1.00  0.00    -0.116 C  
HETATM   14  C   UNL     1      -8.693  12.842  67.609  1.00  0.00    -0.180 C  
HETATM   15  C   UNL     1      -9.864  10.087  67.625  1.00  0.00    -0.194 C  
HETATM   16  C   UNL     1      -9.900  12.443  68.416  1.00  0.00    -0.198 C  
HETATM   17  C   UNL     1     -10.412  11.079  68.382  1.00  0.00    -0.203 C  
HETATM   18  C   UNL     1     -11.581  10.784  69.297  1.00  0.00    -0.376 C  
HETATM   19  C   UNL     1     -12.208  11.880  70.156  1.00  0.00    -0.319 C  
HETATM   20  C   UNL     1     -11.573  13.231  70.054  1.00  0.00    -0.142 C  
HETATM   21  O   UNL     1     -11.994  14.189  70.707  1.00  0.00    -0.318 OA 
ENDROOT
BRANCH   4  22
HETATM   22  C   UNL     1      -7.614   7.900  64.458  1.00  0.00    -0.111 C  
BRANCH  22  23
HETATM   23  C   UNL     1      -8.598   8.825  63.760  1.00  0.00    -0.042 C  
HETATM   24  H1  UNL     1     -10.074  10.212  62.713  1.00  0.00     0.000 HD 
HETATM   25  N   UNL     1      -9.413   9.592  63.181  1.00  0.00    -0.523 NA 
HETATM   26  H2  UNL     1      -8.695   9.918  62.534  1.00  0.00     0.000 HD 
ENDBRANCH  22  23
ENDBRANCH   4  22
TORSDOF 2
ENDMDL
MODEL      100
REMARK 921   NORMALIZED FREE ENERGY PREDICTED BY IDOCK:   -3.36 KCAL/MOL
REMARK 922        TOTAL FREE ENERGY PREDICTED BY IDOCK:   -4.01 KCAL/MOL
REMARK 923 INTER-LIGAND FREE ENERGY PREDICTED BY IDOCK:   -3.89 KCAL/MOL
REMARK 924 INTRA-LIGAND FREE ENERGY PREDICTED BY IDOCK:   -0.12 KCAL/MOL
REMARK 927      BINDING AFFINITY PREDICTED BY RF-SCORE:    0.00 PKD
ROOT
HETATM    1  C   UNL     1     -11.496  12.828  67.204  1.00  0.00    -0.394 C  
HETATM    2  C   UNL     1     -11.732  11.556  67.795  1.00  0.00    -0.299 C  
HETATM    3  C   UNL     1     -10.484  12.276  68.130  1.00  0.00    -0.228 C  
HETATM    4  C   UNL     1     -10.330  14.237  67.478  1.00  0.00    -0.248 C  
HETATM    5  O   UNL     1      -9.312  15.208  67.849  1.00  0.00    -0.184 OA 
HETATM    6  C   UNL     1      -8.115   9.074  64.192  1.00  0.00    -0.157 C  
HETATM    7  C   UNL     1     -10.682  13.742  68.705  1.00  0.00    -0.267 C  
HETATM    8  C   UNL     1      -8.861  13.350  69.016  1.00  0.00     0.408 C  
HETATM    9  C   UNL     1     -11.561  14.248  69.808  1.00  0.00    -0.350 C  
HETATM   10  C   UNL     1     -10.257  12.480  65.824  1.00  0.00    -0.289 C  
HETATM   11  H   UNL     1      -9.241  16.108  67.550  1.00  0.00     0.000 HD 
HETATM   12  C   UNL     1      -8.047  12.965  67.490  1.00  0.00    -0.181 C  
HETATM   13  C   UNL     1     -10.912  11.565  64.765  1.00  0.00    -0.338 C  
HETATM   14  C   UNL     1     -10.125  10.384  64.229  1.00  0.00    -0.306 C  
HETATM   15  C   UNL     1      -8.744  12.102  66.254  1.00  0.00     0.017 C  
HETATM   16  C   UNL     1      -8.720  10.148  64.718  1.00  0.00    -0.202 C  
HETATM   17  C   UNL     1      -8.112  11.022  65.713  1.00  0.00    -0.038 C  
HETATM   18  C   UNL     1      -6.726  10.634  66.180  1.00  0.00    -0.132 C  
HETATM   19  C   UNL     1      -6.002   9.426  65.590  1.00  0.00    -0.059 C  
HETATM   20  C   UNL     1      -6.763   8.650  64.561  1.00  0.00    -0.066 C  
HETATM   21  O   UNL     1      -6.277   7.652  64.021  1.00  0.00    -0.048 OA 
ENDROOT
BRANCH   4  22
HETATM   22  C   UNL     1     -11.521  15.531  66.889  1.00  0.00    -0.000 C  
BRANCH  22  23
HETATM   23  C   UNL     1     -10.487  16.643  66.821  1.00  0.00    -0.261 C  
HETATM   24  H1  UNL     1      -8.935  18.310  66.718  1.00  0.00     0.000 HD 
HETATM   25  N   UNL     1      -9.628  17.564  66.764  1.00  0.00    -0.271 NA 
HETATM   26  H2  UNL     1      -8.874  16.917  66.995  1.00  0.00     0.000 HD 
ENDBRANCH  22  23
ENDBRANCH   4  22
TORSDOF 2
ENDMDL
MODEL      101
REMARK 921   NORMALIZED FREE ENERGY PREDICTED BY IDOCK:   -3.32 KCAL/MOL
REMARK 922        TOTAL FREE ENERGY PREDICTED BY IDOCK:   -3.97 KCAL/MOL
REMARK 923 INTER-LIGAND FREE ENERGY PREDICTED BY IDOCK:   -3.55 KCAL/MOL
REMARK 924 INTRA-LIGAND FREE ENERGY PREDICTED BY IDOCK:   -0.41 KCAL/MOL
REMARK 927      BINDING AFFINITY PREDICTED BY RF-SCORE:    0.00 PKD
ROOT
HETATM    1  C   UNL     1      -8.617   4.279  66.945  1.00  0.00    -0.108 C  
HETATM    2  C   UNL     1      -9.358   3.365  67.743  1.00  0.00    -0.243 C  
HETATM    3  C   UNL     1      -9.898   4.727  67.534  1.00  0.00    -0.206 C  
HETATM    4  C   UNL     1      -8.934   5.912  66.134  1.00  0.00    -0.151 C  
HETATM    5  O   UNL     1      -9.386   7.189  65.605  1.00  0.00    -0.381 OA 
HETATM    6  C   UNL     1      -7.601   5.908  72.504  1.00  0.00    -0.100 C  
HETATM    7  C   UNL     1     -10.073   5.160  66.017  1.00  0.00    -0.197 C  
HETATM    8  C   UNL     1     -10.991   6.485  67.001  1.00  0.00    -0.466 C  
HETATM    9  C   UNL     1     -10.732   4.456  64.870  1.00  0.00    -0.105 C  
HETATM   10  C   UNL     1      -7.777   5.417  68.194  1.00  0.00    -0.085 C  
HETATM   11  H   UNL     1      -8.944   7.733  64.963  1.00  0.00     0.000 HD 
HETATM   12  C   UNL     1      -9.894   7.264  68.154  1.00  0.00    -0.165 C  
HETATM   13  C   UNL     1      -6.782   4.597  69.046  1.00  0.00    -0.046 C  
HETATM   14  C   UNL     1      -6.762   4.800  70.549  1.00  0.00    -0.036 C  
HETATM   15  C   UNL     1      -8.710   6.464  69.001  1.00  0.00    -0.123 C  
HETATM   16  C   UNL     1      -7.688   5.812  71.171  1.00  0.00    -0.109 C  
HETATM   17  C   UNL     1      -8.619   6.583  70.356  1.00  0.00    -0.146 C  
HETATM   18  C   UNL     1      -9.550   7.509  71.106  1.00  0.00    -0.164 C  
HETATM   19  C   UNL     1      -9.467   7.654  72.624  1.00  0.00    -0.230 C  
HETATM   20  C   UNL     1      -8.439   6.805  73.304  1.00  0.00    -0.118 C  
HETATM   21  O   UNL     1      -8.287   6.837  74.528  1.00  0.00    -0.136 OA 
ENDROOT
BRANCH   4  22
HETATM   22  C   UNL     1      -7.762   5.609  64.730  1.00  0.00    -0.101 C  
BRANCH  22  23
HETATM   23  C   UNL     1      -7.167   7.007  64.748  1.00  0.00    -0.072 C  
HETATM   24  H1  UNL     1      -6.274   9.105  64.775  1.00  0.00     0.000 HD 
HETATM   25  N   UNL     1      -6.674   8.167  64.763  1.00  0.00    -0.066 NA 
HETATM   26  H2  UNL     1      -7.310   8.480  64.030  1.00  0.00     0.000 HD 
ENDBRANCH  22  23
ENDBRANCH   4  22
TORSDOF 2
ENDMDL
MODEL      102
REMARK 921   NORMALIZED FREE ENERGY PREDICTED BY IDOCK:   -3.23 KCAL/MOL
REMARK 922        TOTAL FREE ENERGY PREDICTED BY IDOCK:   -3.87 KCAL/MOL
REMARK 923 INTER-LIGAND FREE ENERGY PREDICTED BY IDOCK:   -3.88 KCAL/MOL
REMARK 924 INTRA-LIGAND FREE ENERGY PREDICTED BY IDOCK:    0.01 KCAL/MOL
REMARK 927      BINDING AFFINITY PREDICTED BY RF-SCORE:    0.00 PKD
ROOT
HETATM    1  C   UNL     1      -7.460   7.154  69.149  1.00  0.00    -0.094 C  
HETATM    2  C   UNL     1      -8.300   6.359  68.321  1.00  0.00    -0.116 C  
HETATM    3  C   UNL     1      -8.925   7.350  69.225  1.00  0.00    -0.136 C  
HETATM    4  C   UNL     1      -7.653   8.676  70.184  1.00  0.00    -0.069 C  
HETATM    5  O   UNL     1      -8.028   9.856  70.948  1.00  0.00    -0.379 OA 
HETATM    6  C   UNL     1      -9.675   3.027  72.706  1.00  0.00    -0.182 C  
HETATM    7  C   UNL     1      -8.409   8.841  69.054  1.00  0.00    -0.129 C  
HETATM    8  C   UNL     1      -9.935   8.988  70.155  1.00  0.00    -0.216 C  
HETATM    9  C   UNL     1      -8.258   9.688  67.827  1.00  0.00    -0.114 C  
HETATM   10  C   UNL     1      -7.594   6.357  70.854  1.00  0.00    -0.093 C  
HETATM   11  H   UNL     1      -7.445  10.463  71.388  1.00  0.00     0.000 HD 
HETATM   12  C   UNL     1      -9.733   8.011  71.619  1.00  0.00    -0.222 C  
HETATM   13  C   UNL     1      -7.010   4.928  70.799  1.00  0.00    -0.041 C  
HETATM   14  C   UNL     1      -7.777   3.796  71.456  1.00  0.00    -0.060 C  
HETATM   15  C   UNL     1      -8.991   6.525  71.652  1.00  0.00    -0.143 C  
HETATM   16  C   UNL     1      -9.070   4.095  72.168  1.00  0.00    -0.156 C  
HETATM   17  C   UNL     1      -9.608   5.449  72.218  1.00  0.00    -0.179 C  
HETATM   18  C   UNL     1     -10.952   5.606  72.895  1.00  0.00    -0.323 C  
HETATM   19  C   UNL     1     -11.661   4.413  73.531  1.00  0.00    -0.193 C  
HETATM   20  C   UNL     1     -10.958   3.097  73.409  1.00  0.00    -0.200 C  
HETATM   21  O   UNL     1     -11.442   2.065  73.882  1.00  0.00    -0.186 OA 
ENDROOT
BRANCH   4  22
HETATM   22  C   UNL     1      -5.906   9.245  69.934  1.00  0.00    -0.035 C  
BRANCH  22  23
HETATM   23  C   UNL     1      -6.217  10.720  70.131  1.00  0.00    -0.136 C  
HETATM   24  H1  UNL     1      -6.685  12.932  70.427  1.00  0.00     0.000 HD 
HETATM   25  N   UNL     1      -6.477  11.942  70.295  1.00  0.00    -0.480 NA 
HETATM   26  H2  UNL     1      -7.462  11.742  70.464  1.00  0.00     0.000 HD 
ENDBRANCH  22  23
ENDBRANCH   4  22
TORSDOF 2
ENDMDL
MODEL      103
REMARK 921   NORMALIZED FREE ENERGY PREDICTED BY IDOCK:   -3.18 KCAL/MOL
REMARK 922        TOTAL FREE ENERGY PREDICTED BY IDOCK:   -3.82 KCAL/MOL
REMARK 923 INTER-LIGAND FREE ENERGY PREDICTED BY IDOCK:   -3.41 KCAL/MOL
REMARK 924 INTRA-LIGAND FREE ENERGY PREDICTED BY IDOCK:   -0.41 KCAL/MOL
REMARK 927      BINDING AFFINITY PREDICTED BY RF-SCORE:    0.00 PKD
ROOT
HETATM    1  C   UNL     1      -8.308   7.585  67.291  1.00  0.00    -0.118 C  
HETATM    2  C   UNL     1      -8.247   8.628  68.255  1.00  0.00    -0.122 C  
HETATM    3  C   UNL     1      -7.337   7.471  68.401  1.00  0.00    -0.099 C  
HETATM    4  C   UNL     1      -7.262   6.133  66.820  1.00  0.00    -0.074 C  
HETATM    5  O   UNL     1      -6.312   5.047  66.633  1.00  0.00    -0.037 OA 
HETATM    6  C   UNL     1     -11.151   5.504  72.000  1.00  0.00    -0.249 C  
HETATM    7  C   UNL     1      -6.422   7.167  67.140  1.00  0.00    -0.057 C  
HETATM    8  C   UNL     1      -5.706   6.093  68.519  1.00  0.00    -0.012 C  
HETATM    9  C   UNL     1      -5.542   8.070  66.330  1.00  0.00    -0.032 C  
HETATM   10  C   UNL     1      -9.276   6.210  68.148  1.00  0.00    -0.117 C  
HETATM   11  H   UNL     1      -6.278   4.434  65.908  1.00  0.00     0.000 HD 
HETATM   12  C   UNL     1      -6.948   5.000  69.154  1.00  0.00    -0.055 C  
HETATM   13  C   UNL     1     -10.715   6.697  68.431  1.00  0.00    -0.314 C  
HETATM   14  C   UNL     1     -11.325   6.432  69.794  1.00  0.00    -0.494 C  
HETATM   15  C   UNL     1      -8.543   5.418  69.353  1.00  0.00    -0.099 C  
HETATM   16  C   UNL     1     -10.528   5.678  70.827  1.00  0.00    -0.335 C  
HETATM   17  C   UNL     1      -9.173   5.220  70.546  1.00  0.00    -0.187 C  
HETATM   18  C   UNL     1      -8.449   4.545  71.690  1.00  0.00    -0.113 C  
HETATM   19  C   UNL     1      -9.136   4.317  73.035  1.00  0.00    -0.122 C  
HETATM   20  C   UNL     1     -10.537   4.830  73.146  1.00  0.00    -0.217 C  
HETATM   21  O   UNL     1     -11.185   4.705  74.189  1.00  0.00    -0.257 OA 
ENDROOT
BRANCH   4  22
HETATM   22  C   UNL     1      -7.752   6.173  65.032  1.00  0.00    -0.099 C  
BRANCH  22  23
HETATM   23  C   UNL     1      -8.055   4.686  64.944  1.00  0.00    -0.102 C  
HETATM   24  H1  UNL     1      -8.509   2.455  64.812  1.00  0.00     0.000 HD 
HETATM   25  N   UNL     1      -8.306   3.453  64.872  1.00  0.00    -0.093 NA 
HETATM   26  H2  UNL     1      -8.154   3.332  65.873  1.00  0.00     0.000 HD 
ENDBRANCH  22  23
ENDBRANCH   4  22
TORSDOF 2
ENDMDL
MODEL      104
REMARK 921   NORMALIZED FREE ENERGY PREDICTED BY IDOCK:   -3.18 KCAL/MOL
REMARK 922        TOTAL FREE ENERGY PREDICTED BY IDOCK:   -3.81 KCAL/MOL
REMARK 923 INTER-LIGAND FREE ENERGY PREDICTED BY IDOCK:   -3.67 KCAL/MOL
REMARK 924 INTRA-LIGAND FREE ENERGY PREDICTED BY IDOCK:   -0.14 KCAL/MOL
REMARK 927      BINDING AFFINITY PREDICTED BY RF-SCORE:    0.00 PKD
ROOT
HETATM    1  C   UNL     1     -10.173   5.033  70.188  1.00  0.00    -0.329 C  
HETATM    2  C   UNL     1     -10.007   5.034  68.775  1.00  0.00    -0.225 C  
HETATM    3  C   UNL     1      -8.805   5.141  69.633  1.00  0.00    -0.125 C  
HETATM    4  C   UNL     1      -9.076   4.840  71.665  1.00  0.00    -0.136 C  
HETATM    5  O   UNL     1      -8.040   4.690  72.675  1.00  0.00    -0.097 OA 
HETATM    6  C   UNL     1      -9.225  10.656  68.747  1.00  0.00    -0.182 C  
HETATM    7  C   UNL     1      -8.629   3.979  70.698  1.00  0.00    -0.106 C  
HETATM    8  C   UNL     1      -6.978   4.895  70.713  1.00  0.00    -0.041 C  
HETATM    9  C   UNL     1      -8.684   2.490  70.538  1.00  0.00    -0.119 C  
HETATM   10  C   UNL     1      -9.992   6.846  70.681  1.00  0.00    -0.198 C  
HETATM   11  H   UNL     1      -8.164   4.552  73.607  1.00  0.00     0.000 HD 
HETATM   12  C   UNL     1      -7.226   6.602  71.113  1.00  0.00    -0.078 C  
HETATM   13  C   UNL     1     -11.144   7.664  70.056  1.00  0.00    -0.201 C  
HETATM   14  C   UNL     1     -10.825   8.987  69.386  1.00  0.00    -0.152 C  
HETATM   15  C   UNL     1      -8.518   7.505  70.586  1.00  0.00    -0.132 C  
HETATM   16  C   UNL     1      -9.403   9.484  69.371  1.00  0.00    -0.185 C  
HETATM   17  C   UNL     1      -8.326   8.705  69.969  1.00  0.00    -0.124 C  
HETATM   18  C   UNL     1      -6.932   9.273  69.819  1.00  0.00    -0.058 C  
HETATM   19  C   UNL     1      -6.696  10.614  69.128  1.00  0.00    -0.073 C  
HETATM   20  C   UNL     1      -7.916  11.294  68.590  1.00  0.00    -0.145 C  
HETATM   21  O   UNL     1      -7.842  12.379  68.008  1.00  0.00    -0.120 OA 
ENDROOT
BRANCH   4  22
HETATM   22  C   UNL     1     -10.388   4.068  72.723  1.00  0.00    -0.239 C  
BRANCH  22  23
HETATM   23  C   UNL     1     -10.464   5.224  73.707  1.00  0.00    -0.266 C  
HETATM   24  H1  UNL     1     -10.579   6.958  75.183  1.00  0.00     0.000 HD 
HETATM   25  N   UNL     1     -10.528   6.182  74.524  1.00  0.00    -0.344 NA 
HETATM   26  H2  UNL     1     -11.002   5.601  75.215  1.00  0.00     0.000 HD 
ENDBRANCH  22  23
ENDBRANCH   4  22
TORSDOF 2
ENDMDL
MODEL      105
REMARK 921   NORMALIZED FREE ENERGY PREDICTED BY IDOCK:   -3.07 KCAL/MOL
REMARK 922        TOTAL FREE ENERGY PREDICTED BY IDOCK:   -3.69 KCAL/MOL
REMARK 923 INTER-LIGAND FREE ENERGY PREDICTED BY IDOCK:   -3.30 KCAL/MOL
REMARK 924 INTRA-LIGAND FREE ENERGY PREDICTED BY IDOCK:   -0.39 KCAL/MOL
REMARK 927      BINDING AFFINITY PREDICTED BY RF-SCORE:    0.00 PKD
ROOT
HETATM    1  C   UNL     1      -6.432  17.505  67.709  1.00  0.00    -0.163 C  
HETATM    2  C   UNL     1      -5.454  16.774  66.979  1.00  0.00    -0.166 C  
HETATM    3  C   UNL     1      -6.872  16.677  66.564  1.00  0.00    -0.137 C  
HETATM    4  C   UNL     1      -8.203  17.983  67.468  1.00  0.00    -0.235 C  
HETATM    5  O   UNL     1      -9.587  18.225  67.091  1.00  0.00    -0.270 OA 
HETATM    6  C   UNL     1      -6.957  11.949  69.566  1.00  0.00     0.058 C  
HETATM    7  C   UNL     1      -7.580  18.062  66.251  1.00  0.00    -0.306 C  
HETATM    8  C   UNL     1      -8.780  16.755  65.606  1.00  0.00     0.423 C  
HETATM    9  C   UNL     1      -7.148  19.207  65.386  1.00  0.00    -0.102 C  
HETATM   10  C   UNL     1      -7.256  16.214  68.812  1.00  0.00    -0.170 C  
HETATM   11  H   UNL     1     -10.198  18.824  67.506  1.00  0.00     0.000 HD 
HETATM   12  C   UNL     1      -9.249  15.653  66.912  1.00  0.00    -0.257 C  
HETATM   13  C   UNL     1      -6.219  15.656  69.812  1.00  0.00    -0.166 C  
HETATM   14  C   UNL     1      -6.148  14.158  70.037  1.00  0.00    -0.149 C  
HETATM   15  C   UNL     1      -8.216  15.123  68.100  1.00  0.00    -0.145 C  
HETATM   16  C   UNL     1      -7.107  13.255  69.306  1.00  0.00     0.074 C  
HETATM   17  C   UNL     1      -8.084  13.793  68.369  1.00  0.00    -0.148 C  
HETATM   18  C   UNL     1      -8.936  12.778  67.639  1.00  0.00    -0.191 C  
HETATM   19  C   UNL     1      -8.801  11.284  67.923  1.00  0.00    -0.142 C  
HETATM   20  C   UNL     1      -7.763  10.903  68.932  1.00  0.00    -0.135 C  
HETATM   21  O   UNL     1      -7.565   9.724  69.235  1.00  0.00    -0.083 OA 
ENDROOT
BRANCH   4  22
HETATM   22  C   UNL     1      -8.059  19.567  68.421  1.00  0.00    -0.377 C  
BRANCH  22  23
HETATM   23  C   UNL     1      -9.473  19.519  68.974  1.00  0.00    -0.320 C  
HETATM   24  H1  UNL     1     -11.595  19.447  69.806  1.00  0.00     0.000 HD 
HETATM   25  N   UNL     1     -10.646  19.479  69.435  1.00  0.00    -0.193 NA 
HETATM   26  H2  UNL     1     -10.316  19.116  70.328  1.00  0.00     0.000 HD 
ENDBRANCH  22  23
ENDBRANCH   4  22
TORSDOF 2
ENDMDL
MODEL      106
REMARK 921   NORMALIZED FREE ENERGY PREDICTED BY IDOCK:   -3.01 KCAL/MOL
REMARK 922        TOTAL FREE ENERGY PREDICTED BY IDOCK:   -3.63 KCAL/MOL
REMARK 923 INTER-LIGAND FREE ENERGY PREDICTED BY IDOCK:   -3.33 KCAL/MOL
REMARK 924 INTRA-LIGAND FREE ENERGY PREDICTED BY IDOCK:   -0.29 KCAL/MOL
REMARK 927      BINDING AFFINITY PREDICTED BY RF-SCORE:    0.00 PKD
ROOT
HETATM    1  C   UNL     1     -10.264   9.925  67.476  1.00  0.00    -0.265 C  
HETATM    2  C   UNL     1     -11.003   8.711  67.466  1.00  0.00     0.090 C  
HETATM    3  C   UNL     1      -9.909   8.869  68.450  1.00  0.00    -0.191 C  
HETATM    4  C   UNL     1      -9.066  10.755  68.616  1.00  0.00    -0.173 C  
HETATM    5  O   UNL     1      -8.134  11.213  69.635  1.00  0.00    -0.350 OA 
HETATM    6  C   UNL     1      -6.795   6.026  64.763  1.00  0.00    -0.047 C  
HETATM    7  C   UNL     1     -10.021  10.146  69.386  1.00  0.00    -0.247 C  
HETATM    8  C   UNL     1      -8.657   9.100  70.166  1.00  0.00    -0.195 C  
HETATM    9  C   UNL     1     -11.165  10.659  70.206  1.00  0.00    -0.365 C  
HETATM   10  C   UNL     1      -8.649   9.497  66.598  1.00  0.00    -0.141 C  
HETATM   11  H   UNL     1      -7.747  12.078  69.711  1.00  0.00     0.000 HD 
HETATM   12  C   UNL     1      -7.356   8.815  68.998  1.00  0.00    -0.073 C  
HETATM   13  C   UNL     1      -8.949   9.121  65.129  1.00  0.00    -0.238 C  
HETATM   14  C   UNL     1      -8.281   7.896  64.535  1.00  0.00    -0.073 C  
HETATM   15  C   UNL     1      -7.602   8.541  67.378  1.00  0.00    -0.097 C  
HETATM   16  C   UNL     1      -7.324   7.094  65.376  1.00  0.00    -0.080 C  
HETATM   17  C   UNL     1      -7.045   7.462  66.759  1.00  0.00    -0.079 C  
HETATM   18  C   UNL     1      -6.128   6.532  67.523  1.00  0.00    -0.024 C  
HETATM   19  C   UNL     1      -5.497   5.316  66.849  1.00  0.00    -0.013 C  
HETATM   20  C   UNL     1      -5.871   5.097  65.417  1.00  0.00    -0.018 C  
HETATM   21  O   UNL     1      -5.425   4.142  64.776  1.00  0.00    -0.012 OA 
ENDROOT
BRANCH   4  22
HETATM   22  C   UNL     1      -9.565  12.473  68.129  1.00  0.00    -0.215 C  
BRANCH  22  23
HETATM   23  C   UNL     1      -8.182  12.883  67.649  1.00  0.00    -0.177 C  
HETATM   24  H1  UNL     1      -6.108  13.498  66.930  1.00  0.00     0.000 HD 
HETATM   25  N   UNL     1      -7.035  13.223  67.253  1.00  0.00    -0.350 NA 
HETATM   26  H2  UNL     1      -6.677  13.240  68.207  1.00  0.00     0.000 HD 
ENDBRANCH  22  23
ENDBRANCH   4  22
TORSDOF 2
ENDMDL
MODEL      107
REMARK 921   NORMALIZED FREE ENERGY PREDICTED BY IDOCK:   -3.00 KCAL/MOL
REMARK 922        TOTAL FREE ENERGY PREDICTED BY IDOCK:   -3.61 KCAL/MOL
REMARK 923 INTER-LIGAND FREE ENERGY PREDICTED BY IDOCK:   -4.18 KCAL/MOL
REMARK 924 INTRA-LIGAND FREE ENERGY PREDICTED BY IDOCK:    0.57 KCAL/MOL
REMARK 927      BINDING AFFINITY PREDICTED BY RF-SCORE:    0.00 PKD
ROOT
HETATM    1  C   UNL     1      -9.844   8.166  67.039  1.00  0.00    -0.299 C  
HETATM    2  C   UNL     1      -9.070   8.381  65.866  1.00  0.00    -0.225 C  
HETATM    3  C   UNL     1      -8.447   8.631  67.185  1.00  0.00    -0.114 C  
HETATM    4  C   UNL     1      -9.515   8.024  68.854  1.00  0.00    -0.151 C  
HETATM    5  O   UNL     1      -9.038   7.969  70.228  1.00  0.00    -0.146 OA 
HETATM    6  C   UNL     1      -9.770  13.999  66.286  1.00  0.00    -0.311 C  
HETATM    7  C   UNL     1      -8.486   7.406  68.194  1.00  0.00    -0.124 C  
HETATM    8  C   UNL     1      -7.298   8.641  68.987  1.00  0.00    -0.077 C  
HETATM    9  C   UNL     1      -8.095   5.972  68.004  1.00  0.00    -0.110 C  
HETATM   10  C   UNL     1     -10.357   9.898  67.586  1.00  0.00    -0.275 C  
HETATM   11  H   UNL     1      -9.528   7.691  70.994  1.00  0.00     0.000 HD 
HETATM   12  C   UNL     1      -8.112  10.193  69.251  1.00  0.00    -0.149 C  
HETATM   13  C   UNL     1     -11.269  10.527  66.510  1.00  0.00     0.203 C  
HETATM   14  C   UNL     1     -11.021  11.961  66.084  1.00  0.00    -0.352 C  
HETATM   15  C   UNL     1      -9.209  10.861  68.197  1.00  0.00    -0.158 C  
HETATM   16  C   UNL     1      -9.914  12.746  66.738  1.00  0.00    -0.237 C  
HETATM   17  C   UNL     1      -9.063  12.143  67.757  1.00  0.00    -0.189 C  
HETATM   18  C   UNL     1      -7.938  13.008  68.280  1.00  0.00    -0.151 C  
HETATM   19  C   UNL     1      -7.756  14.445  67.798  1.00  0.00    -0.172 C  
HETATM   20  C   UNL     1      -8.732  14.914  66.764  1.00  0.00    -0.246 C  
HETATM   21  O   UNL     1      -8.675  16.055  66.299  1.00  0.00    -0.298 OA 
ENDROOT
BRANCH   4  22
HETATM   22  C   UNL     1     -10.926   6.864  69.170  1.00  0.00    -0.240 C  
BRANCH  22  23
HETATM   23  C   UNL     1     -10.120   5.904  70.030  1.00  0.00    -0.198 C  
HETATM   24  H1  UNL     1      -8.912   4.464  71.320  1.00  0.00     0.000 HD 
HETATM   25  N   UNL     1      -9.453   5.107  70.743  1.00  0.00    -0.159 NA 
HETATM   26  H2  UNL     1      -9.686   4.321  70.137  1.00  0.00     0.000 HD 
ENDBRANCH  22  23
ENDBRANCH   4  22
TORSDOF 2
ENDMDL
MODEL      108
REMARK 921   NORMALIZED FREE ENERGY PREDICTED BY IDOCK:   -2.99 KCAL/MOL
REMARK 922        TOTAL FREE ENERGY PREDICTED BY IDOCK:   -3.61 KCAL/MOL
REMARK 923 INTER-LIGAND FREE ENERGY PREDICTED BY IDOCK:   -3.54 KCAL/MOL
REMARK 924 INTRA-LIGAND FREE ENERGY PREDICTED BY IDOCK:   -0.06 KCAL/MOL
REMARK 927      BINDING AFFINITY PREDICTED BY RF-SCORE:    0.00 PKD
ROOT
HETATM    1  C   UNL     1      -9.460  11.781  67.374  1.00  0.00    -0.174 C  
HETATM    2  C   UNL     1      -9.338  12.434  66.117  1.00  0.00    -0.155 C  
HETATM    3  C   UNL     1      -8.111  12.151  66.894  1.00  0.00    -0.112 C  
HETATM    4  C   UNL     1      -8.319  10.945  68.566  1.00  0.00    -0.142 C  
HETATM    5  O   UNL     1      -7.252  10.360  69.364  1.00  0.00    -0.082 OA 
HETATM    6  C   UNL     1      -8.552  17.448  68.659  1.00  0.00    -0.259 C  
HETATM    7  C   UNL     1      -7.903  10.631  67.299  1.00  0.00    -0.112 C  
HETATM    8  C   UNL     1      -6.251  11.459  67.688  1.00  0.00    -0.062 C  
HETATM    9  C   UNL     1      -7.964   9.382  66.473  1.00  0.00    -0.108 C  
HETATM   10  C   UNL     1      -9.264  13.165  68.642  1.00  0.00     0.026 C  
HETATM   11  H   UNL     1      -7.348   9.807  70.131  1.00  0.00     0.000 HD 
HETATM   12  C   UNL     1      -6.486  12.788  68.836  1.00  0.00    -0.091 C  
HETATM   13  C   UNL     1     -10.433  14.164  68.496  1.00  0.00    -0.252 C  
HETATM   14  C   UNL     1     -10.134  15.651  68.502  1.00  0.00    -0.211 C  
HETATM   15  C   UNL     1      -7.792  13.814  68.820  1.00  0.00    -0.059 C  
HETATM   16  C   UNL     1      -8.713  16.118  68.678  1.00  0.00    -0.214 C  
HETATM   17  C   UNL     1      -7.618  15.166  68.819  1.00  0.00    -0.136 C  
HETATM   18  C   UNL     1      -6.229  15.758  68.910  1.00  0.00    -0.114 C  
HETATM   19  C   UNL     1      -6.013  17.270  68.907  1.00  0.00    -0.176 C  
HETATM   20  C   UNL     1      -7.248  18.104  68.777  1.00  0.00    -0.279 C  
HETATM   21  O   UNL     1      -7.191  19.337  68.758  1.00  0.00    -0.316 OA 
ENDROOT
BRANCH   4  22
HETATM   22  C   UNL     1      -9.599   9.755  69.186  1.00  0.00    -0.192 C  
BRANCH  22  23
HETATM   23  C   UNL     1      -8.709   9.148  70.257  1.00  0.00    -0.200 C  
HETATM   24  H1  UNL     1      -7.373   8.237  71.865  1.00  0.00     0.000 HD 
HETATM   25  N   UNL     1      -7.969   8.645  71.146  1.00  0.00    -0.125 NA 
HETATM   26  H2  UNL     1      -7.198   9.264  70.898  1.00  0.00     0.000 HD 
ENDBRANCH  22  23
ENDBRANCH   4  22
TORSDOF 2
ENDMDL
MODEL      109
REMARK 921   NORMALIZED FREE ENERGY PREDICTED BY IDOCK:   -2.92 KCAL/MOL
REMARK 922        TOTAL FREE ENERGY PREDICTED BY IDOCK:   -3.52 KCAL/MOL
REMARK 923 INTER-LIGAND FREE ENERGY PREDICTED BY IDOCK:   -3.78 KCAL/MOL
REMARK 924 INTRA-LIGAND FREE ENERGY PREDICTED BY IDOCK:    0.26 KCAL/MOL
REMARK 927      BINDING AFFINITY PREDICTED BY RF-SCORE:    0.00 PKD
ROOT
HETATM    1  C   UNL     1      -7.943  15.508  68.211  1.00  0.00    -0.132 C  
HETATM    2  C   UNL     1      -6.762  15.119  67.522  1.00  0.00    -0.189 C  
HETATM    3  C   UNL     1      -7.965  15.463  66.733  1.00  0.00    -0.165 C  
HETATM    4  C   UNL     1      -9.555  16.300  67.766  1.00  0.00    -0.223 C  
HETATM    5  O   UNL     1     -10.749  16.906  67.198  1.00  0.00    -0.282 OA 
HETATM    6  C   UNL     1      -8.878   9.939  66.565  1.00  0.00    -0.154 C  
HETATM    7  C   UNL     1      -8.575  16.900  67.021  1.00  0.00    -0.229 C  
HETATM    8  C   UNL     1      -9.464  16.308  65.464  1.00  0.00     0.076 C  
HETATM    9  C   UNL     1      -7.920  18.247  67.070  1.00  0.00    -0.237 C  
HETATM   10  C   UNL     1      -9.042  13.974  68.160  1.00  0.00    -0.192 C  
HETATM   11  H   UNL     1     -11.478  17.290  67.672  1.00  0.00     0.000 HD 
HETATM   12  C   UNL     1     -10.297  14.776  65.777  1.00  0.00    -0.358 C  
HETATM   13  C   UNL     1      -8.367  12.834  68.955  1.00  0.00     0.276 C  
HETATM   14  C   UNL     1      -8.330  11.442  68.353  1.00  0.00    -0.153 C  
HETATM   15  C   UNL     1      -9.688  13.563  66.735  1.00  0.00    -0.271 C  
HETATM   16  C   UNL     1      -8.974  11.198  67.013  1.00  0.00    -0.156 C  
HETATM   17  C   UNL     1      -9.612  12.282  66.275  1.00  0.00    -0.248 C  
HETATM   18  C   UNL     1     -10.152  11.927  64.908  1.00  0.00    -0.296 C  
HETATM   19  C   UNL     1     -10.073  10.498  64.373  1.00  0.00    -0.395 C  
HETATM   20  C   UNL     1      -9.406   9.503  65.270  1.00  0.00    -0.253 C  
HETATM   21  O   UNL     1      -9.282   8.322  64.937  1.00  0.00     0.253 OA 
ENDROOT
BRANCH   4  22
HETATM   22  C   UNL     1      -9.772  17.127  69.411  1.00  0.00     0.061 C  
BRANCH  22  23
HETATM   23  C   UNL     1     -10.312  18.426  68.838  1.00  0.00    -0.136 C  
HETATM   24  H1  UNL     1     -11.122  20.376  67.977  1.00  0.00     0.000 HD 
HETATM   25  N   UNL     1     -10.759  19.504  68.362  1.00  0.00    -0.376 NA 
HETATM   26  H2  UNL     1      -9.830  19.789  68.054  1.00  0.00     0.000 HD 
ENDBRANCH  22  23
ENDBRANCH   4  22
TORSDOF 2
ENDMDL
MODEL      110
REMARK 921   NORMALIZED FREE ENERGY PREDICTED BY IDOCK:   -2.82 KCAL/MOL
REMARK 922        TOTAL FREE ENERGY PREDICTED BY IDOCK:   -3.41 KCAL/MOL
REMARK 923 INTER-LIGAND FREE ENERGY PREDICTED BY IDOCK:   -3.27 KCAL/MOL
REMARK 924 INTRA-LIGAND FREE ENERGY PREDICTED BY IDOCK:   -0.14 KCAL/MOL
REMARK 927      BINDING AFFINITY PREDICTED BY RF-SCORE:    0.00 PKD
ROOT
HETATM    1  C   UNL     1      -9.330   7.437  71.503  1.00  0.00    -0.154 C  
HETATM    2  C   UNL     1     -10.550   8.099  71.194  1.00  0.00    -0.242 C  
HETATM    3  C   UNL     1     -10.206   6.862  70.458  1.00  0.00    -0.209 C  
HETATM    4  C   UNL     1      -8.576   5.785  71.149  1.00  0.00    -0.128 C  
HETATM    5  O   UNL     1      -8.166   4.452  70.735  1.00  0.00    -0.072 OA 
HETATM    6  C   UNL     1      -8.297  10.304  66.473  1.00  0.00    -0.126 C  
HETATM    7  C   UNL     1      -9.914   5.594  71.367  1.00  0.00    -0.237 C  
HETATM    8  C   UNL     1     -10.053   4.904  69.615  1.00  0.00    -0.300 C  
HETATM    9  C   UNL     1     -10.701   4.999  72.495  1.00  0.00    -0.271 C  
HETATM   10  C   UNL     1      -8.165   7.921  70.099  1.00  0.00    -0.125 C  
HETATM   11  H   UNL     1      -7.418   3.958  71.052  1.00  0.00     0.000 HD 
HETATM   12  C   UNL     1      -8.866   5.681  68.553  1.00  0.00    -0.108 C  
HETATM   13  C   UNL     1      -7.916   9.445  70.143  1.00  0.00    -0.158 C  
HETATM   14  C   UNL     1      -7.978  10.235  68.850  1.00  0.00    -0.113 C  
HETATM   15  C   UNL     1      -8.450   7.287  68.638  1.00  0.00    -0.129 C  
HETATM   16  C   UNL     1      -8.252   9.516  67.555  1.00  0.00    -0.121 C  
HETATM   17  C   UNL     1      -8.481   8.076  67.527  1.00  0.00    -0.127 C  
HETATM   18  C   UNL     1      -8.824   7.484  66.178  1.00  0.00    -0.185 C  
HETATM   19  C   UNL     1      -8.868   8.351  64.922  1.00  0.00     0.022 C  
HETATM   20  C   UNL     1      -8.586   9.807  65.126  1.00  0.00    -0.158 C  
HETATM   21  O   UNL     1      -8.600  10.601  64.182  1.00  0.00    -0.169 OA 
ENDROOT
BRANCH   4  22
HETATM   22  C   UNL     1      -7.604   5.725  72.727  1.00  0.00    -0.097 C  
BRANCH  22  23
HETATM   23  C   UNL     1      -6.718   4.569  72.294  1.00  0.00    -0.049 C  
HETATM   24  H1  UNL     1      -5.388   2.834  71.646  1.00  0.00     0.000 HD 
HETATM   25  N   UNL     1      -5.982   3.610  71.937  1.00  0.00    -0.012 NA 
HETATM   26  H2  UNL     1      -5.628   3.488  72.885  1.00  0.00     0.000 HD 
ENDBRANCH  22  23
ENDBRANCH   4  22
TORSDOF 2
ENDMDL
MODEL      111
REMARK 921   NORMALIZED FREE ENERGY PREDICTED BY IDOCK:   -2.79 KCAL/MOL
REMARK 922        TOTAL FREE ENERGY PREDICTED BY IDOCK:   -3.38 KCAL/MOL
REMARK 923 INTER-LIGAND FREE ENERGY PREDICTED BY IDOCK:   -2.98 KCAL/MOL
REMARK 924 INTRA-LIGAND FREE ENERGY PREDICTED BY IDOCK:   -0.40 KCAL/MOL
REMARK 927      BINDING AFFINITY PREDICTED BY RF-SCORE:    0.00 PKD
ROOT
HETATM    1  C   UNL     1      -8.509   4.042  65.577  1.00  0.00    -0.109 C  
HETATM    2  C   UNL     1      -8.416   4.988  64.520  1.00  0.00    -0.142 C  
HETATM    3  C   UNL     1      -7.389   5.009  65.585  1.00  0.00    -0.077 C  
HETATM    4  C   UNL     1      -7.405   3.433  66.931  1.00  0.00    -0.067 C  
HETATM    5  O   UNL     1      -6.391   3.119  67.926  1.00  0.00    -0.031 OA 
HETATM    6  C   UNL     1     -10.474   9.098  67.851  1.00  0.00    -0.293 C  
HETATM    7  C   UNL     1      -6.630   3.635  65.819  1.00  0.00    -0.040 C  
HETATM    8  C   UNL     1      -5.635   4.903  66.802  1.00  0.00    -0.014 C  
HETATM    9  C   UNL     1      -5.959   2.712  64.848  1.00  0.00    -0.018 C  
HETATM   10  C   UNL     1      -9.217   5.025  67.024  1.00  0.00    -0.122 C  
HETATM   11  H   UNL     1      -6.398   2.396  68.543  1.00  0.00     0.000 HD 
HETATM   12  C   UNL     1      -6.670   5.703  67.998  1.00  0.00    -0.055 C  
HETATM   13  C   UNL     1     -10.644   5.502  66.671  1.00  0.00    -0.365 C  
HETATM   14  C   UNL     1     -11.034   6.936  66.974  1.00  0.00    -0.404 C  
HETATM   15  C   UNL     1      -8.255   6.119  67.729  1.00  0.00    -0.117 C  
HETATM   16  C   UNL     1     -10.036   7.850  67.635  1.00  0.00    -0.262 C  
HETATM   17  C   UNL     1      -8.695   7.387  67.969  1.00  0.00    -0.124 C  
HETATM   18  C   UNL     1      -7.761   8.421  68.557  1.00  0.00    -0.104 C  
HETATM   19  C   UNL     1      -8.233   9.847  68.831  1.00  0.00    -0.118 C  
HETATM   20  C   UNL     1      -9.649  10.149  68.449  1.00  0.00    -0.143 C  
HETATM   21  O   UNL     1     -10.134  11.271  68.620  1.00  0.00    -0.197 OA 
ENDROOT
BRANCH   4  22
HETATM   22  C   UNL     1      -8.135   1.729  66.962  1.00  0.00    -0.072 C  
BRANCH  22  23
HETATM   23  C   UNL     1      -8.355   1.705  68.465  1.00  0.00    -0.056 C  
HETATM   24  H1  UNL     1      -8.684   1.668  70.721  1.00  0.00     0.000 HD 
HETATM   25  N   UNL     1      -8.536   1.684  69.712  1.00  0.00    -0.047 NA 
HETATM   26  H2  UNL     1      -7.994   0.825  69.807  1.00  0.00     0.000 HD 
ENDBRANCH  22  23
ENDBRANCH   4  22
TORSDOF 2
ENDMDL
MODEL      112
REMARK 921   NORMALIZED FREE ENERGY PREDICTED BY IDOCK:   -2.73 KCAL/MOL
REMARK 922        TOTAL FREE ENERGY PREDICTED BY IDOCK:   -3.31 KCAL/MOL
REMARK 923 INTER-LIGAND FREE ENERGY PREDICTED BY IDOCK:   -3.73 KCAL/MOL
REMARK 924 INTRA-LIGAND FREE ENERGY PREDICTED BY IDOCK:    0.42 KCAL/MOL
REMARK 927      BINDING AFFINITY PREDICTED BY RF-SCORE:    0.00 PKD
ROOT
HETATM    1  C   UNL     1      -9.165  14.953  68.829  1.00  0.00    -0.193 C  
HETATM    2  C   UNL     1      -8.258  14.138  68.096  1.00  0.00    -0.149 C  
HETATM    3  C   UNL     1      -8.780  15.369  67.462  1.00  0.00    -0.186 C  
HETATM    4  C   UNL     1      -9.856  16.661  68.672  1.00  0.00    -0.252 C  
HETATM    5  O   UNL     1     -10.290  18.012  68.347  1.00  0.00    -0.373 OA 
HETATM    6  C   UNL     1     -12.504  11.981  65.006  1.00  0.00     0.087 C  
HETATM    7  C   UNL     1      -8.543  16.705  68.284  1.00  0.00    -0.212 C  
HETATM    8  C   UNL     1      -9.117  17.287  66.582  1.00  0.00    -0.286 C  
HETATM    9  C   UNL     1      -7.300  17.260  68.910  1.00  0.00    -0.243 C  
HETATM   10  C   UNL     1     -10.857  14.539  68.103  1.00  0.00    -0.246 C  
HETATM   11  H   UNL     1     -10.783  18.604  68.902  1.00  0.00     0.000 HD 
HETATM   12  C   UNL     1     -10.706  16.603  66.202  1.00  0.00    -0.132 C  
HETATM   13  C   UNL     1     -11.191  13.059  68.392  1.00  0.00    -0.304 C  
HETATM   14  C   UNL     1     -11.759  12.203  67.276  1.00  0.00    -0.369 C  
HETATM   15  C   UNL     1     -11.179  15.062  66.607  1.00  0.00    -0.311 C  
HETATM   16  C   UNL     1     -12.011  12.821  65.926  1.00  0.00    -0.506 C  
HETATM   17  C   UNL     1     -11.696  14.221  65.667  1.00  0.00    -0.358 C  
HETATM   18  C   UNL     1     -11.920  14.702  64.250  1.00  0.00    -0.406 C  
HETATM   19  C   UNL     1     -12.496  13.774  63.183  1.00  0.00     0.391 C  
HETATM   20  C   UNL     1     -12.784  12.373  63.624  1.00  0.00    -0.354 C  
HETATM   21  O   UNL     1     -13.246  11.537  62.843  1.00  0.00    -0.165 OA 
ENDROOT
BRANCH   4  22
HETATM   22  C   UNL     1     -10.042  16.912  70.500  1.00  0.00     1.503 C  
BRANCH  22  23
HETATM   23  C   UNL     1     -11.474  16.405  70.559  1.00  0.00    -0.141 C  
HETATM   24  H1  UNL     1     -13.621  15.642  70.647  1.00  0.00     0.000 HD 
HETATM   25  N   UNL     1     -12.660  15.983  70.607  1.00  0.00    -0.527 NA 
HETATM   26  H2  UNL     1     -12.537  15.446  69.749  1.00  0.00     0.000 HD 
ENDBRANCH  22  23
ENDBRANCH   4  22
TORSDOF 2
ENDMDL
MODEL      113
REMARK 921   NORMALIZED FREE ENERGY PREDICTED BY IDOCK:   -2.63 KCAL/MOL
REMARK 922        TOTAL FREE ENERGY PREDICTED BY IDOCK:   -3.20 KCAL/MOL
REMARK 923 INTER-LIGAND FREE ENERGY PREDICTED BY IDOCK:   -2.79 KCAL/MOL
REMARK 924 INTRA-LIGAND FREE ENERGY PREDICTED BY IDOCK:   -0.41 KCAL/MOL
REMARK 927      BINDING AFFINITY PREDICTED BY RF-SCORE:    0.00 PKD
ROOT
HETATM    1  C   UNL     1      -8.440   7.306  69.861  1.00  0.00    -0.140 C  
HETATM    2  C   UNL     1      -8.519   5.966  70.330  1.00  0.00    -0.127 C  
HETATM    3  C   UNL     1      -7.348   6.369  69.519  1.00  0.00    -0.088 C  
HETATM    4  C   UNL     1      -7.140   8.390  69.115  1.00  0.00    -0.064 C  
HETATM    5  O   UNL     1      -5.986   9.053  68.527  1.00  0.00    -0.044 OA 
HETATM    6  C   UNL     1     -10.141   4.141  65.205  1.00  0.00    -0.219 C  
HETATM    7  C   UNL     1      -6.539   7.617  70.073  1.00  0.00    -0.038 C  
HETATM    8  C   UNL     1      -5.434   6.891  68.725  1.00  0.00    -0.017 C  
HETATM    9  C   UNL     1      -6.001   7.902  71.442  1.00  0.00    -0.034 C  
HETATM   10  C   UNL     1      -8.946   7.199  68.046  1.00  0.00    -0.127 C  
HETATM   11  H   UNL     1      -5.890   9.981  68.342  1.00  0.00     0.000 HD 
HETATM   12  C   UNL     1      -6.296   6.852  67.178  1.00  0.00    -0.044 C  
HETATM   13  C   UNL     1     -10.417   6.735  67.951  1.00  0.00    -0.265 C  
HETATM   14  C   UNL     1     -10.784   5.660  66.947  1.00  0.00    -0.350 C  
HETATM   15  C   UNL     1      -7.911   6.496  67.020  1.00  0.00    -0.112 C  
HETATM   16  C   UNL     1      -9.717   5.091  66.049  1.00  0.00    -0.194 C  
HETATM   17  C   UNL     1      -8.334   5.540  66.145  1.00  0.00    -0.119 C  
HETATM   18  C   UNL     1      -7.342   4.836  65.245  1.00  0.00    -0.072 C  
HETATM   19  C   UNL     1      -7.794   3.760  64.260  1.00  0.00    -0.085 C  
HETATM   20  C   UNL     1      -9.255   3.436  64.275  1.00  0.00    -0.130 C  
HETATM   21  O   UNL     1      -9.730   2.579  63.526  1.00  0.00    -0.107 OA 
ENDROOT
BRANCH   4  22
HETATM   22  C   UNL     1      -7.828   9.958  69.828  1.00  0.00    -0.169 C  
BRANCH  22  23
HETATM   23  C   UNL     1      -7.789  10.728  68.518  1.00  0.00    -0.122 C  
HETATM   24  H1  UNL     1      -7.733  11.884  66.554  1.00  0.00     0.000 HD 
HETATM   25  N   UNL     1      -7.759  11.368  67.433  1.00  0.00    -0.128 NA 
HETATM   26  H2  UNL     1      -8.742  11.622  67.519  1.00  0.00     0.000 HD 
ENDBRANCH  22  23
ENDBRANCH   4  22
TORSDOF 2
ENDMDL
MODEL      114
REMARK 921   NORMALIZED FREE ENERGY PREDICTED BY IDOCK:   -2.60 KCAL/MOL
REMARK 922        TOTAL FREE ENERGY PREDICTED BY IDOCK:   -3.17 KCAL/MOL
REMARK 923 INTER-LIGAND FREE ENERGY PREDICTED BY IDOCK:   -2.78 KCAL/MOL
REMARK 924 INTRA-LIGAND FREE ENERGY PREDICTED BY IDOCK:   -0.38 KCAL/MOL
REMARK 927      BINDING AFFINITY PREDICTED BY RF-SCORE:    0.00 PKD
ROOT
HETATM    1  C   UNL     1     -10.031   6.236  68.945  1.00  0.00    -0.179 C  
HETATM    2  C   UNL     1     -11.419   6.523  68.828  1.00  0.00    -0.099 C  
HETATM    3  C   UNL     1     -10.586   6.525  67.605  1.00  0.00    -0.332 C  
HETATM    4  C   UNL     1      -8.648   5.817  67.791  1.00  0.00    -0.101 C  
HETATM    5  O   UNL     1      -7.712   5.527  66.715  1.00  0.00    -0.098 OA 
HETATM    6  C   UNL     1     -10.352  12.076  68.321  1.00  0.00    -0.211 C  
HETATM    7  C   UNL     1      -9.776   5.187  67.336  1.00  0.00    -0.172 C  
HETATM    8  C   UNL     1      -9.620   6.171  65.732  1.00  0.00     0.173 C  
HETATM    9  C   UNL     1     -10.227   3.758  67.324  1.00  0.00     0.641 C  
HETATM   10  C   UNL     1      -9.193   7.923  68.837  1.00  0.00    -0.144 C  
HETATM   11  H   UNL     1      -6.823   5.202  66.800  1.00  0.00     0.000 HD 
HETATM   12  C   UNL     1      -8.884   7.751  66.049  1.00  0.00    -0.189 C  
HETATM   13  C   UNL     1      -9.615   8.785  70.048  1.00  0.00    -0.177 C  
HETATM   14  C   UNL     1     -10.017  10.229  69.816  1.00  0.00    -0.222 C  
HETATM   15  C   UNL     1      -9.190   8.667  67.400  1.00  0.00    -0.158 C  
HETATM   16  C   UNL     1      -9.968  10.796  68.421  1.00  0.00    -0.174 C  
HETATM   17  C   UNL     1      -9.563   9.974  67.288  1.00  0.00    -0.188 C  
HETATM   18  C   UNL     1      -9.630  10.636  65.929  1.00  0.00    -0.253 C  
HETATM   19  C   UNL     1     -10.047  12.097  65.782  1.00  0.00    -0.272 C  
HETATM   20  C   UNL     1     -10.410  12.802  67.051  1.00  0.00    -0.234 C  
HETATM   21  O   UNL     1     -10.767  13.983  67.049  1.00  0.00    -0.281 OA 
ENDROOT
BRANCH   4  22
HETATM   22  C   UNL     1      -7.733   4.782  69.027  1.00  0.00    -0.071 C  
BRANCH  22  23
HETATM   23  C   UNL     1      -6.351   5.134  68.500  1.00  0.00    -0.035 C  
HETATM   24  H1  UNL     1      -4.279   5.664  67.711  1.00  0.00     0.000 HD 
HETATM   25  N   UNL     1      -5.205   5.427  68.065  1.00  0.00    -0.004 NA 
HETATM   26  H2  UNL     1      -4.896   5.724  68.990  1.00  0.00     0.000 HD 
ENDBRANCH  22  23
ENDBRANCH   4  22
TORSDOF 2
ENDMDL
MODEL      115
REMARK 921   NORMALIZED FREE ENERGY PREDICTED BY IDOCK:   -2.12 KCAL/MOL
REMARK 922        TOTAL FREE ENERGY PREDICTED BY IDOCK:   -2.63 KCAL/MOL
REMARK 923 INTER-LIGAND FREE ENERGY PREDICTED BY IDOCK:   -2.24 KCAL/MOL
REMARK 924 INTRA-LIGAND FREE ENERGY PREDICTED BY IDOCK:   -0.40 KCAL/MOL
REMARK 927      BINDING AFFINITY PREDICTED BY RF-SCORE:    0.00 PKD
ROOT
HETATM    1  C   UNL     1      -8.448   5.530  66.615  1.00  0.00    -0.112 C  
HETATM    2  C   UNL     1      -7.817   6.292  65.593  1.00  0.00    -0.098 C  
HETATM    3  C   UNL     1      -7.000   5.810  66.729  1.00  0.00    -0.065 C  
HETATM    4  C   UNL     1      -7.899   4.467  68.025  1.00  0.00    -0.080 C  
HETATM    5  O   UNL     1      -7.255   3.699  69.080  1.00  0.00    -0.049 OA 
HETATM    6  C   UNL     1      -7.801  10.917  68.885  1.00  0.00    -0.142 C  
HETATM    7  C   UNL     1      -7.046   4.243  66.978  1.00  0.00    -0.067 C  
HETATM    8  C   UNL     1      -5.629   4.858  68.064  1.00  0.00    -0.016 C  
HETATM    9  C   UNL     1      -6.852   3.098  66.031  1.00  0.00    -0.052 C  
HETATM   10  C   UNL     1      -8.680   6.751  68.035  1.00  0.00    -0.118 C  
HETATM   11  H   UNL     1      -7.667   3.083  69.675  1.00  0.00     0.000 HD 
HETATM   12  C   UNL     1      -6.215   6.079  69.205  1.00  0.00    -0.036 C  
HETATM   13  C   UNL     1      -9.648   7.872  67.595  1.00  0.00    -0.183 C  
HETATM   14  C   UNL     1      -9.295   9.313  67.909  1.00  0.00    -0.143 C  
HETATM   15  C   UNL     1      -7.357   7.227  68.836  1.00  0.00    -0.095 C  
HETATM   16  C   UNL     1      -8.027   9.615  68.666  1.00  0.00    -0.089 C  
HETATM   17  C   UNL     1      -7.124   8.548  69.080  1.00  0.00    -0.065 C  
HETATM   18  C   UNL     1      -5.847   8.986  69.762  1.00  0.00    -0.032 C  
HETATM   19  C   UNL     1      -5.566  10.461  70.041  1.00  0.00    -0.051 C  
HETATM   20  C   UNL     1      -6.610  11.424  69.569  1.00  0.00    -0.129 C  
HETATM   21  O   UNL     1      -6.483  12.640  69.737  1.00  0.00    -0.101 OA 
ENDROOT
BRANCH   4  22
HETATM   22  C   UNL     1      -9.381   3.354  67.956  1.00  0.00    -0.241 C  
BRANCH  22  23
HETATM   23  C   UNL     1      -9.451   3.132  69.458  1.00  0.00    -0.120 C  
HETATM   24  H1  UNL     1      -9.559   2.800  71.711  1.00  0.00     0.000 HD 
HETATM   25  N   UNL     1      -9.511   2.949  70.704  1.00  0.00    -0.154 NA 
HETATM   26  H2  UNL     1     -10.280   3.612  70.795  1.00  0.00     0.000 HD 
ENDBRANCH  22  23
ENDBRANCH   4  22
TORSDOF 2
ENDMDL
MODEL      116
REMARK 921   NORMALIZED FREE ENERGY PREDICTED BY IDOCK:   -2.04 KCAL/MOL
REMARK 922        TOTAL FREE ENERGY PREDICTED BY IDOCK:   -2.53 KCAL/MOL
REMARK 923 INTER-LIGAND FREE ENERGY PREDICTED BY IDOCK:   -2.59 KCAL/MOL
REMARK 924 INTRA-LIGAND FREE ENERGY PREDICTED BY IDOCK:    0.06 KCAL/MOL
REMARK 927      BINDING AFFINITY PREDICTED BY RF-SCORE:    0.00 PKD
ROOT
HETATM    1  C   UNL     1      -7.391  16.566  67.356  1.00  0.00    -0.176 C  
HETATM    2  C   UNL     1      -8.208  16.183  66.257  1.00  0.00    -0.275 C  
HETATM    3  C   UNL     1      -8.822  16.942  67.369  1.00  0.00    -0.212 C  
HETATM    4  C   UNL     1      -7.534  17.723  68.792  1.00  0.00    -0.263 C  
HETATM    5  O   UNL     1      -7.864  18.666  69.850  1.00  0.00     0.634 OA 
HETATM    6  C   UNL     1     -10.480  11.939  69.266  1.00  0.00     0.050 C  
HETATM    7  C   UNL     1      -8.122  18.325  67.711  1.00  0.00    -0.256 C  
HETATM    8  C   UNL     1      -9.746  18.359  68.675  1.00  0.00    -0.387 C  
HETATM    9  C   UNL     1      -7.727  19.465  66.823  1.00  0.00    -0.272 C  
HETATM   10  C   UNL     1      -7.822  15.328  68.714  1.00  0.00    -0.154 C  
HETATM   11  H   UNL     1      -7.273  19.024  70.503  1.00  0.00     0.000 HD 
HETATM   12  C   UNL     1      -9.837  16.974  69.775  1.00  0.00     0.379 C  
HETATM   13  C   UNL     1      -7.403  13.910  68.266  1.00  0.00    -0.117 C  
HETATM   14  C   UNL     1      -8.368  12.759  68.475  1.00  0.00    -0.054 C  
HETATM   15  C   UNL     1      -9.278  15.453  69.408  1.00  0.00    -0.268 C  
HETATM   16  C   UNL     1      -9.696  13.018  69.137  1.00  0.00     0.489 C  
HETATM   17  C   UNL     1     -10.078  14.360  69.559  1.00  0.00     0.142 C  
HETATM   18  C   UNL     1     -11.468  14.504  70.139  1.00  0.00    -0.297 C  
HETATM   19  C   UNL     1     -12.380  13.292  70.315  1.00  0.00    -0.334 C  
HETATM   20  C   UNL     1     -11.822  11.984  69.849  1.00  0.00    -0.331 C  
HETATM   21  O   UNL     1     -12.475  10.940  69.938  1.00  0.00    -0.319 OA 
ENDROOT
BRANCH   4  22
HETATM   22  C   UNL     1      -5.717  18.081  68.875  1.00  0.00    -0.193 C  
BRANCH  22  23
HETATM   23  C   UNL     1      -5.467  17.218  70.100  1.00  0.00    -0.237 C  
HETATM   24  H1  UNL     1      -5.090  15.923  71.939  1.00  0.00     0.000 HD 
HETATM   25  N   UNL     1      -5.258  16.501  71.116  1.00  0.00    -0.137 NA 
HETATM   26  H2  UNL     1      -4.567  15.941  70.617  1.00  0.00     0.000 HD 
ENDBRANCH  22  23
ENDBRANCH   4  22
TORSDOF 2
ENDMDL
MODEL      117
REMARK 921   NORMALIZED FREE ENERGY PREDICTED BY IDOCK:   -1.77 KCAL/MOL
REMARK 922        TOTAL FREE ENERGY PREDICTED BY IDOCK:   -2.24 KCAL/MOL
REMARK 923 INTER-LIGAND FREE ENERGY PREDICTED BY IDOCK:   -2.03 KCAL/MOL
REMARK 924 INTRA-LIGAND FREE ENERGY PREDICTED BY IDOCK:   -0.21 KCAL/MOL
REMARK 927      BINDING AFFINITY PREDICTED BY RF-SCORE:    0.00 PKD
ROOT
HETATM    1  C   UNL     1      -8.528   9.103  67.853  1.00  0.00    -0.117 C  
HETATM    2  C   UNL     1      -9.007   9.887  68.940  1.00  0.00    -0.153 C  
HETATM    3  C   UNL     1      -7.561   9.579  68.867  1.00  0.00    -0.075 C  
HETATM    4  C   UNL     1      -6.879   8.693  67.122  1.00  0.00    -0.067 C  
HETATM    5  O   UNL     1      -5.494   8.484  66.727  1.00  0.00    -0.035 OA 
HETATM    6  C   UNL     1      -8.728   5.425  72.438  1.00  0.00    -0.125 C  
HETATM    7  C   UNL     1      -6.846  10.005  67.515  1.00  0.00    -0.081 C  
HETATM    8  C   UNL     1      -5.431   9.568  68.687  1.00  0.00    -0.037 C  
HETATM    9  C   UNL     1      -6.859  11.305  66.771  1.00  0.00    -0.140 C  
HETATM   10  C   UNL     1      -8.279   7.384  68.590  1.00  0.00    -0.125 C  
HETATM   11  H   UNL     1      -5.182   8.078  65.927  1.00  0.00     0.000 HD 
HETATM   12  C   UNL     1      -5.599   7.900  69.258  1.00  0.00    -0.027 C  
HETATM   13  C   UNL     1      -9.645   6.815  69.036  1.00  0.00    -0.135 C  
HETATM   14  C   UNL     1      -9.753   6.144  70.392  1.00  0.00    -0.199 C  
HETATM   15  C   UNL     1      -7.052   7.182  69.624  1.00  0.00    -0.074 C  
HETATM   16  C   UNL     1      -8.525   6.024  71.257  1.00  0.00    -0.128 C  
HETATM   17  C   UNL     1      -7.242   6.560  70.822  1.00  0.00    -0.071 C  
HETATM   18  C   UNL     1      -6.104   6.446  71.813  1.00  0.00    -0.041 C  
HETATM   19  C   UNL     1      -6.297   5.756  73.162  1.00  0.00    -0.062 C  
HETATM   20  C   UNL     1      -7.674   5.241  73.439  1.00  0.00    -0.096 C  
HETATM   21  O   UNL     1      -7.945   4.672  74.499  1.00  0.00    -0.094 OA 
ENDROOT
BRANCH   4  22
HETATM   22  C   UNL     1      -7.526   8.507  65.395  1.00  0.00    -0.086 C  
BRANCH  22  23
HETATM   23  C   UNL     1      -6.332   7.715  64.889  1.00  0.00    -0.038 C  
HETATM   24  H1  UNL     1      -4.540   6.526  64.130  1.00  0.00     0.000 HD 
HETATM   25  N   UNL     1      -5.342   7.057  64.469  1.00  0.00    -0.028 NA 
HETATM   26  H2  UNL     1      -5.937   6.273  64.203  1.00  0.00     0.000 HD 
ENDBRANCH  22  23
ENDBRANCH   4  22
TORSDOF 2
ENDMDL
MODEL      118
REMARK 921   NORMALIZED FREE ENERGY PREDICTED BY IDOCK:   -1.73 KCAL/MOL
REMARK 922        TOTAL FREE ENERGY PREDICTED BY IDOCK:   -2.19 KCAL/MOL
REMARK 923 INTER-LIGAND FREE ENERGY PREDICTED BY IDOCK:   -2.20 KCAL/MOL
REMARK 924 INTRA-LIGAND FREE ENERGY PREDICTED BY IDOCK:    0.01 KCAL/MOL
REMARK 927      BINDING AFFINITY PREDICTED BY RF-SCORE:    0.00 PKD
ROOT
HETATM    1  C   UNL     1      -8.040   8.960  65.235  1.00  0.00    -0.126 C  
HETATM    2  C   UNL     1      -8.688   7.954  64.468  1.00  0.00     0.296 C  
HETATM    3  C   UNL     1      -9.325   8.412  65.723  1.00  0.00    -0.141 C  
HETATM    4  C   UNL     1      -8.494  10.074  66.640  1.00  0.00    -0.125 C  
HETATM    5  O   UNL     1      -9.049  10.833  67.751  1.00  0.00    -0.148 OA 
HETATM    6  C   UNL     1      -6.925   3.917  68.048  1.00  0.00    -0.051 C  
HETATM    7  C   UNL     1      -9.584   9.975  65.817  1.00  0.00    -0.291 C  
HETATM    8  C   UNL     1     -10.550   9.242  67.265  1.00  0.00    -0.303 C  
HETATM    9  C   UNL     1     -10.238  10.917  64.852  1.00  0.00    -0.381 C  
HETATM   10  C   UNL     1      -7.230   8.018  66.655  1.00  0.00    -0.081 C  
HETATM   11  H   UNL     1      -8.668  11.595  68.172  1.00  0.00     0.000 HD 
HETATM   12  C   UNL     1      -9.465   8.332  68.330  1.00  0.00    -0.146 C  
HETATM   13  C   UNL     1      -6.152   7.066  66.090  1.00  0.00    -0.036 C  
HETATM   14  C   UNL     1      -6.089   5.640  66.604  1.00  0.00    -0.030 C  
HETATM   15  C   UNL     1      -8.199   7.399  67.793  1.00  0.00    -0.119 C  
HETATM   16  C   UNL     1      -7.056   5.195  67.670  1.00  0.00    -0.066 C  
HETATM   17  C   UNL     1      -8.065   6.104  68.199  1.00  0.00    -0.111 C  
HETATM   18  C   UNL     1      -9.027   5.515  69.207  1.00  0.00    -0.125 C  
HETATM   19  C   UNL     1      -8.896   4.067  69.672  1.00  0.00    -0.139 C  
HETATM   20  C   UNL     1      -7.789   3.279  69.043  1.00  0.00    -0.050 C  
HETATM   21  O   UNL     1      -7.595   2.097  69.340  1.00  0.00    -0.043 OA 
ENDROOT
BRANCH   4  22
HETATM   22  C   UNL     1      -7.358  11.443  66.117  1.00  0.00     0.136 C  
BRANCH  22  23
HETATM   23  C   UNL     1      -6.348  11.212  67.229  1.00  0.00    -0.074 C  
HETATM   24  H1  UNL     1      -4.835  10.864  68.899  1.00  0.00     0.000 HD 
HETATM   25  N   UNL     1      -5.513  11.019  68.152  1.00  0.00    -0.043 NA 
HETATM   26  H2  UNL     1      -6.227  10.613  68.756  1.00  0.00     0.000 HD 
ENDBRANCH  22  23
ENDBRANCH   4  22
TORSDOF 2
ENDMDL
MODEL      119
REMARK 921   NORMALIZED FREE ENERGY PREDICTED BY IDOCK:   -1.63 KCAL/MOL
REMARK 922        TOTAL FREE ENERGY PREDICTED BY IDOCK:   -2.08 KCAL/MOL
REMARK 923 INTER-LIGAND FREE ENERGY PREDICTED BY IDOCK:   -2.39 KCAL/MOL
REMARK 924 INTRA-LIGAND FREE ENERGY PREDICTED BY IDOCK:    0.30 KCAL/MOL
REMARK 927      BINDING AFFINITY PREDICTED BY RF-SCORE:    0.00 PKD
ROOT
HETATM    1  C   UNL     1      -6.886   8.967  65.703  1.00  0.00    -0.076 C  
HETATM    2  C   UNL     1      -6.715   8.542  67.049  1.00  0.00    -0.062 C  
HETATM    3  C   UNL     1      -8.045   9.030  66.621  1.00  0.00    -0.107 C  
HETATM    4  C   UNL     1      -8.313   9.356  64.593  1.00  0.00    -0.157 C  
HETATM    5  O   UNL     1      -9.567   9.632  63.906  1.00  0.00    -0.430 OA 
HETATM    6  C   UNL     1      -6.461  13.920  68.846  1.00  0.00    -0.098 C  
HETATM    7  C   UNL     1      -8.668   8.283  65.367  1.00  0.00    -0.147 C  
HETATM    8  C   UNL     1     -10.088   9.316  66.062  1.00  0.00    -0.262 C  
HETATM    9  C   UNL     1      -8.841   6.821  65.087  1.00  0.00     0.220 C  
HETATM   10  C   UNL     1      -6.853  10.852  65.800  1.00  0.00     0.014 C  
HETATM   11  H   UNL     1      -9.690   9.782  62.976  1.00  0.00     0.000 HD 
HETATM   12  C   UNL     1      -9.641  11.030  66.098  1.00  0.00    -0.240 C  
HETATM   13  C   UNL     1      -5.461  11.315  66.284  1.00  0.00    -0.137 C  
HETATM   14  C   UNL     1      -5.375  12.386  67.355  1.00  0.00    -0.107 C  
HETATM   15  C   UNL     1      -8.124  11.590  66.476  1.00  0.00    -0.112 C  
HETATM   16  C   UNL     1      -6.643  12.991  67.899  1.00  0.00    -0.131 C  
HETATM   17  C   UNL     1      -7.951  12.548  67.430  1.00  0.00    -0.180 C  
HETATM   18  C   UNL     1      -9.148  13.176  68.109  1.00  0.00    -0.200 C  
HETATM   19  C   UNL     1      -8.975  14.249  69.182  1.00  0.00     0.160 C  
HETATM   20  C   UNL     1      -7.563  14.602  69.528  1.00  0.00    -0.042 C  
HETATM   21  O   UNL     1      -7.306  15.452  70.385  1.00  0.00     0.216 OA 
ENDROOT
BRANCH   4  22
HETATM   22  C   UNL     1      -7.442   8.829  63.043  1.00  0.00    -0.102 C  
BRANCH  22  23
HETATM   23  C   UNL     1      -6.968  10.226  62.675  1.00  0.00    -0.135 C  
HETATM   24  H1  UNL     1      -6.256  12.320  62.122  1.00  0.00     0.000 HD 
HETATM   25  N   UNL     1      -6.574  11.383  62.368  1.00  0.00    -0.270 NA 
HETATM   26  H2  UNL     1      -6.667  11.184  61.373  1.00  0.00     0.000 HD 
ENDBRANCH  22  23
ENDBRANCH   4  22
TORSDOF 2
ENDMDL
MODEL      120
REMARK 921   NORMALIZED FREE ENERGY PREDICTED BY IDOCK:   -1.50 KCAL/MOL
REMARK 922        TOTAL FREE ENERGY PREDICTED BY IDOCK:   -1.94 KCAL/MOL
REMARK 923 INTER-LIGAND FREE ENERGY PREDICTED BY IDOCK:   -1.97 KCAL/MOL
REMARK 924 INTRA-LIGAND FREE ENERGY PREDICTED BY IDOCK:    0.04 KCAL/MOL
REMARK 927      BINDING AFFINITY PREDICTED BY RF-SCORE:    0.00 PKD
ROOT
HETATM    1  C   UNL     1      -9.208  11.496  69.054  1.00  0.00     0.110 C  
HETATM    2  C   UNL     1      -8.204  10.913  69.874  1.00  0.00     0.642 C  
HETATM    3  C   UNL     1      -7.815  11.463  68.556  1.00  0.00    -0.140 C  
HETATM    4  C   UNL     1      -9.252  12.556  67.538  1.00  0.00    -0.188 C  
HETATM    5  O   UNL     1      -9.057  13.361  66.342  1.00  0.00    -0.431 OA 
HETATM    6  C   UNL     1      -8.220   6.179  66.741  1.00  0.00    -0.109 C  
HETATM    7  C   UNL     1      -8.207  12.982  68.316  1.00  0.00    -0.150 C  
HETATM    8  C   UNL     1      -7.039  12.558  66.894  1.00  0.00     0.159 C  
HETATM    9  C   UNL     1      -7.981  14.195  69.165  1.00  0.00     0.096 C  
HETATM   10  C   UNL     1      -9.581  10.174  67.759  1.00  0.00    -0.168 C  
HETATM   11  H   UNL     1      -9.716  13.862  65.875  1.00  0.00     0.000 HD 
HETATM   12  C   UNL     1      -7.675  11.192  65.963  1.00  0.00    -0.001 C  
HETATM   13  C   UNL     1     -10.181   8.931  68.454  1.00  0.00    -0.231 C  
HETATM   14  C   UNL     1      -9.668   7.557  68.068  1.00  0.00    -0.165 C  
HETATM   15  C   UNL     1      -8.453   9.887  66.635  1.00  0.00    -0.126 C  
HETATM   16  C   UNL     1      -8.612   7.434  67.001  1.00  0.00    -0.119 C  
HETATM   17  C   UNL     1      -8.058   8.614  66.350  1.00  0.00    -0.100 C  
HETATM   18  C   UNL     1      -6.948   8.364  65.353  1.00  0.00    -0.074 C  
HETATM   19  C   UNL     1      -6.489   6.946  65.021  1.00  0.00    -0.043 C  
HETATM   20  C   UNL     1      -7.180   5.847  65.765  1.00  0.00    -0.075 C  
HETATM   21  O   UNL     1      -6.885   4.663  65.580  1.00  0.00    -0.058 OA 
ENDROOT
BRANCH   4  22
HETATM   22  C   UNL     1     -10.838  13.400  67.994  1.00  0.00    -0.264 C  
BRANCH  22  23
HETATM   23  C   UNL     1     -10.488  14.716  67.320  1.00  0.00    -0.266 C  
HETATM   24  H1  UNL     1      -9.963  16.691  66.308  1.00  0.00     0.000 HD 
HETATM   25  N   UNL     1     -10.199  15.808  66.760  1.00  0.00    -0.275 NA 
HETATM   26  H2  UNL     1     -10.991  15.726  66.123  1.00  0.00     0.000 HD 
ENDBRANCH  22  23
ENDBRANCH   4  22
TORSDOF 2
ENDMDL
MODEL      121
REMARK 921   NORMALIZED FREE ENERGY PREDICTED BY IDOCK:   -1.50 KCAL/MOL
REMARK 922        TOTAL FREE ENERGY PREDICTED BY IDOCK:   -1.93 KCAL/MOL
REMARK 923 INTER-LIGAND FREE ENERGY PREDICTED BY IDOCK:   -1.58 KCAL/MOL
REMARK 924 INTRA-LIGAND FREE ENERGY PREDICTED BY IDOCK:   -0.35 KCAL/MOL
REMARK 927      BINDING AFFINITY PREDICTED BY RF-SCORE:    0.00 PKD
ROOT
HETATM    1  C   UNL     1     -10.689  10.727  67.473  1.00  0.00    -0.312 C  
HETATM    2  C   UNL     1     -10.711   9.325  67.711  1.00  0.00    -0.270 C  
HETATM    3  C   UNL     1      -9.511  10.095  68.107  1.00  0.00    -0.151 C  
HETATM    4  C   UNL     1      -9.651  12.160  68.009  1.00  0.00    -0.204 C  
HETATM    5  O   UNL     1      -8.700  13.130  68.532  1.00  0.00    -0.297 OA 
HETATM    6  C   UNL     1      -7.360   8.389  63.225  1.00  0.00    -0.104 C  
HETATM    7  C   UNL     1      -9.784  11.318  69.081  1.00  0.00     0.008 C  
HETATM    8  C   UNL     1      -7.908  11.110  69.091  1.00  0.00    -0.065 C  
HETATM    9  C   UNL     1     -10.559  11.393  70.362  1.00  0.00     1.337 C  
HETATM   10  C   UNL     1      -9.612  10.925  65.936  1.00  0.00    -0.257 C  
HETATM   11  H   UNL     1      -8.764  14.077  68.487  1.00  0.00     0.000 HD 
HETATM   12  C   UNL     1      -7.265  11.253  67.446  1.00  0.00    -0.110 C  
HETATM   13  C   UNL     1     -10.301  10.238  64.735  1.00  0.00    -0.101 C  
HETATM   14  C   UNL     1      -9.473   9.357  63.820  1.00  0.00     0.421 C  
HETATM   15  C   UNL     1      -8.025  10.657  66.094  1.00  0.00    -0.151 C  
HETATM   16  C   UNL     1      -7.999   9.195  64.084  1.00  0.00    -0.140 C  
HETATM   17  C   UNL     1      -7.360   9.852  65.217  1.00  0.00    -0.131 C  
HETATM   18  C   UNL     1      -5.892   9.548  65.420  1.00  0.00    -0.063 C  
HETATM   19  C   UNL     1      -5.130   8.647  64.451  1.00  0.00    -0.043 C  
HETATM   20  C   UNL     1      -5.934   8.071  63.328  1.00  0.00    -0.067 C  
HETATM   21  O   UNL     1      -5.422   7.326  62.489  1.00  0.00    -0.036 OA 
ENDROOT
BRANCH   4  22
HETATM   22  C   UNL     1     -11.037  13.388  67.921  1.00  0.00    -0.289 C  
BRANCH  22  23
HETATM   23  C   UNL     1     -10.315  14.337  66.978  1.00  0.00    -0.267 C  
HETATM   24  H1  UNL     1      -9.232  15.761  65.564  1.00  0.00     0.000 HD 
HETATM   25  N   UNL     1      -9.716  15.124  66.197  1.00  0.00    -0.289 NA 
HETATM   26  H2  UNL     1      -9.068  15.409  66.931  1.00  0.00     0.000 HD 
ENDBRANCH  22  23
ENDBRANCH   4  22
TORSDOF 2
ENDMDL
MODEL      122
REMARK 921   NORMALIZED FREE ENERGY PREDICTED BY IDOCK:   -1.33 KCAL/MOL
REMARK 922        TOTAL FREE ENERGY PREDICTED BY IDOCK:   -1.74 KCAL/MOL
REMARK 923 INTER-LIGAND FREE ENERGY PREDICTED BY IDOCK:   -1.37 KCAL/MOL
REMARK 924 INTRA-LIGAND FREE ENERGY PREDICTED BY IDOCK:   -0.37 KCAL/MOL
REMARK 927      BINDING AFFINITY PREDICTED BY RF-SCORE:    0.00 PKD
ROOT
HETATM    1  C   UNL     1      -6.735  11.587  67.088  1.00  0.00    -0.129 C  
HETATM    2  C   UNL     1      -7.110  10.853  65.929  1.00  0.00    -0.029 C  
HETATM    3  C   UNL     1      -8.174  11.395  66.803  1.00  0.00    -0.160 C  
HETATM    4  C   UNL     1      -7.581  12.696  68.303  1.00  0.00    -0.133 C  
HETATM    5  O   UNL     1      -8.440  13.511  69.148  1.00  0.00    -0.326 OA 
HETATM    6  C   UNL     1      -8.295   6.272  69.064  1.00  0.00    -0.117 C  
HETATM    7  C   UNL     1      -8.103  12.959  67.064  1.00  0.00    -0.057 C  
HETATM    8  C   UNL     1      -9.796  12.440  67.721  1.00  0.00    -0.203 C  
HETATM    9  C   UNL     1      -7.964  14.104  66.108  1.00  0.00     1.924 C  
HETATM   10  C   UNL     1      -6.971  10.369  68.510  1.00  0.00    -0.062 C  
HETATM   11  H   UNL     1      -8.168  14.107  69.836  1.00  0.00     0.000 HD 
HETATM   12  C   UNL     1      -9.616  11.198  68.971  1.00  0.00    -0.099 C  
HETATM   13  C   UNL     1      -5.988   9.188  68.342  1.00  0.00    -0.045 C  
HETATM   14  C   UNL     1      -6.500   7.774  68.540  1.00  0.00    -0.052 C  
HETATM   15  C   UNL     1      -8.487   9.980  68.920  1.00  0.00    -0.132 C  
HETATM   16  C   UNL     1      -7.940   7.556  68.922  1.00  0.00    -0.126 C  
HETATM   17  C   UNL     1      -8.856   8.678  69.083  1.00  0.00    -0.137 C  
HETATM   18  C   UNL     1     -10.295   8.324  69.390  1.00  0.00    -0.223 C  
HETATM   19  C   UNL     1     -10.729   6.872  69.573  1.00  0.00    -0.276 C  
HETATM   20  C   UNL     1      -9.656   5.844  69.396  1.00  0.00    -0.138 C  
HETATM   21  O   UNL     1      -9.896   4.640  69.516  1.00  0.00    -0.196 OA 
ENDROOT
BRANCH   4  22
HETATM   22  C   UNL     1      -6.072  13.717  68.645  1.00  0.00    -0.088 C  
BRANCH  22  23
HETATM   23  C   UNL     1      -6.125  13.533  70.153  1.00  0.00    -0.123 C  
HETATM   24  H1  UNL     1      -6.203  13.257  72.415  1.00  0.00     0.000 HD 
HETATM   25  N   UNL     1      -6.167  13.380  71.403  1.00  0.00    -0.446 NA 
HETATM   26  H2  UNL     1      -5.155  13.473  71.480  1.00  0.00     0.000 HD 
ENDBRANCH  22  23
ENDBRANCH   4  22
TORSDOF 2
ENDMDL
MODEL      123
REMARK 921   NORMALIZED FREE ENERGY PREDICTED BY IDOCK:   -1.25 KCAL/MOL
REMARK 922        TOTAL FREE ENERGY PREDICTED BY IDOCK:   -1.66 KCAL/MOL
REMARK 923 INTER-LIGAND FREE ENERGY PREDICTED BY IDOCK:   -1.73 KCAL/MOL
REMARK 924 INTRA-LIGAND FREE ENERGY PREDICTED BY IDOCK:    0.06 KCAL/MOL
REMARK 927      BINDING AFFINITY PREDICTED BY RF-SCORE:    0.00 PKD
ROOT
HETATM    1  C   UNL     1      -9.356  14.330  68.426  1.00  0.00    -0.208 C  
HETATM    2  C   UNL     1      -8.153  13.616  68.681  1.00  0.00    -0.071 C  
HETATM    3  C   UNL     1      -8.764  13.523  67.336  1.00  0.00    -0.220 C  
HETATM    4  C   UNL     1     -10.340  14.807  66.934  1.00  0.00    -0.267 C  
HETATM    5  O   UNL     1     -10.964  15.053  65.642  1.00  0.00    -0.331 OA 
HETATM    6  C   UNL     1     -11.014   8.739  69.187  1.00  0.00     0.019 C  
HETATM    7  C   UNL     1      -9.013  14.912  66.610  1.00  0.00    -0.301 C  
HETATM    8  C   UNL     1      -9.289  13.613  65.266  1.00  0.00     0.557 C  
HETATM    9  C   UNL     1      -8.095  16.074  66.383  1.00  0.00    -0.255 C  
HETATM   10  C   UNL     1     -10.708  13.016  68.510  1.00  0.00    -0.275 C  
HETATM   11  H   UNL     1     -11.687  15.642  65.458  1.00  0.00     0.000 HD 
HETATM   12  C   UNL     1     -10.565  12.486  65.755  1.00  0.00    -0.299 C  
HETATM   13  C   UNL     1     -10.777  12.443  69.944  1.00  0.00     0.785 C  
HETATM   14  C   UNL     1     -10.877  10.941  70.129  1.00  0.00    -0.054 C  
HETATM   15  C   UNL     1     -10.780  11.936  67.308  1.00  0.00    -0.276 C  
HETATM   16  C   UNL     1     -10.936  10.049  68.917  1.00  0.00    -0.244 C  
HETATM   17  C   UNL     1     -10.875  10.602  67.570  1.00  0.00    -0.351 C  
HETATM   18  C   UNL     1     -10.864   9.598  66.438  1.00  0.00     0.160 C  
HETATM   19  C   UNL     1     -10.967   8.099  66.711  1.00  0.00     0.421 C  
HETATM   20  C   UNL     1     -11.044   7.703  68.152  1.00  0.00     0.282 C  
HETATM   21  O   UNL     1     -11.125   6.519  68.488  1.00  0.00    -0.296 OA 
ENDROOT
BRANCH   4  22
HETATM   22  C   UNL     1     -10.992  16.373  67.682  1.00  0.00    -0.225 C  
BRANCH  22  23
HETATM   23  C   UNL     1     -11.013  17.147  66.374  1.00  0.00     0.212 C  
HETATM   24  H1  UNL     1     -11.044  18.309  64.412  1.00  0.00     0.000 HD 
HETATM   25  N   UNL     1     -11.029  17.790  65.290  1.00  0.00    -0.492 NA 
HETATM   26  H2  UNL     1     -10.333  18.450  65.635  1.00  0.00     0.000 HD 
ENDBRANCH  22  23
ENDBRANCH   4  22
TORSDOF 2
ENDMDL
MODEL      124
REMARK 921   NORMALIZED FREE ENERGY PREDICTED BY IDOCK:   -0.79 KCAL/MOL
REMARK 922        TOTAL FREE ENERGY PREDICTED BY IDOCK:   -1.15 KCAL/MOL
REMARK 923 INTER-LIGAND FREE ENERGY PREDICTED BY IDOCK:   -0.83 KCAL/MOL
REMARK 924 INTRA-LIGAND FREE ENERGY PREDICTED BY IDOCK:   -0.32 KCAL/MOL
REMARK 927      BINDING AFFINITY PREDICTED BY RF-SCORE:    0.00 PKD
ROOT
HETATM    1  C   UNL     1      -7.996  13.657  68.135  1.00  0.00    -0.148 C  
HETATM    2  C   UNL     1      -8.379  13.449  66.782  1.00  0.00     0.089 C  
HETATM    3  C   UNL     1      -7.264  14.377  67.070  1.00  0.00     0.409 C  
HETATM    4  C   UNL     1      -6.559  14.416  69.018  1.00  0.00    -0.103 C  
HETATM    5  O   UNL     1      -5.357  15.078  69.503  1.00  0.00    -0.089 OA 
HETATM    6  C   UNL     1     -11.121  18.418  66.667  1.00  0.00     0.338 C  
HETATM    7  C   UNL     1      -6.073  13.760  67.919  1.00  0.00    -0.154 C  
HETATM    8  C   UNL     1      -5.405  15.410  67.288  1.00  0.00     0.306 C  
HETATM    9  C   UNL     1      -5.296  12.492  67.734  1.00  0.00    -0.104 C  
HETATM   10  C   UNL     1      -8.753  15.326  68.585  1.00  0.00    -0.182 C  
HETATM   11  H   UNL     1      -5.033  15.096  70.397  1.00  0.00     0.000 HD 
HETATM   12  C   UNL     1      -6.445  16.739  67.826  1.00  0.00    -0.162 C  
HETATM   13  C   UNL     1     -10.293  15.223  68.526  1.00  0.00    -0.231 C  
HETATM   14  C   UNL     1     -11.077  16.326  67.840  1.00  0.00    -0.270 C  
HETATM   15  C   UNL     1      -8.102  16.648  67.917  1.00  0.00    -0.177 C  
HETATM   16  C   UNL     1     -10.340  17.505  67.260  1.00  0.00    -0.337 C  
HETATM   17  C   UNL     1      -8.887  17.593  67.326  1.00  0.00    -0.240 C  
HETATM   18  C   UNL     1      -8.261  18.786  66.638  1.00  0.00    -0.298 C  
HETATM   19  C   UNL     1      -9.123  19.853  65.967  1.00  0.00    -0.321 C  
HETATM   20  C   UNL     1     -10.600  19.619  66.010  1.00  0.00    -0.483 C  
HETATM   21  O   UNL     1     -11.391  20.414  65.495  1.00  0.00     0.407 OA 
ENDROOT
BRANCH   4  22
HETATM   22  C   UNL     1      -6.682  13.296  70.490  1.00  0.00     0.840 C  
BRANCH  22  23
HETATM   23  C   UNL     1      -6.034  14.274  71.457  1.00  0.00    -0.048 C  
HETATM   24  H1  UNL     1      -5.063  15.741  72.908  1.00  0.00     0.000 HD 
HETATM   25  N   UNL     1      -5.498  15.084  72.260  1.00  0.00     0.129 NA 
HETATM   26  H2  UNL     1      -5.883  14.590  73.064  1.00  0.00     0.000 HD 
ENDBRANCH  22  23
ENDBRANCH   4  22
TORSDOF 2
ENDMDL
MODEL      125
REMARK 921   NORMALIZED FREE ENERGY PREDICTED BY IDOCK:   -0.01 KCAL/MOL
REMARK 922        TOTAL FREE ENERGY PREDICTED BY IDOCK:   -0.27 KCAL/MOL
REMARK 923 INTER-LIGAND FREE ENERGY PREDICTED BY IDOCK:   -4.31 KCAL/MOL
REMARK 924 INTRA-LIGAND FREE ENERGY PREDICTED BY IDOCK:    4.04 KCAL/MOL
REMARK 927      BINDING AFFINITY PREDICTED BY RF-SCORE:    0.00 PKD
ROOT
HETATM    1  C   UNL     1      -8.018   5.483  66.010  1.00  0.00    -0.106 C  
HETATM    2  C   UNL     1      -7.235   5.714  67.175  1.00  0.00    -0.075 C  
HETATM    3  C   UNL     1      -8.709   5.673  67.305  1.00  0.00    -0.107 C  
HETATM    4  C   UNL     1      -9.778   5.045  65.645  1.00  0.00    -0.106 C  
HETATM    5  O   UNL     1     -11.197   4.725  65.585  1.00  0.00    -0.888 OA 
HETATM    6  C   UNL     1      -8.434  11.261  67.030  1.00  0.00    -0.150 C  
HETATM    7  C   UNL     1      -9.399   4.351  66.763  1.00  0.00    -0.173 C  
HETATM    8  C   UNL     1     -10.761   5.243  67.720  1.00  0.00    -0.023 C  
HETATM    9  C   UNL     1      -9.089   2.909  67.026  1.00  0.00    -0.188 C  
HETATM   10  C   UNL     1      -8.674   7.190  65.541  1.00  0.00    -0.042 C  
HETATM   11  H   UNL     1     -11.687   4.437  64.823  1.00  0.00     0.000 HD 
HETATM   12  C   UNL     1     -11.020   6.863  67.054  1.00  0.00    -0.404 C  
HETATM   13  C   UNL     1      -7.490   8.106  65.158  1.00  0.00    -0.081 C  
HETATM   14  C   UNL     1      -7.448   9.519  65.708  1.00  0.00    -0.100 C  
HETATM   15  C   UNL     1      -9.803   7.847  66.495  1.00  0.00    -0.272 C  
HETATM   16  C   UNL     1      -8.570  10.003  66.588  1.00  0.00    -0.130 C  
HETATM   17  C   UNL     1      -9.684   9.131  66.938  1.00  0.00    -0.254 C  
HETATM   18  C   UNL     1     -10.706   9.708  67.892  1.00  0.00    -0.302 C  
HETATM   19  C   UNL     1     -10.590  11.143  68.402  1.00  0.00    -0.223 C  
HETATM   20  C   UNL     1      -9.395  11.909  67.925  1.00  0.00    -0.187 C  
HETATM   21  O   UNL     1      -9.197  13.074  68.278  1.00  0.00    -0.207 OA 
ENDROOT
BRANCH   4  22
HETATM   22  C   UNL     1      -9.380   4.118  64.090  1.00  0.00    -0.158 C  
BRANCH  22  23
HETATM   23  C   UNL     1      -7.979   3.720  64.527  1.00  0.00    -0.086 C  
HETATM   24  H1  UNL     1      -5.879   3.122  65.182  1.00  0.00     0.000 HD 
HETATM   25  N   UNL     1      -6.818   3.389  64.889  1.00  0.00    -0.044 NA 
HETATM   26  H2  UNL     1      -7.048   2.397  64.825  1.00  0.00     0.000 HD 
ENDBRANCH  22  23
ENDBRANCH   4  22
TORSDOF 2
ENDMDL
MODEL      126
REMARK 921   NORMALIZED FREE ENERGY PREDICTED BY IDOCK:    0.41 KCAL/MOL
REMARK 922        TOTAL FREE ENERGY PREDICTED BY IDOCK:    0.19 KCAL/MOL
REMARK 923 INTER-LIGAND FREE ENERGY PREDICTED BY IDOCK:   -0.08 KCAL/MOL
REMARK 924 INTRA-LIGAND FREE ENERGY PREDICTED BY IDOCK:    0.27 KCAL/MOL
REMARK 927      BINDING AFFINITY PREDICTED BY RF-SCORE:    0.00 PKD
ROOT
HETATM    1  C   UNL     1     -11.848  16.273  69.946  1.00  0.00     0.026 C  
HETATM    2  C   UNL     1     -12.653  16.713  68.859  1.00  0.00     2.304 C  
HETATM    3  C   UNL     1     -12.845  15.340  69.377  1.00  0.00     0.353 C  
HETATM    4  C   UNL     1     -11.861  14.857  71.136  1.00  0.00    -0.337 C  
HETATM    5  O   UNL     1     -12.048  13.663  71.946  1.00  0.00    -0.080 OA 
HETATM    6  C   UNL     1      -9.495  13.771  65.171  1.00  0.00     0.433 C  
HETATM    7  C   UNL     1     -13.160  15.241  70.929  1.00  0.00    -0.523 C  
HETATM    8  C   UNL     1     -13.514  13.512  70.259  1.00  0.00     1.004 C  
HETATM    9  C   UNL     1     -14.168  15.964  71.770  1.00  0.00     0.101 C  
HETATM   10  C   UNL     1     -10.536  15.179  69.144  1.00  0.00    -0.252 C  
HETATM   11  H   UNL     1     -11.597  13.442  72.753  1.00  0.00     0.000 HD 
HETATM   12  C   UNL     1     -12.069  12.848  69.477  1.00  0.00    -0.274 C  
HETATM   13  C   UNL     1      -9.658  16.035  68.204  1.00  0.00    -0.209 C  
HETATM   14  C   UNL     1      -9.327  15.503  66.823  1.00  0.00    -0.267 C  
HETATM   15  C   UNL     1     -11.008  13.744  68.566  1.00  0.00    -0.283 C  
HETATM   16  C   UNL     1      -9.834  14.145  66.412  1.00  0.00    -0.308 C  
HETATM   17  C   UNL     1     -10.656  13.345  67.311  1.00  0.00    -0.256 C  
HETATM   18  C   UNL     1     -11.169  12.035  66.753  1.00  0.00    -0.376 C  
HETATM   19  C   UNL     1     -10.788  11.571  65.349  1.00  0.00    -0.318 C  
HETATM   20  C   UNL     1      -9.917  12.505  64.568  1.00  0.00    -0.169 C  
HETATM   21  O   UNL     1      -9.553  12.235  63.421  1.00  0.00    -0.281 OA 
ENDROOT
BRANCH   4  22
HETATM   22  C   UNL     1     -11.071  15.814  72.513  1.00  0.00     0.387 C  
BRANCH  22  23
HETATM   23  C   UNL     1     -11.949  15.227  73.605  1.00  0.00    -0.406 C  
HETATM   24  H1  UNL     1     -13.267  14.345  75.244  1.00  0.00     0.000 HD 
HETATM   25  N   UNL     1     -12.678  14.739  74.510  1.00  0.00    -0.353 NA 
HETATM   26  H2  UNL     1     -13.077  14.058  73.865  1.00  0.00     0.000 HD 
ENDBRANCH  22  23
ENDBRANCH   4  22
TORSDOF 2
ENDMDL
MODEL      127
REMARK 921   NORMALIZED FREE ENERGY PREDICTED BY IDOCK:    1.15 KCAL/MOL
REMARK 922        TOTAL FREE ENERGY PREDICTED BY IDOCK:    1.02 KCAL/MOL
REMARK 923 INTER-LIGAND FREE ENERGY PREDICTED BY IDOCK:   -2.84 KCAL/MOL
REMARK 924 INTRA-LIGAND FREE ENERGY PREDICTED BY IDOCK:    3.86 KCAL/MOL
REMARK 927      BINDING AFFINITY PREDICTED BY RF-SCORE:    0.00 PKD
ROOT
HETATM    1  C   UNL     1      -7.705   5.506  66.622  1.00  0.00    -0.100 C  
HETATM    2  C   UNL     1      -6.317   5.584  66.920  1.00  0.00    -0.039 C  
HETATM    3  C   UNL     1      -7.292   5.954  67.970  1.00  0.00    -0.080 C  
HETATM    4  C   UNL     1      -9.286   5.543  67.583  1.00  0.00    -0.110 C  
HETATM    5  O   UNL     1     -10.396   5.619  68.521  1.00  0.00    -0.179 OA 
HETATM    6  C   UNL     1      -6.380  11.228  66.318  1.00  0.00    -0.048 C  
HETATM    7  C   UNL     1      -8.368   4.840  68.317  1.00  0.00    -0.091 C  
HETATM    8  C   UNL     1      -8.551   6.125  69.688  1.00  0.00    -0.128 C  
HETATM    9  C   UNL     1      -8.200   3.386  68.639  1.00  0.00    -0.082 C  
HETATM   10  C   UNL     1      -8.219   7.295  66.309  1.00  0.00    -0.123 C  
HETATM   11  H   UNL     1     -11.310   5.431  68.343  1.00  0.00     0.000 HD 
HETATM   12  C   UNL     1      -8.928   7.712  68.996  1.00  0.00    -0.137 C  
HETATM   13  C   UNL     1      -7.482   7.829  65.060  1.00  0.00    -0.089 C  
HETATM   14  C   UNL     1      -6.851   9.207  65.114  1.00  0.00    -0.077 C  
HETATM   15  C   UNL     1      -8.275   8.291  67.583  1.00  0.00    -0.127 C  
HETATM   16  C   UNL     1      -6.980  10.031  66.368  1.00  0.00    -0.101 C  
HETATM   17  C   UNL     1      -7.682   9.518  67.538  1.00  0.00    -0.095 C  
HETATM   18  C   UNL     1      -7.676  10.409  68.761  1.00  0.00    -0.104 C  
HETATM   19  C   UNL     1      -7.015  11.785  68.733  1.00  0.00    -0.103 C  
HETATM   20  C   UNL     1      -6.358  12.166  67.443  1.00  0.00    -0.144 C  
HETATM   21  O   UNL     1      -5.789  13.252  67.309  1.00  0.00    -0.349 OA 
ENDROOT
BRANCH   4  22
HETATM   22  C   UNL     1     -10.204   4.451  66.399  1.00  0.00    -0.184 C  
BRANCH  22  23
HETATM   23  C   UNL     1      -9.506   4.982  65.158  1.00  0.00    -0.002 C  
HETATM   24  H1  UNL     1      -8.458   5.780  63.296  1.00  0.00     0.000 HD 
HETATM   25  N   UNL     1      -8.927   5.424  64.129  1.00  0.00    -0.349 NA 
HETATM   26  H2  UNL     1      -8.842   6.354  64.539  1.00  0.00     0.000 HD 
ENDBRANCH  22  23
ENDBRANCH   4  22
TORSDOF 2
ENDMDL
MODEL      128
REMARK 921   NORMALIZED FREE ENERGY PREDICTED BY IDOCK:    1.95 KCAL/MOL
REMARK 922        TOTAL FREE ENERGY PREDICTED BY IDOCK:    1.92 KCAL/MOL
REMARK 923 INTER-LIGAND FREE ENERGY PREDICTED BY IDOCK:   -2.98 KCAL/MOL
REMARK 924 INTRA-LIGAND FREE ENERGY PREDICTED BY IDOCK:    4.90 KCAL/MOL
REMARK 927      BINDING AFFINITY PREDICTED BY RF-SCORE:    0.00 PKD
ROOT
HETATM    1  C   UNL     1      -8.528  10.147  65.676  1.00  0.00    -0.159 C  
HETATM    2  C   UNL     1      -8.693  10.875  64.466  1.00  0.00    -0.026 C  
HETATM    3  C   UNL     1      -7.468  11.093  65.266  1.00  0.00     0.478 C  
HETATM    4  C   UNL     1      -7.144   9.801  66.853  1.00  0.00    -0.089 C  
HETATM    5  O   UNL     1      -5.933   9.677  67.651  1.00  0.00    -0.050 OA 
HETATM    6  C   UNL     1     -10.160  15.548  67.335  1.00  0.00    -0.246 C  
HETATM    7  C   UNL     1      -6.627   9.786  65.585  1.00  0.00    -0.087 C  
HETATM    8  C   UNL     1      -5.496  11.214  66.081  1.00  0.00    -0.143 C  
HETATM    9  C   UNL     1      -6.140   8.694  64.682  1.00  0.00    -0.065 C  
HETATM   10  C   UNL     1      -8.954  11.388  67.032  1.00  0.00    -0.166 C  
HETATM   11  H   UNL     1      -5.785   9.084  68.378  1.00  0.00     0.000 HD 
HETATM   12  C   UNL     1      -6.286  12.229  67.299  1.00  0.00    -0.150 C  
HETATM   13  C   UNL     1     -10.440  11.795  66.907  1.00  0.00    -0.256 C  
HETATM   14  C   UNL     1     -10.811  13.262  67.014  1.00  0.00    -0.278 C  
HETATM   15  C   UNL     1      -7.907  12.592  67.300  1.00  0.00    -0.155 C  
HETATM   16  C   UNL     1      -9.731  14.281  67.267  1.00  0.00    -0.234 C  
HETATM   17  C   UNL     1      -8.334  13.884  67.388  1.00  0.00    -0.208 C  
HETATM   18  C   UNL     1      -7.336  15.008  67.563  1.00  0.00    -0.228 C  
HETATM   19  C   UNL     1      -7.793  16.462  67.660  1.00  0.00    -0.160 C  
HETATM   20  C   UNL     1      -9.267  16.691  67.539  1.00  0.00    -0.207 C  
HETATM   21  O   UNL     1      -9.747  17.826  67.597  1.00  0.00    -0.271 OA 
ENDROOT
BRANCH   4  22
HETATM   22  C   UNL     1      -7.788   8.136  67.354  1.00  0.00    -0.106 C  
BRANCH  22  23
HETATM   23  C   UNL     1      -7.626   7.511  65.978  1.00  0.00    -0.088 C  
HETATM   24  H1  UNL     1      -7.383   6.571  63.915  1.00  0.00     0.000 HD 
HETATM   25  N   UNL     1      -7.492   6.990  64.838  1.00  0.00    -0.088 NA 
HETATM   26  H2  UNL     1      -7.315   6.072  65.244  1.00  0.00     0.000 HD 
ENDBRANCH  22  23
ENDBRANCH   4  22
TORSDOF 2
ENDMDL
MODEL      129
REMARK 921   NORMALIZED FREE ENERGY PREDICTED BY IDOCK:    2.44 KCAL/MOL
REMARK 922        TOTAL FREE ENERGY PREDICTED BY IDOCK:    2.46 KCAL/MOL
REMARK 923 INTER-LIGAND FREE ENERGY PREDICTED BY IDOCK:    2.37 KCAL/MOL
REMARK 924 INTRA-LIGAND FREE ENERGY PREDICTED BY IDOCK:    0.09 KCAL/MOL
REMARK 927      BINDING AFFINITY PREDICTED BY RF-SCORE:    0.00 PKD
ROOT
HETATM    1  C   UNL     1      -6.713  17.018  67.874  1.00  0.00    -0.158 C  
HETATM    2  C   UNL     1      -7.032  16.724  66.520  1.00  0.00    -0.224 C  
HETATM    3  C   UNL     1      -8.128  16.785  67.513  1.00  0.00    -0.188 C  
HETATM    4  C   UNL     1      -7.646  17.502  69.396  1.00  0.00     0.179 C  
HETATM    5  O   UNL     1      -8.570  17.849  70.466  1.00  0.00     3.334 OA 
HETATM    6  C   UNL     1      -7.629  11.211  67.731  1.00  0.00    -0.100 C  
HETATM    7  C   UNL     1      -8.224  18.141  68.331  1.00  0.00    -0.314 C  
HETATM    8  C   UNL     1      -9.833  17.233  68.721  1.00  0.00    -0.306 C  
HETATM    9  C   UNL     1      -8.235  19.565  67.865  1.00  0.00    -0.345 C  
HETATM   10  C   UNL     1      -6.779  15.345  68.745  1.00  0.00    -0.108 C  
HETATM   11  H   UNL     1      -8.349  18.178  71.330  1.00  0.00     0.000 HD 
HETATM   12  C   UNL     1      -9.487  15.647  69.431  1.00  0.00    -0.279 C  
HETATM   13  C   UNL     1      -5.676  14.426  68.173  1.00  0.00    -0.130 C  
HETATM   14  C   UNL     1      -6.024  12.990  67.829  1.00  0.00    -0.145 C  
HETATM   15  C   UNL     1      -8.232  14.667  68.956  1.00  0.00    -0.110 C  
HETATM   16  C   UNL     1      -7.422  12.488  68.078  1.00  0.00    -0.117 C  
HETATM   17  C   UNL     1      -8.452  13.364  68.622  1.00  0.00     0.001 C  
HETATM   18  C   UNL     1      -9.834  12.764  68.752  1.00  0.00     0.020 C  
HETATM   19  C   UNL     1     -10.102  11.307  68.381  1.00  0.00    -0.202 C  
HETATM   20  C   UNL     1      -8.926  10.542  67.858  1.00  0.00    -0.137 C  
HETATM   21  O   UNL     1      -9.029   9.359  67.522  1.00  0.00    -0.122 OA 
ENDROOT
BRANCH   4  22
HETATM   22  C   UNL     1      -6.252  18.488  70.117  1.00  0.00    -0.023 C  
BRANCH  22  23
HETATM   23  C   UNL     1      -7.146  19.547  70.743  1.00  0.00     0.892 C  
HETATM   24  H1  UNL     1      -8.487  21.135  71.679  1.00  0.00     0.000 HD 
HETATM   25  N   UNL     1      -7.887  20.425  71.259  1.00  0.00     0.948 NA 
HETATM   26  H2  UNL     1      -8.264  20.687  70.349  1.00  0.00     0.000 HD 
ENDBRANCH  22  23
ENDBRANCH   4  22
TORSDOF 2
ENDMDL
MODEL      130
REMARK 921   NORMALIZED FREE ENERGY PREDICTED BY IDOCK:    2.68 KCAL/MOL
REMARK 922        TOTAL FREE ENERGY PREDICTED BY IDOCK:    2.73 KCAL/MOL
REMARK 923 INTER-LIGAND FREE ENERGY PREDICTED BY IDOCK:    2.77 KCAL/MOL
REMARK 924 INTRA-LIGAND FREE ENERGY PREDICTED BY IDOCK:   -0.04 KCAL/MOL
REMARK 927      BINDING AFFINITY PREDICTED BY RF-SCORE:    0.00 PKD
ROOT
HETATM    1  C   UNL     1      -8.632  12.783  69.110  1.00  0.00     0.681 C  
HETATM    2  C   UNL     1      -9.829  13.274  69.701  1.00  0.00     1.320 C  
HETATM    3  C   UNL     1      -9.884  12.017  68.922  1.00  0.00     0.039 C  
HETATM    4  C   UNL     1      -8.071  11.199  68.337  1.00  0.00    -0.141 C  
HETATM    5  O   UNL     1      -7.849   9.885  67.752  1.00  0.00    -0.094 OA 
HETATM    6  C   UNL     1     -11.637  15.246  64.694  1.00  0.00    -0.333 C  
HETATM    7  C   UNL     1      -8.880  10.883  69.397  1.00  0.00     0.111 C  
HETATM    8  C   UNL     1     -10.043  10.015  68.189  1.00  0.00    -0.186 C  
HETATM    9  C   UNL     1      -8.620  10.317  70.759  1.00  0.00     1.467 C  
HETATM   10  C   UNL     1      -8.782  13.255  67.289  1.00  0.00    -0.214 C  
HETATM   11  H   UNL     1      -7.018   9.510  67.484  1.00  0.00     0.000 HD 
HETATM   12  C   UNL     1      -9.992  10.812  66.607  1.00  0.00    -0.251 C  
HETATM   13  C   UNL     1      -8.795  14.794  67.157  1.00  0.00    -0.234 C  
HETATM   14  C   UNL     1      -9.815  15.444  66.242  1.00  0.00    -0.320 C  
HETATM   15  C   UNL     1      -9.867  12.455  66.394  1.00  0.00    -0.249 C  
HETATM   16  C   UNL     1     -10.770  14.576  65.465  1.00  0.00    -0.350 C  
HETATM   17  C   UNL     1     -10.744  13.124  65.594  1.00  0.00    -0.294 C  
HETATM   18  C   UNL     1     -11.804  12.369  64.822  1.00  0.00    -0.442 C  
HETATM   19  C   UNL     1     -12.798  13.100  63.922  1.00  0.00     0.051 C  
HETATM   20  C   UNL     1     -12.670  14.591  63.888  1.00  0.00     0.487 C  
HETATM   21  O   UNL     1     -13.424  15.284  63.199  1.00  0.00     1.851 OA 
ENDROOT
BRANCH   4  22
HETATM   22  C   UNL     1      -6.303  11.400  68.855  1.00  0.00    -0.057 C  
BRANCH  22  23
HETATM   23  C   UNL     1      -5.831  10.098  68.230  1.00  0.00    -0.041 C  
HETATM   24  H1  UNL     1      -5.125   8.144  67.291  1.00  0.00     0.000 HD 
HETATM   25  N   UNL     1      -5.441   9.018  67.710  1.00  0.00    -0.035 NA 
HETATM   26  H2  UNL     1      -6.075   9.133  66.920  1.00  0.00     0.000 HD 
ENDBRANCH  22  23
ENDBRANCH   4  22
TORSDOF 2
ENDMDL
MODEL      131
REMARK 921   NORMALIZED FREE ENERGY PREDICTED BY IDOCK:    4.03 KCAL/MOL
REMARK 922        TOTAL FREE ENERGY PREDICTED BY IDOCK:    4.24 KCAL/MOL
REMARK 923 INTER-LIGAND FREE ENERGY PREDICTED BY IDOCK:    0.33 KCAL/MOL
REMARK 924 INTRA-LIGAND FREE ENERGY PREDICTED BY IDOCK:    3.92 KCAL/MOL
REMARK 927      BINDING AFFINITY PREDICTED BY RF-SCORE:    0.00 PKD
ROOT
HETATM    1  C   UNL     1     -12.169  11.747  69.330  1.00  0.00    -0.219 C  
HETATM    2  C   UNL     1     -12.438  11.376  67.984  1.00  0.00     1.172 C  
HETATM    3  C   UNL     1     -11.838  10.374  68.892  1.00  0.00    -0.046 C  
HETATM    4  C   UNL     1     -11.742  10.869  70.901  1.00  0.00    -0.164 C  
HETATM    5  O   UNL     1     -11.394   9.989  72.007  1.00  0.00     0.289 OA 
HETATM    6  C   UNL     1      -6.954  11.902  66.616  1.00  0.00     0.084 C  
HETATM    7  C   UNL     1     -12.651  10.098  70.227  1.00  0.00    -0.139 C  
HETATM    8  C   UNL     1     -11.361   8.721  70.161  1.00  0.00    -0.099 C  
HETATM    9  C   UNL     1     -14.101   9.788  70.441  1.00  0.00     1.056 C  
HETATM   10  C   UNL     1     -10.309  12.061  69.367  1.00  0.00     0.300 C  
HETATM   11  H   UNL     1     -11.350  10.217  72.929  1.00  0.00     0.000 HD 
HETATM   12  C   UNL     1      -9.730   9.409  70.095  1.00  0.00    -0.274 C  
HETATM   13  C   UNL     1      -9.973  13.262  68.455  1.00  0.00    -0.226 C  
HETATM   14  C   UNL     1      -8.795  13.157  67.506  1.00  0.00    -0.199 C  
HETATM   15  C   UNL     1      -9.330  10.779  69.244  1.00  0.00    -0.087 C  
HETATM   16  C   UNL     1      -7.965  11.900  67.495  1.00  0.00    -0.155 C  
HETATM   17  C   UNL     1      -8.288  10.775  68.364  1.00  0.00    -0.132 C  
HETATM   18  C   UNL     1      -7.428   9.541  68.203  1.00  0.00    -0.079 C  
HETATM   19  C   UNL     1      -6.258   9.516  67.222  1.00  0.00    -0.064 C  
HETATM   20  C   UNL     1      -6.052  10.765  66.423  1.00  0.00    -0.118 C  
HETATM   21  O   UNL     1      -5.140  10.854  65.596  1.00  0.00    -0.110 OA 
ENDROOT
BRANCH   4  22
HETATM   22  C   UNL     1     -12.572  12.114  71.996  1.00  0.00     0.085 C  
BRANCH  22  23
HETATM   23  C   UNL     1     -12.304  13.297  71.081  1.00  0.00    -0.232 C  
HETATM   24  H1  UNL     1     -11.904  15.073  69.707  1.00  0.00     0.000 HD 
HETATM   25  N   UNL     1     -12.084  14.279  70.322  1.00  0.00    -0.314 NA 
HETATM   26  H2  UNL     1     -12.907  14.771  70.668  1.00  0.00     0.000 HD 
ENDBRANCH  22  23
ENDBRANCH   4  22
TORSDOF 2
ENDMDL
MODEL      132
REMARK 921   NORMALIZED FREE ENERGY PREDICTED BY IDOCK:    6.26 KCAL/MOL
REMARK 922        TOTAL FREE ENERGY PREDICTED BY IDOCK:    6.73 KCAL/MOL
REMARK 923 INTER-LIGAND FREE ENERGY PREDICTED BY IDOCK:    2.83 KCAL/MOL
REMARK 924 INTRA-LIGAND FREE ENERGY PREDICTED BY IDOCK:    3.90 KCAL/MOL
REMARK 927      BINDING AFFINITY PREDICTED BY RF-SCORE:    0.00 PKD
ROOT
HETATM    1  C   UNL     1     -12.505  13.612  69.589  1.00  0.00    -0.145 C  
HETATM    2  C   UNL     1     -13.069  14.143  68.396  1.00  0.00     2.444 C  
HETATM    3  C   UNL     1     -11.839  13.325  68.299  1.00  0.00    -0.389 C  
HETATM    4  C   UNL     1     -11.233  12.339  70.018  1.00  0.00     0.248 C  
HETATM    5  O   UNL     1     -10.193  11.327  70.129  1.00  0.00     0.062 OA 
HETATM    6  C   UNL     1      -9.131  18.228  68.210  1.00  0.00    -0.318 C  
HETATM    7  C   UNL     1     -11.938  11.876  68.939  1.00  0.00    -0.313 C  
HETATM    8  C   UNL     1     -10.326  11.855  67.955  1.00  0.00    -0.209 C  
HETATM    9  C   UNL     1     -12.964  10.799  68.762  1.00  0.00     2.401 C  
HETATM   10  C   UNL     1     -11.043  14.745  69.962  1.00  0.00    -0.240 C  
HETATM   11  H   UNL     1      -9.915  10.875  70.917  1.00  0.00     0.000 HD 
HETATM   12  C   UNL     1      -9.243  13.137  68.522  1.00  0.00    -0.066 C  
HETATM   13  C   UNL     1     -11.563  16.170  70.261  1.00  0.00    -0.271 C  
HETATM   14  C   UNL     1     -10.865  17.354  69.620  1.00  0.00     0.460 C  
HETATM   15  C   UNL     1      -9.753  14.648  68.991  1.00  0.00    -0.161 C  
HETATM   16  C   UNL     1      -9.670  17.119  68.735  1.00  0.00    -0.277 C  
HETATM   17  C   UNL     1      -9.186  15.770  68.464  1.00  0.00    -0.198 C  
HETATM   18  C   UNL     1      -8.028  15.661  67.497  1.00  0.00    -0.184 C  
HETATM   19  C   UNL     1      -7.382  16.906  66.894  1.00  0.00    -0.251 C  
HETATM   20  C   UNL     1      -7.988  18.214  67.296  1.00  0.00    -0.220 C  
HETATM   21  O   UNL     1      -7.549  19.283  66.864  1.00  0.00    -0.231 OA 
ENDROOT
BRANCH   4  22
HETATM   22  C   UNL     1     -12.034  11.864  71.621  1.00  0.00     1.064 C  
BRANCH  22  23
HETATM   23  C   UNL     1     -12.580  13.252  71.914  1.00  0.00    -0.040 C  
HETATM   24  H1  UNL     1     -13.400  15.333  72.353  1.00  0.00     0.000 HD 
HETATM   25  N   UNL     1     -13.034  14.402  72.156  1.00  0.00    -0.335 NA 
HETATM   26  H2  UNL     1     -13.857  14.233  71.578  1.00  0.00     0.000 HD 
ENDBRANCH  22  23
ENDBRANCH   4  22
TORSDOF 2
ENDMDL
MODEL      133
REMARK 921   NORMALIZED FREE ENERGY PREDICTED BY IDOCK:   11.42 KCAL/MOL
REMARK 922        TOTAL FREE ENERGY PREDICTED BY IDOCK:   12.50 KCAL/MOL
REMARK 923 INTER-LIGAND FREE ENERGY PREDICTED BY IDOCK:   10.76 KCAL/MOL
REMARK 924 INTRA-LIGAND FREE ENERGY PREDICTED BY IDOCK:    1.73 KCAL/MOL
REMARK 927      BINDING AFFINITY PREDICTED BY RF-SCORE:    0.00 PKD
ROOT
HETATM    1  C   UNL     1      -6.711  12.472  68.090  1.00  0.00    -0.078 C  
HETATM    2  C   UNL     1      -6.090  13.635  67.558  1.00  0.00    -0.024 C  
HETATM    3  C   UNL     1      -7.168  13.799  68.557  1.00  0.00    -0.108 C  
HETATM    4  C   UNL     1      -7.830  12.083  69.511  1.00  0.00     0.778 C  
HETATM    5  O   UNL     1      -8.718  12.005  70.661  1.00  0.00     4.268 OA 
HETATM    6  C   UNL     1     -10.522  14.586  64.141  1.00  0.00     0.900 C  
HETATM    7  C   UNL     1      -6.940  13.036  69.930  1.00  0.00     0.502 C  
HETATM    8  C   UNL     1      -8.401  14.186  70.260  1.00  0.00     1.992 C  
HETATM    9  C   UNL     1      -5.755  13.010  70.848  1.00  0.00    -0.128 C  
HETATM   10  C   UNL     1      -8.355  12.356  67.171  1.00  0.00    -0.181 C  
HETATM   11  H   UNL     1      -9.021  11.217  71.099  1.00  0.00     0.000 HD 
HETATM   12  C   UNL     1      -9.717  13.849  69.124  1.00  0.00     0.206 C  
HETATM   13  C   UNL     1      -8.086  12.120  65.668  1.00  0.00     1.210 C  
HETATM   14  C   UNL     1      -8.864  12.927  64.647  1.00  0.00     2.172 C  
HETATM   15  C   UNL     1      -9.491  13.452  67.527  1.00  0.00    -0.219 C  
HETATM   16  C   UNL     1      -9.897  13.917  65.119  1.00  0.00    -0.135 C  
HETATM   17  C   UNL     1     -10.145  14.128  66.540  1.00  0.00    -0.283 C  
HETATM   18  C   UNL     1     -11.150  15.204  66.887  1.00  0.00    -0.314 C  
HETATM   19  C   UNL     1     -11.891  15.975  65.797  1.00  0.00     0.945 C  
HETATM   20  C   UNL     1     -11.532  15.617  64.388  1.00  0.00    -0.262 C  
HETATM   21  O   UNL     1     -12.065  16.180  63.428  1.00  0.00    -0.120 OA 
ENDROOT
BRANCH   4  22
HETATM   22  C   UNL     1      -7.168  10.368  69.755  1.00  0.00    -0.155 C  
BRANCH  22  23
HETATM   23  C   UNL     1      -7.746   9.817  68.462  1.00  0.00    -0.081 C  
HETATM   24  H1  UNL     1      -8.613   8.989  66.522  1.00  0.00     0.000 HD 
HETATM   25  N   UNL     1      -8.225   9.359  67.390  1.00  0.00    -0.120 NA 
HETATM   26  H2  UNL     1      -7.471   8.677  67.308  1.00  0.00     0.000 HD 
ENDBRANCH  22  23
ENDBRANCH   4  22
TORSDOF 2
ENDMDL
MODEL      134
REMARK 921   NORMALIZED FREE ENERGY PREDICTED BY IDOCK:   11.54 KCAL/MOL
REMARK 922        TOTAL FREE ENERGY PREDICTED BY IDOCK:   12.63 KCAL/MOL
REMARK 923 INTER-LIGAND FREE ENERGY PREDICTED BY IDOCK:   12.11 KCAL/MOL
REMARK 924 INTRA-LIGAND FREE ENERGY PREDICTED BY IDOCK:    0.52 KCAL/MOL
REMARK 927      BINDING AFFINITY PREDICTED BY RF-SCORE:    0.00 PKD
ROOT
HETATM    1  C   UNL     1     -11.859  16.561  69.588  1.00  0.00     0.407 C  
HETATM    2  C   UNL     1     -12.281  16.169  68.288  1.00  0.00     0.728 C  
HETATM    3  C   UNL     1     -11.532  15.197  69.116  1.00  0.00    -0.322 C  
HETATM    4  C   UNL     1     -11.201  15.713  71.095  1.00  0.00    -0.355 C  
HETATM    5  O   UNL     1     -10.681  14.856  72.150  1.00  0.00    -0.043 OA 
HETATM    6  C   UNL     1      -7.040  16.895  66.232  1.00  0.00    -0.170 C  
HETATM    7  C   UNL     1     -12.157  14.902  70.544  1.00  0.00    -0.378 C  
HETATM    8  C   UNL     1     -10.833  13.575  70.319  1.00  0.00     0.955 C  
HETATM    9  C   UNL     1     -13.555  14.538  70.943  1.00  0.00    -0.196 C  
HETATM   10  C   UNL     1     -10.022  16.946  69.388  1.00  0.00    -0.113 C  
HETATM   11  H   UNL     1     -10.529  15.093  73.058  1.00  0.00     0.000 HD 
HETATM   12  C   UNL     1      -9.252  14.325  70.044  1.00  0.00     1.361 C  
HETATM   13  C   UNL     1      -9.853  18.152  68.436  1.00  0.00    -0.380 C  
HETATM   14  C   UNL     1      -8.801  18.084  67.346  1.00  0.00    -0.245 C  
HETATM   15  C   UNL     1      -9.018  15.702  69.145  1.00  0.00    -0.257 C  
HETATM   16  C   UNL     1      -7.930  16.861  67.233  1.00  0.00    -0.198 C  
HETATM   17  C   UNL     1      -8.097  15.732  68.140  1.00  0.00    -0.140 C  
HETATM   18  C   UNL     1      -7.216  14.530  67.875  1.00  0.00    -0.169 C  
HETATM   19  C   UNL     1      -6.180  14.542  66.753  1.00  0.00     1.994 C  
HETATM   20  C   UNL     1      -6.126  15.791  65.930  1.00  0.00     4.376 C  
HETATM   21  O   UNL     1      -5.331  15.909  64.994  1.00  0.00     5.934 OA 
ENDROOT
BRANCH   4  22
HETATM   22  C   UNL     1     -11.934  16.934  72.283  1.00  0.00     0.410 C  
BRANCH  22  23
HETATM   23  C   UNL     1     -12.465  15.883  73.244  1.00  0.00    -0.523 C  
HETATM   24  H1  UNL     1     -13.262  14.308  74.687  1.00  0.00     0.000 HD 
HETATM   25  N   UNL     1     -12.906  15.013  74.042  1.00  0.00    -0.564 NA 
HETATM   26  H2  UNL     1     -13.523  15.691  74.488  1.00  0.00     0.000 HD 
ENDBRANCH  22  23
ENDBRANCH   4  22
TORSDOF 2
ENDMDL
MODEL      135
REMARK 921   NORMALIZED FREE ENERGY PREDICTED BY IDOCK:   12.92 KCAL/MOL
REMARK 922        TOTAL FREE ENERGY PREDICTED BY IDOCK:   14.17 KCAL/MOL
REMARK 923 INTER-LIGAND FREE ENERGY PREDICTED BY IDOCK:    9.56 KCAL/MOL
REMARK 924 INTRA-LIGAND FREE ENERGY PREDICTED BY IDOCK:    4.60 KCAL/MOL
REMARK 927      BINDING AFFINITY PREDICTED BY RF-SCORE:    0.00 PKD
ROOT
HETATM    1  C   UNL     1     -10.134  14.181  65.512  1.00  0.00    -0.360 C  
HETATM    2  C   UNL     1      -9.861  14.348  64.126  1.00  0.00     2.221 C  
HETATM    3  C   UNL     1      -8.747  13.992  65.033  1.00  0.00     3.396 C  
HETATM    4  C   UNL     1      -9.249  13.476  66.976  1.00  0.00    -0.246 C  
HETATM    5  O   UNL     1      -8.374  12.897  67.984  1.00  0.00    -0.150 OA 
HETATM    6  C   UNL     1      -7.620  19.479  65.061  1.00  0.00     0.826 C  
HETATM    7  C   UNL     1      -8.970  12.680  65.896  1.00  0.00     0.296 C  
HETATM    8  C   UNL     1      -7.142  13.095  66.123  1.00  0.00     3.199 C  
HETATM    9  C   UNL     1      -9.404  11.304  65.489  1.00  0.00    -0.243 C  
HETATM   10  C   UNL     1      -9.521  15.779  66.306  1.00  0.00    -0.349 C  
HETATM   11  H   UNL     1      -8.605  12.660  68.875  1.00  0.00     0.000 HD 
HETATM   12  C   UNL     1      -6.961  14.726  66.792  1.00  0.00     1.138 C  
HETATM   13  C   UNL     1     -10.361  16.966  65.784  1.00  0.00    -0.298 C  
HETATM   14  C   UNL     1      -9.651  18.236  65.355  1.00  0.00     1.184 C  
HETATM   15  C   UNL     1      -7.922  16.016  66.376  1.00  0.00    -0.197 C  
HETATM   16  C   UNL     1      -8.152  18.321  65.475  1.00  0.00     0.716 C  
HETATM   17  C   UNL     1      -7.370  17.196  65.974  1.00  0.00    -0.170 C  
HETATM   18  C   UNL     1      -5.868  17.376  65.971  1.00  0.00    -0.089 C  
HETATM   19  C   UNL     1      -5.231  18.689  65.522  1.00  0.00    -0.194 C  
HETATM   20  C   UNL     1      -6.181  19.750  65.060  1.00  0.00    -0.267 C  
HETATM   21  O   UNL     1      -5.776  20.848  64.670  1.00  0.00    -0.222 OA 
ENDROOT
BRANCH   4  22
HETATM   22  C   UNL     1     -10.799  12.943  67.842  1.00  0.00    -0.246 C  
BRANCH  22  23
HETATM   23  C   UNL     1     -10.834  11.559  67.215  1.00  0.00    -0.256 C  
HETATM   24  H1  UNL     1     -10.887   9.482  66.275  1.00  0.00     0.000 HD 
HETATM   25  N   UNL     1     -10.863  10.411  66.696  1.00  0.00    -0.130 NA 
HETATM   26  H2  UNL     1     -10.597   9.972  67.578  1.00  0.00     0.000 HD 
ENDBRANCH  22  23
ENDBRANCH   4  22
TORSDOF 2
ENDMDL
MODEL      136
REMARK 921   NORMALIZED FREE ENERGY PREDICTED BY IDOCK:   13.46 KCAL/MOL
REMARK 922        TOTAL FREE ENERGY PREDICTED BY IDOCK:   14.77 KCAL/MOL
REMARK 923 INTER-LIGAND FREE ENERGY PREDICTED BY IDOCK:   10.49 KCAL/MOL
REMARK 924 INTRA-LIGAND FREE ENERGY PREDICTED BY IDOCK:    4.28 KCAL/MOL
REMARK 927      BINDING AFFINITY PREDICTED BY RF-SCORE:    0.00 PKD
ROOT
HETATM    1  C   UNL     1     -10.085  11.856  70.772  1.00  0.00     5.215 C  
HETATM    2  C   UNL     1      -8.737  12.102  70.392  1.00  0.00     5.387 C  
HETATM    3  C   UNL     1      -9.727  11.787  69.338  1.00  0.00     0.611 C  
HETATM    4  C   UNL     1     -11.718  11.730  69.912  1.00  0.00    -0.323 C  
HETATM    5  O   UNL     1     -12.880  11.650  69.040  1.00  0.00     0.272 OA 
HETATM    6  C   UNL     1      -7.788   6.546  69.715  1.00  0.00    -0.115 C  
HETATM    7  C   UNL     1     -11.004  12.730  69.307  1.00  0.00    -0.126 C  
HETATM    8  C   UNL     1     -11.092  11.752  67.694  1.00  0.00    -0.312 C  
HETATM    9  C   UNL     1     -11.114  14.225  69.310  1.00  0.00    -0.297 C  
HETATM   10  C   UNL     1     -10.257   9.978  70.702  1.00  0.00    -0.080 C  
HETATM   11  H   UNL     1     -13.793  11.623  69.303  1.00  0.00     0.000 HD 
HETATM   12  C   UNL     1     -11.129  10.013  68.031  1.00  0.00    -0.263 C  
HETATM   13  C   UNL     1      -9.329   9.339  71.759  1.00  0.00     0.173 C  
HETATM   14  C   UNL     1      -8.481   8.144  71.364  1.00  0.00    -0.154 C  
HETATM   15  C   UNL     1     -10.261   9.280  69.243  1.00  0.00    -0.211 C  
HETATM   16  C   UNL     1      -8.584   7.594  69.966  1.00  0.00    -0.138 C  
HETATM   17  C   UNL     1      -9.467   8.203  68.980  1.00  0.00    -0.155 C  
HETATM   18  C   UNL     1      -9.423   7.608  67.590  1.00  0.00    -0.165 C  
HETATM   19  C   UNL     1      -8.539   6.404  67.274  1.00  0.00    -0.110 C  
HETATM   20  C   UNL     1      -7.711   5.888  68.409  1.00  0.00    -0.094 C  
HETATM   21  O   UNL     1      -6.956   4.922  68.266  1.00  0.00    -0.055 OA 
ENDROOT
BRANCH   4  22
HETATM   22  C   UNL     1     -12.695  12.359  71.357  1.00  0.00    -0.346 C  
BRANCH  22  23
HETATM   23  C   UNL     1     -11.758  13.517  71.658  1.00  0.00     1.330 C  
HETATM   24  H1  UNL     1     -10.353  15.254  72.110  1.00  0.00     0.000 HD 
HETATM   25  N   UNL     1     -10.981  14.477  71.908  1.00  0.00     0.446 NA 
HETATM   26  H2  UNL     1     -10.410  13.895  72.520  1.00  0.00     0.000 HD 
ENDBRANCH  22  23
ENDBRANCH   4  22
TORSDOF 2
ENDMDL
MODEL      137
REMARK 921   NORMALIZED FREE ENERGY PREDICTED BY IDOCK:   16.47 KCAL/MOL
REMARK 922        TOTAL FREE ENERGY PREDICTED BY IDOCK:   18.13 KCAL/MOL
REMARK 923 INTER-LIGAND FREE ENERGY PREDICTED BY IDOCK:   17.93 KCAL/MOL
REMARK 924 INTRA-LIGAND FREE ENERGY PREDICTED BY IDOCK:    0.21 KCAL/MOL
REMARK 927      BINDING AFFINITY PREDICTED BY RF-SCORE:    0.00 PKD
ROOT
HETATM    1  C   UNL     1     -11.041  16.375  68.965  1.00  0.00    -0.315 C  
HETATM    2  C   UNL     1     -11.670  15.302  68.276  1.00  0.00    -0.320 C  
HETATM    3  C   UNL     1     -11.168  15.069  69.648  1.00  0.00    -0.296 C  
HETATM    4  C   UNL     1     -10.531  16.733  70.707  1.00  0.00     1.120 C  
HETATM    5  O   UNL     1     -10.194  16.797  72.121  1.00  0.00     3.922 OA 
HETATM    6  C   UNL     1      -6.644  12.920  67.141  1.00  0.00     0.109 C  
HETATM    7  C   UNL     1     -11.726  16.065  70.751  1.00  0.00    -0.410 C  
HETATM    8  C   UNL     1     -10.871  14.697  71.732  1.00  0.00     1.175 C  
HETATM    9  C   UNL     1     -13.130  16.482  71.070  1.00  0.00     2.778 C  
HETATM   10  C   UNL     1      -9.196  15.997  68.834  1.00  0.00    -0.233 C  
HETATM   11  H   UNL     1      -9.902  17.560  72.606  1.00  0.00     0.000 HD 
HETATM   12  C   UNL     1      -9.170  14.570  71.254  1.00  0.00     4.175 C  
HETATM   13  C   UNL     1      -8.766  16.051  67.351  1.00  0.00    -0.195 C  
HETATM   14  C   UNL     1      -7.878  14.950  66.804  1.00  0.00     0.153 C  
HETATM   15  C   UNL     1      -8.623  14.754  69.697  1.00  0.00     0.192 C  
HETATM   16  C   UNL     1      -7.415  13.849  67.722  1.00  0.00    -0.174 C  
HETATM   17  C   UNL     1      -7.824  13.812  69.120  1.00  0.00     0.195 C  
HETATM   18  C   UNL     1      -7.358  12.614  69.918  1.00  0.00     1.089 C  
HETATM   19  C   UNL     1      -6.465  11.546  69.291  1.00  0.00    -0.103 C  
HETATM   20  C   UNL     1      -6.121  11.750  67.848  1.00  0.00    -0.050 C  
HETATM   21  O   UNL     1      -5.410  10.946  67.239  1.00  0.00    -0.040 OA 
ENDROOT
BRANCH   4  22
HETATM   22  C   UNL     1     -10.770  18.565  70.557  1.00  0.00     2.326 C  
BRANCH  22  23
HETATM   23  C   UNL     1      -9.303  18.872  70.307  1.00  0.00     1.751 C  
HETATM   24  H1  UNL     1      -7.101  19.331  69.931  1.00  0.00     0.000 HD 
HETATM   25  N   UNL     1      -8.086  19.126  70.098  1.00  0.00     1.078 NA 
HETATM   26  H2  UNL     1      -8.226  19.121  69.088  1.00  0.00     0.000 HD 
ENDBRANCH  22  23
ENDBRANCH   4  22
TORSDOF 2
ENDMDL
MODEL      138
REMARK 921   NORMALIZED FREE ENERGY PREDICTED BY IDOCK:   17.82 KCAL/MOL
REMARK 922        TOTAL FREE ENERGY PREDICTED BY IDOCK:   19.65 KCAL/MOL
REMARK 923 INTER-LIGAND FREE ENERGY PREDICTED BY IDOCK:   15.65 KCAL/MOL
REMARK 924 INTRA-LIGAND FREE ENERGY PREDICTED BY IDOCK:    4.00 KCAL/MOL
REMARK 927      BINDING AFFINITY PREDICTED BY RF-SCORE:    0.00 PKD
ROOT
HETATM    1  C   UNL     1     -10.483   7.606  68.880  1.00  0.00    -0.211 C  
HETATM    2  C   UNL     1      -9.542   7.119  69.828  1.00  0.00    -0.155 C  
HETATM    3  C   UNL     1      -9.092   8.105  68.820  1.00  0.00    -0.144 C  
HETATM    4  C   UNL     1     -10.561   8.995  67.662  1.00  0.00    -0.231 C  
HETATM    5  O   UNL     1     -10.402  10.127  66.761  1.00  0.00    -0.223 OA 
HETATM    6  C   UNL     1      -7.250   3.658  65.955  1.00  0.00    -0.071 C  
HETATM    7  C   UNL     1      -9.921   9.457  68.781  1.00  0.00    -0.191 C  
HETATM    8  C   UNL     1      -8.401   9.798  67.713  1.00  0.00    -0.114 C  
HETATM    9  C   UNL     1     -10.316  10.394  69.883  1.00  0.00    -0.231 C  
HETATM   10  C   UNL     1     -10.089   6.656  67.298  1.00  0.00    -0.222 C  
HETATM   11  H   UNL     1     -11.076  10.536  66.230  1.00  0.00     0.000 HD 
HETATM   12  C   UNL     1      -8.310   8.630  66.384  1.00  0.00    -0.114 C  
HETATM   13  C   UNL     1     -10.359   5.151  67.523  1.00  0.00    -0.190 C  
HETATM   14  C   UNL     1      -9.334   4.142  67.041  1.00  0.00    -0.195 C  
HETATM   15  C   UNL     1      -8.717   7.025  66.524  1.00  0.00    -0.138 C  
HETATM   16  C   UNL     1      -8.096   4.626  66.332  1.00  0.00    -0.103 C  
HETATM   17  C   UNL     1      -7.856   6.048  66.121  1.00  0.00    -0.104 C  
HETATM   18  C   UNL     1      -6.541   6.411  65.468  1.00  0.00    -0.043 C  
HETATM   19  C   UNL     1      -5.561   5.332  65.012  1.00  0.00    -0.013 C  
HETATM   20  C   UNL     1      -5.974   3.920  65.285  1.00  0.00    -0.023 C  
HETATM   21  O   UNL     1      -5.257   2.968  64.964  1.00  0.00    -0.008 OA 
ENDROOT
BRANCH   4  22
HETATM   22  C   UNL     1     -12.400   9.198  67.786  1.00  0.00     6.122 C  
BRANCH  22  23
HETATM   23  C   UNL     1     -12.661   7.771  68.239  1.00  0.00     7.876 C  
HETATM   24  H1  UNL     1     -13.053   5.631  68.920  1.00  0.00     0.000 HD 
HETATM   25  N   UNL     1     -12.878   6.588  68.616  1.00  0.00     4.374 NA 
HETATM   26  H2  UNL     1     -12.907   6.873  69.595  1.00  0.00     0.000 HD 
ENDBRANCH  22  23
ENDBRANCH   4  22
TORSDOF 2
ENDMDL
MODEL      139
REMARK 921   NORMALIZED FREE ENERGY PREDICTED BY IDOCK:   39.48 KCAL/MOL
REMARK 922        TOTAL FREE ENERGY PREDICTED BY IDOCK:   43.84 KCAL/MOL
REMARK 923 INTER-LIGAND FREE ENERGY PREDICTED BY IDOCK:   39.71 KCAL/MOL
REMARK 924 INTRA-LIGAND FREE ENERGY PREDICTED BY IDOCK:    4.13 KCAL/MOL
REMARK 927      BINDING AFFINITY PREDICTED BY RF-SCORE:    0.00 PKD
ROOT
HETATM    1  C   UNL     1      -9.665  13.009  66.521  1.00  0.00    -0.266 C  
HETATM    2  C   UNL     1     -10.512  12.238  67.365  1.00  0.00    -0.228 C  
HETATM    3  C   UNL     1     -10.665  13.710  67.355  1.00  0.00    -0.272 C  
HETATM    4  C   UNL     1      -9.618  14.751  65.901  1.00  0.00    -0.285 C  
HETATM    5  O   UNL     1      -9.759  16.158  65.556  1.00  0.00    -0.455 OA 
HETATM    6  C   UNL     1      -7.427  13.622  71.925  1.00  0.00     6.340 C  
HETATM    7  C   UNL     1     -10.928  14.353  65.929  1.00  0.00    -0.312 C  
HETATM    8  C   UNL     1     -11.276  15.748  67.153  1.00  0.00    -0.110 C  
HETATM    9  C   UNL     1     -11.921  13.996  64.864  1.00  0.00    -0.416 C  
HETATM   10  C   UNL     1      -8.362  13.719  67.686  1.00  0.00    -0.183 C  
HETATM   11  H   UNL     1      -9.279  16.635  64.889  1.00  0.00     0.000 HD 
HETATM   12  C   UNL     1      -9.847  16.059  68.152  1.00  0.00    -0.222 C  
HETATM   13  C   UNL     1      -7.530  12.565  68.289  1.00  0.00    -0.122 C  
HETATM   14  C   UNL     1      -7.234  12.573  69.776  1.00  0.00     0.674 C  
HETATM   15  C   UNL     1      -8.830  14.873  68.719  1.00  0.00    -0.183 C  
HETATM   16  C   UNL     1      -7.732  13.714  70.623  1.00  0.00     3.134 C  
HETATM   17  C   UNL     1      -8.512  14.799  70.042  1.00  0.00     0.609 C  
HETATM   18  C   UNL     1      -9.021  15.845  71.010  1.00  0.00     3.377 C  
HETATM   19  C   UNL     1      -8.678  15.779  72.497  1.00  0.00    10.406 C  
HETATM   20  C   UNL     1      -7.848  14.608  72.922  1.00  0.00     6.941 C  
HETATM   21  O   UNL     1      -7.517  14.451  74.100  1.00  0.00     3.141 OA 
ENDROOT
BRANCH   4  22
HETATM   22  C   UNL     1      -8.799  14.315  64.296  1.00  0.00     6.376 C  
BRANCH  22  23
HETATM   23  C   UNL     1      -8.856  12.813  64.521  1.00  0.00     2.128 C  
HETATM   24  H1  UNL     1      -8.943  10.559  64.858  1.00  0.00     0.000 HD 
HETATM   25  N   UNL     1      -8.905  11.567  64.707  1.00  0.00    -0.359 NA 
HETATM   26  H2  UNL     1      -9.898  11.541  64.479  1.00  0.00     0.000 HD 
ENDBRANCH  22  23
ENDBRANCH   4  22
TORSDOF 2
ENDMDL
MODEL      140
REMARK 921   NORMALIZED FREE ENERGY PREDICTED BY IDOCK:   48.96 KCAL/MOL
REMARK 922        TOTAL FREE ENERGY PREDICTED BY IDOCK:   54.42 KCAL/MOL
REMARK 923 INTER-LIGAND FREE ENERGY PREDICTED BY IDOCK:   54.50 KCAL/MOL
REMARK 924 INTRA-LIGAND FREE ENERGY PREDICTED BY IDOCK:   -0.08 KCAL/MOL
REMARK 927      BINDING AFFINITY PREDICTED BY RF-SCORE:    0.00 PKD
ROOT
HETATM    1  C   UNL     1     -10.820  11.090  67.605  1.00  0.00    -0.306 C  
HETATM    2  C   UNL     1     -11.131   9.868  68.262  1.00  0.00    -0.207 C  
HETATM    3  C   UNL     1     -11.375  11.141  68.975  1.00  0.00    -0.343 C  
HETATM    4  C   UNL     1     -11.183  12.884  67.871  1.00  0.00    -0.269 C  
HETATM    5  O   UNL     1     -11.566  14.228  68.279  1.00  0.00    -0.288 OA 
HETATM    6  C   UNL     1      -6.411  10.211  71.398  1.00  0.00     0.346 C  
HETATM    7  C   UNL     1     -12.305  12.176  68.212  1.00  0.00     0.482 C  
HETATM    8  C   UNL     1     -12.153  12.871  69.961  1.00  0.00    -0.357 C  
HETATM    9  C   UNL     1     -13.646  11.994  67.568  1.00  0.00     8.939 C  
HETATM   10  C   UNL     1      -9.182  11.630  68.372  1.00  0.00    -0.182 C  
HETATM   11  H   UNL     1     -11.478  15.027  67.772  1.00  0.00     0.000 HD 
HETATM   12  C   UNL     1     -10.451  13.150  70.366  1.00  0.00     2.563 C  
HETATM   13  C   UNL     1      -8.087  10.597  68.022  1.00  0.00    -0.112 C  
HETATM   14  C   UNL     1      -7.146  10.128  69.116  1.00  0.00    -0.073 C  
HETATM   15  C   UNL     1      -9.207  12.150  69.903  1.00  0.00     2.683 C  
HETATM   16  C   UNL     1      -7.282  10.697  70.503  1.00  0.00     0.624 C  
HETATM   17  C   UNL     1      -8.316  11.675  70.819  1.00  0.00     6.160 C  
HETATM   18  C   UNL     1      -8.399  12.112  72.265  1.00  0.00    19.439 C  
HETATM   19  C   UNL     1      -7.412  11.589  73.306  1.00  0.00    14.041 C  
HETATM   20  C   UNL     1      -6.399  10.606  72.808  1.00  0.00     2.720 C  
HETATM   21  O   UNL     1      -5.556  10.115  73.563  1.00  0.00    -0.298 OA 
ENDROOT
BRANCH   4  22
HETATM   22  C   UNL     1     -11.159  13.309  66.067  1.00  0.00    -0.298 C  
BRANCH  22  23
HETATM   23  C   UNL     1      -9.889  14.141  66.142  1.00  0.00    -0.308 C  
HETATM   24  H1  UNL     1      -7.985  15.390  66.255  1.00  0.00     0.000 HD 
HETATM   25  N   UNL     1      -8.836  14.831  66.204  1.00  0.00    -0.454 NA 
HETATM   26  H2  UNL     1      -8.610  14.628  65.231  1.00  0.00     0.000 HD 
ENDBRANCH  22  23
ENDBRANCH   4  22
TORSDOF 2
ENDMDL
MODEL      141
REMARK 921   NORMALIZED FREE ENERGY PREDICTED BY IDOCK:   51.42 KCAL/MOL
REMARK 922        TOTAL FREE ENERGY PREDICTED BY IDOCK:   57.17 KCAL/MOL
REMARK 923 INTER-LIGAND FREE ENERGY PREDICTED BY IDOCK:   56.92 KCAL/MOL
REMARK 924 INTRA-LIGAND FREE ENERGY PREDICTED BY IDOCK:    0.26 KCAL/MOL
REMARK 927      BINDING AFFINITY PREDICTED BY RF-SCORE:    0.00 PKD
ROOT
HETATM    1  C   UNL     1      -8.912  15.446  69.384  1.00  0.00    -0.258 C  
HETATM    2  C   UNL     1      -9.868  14.426  69.126  1.00  0.00    -0.040 C  
HETATM    3  C   UNL     1      -9.578  14.790  70.530  1.00  0.00     1.218 C  
HETATM    4  C   UNL     1      -8.407  16.471  70.839  1.00  0.00     4.808 C  
HETATM    5  O   UNL     1      -8.155  17.146  72.103  1.00  0.00    11.611 OA 
HETATM    6  C   UNL     1      -6.110  10.392  70.479  1.00  0.00    -0.116 C  
HETATM    7  C   UNL     1      -9.768  16.326  70.883  1.00  0.00     2.376 C  
HETATM    8  C   UNL     1      -9.573  15.472  72.556  1.00  0.00     6.318 C  
HETATM    9  C   UNL     1     -10.914  17.255  70.620  1.00  0.00     1.046 C  
HETATM   10  C   UNL     1      -7.356  14.511  69.900  1.00  0.00     0.110 C  
HETATM   11  H   UNL     1      -7.618  17.917  72.245  1.00  0.00     0.000 HD 
HETATM   12  C   UNL     1      -8.031  14.602  72.626  1.00  0.00     6.789 C  
HETATM   13  C   UNL     1      -6.852  13.660  68.712  1.00  0.00    -0.107 C  
HETATM   14  C   UNL     1      -6.433  12.225  68.964  1.00  0.00    -0.096 C  
HETATM   15  C   UNL     1      -7.365  13.782  71.344  1.00  0.00     4.006 C  
HETATM   16  C   UNL     1      -6.491  11.672  70.364  1.00  0.00     0.286 C  
HETATM   17  C   UNL     1      -6.964  12.486  71.477  1.00  0.00     5.283 C  
HETATM   18  C   UNL     1      -7.049  11.792  72.818  1.00  0.00    10.161 C  
HETATM   19  C   UNL     1      -6.608  10.340  72.987  1.00  0.00     2.603 C  
HETATM   20  C   UNL     1      -6.127   9.657  71.745  1.00  0.00     0.147 C  
HETATM   21  O   UNL     1      -5.751   8.482  71.764  1.00  0.00    -0.038 OA 
ENDROOT
BRANCH   4  22
HETATM   22  C   UNL     1      -7.903  17.936  69.819  1.00  0.00     1.041 C  
BRANCH  22  23
HETATM   23  C   UNL     1      -6.426  17.580  69.793  1.00  0.00    -0.064 C  
HETATM   24  H1  UNL     1      -4.210  17.044  69.753  1.00  0.00     0.000 HD 
HETATM   25  N   UNL     1      -5.201  17.283  69.770  1.00  0.00    -0.170 NA 
HETATM   26  H2  UNL     1      -5.301  16.812  68.871  1.00  0.00     0.000 HD 
ENDBRANCH  22  23
ENDBRANCH   4  22
TORSDOF 2
ENDMDL
MODEL      142
REMARK 921   NORMALIZED FREE ENERGY PREDICTED BY IDOCK:   52.33 KCAL/MOL
REMARK 922        TOTAL FREE ENERGY PREDICTED BY IDOCK:   58.19 KCAL/MOL
REMARK 923 INTER-LIGAND FREE ENERGY PREDICTED BY IDOCK:   54.07 KCAL/MOL
REMARK 924 INTRA-LIGAND FREE ENERGY PREDICTED BY IDOCK:    4.12 KCAL/MOL
REMARK 927      BINDING AFFINITY PREDICTED BY RF-SCORE:    0.00 PKD
ROOT
HETATM    1  C   UNL     1      -8.810  10.104  69.399  1.00  0.00    -0.197 C  
HETATM    2  C   UNL     1      -9.875   9.275  69.846  1.00  0.00    -0.219 C  
HETATM    3  C   UNL     1     -10.165  10.330  68.851  1.00  0.00    -0.220 C  
HETATM    4  C   UNL     1      -8.538  11.307  68.021  1.00  0.00    -0.140 C  
HETATM    5  O   UNL     1      -8.547  12.223  66.889  1.00  0.00    -0.193 OA 
HETATM    6  C   UNL     1     -11.814  13.387  73.245  1.00  0.00     3.625 C  
HETATM    7  C   UNL     1      -9.289  10.273  67.529  1.00  0.00    -0.164 C  
HETATM    8  C   UNL     1     -10.657  11.515  67.141  1.00  0.00    -0.273 C  
HETATM    9  C   UNL     1      -8.994   9.134  66.601  1.00  0.00    -0.164 C  
HETATM   10  C   UNL     1      -9.047  11.721  70.344  1.00  0.00     4.644 C  
HETATM   11  H   UNL     1      -7.800  12.671  66.509  1.00  0.00     0.000 HD 
HETATM   12  C   UNL     1     -10.632  12.843  68.313  1.00  0.00    -0.259 C  
HETATM   13  C   UNL     1      -8.862  11.463  71.856  1.00  0.00    14.189 C  
HETATM   14  C   UNL     1      -9.858  12.061  72.830  1.00  0.00    22.267 C  
HETATM   15  C   UNL     1     -10.303  12.653  69.930  1.00  0.00     1.476 C  
HETATM   16  C   UNL     1     -10.984  12.914  72.306  1.00  0.00     7.994 C  
HETATM   17  C   UNL     1     -11.145  13.154  70.878  1.00  0.00     2.192 C  
HETATM   18  C   UNL     1     -12.360  13.960  70.472  1.00  0.00    -0.439 C  
HETATM   19  C   UNL     1     -13.317  14.527  71.518  1.00  0.00    -0.435 C  
HETATM   20  C   UNL     1     -12.991  14.204  72.943  1.00  0.00    -0.399 C  
HETATM   21  O   UNL     1     -13.699  14.606  73.869  1.00  0.00     0.941 OA 
ENDROOT
BRANCH   4  22
HETATM   22  C   UNL     1      -6.721  10.965  67.884  1.00  0.00    -0.064 C  
BRANCH  22  23
HETATM   23  C   UNL     1      -6.737   9.776  68.830  1.00  0.00    -0.050 C  
HETATM   24  H1  UNL     1      -6.759   7.992  70.249  1.00  0.00     0.000 HD 
HETATM   25  N   UNL     1      -6.748   8.790  69.614  1.00  0.00    -0.039 NA 
HETATM   26  H2  UNL     1      -5.826   8.490  69.300  1.00  0.00     0.000 HD 
ENDBRANCH  22  23
ENDBRANCH   4  22
TORSDOF 2
ENDMDL
MODEL      143
REMARK 921   NORMALIZED FREE ENERGY PREDICTED BY IDOCK:   59.62 KCAL/MOL
REMARK 922        TOTAL FREE ENERGY PREDICTED BY IDOCK:   66.33 KCAL/MOL
REMARK 923 INTER-LIGAND FREE ENERGY PREDICTED BY IDOCK:   62.12 KCAL/MOL
REMARK 924 INTRA-LIGAND FREE ENERGY PREDICTED BY IDOCK:    4.21 KCAL/MOL
REMARK 927      BINDING AFFINITY PREDICTED BY RF-SCORE:    0.00 PKD
ROOT
HETATM    1  C   UNL     1     -10.345  10.008  72.479  1.00  0.00     4.609 C  
HETATM    2  C   UNL     1     -11.749  10.107  72.686  1.00  0.00     2.628 C  
HETATM    3  C   UNL     1     -11.225  10.194  71.304  1.00  0.00    -0.143 C  
HETATM    4  C   UNL     1      -9.219   9.752  71.035  1.00  0.00     0.504 C  
HETATM    5  O   UNL     1      -8.523   9.566  69.770  1.00  0.00    -0.142 OA 
HETATM    6  C   UNL     1     -11.576  15.740  72.005  1.00  0.00    -0.541 C  
HETATM    7  C   UNL     1     -10.327   8.969  70.844  1.00  0.00    -0.323 C  
HETATM    8  C   UNL     1     -10.673   9.931  69.256  1.00  0.00    -0.247 C  
HETATM    9  C   UNL     1     -10.573   7.493  70.921  1.00  0.00    -0.227 C  
HETATM   10  C   UNL     1      -9.787  11.789  72.199  1.00  0.00    16.092 C  
HETATM   11  H   UNL     1      -7.603   9.363  69.646  1.00  0.00     0.000 HD 
HETATM   12  C   UNL     1     -10.102  11.601  69.413  1.00  0.00     0.299 C  
HETATM   13  C   UNL     1     -10.033  12.612  73.483  1.00  0.00    21.246 C  
HETATM   14  C   UNL     1     -10.667  13.985  73.364  1.00  0.00     5.292 C  
HETATM   15  C   UNL     1     -10.212  12.497  70.807  1.00  0.00     5.496 C  
HETATM   16  C   UNL     1     -11.013  14.525  72.001  1.00  0.00     1.452 C  
HETATM   17  C   UNL     1     -10.770  13.740  70.797  1.00  0.00     2.015 C  
HETATM   18  C   UNL     1     -11.234  14.359  69.496  1.00  0.00    -0.294 C  
HETATM   19  C   UNL     1     -11.865  15.749  69.463  1.00  0.00    -0.359 C  
HETATM   20  C   UNL     1     -12.020  16.426  70.789  1.00  0.00     0.210 C  
HETATM   21  O   UNL     1     -12.522  17.549  70.881  1.00  0.00     4.947 OA 
ENDROOT
BRANCH   4  22
HETATM   22  C   UNL     1      -7.916   8.873  72.018  1.00  0.00     0.064 C  
BRANCH  22  23
HETATM   23  C   UNL     1      -8.896   8.023  72.810  1.00  0.00    -0.214 C  
HETATM   24  H1  UNL     1     -10.368   6.749  73.998  1.00  0.00     0.000 HD 
HETATM   25  N   UNL     1      -9.710   7.320  73.467  1.00  0.00    -0.241 NA 
HETATM   26  H2  UNL     1     -10.070   8.138  73.956  1.00  0.00     0.000 HD 
ENDBRANCH  22  23
ENDBRANCH   4  22
TORSDOF 2
ENDMDL
MODEL      144
REMARK 921   NORMALIZED FREE ENERGY PREDICTED BY IDOCK:   64.25 KCAL/MOL
REMARK 922        TOTAL FREE ENERGY PREDICTED BY IDOCK:   71.50 KCAL/MOL
REMARK 923 INTER-LIGAND FREE ENERGY PREDICTED BY IDOCK:   71.91 KCAL/MOL
REMARK 924 INTRA-LIGAND FREE ENERGY PREDICTED BY IDOCK:   -0.41 KCAL/MOL
REMARK 927      BINDING AFFINITY PREDICTED BY RF-SCORE:    0.00 PKD
ROOT
HETATM    1  C   UNL     1     -11.240  12.837  68.763  1.00  0.00    -0.327 C  
HETATM    2  C   UNL     1     -11.636  12.887  67.398  1.00  0.00    -0.414 C  
HETATM    3  C   UNL     1     -10.552  11.959  67.791  1.00  0.00    -0.233 C  
HETATM    4  C   UNL     1     -10.220  11.715  69.822  1.00  0.00     0.842 C  
HETATM    5  O   UNL     1      -9.368  10.722  70.459  1.00  0.00     0.542 OA 
HETATM    6  C   UNL     1      -7.082  16.002  66.063  1.00  0.00     1.762 C  
HETATM    7  C   UNL     1     -10.925  10.934  68.944  1.00  0.00    -0.278 C  
HETATM    8  C   UNL     1      -9.281  10.306  68.259  1.00  0.00    -0.139 C  
HETATM    9  C   UNL     1     -12.100  10.017  69.094  1.00  0.00     0.452 C  
HETATM   10  C   UNL     1      -9.638  13.834  68.822  1.00  0.00    -0.044 C  
HETATM   11  H   UNL     1      -9.216  10.610  71.390  1.00  0.00     0.000 HD 
HETATM   12  C   UNL     1      -8.041  11.564  68.388  1.00  0.00    -0.149 C  
HETATM   13  C   UNL     1      -9.936  15.305  68.454  1.00  0.00    -0.220 C  
HETATM   14  C   UNL     1      -9.017  16.018  67.481  1.00  0.00    -0.201 C  
HETATM   15  C   UNL     1      -8.324  13.181  68.140  1.00  0.00    -0.161 C  
HETATM   16  C   UNL     1      -7.825  15.289  66.920  1.00  0.00    -0.152 C  
HETATM   17  C   UNL     1      -7.552  13.902  67.279  1.00  0.00    -0.079 C  
HETATM   18  C   UNL     1      -6.371  13.257  66.588  1.00  0.00     1.938 C  
HETATM   19  C   UNL     1      -5.494  14.046  65.618  1.00  0.00     9.574 C  
HETATM   20  C   UNL     1      -5.903  15.466  65.379  1.00  0.00     9.622 C  
HETATM   21  O   UNL     1      -5.270  16.195  64.610  1.00  0.00     5.683 OA 
ENDROOT
BRANCH   4  22
HETATM   22  C   UNL     1     -11.184  12.055  71.369  1.00  0.00     3.440 C  
BRANCH  22  23
HETATM   23  C   UNL     1      -9.967  12.097  72.278  1.00  0.00    17.511 C  
HETATM   24  H1  UNL     1      -8.142  12.161  73.643  1.00  0.00     0.000 HD 
HETATM   25  N   UNL     1      -8.958  12.133  73.033  1.00  0.00    22.944 NA 
HETATM   26  H2  UNL     1      -8.867  13.142  72.913  1.00  0.00     0.000 HD 
ENDBRANCH  22  23
ENDBRANCH   4  22
TORSDOF 2
ENDMDL
MODEL      145
REMARK 921   NORMALIZED FREE ENERGY PREDICTED BY IDOCK:   78.78 KCAL/MOL
REMARK 922        TOTAL FREE ENERGY PREDICTED BY IDOCK:   87.73 KCAL/MOL
REMARK 923 INTER-LIGAND FREE ENERGY PREDICTED BY IDOCK:   85.36 KCAL/MOL
REMARK 924 INTRA-LIGAND FREE ENERGY PREDICTED BY IDOCK:    2.36 KCAL/MOL
REMARK 927      BINDING AFFINITY PREDICTED BY RF-SCORE:    0.00 PKD
ROOT
HETATM    1  C   UNL     1      -7.724  16.505  72.349  1.00  0.00    12.616 C  
HETATM    2  C   UNL     1      -7.007  17.620  72.862  1.00  0.00     8.339 C  
HETATM    3  C   UNL     1      -8.321  17.852  72.222  1.00  0.00    15.198 C  
HETATM    4  C   UNL     1      -9.447  16.174  71.763  1.00  0.00     5.905 C  
HETATM    5  O   UNL     1     -10.835  16.141  71.328  1.00  0.00     0.065 OA 
HETATM    6  C   UNL     1      -5.360  19.115  67.639  1.00  0.00    -0.172 C  
HETATM    7  C   UNL     1      -9.527  17.022  72.836  1.00  0.00    12.859 C  
HETATM    8  C   UNL     1     -10.348  18.294  71.708  1.00  0.00     4.053 C  
HETATM    9  C   UNL     1      -9.971  16.849  74.256  1.00  0.00    11.444 C  
HETATM   10  C   UNL     1      -7.439  16.580  70.485  1.00  0.00     2.412 C  
HETATM   11  H   UNL     1     -11.351  15.371  71.117  1.00  0.00     0.000 HD 
HETATM   12  C   UNL     1      -9.745  18.126  70.050  1.00  0.00     1.233 C  
HETATM   13  C   UNL     1      -5.937  16.372  70.188  1.00  0.00    -0.134 C  
HETATM   14  C   UNL     1      -5.253  17.287  69.189  1.00  0.00    -0.153 C  
HETATM   15  C   UNL     1      -8.170  17.766  69.663  1.00  0.00     0.946 C  
HETATM   16  C   UNL     1      -6.057  18.354  68.493  1.00  0.00    -0.193 C  
HETATM   17  C   UNL     1      -7.475  18.536  68.779  1.00  0.00    -0.309 C  
HETATM   18  C   UNL     1      -8.152  19.692  68.075  1.00  0.00    -0.344 C  
HETATM   19  C   UNL     1      -7.390  20.568  67.083  1.00  0.00    -0.374 C  
HETATM   20  C   UNL     1      -5.945  20.228  66.889  1.00  0.00    -0.175 C  
HETATM   21  O   UNL     1      -5.232  20.873  66.116  1.00  0.00    -0.176 OA 
ENDROOT
BRANCH   4  22
HETATM   22  C   UNL     1      -9.443  14.396  72.289  1.00  0.00     7.121 C  
BRANCH  22  23
HETATM   23  C   UNL     1     -10.507  14.571  73.359  1.00  0.00     4.623 C  
HETATM   24  H1  UNL     1     -12.105  14.834  74.965  1.00  0.00     0.000 HD 
HETATM   25  N   UNL     1     -11.391  14.716  74.246  1.00  0.00     0.580 NA 
HETATM   26  H2  UNL     1     -12.139  14.630  73.559  1.00  0.00     0.000 HD 
ENDBRANCH  22  23
ENDBRANCH   4  22
TORSDOF 2
ENDMDL
