MODEL        1
REMARK 921   NORMALIZED FREE ENERGY PREDICTED BY IDOCK:   -7.54 KCAL/MOL
REMARK 922        TOTAL FREE ENERGY PREDICTED BY IDOCK:   -9.84 KCAL/MOL
REMARK 923 INTER-LIGAND FREE ENERGY PREDICTED BY IDOCK:   -8.86 KCAL/MOL
REMARK 924 INTRA-LIGAND FREE ENERGY PREDICTED BY IDOCK:   -0.98 KCAL/MOL
REMARK 927      BINDING AFFINITY PREDICTED BY RF-SCORE:    0.00 PKD
ROOT
HETATM    1  C   UNL     1     -11.900  12.208  69.473  1.00  0.00    -0.386 C  
HETATM    2  C   UNL     1     -12.227  11.413  70.699  1.00  0.00    -0.484 C  
HETATM    3  C   UNL     1     -11.913  13.556  69.346  1.00  0.00    -0.383 C  
ENDROOT
BRANCH   3   4
HETATM    4  C   UNL     1     -12.290  14.368  70.524  1.00  0.00    -0.413 A  
HETATM    5  O   UNL     1     -13.358  16.311  74.040  1.00  0.00    -0.948 OA 
HETATM    6  H   UNL     1     -14.276  16.438  74.254  1.00  0.00     0.000 HD 
HETATM    7  C   UNL     1     -11.293  14.850  71.386  1.00  0.00    -0.246 A  
HETATM    8  C   UNL     1     -12.978  15.701  72.881  1.00  0.00    -0.497 A  
HETATM    9  C   UNL     1     -13.636  14.595  70.842  1.00  0.00    -0.234 A  
HETATM   10  C   UNL     1     -13.979  15.259  72.023  1.00  0.00    -0.645 A  
HETATM   11  C   UNL     1     -11.636  15.514  72.568  1.00  0.00    -0.531 A  
ENDBRANCH   3   4
BRANCH   3  12
HETATM   12  C   UNL     1     -11.508  14.158  68.062  1.00  0.00    -0.342 C  
HETATM   13  C   UNL     1     -11.011  15.416  68.061  1.00  0.00    -0.307 C  
HETATM   14  C   UNL     1     -10.475  16.205  66.907  1.00  0.00    -0.300 C  
BRANCH  12  15
HETATM   15  C   UNL     1     -11.551  13.395  66.793  1.00  0.00    -0.404 A  
HETATM   16  C   UNL     1     -11.537  12.081  64.324  1.00  0.00    -0.358 A  
HETATM   17  C   UNL     1     -10.451  12.611  66.407  1.00  0.00    -0.267 A  
HETATM   18  C   UNL     1     -10.441  11.956  65.172  1.00  0.00    -0.330 A  
HETATM   19  O   UNL     1     -11.559  11.486  63.095  1.00  0.00    -0.840 OA 
HETATM   20  C   UNL     1     -12.649  12.826  64.703  1.00  0.00    -0.491 A  
HETATM   21  H   UNL     1     -12.307  11.572  62.517  1.00  0.00     0.000 HD 
HETATM   22  C   UNL     1     -12.656  13.483  65.937  1.00  0.00    -0.454 A  
ENDBRANCH  12  15
ENDBRANCH   3  12
TORSDOF 3
ENDMDL
MODEL        2
REMARK 921   NORMALIZED FREE ENERGY PREDICTED BY IDOCK:   -7.45 KCAL/MOL
REMARK 922        TOTAL FREE ENERGY PREDICTED BY IDOCK:   -9.74 KCAL/MOL
REMARK 923 INTER-LIGAND FREE ENERGY PREDICTED BY IDOCK:   -8.66 KCAL/MOL
REMARK 924 INTRA-LIGAND FREE ENERGY PREDICTED BY IDOCK:   -1.07 KCAL/MOL
REMARK 927      BINDING AFFINITY PREDICTED BY RF-SCORE:    0.00 PKD
ROOT
HETATM    1  C   UNL     1     -11.140  15.921  68.279  1.00  0.00    -0.345 C  
HETATM    2  C   UNL     1     -10.631  16.805  67.183  1.00  0.00    -0.256 C  
HETATM    3  C   UNL     1     -11.508  14.622  68.175  1.00  0.00    -0.346 C  
ENDROOT
BRANCH   3   4
HETATM    4  C   UNL     1     -11.417  13.970  66.850  1.00  0.00    -0.373 A  
HETATM    5  O   UNL     1     -11.275  11.800  63.307  1.00  0.00    -0.618 OA 
HETATM    6  H   UNL     1     -10.471  11.365  63.048  1.00  0.00     0.000 HD 
HETATM    7  C   UNL     1     -12.554  13.897  66.031  1.00  0.00    -0.467 A  
HETATM    8  C   UNL     1     -11.343  12.542  64.451  1.00  0.00    -0.343 A  
HETATM    9  C   UNL     1     -10.233  13.346  66.434  1.00  0.00    -0.293 A  
HETATM   10  C   UNL     1     -10.199  12.629  65.235  1.00  0.00    -0.302 A  
HETATM   11  C   UNL     1     -12.519  13.179  64.830  1.00  0.00    -0.490 A  
ENDBRANCH   3   4
BRANCH   3  12
HETATM   12  C   UNL     1     -11.938  13.901  69.388  1.00  0.00    -0.402 C  
HETATM   13  C   UNL     1     -11.910  12.549  69.386  1.00  0.00    -0.368 C  
HETATM   14  C   UNL     1     -12.229  11.609  70.506  1.00  0.00    -0.451 C  
BRANCH  12  15
HETATM   15  C   UNL     1     -12.314  14.616  70.630  1.00  0.00    -0.398 A  
HETATM   16  C   UNL     1     -13.009  15.815  73.060  1.00  0.00    -0.525 A  
HETATM   17  C   UNL     1     -11.320  15.015  71.539  1.00  0.00    -0.330 A  
HETATM   18  C   UNL     1     -11.666  15.612  72.756  1.00  0.00    -0.537 A  
HETATM   19  O   UNL     1     -13.395  16.363  74.249  1.00  0.00    -0.859 OA 
HETATM   20  C   UNL     1     -14.004  15.456  72.158  1.00  0.00    -0.649 A  
HETATM   21  H   UNL     1     -14.311  16.502  74.456  1.00  0.00     0.000 HD 
HETATM   22  C   UNL     1     -13.658  14.856  70.943  1.00  0.00    -0.313 A  
ENDBRANCH  12  15
ENDBRANCH   3  12
TORSDOF 3
ENDMDL
MODEL        3
REMARK 921   NORMALIZED FREE ENERGY PREDICTED BY IDOCK:   -7.14 KCAL/MOL
REMARK 922        TOTAL FREE ENERGY PREDICTED BY IDOCK:   -9.38 KCAL/MOL
REMARK 923 INTER-LIGAND FREE ENERGY PREDICTED BY IDOCK:   -8.00 KCAL/MOL
REMARK 924 INTRA-LIGAND FREE ENERGY PREDICTED BY IDOCK:   -1.38 KCAL/MOL
REMARK 927      BINDING AFFINITY PREDICTED BY RF-SCORE:    0.00 PKD
ROOT
HETATM    1  C   UNL     1     -11.857  14.105  66.957  1.00  0.00    -0.458 C  
HETATM    2  C   UNL     1     -11.527  14.697  65.622  1.00  0.00    -0.340 C  
HETATM    3  C   UNL     1     -11.426  14.532  68.168  1.00  0.00    -0.337 C  
ENDROOT
BRANCH   3   4
HETATM    4  C   UNL     1     -10.526  15.704  68.220  1.00  0.00    -0.252 A  
HETATM    5  O   UNL     1      -8.070  19.015  68.758  1.00  0.00    -0.350 OA 
HETATM    6  H   UNL     1      -8.429  19.892  68.677  1.00  0.00     0.000 HD 
HETATM    7  C   UNL     1      -9.163  15.524  68.505  1.00  0.00    -0.197 A  
HETATM    8  C   UNL     1      -8.846  17.911  68.560  1.00  0.00    -0.289 A  
HETATM    9  C   UNL     1     -11.027  17.005  68.074  1.00  0.00    -0.252 A  
HETATM   10  C   UNL     1     -10.186  18.107  68.247  1.00  0.00    -0.402 A  
HETATM   11  C   UNL     1      -8.322  16.628  68.679  1.00  0.00    -0.246 A  
ENDBRANCH   3   4
BRANCH   3  12
HETATM   12  C   UNL     1     -11.906  13.843  69.381  1.00  0.00    -0.384 C  
HETATM   13  C   UNL     1     -11.854  12.493  69.426  1.00  0.00    -0.368 C  
HETATM   14  C   UNL     1     -12.215  11.584  70.560  1.00  0.00    -0.469 C  
BRANCH  12  15
HETATM   15  C   UNL     1     -12.360  14.591  70.576  1.00  0.00    -0.403 A  
HETATM   16  C   UNL     1     -13.192  15.859  72.927  1.00  0.00    -0.527 A  
HETATM   17  C   UNL     1     -11.418  15.114  71.478  1.00  0.00    -0.422 A  
HETATM   18  C   UNL     1     -11.832  15.746  72.655  1.00  0.00    -0.596 A  
HETATM   19  O   UNL     1     -13.642  16.438  74.078  1.00  0.00    -0.848 OA 
HETATM   20  C   UNL     1     -14.139  15.376  72.031  1.00  0.00    -0.647 A  
HETATM   21  H   UNL     1     -14.571  16.515  74.264  1.00  0.00     0.000 HD 
HETATM   22  C   UNL     1     -13.724  14.741  70.856  1.00  0.00    -0.213 A  
ENDBRANCH  12  15
ENDBRANCH   3  12
TORSDOF 3
ENDMDL
MODEL        4
REMARK 921   NORMALIZED FREE ENERGY PREDICTED BY IDOCK:   -7.10 KCAL/MOL
REMARK 922        TOTAL FREE ENERGY PREDICTED BY IDOCK:   -9.33 KCAL/MOL
REMARK 923 INTER-LIGAND FREE ENERGY PREDICTED BY IDOCK:   -8.67 KCAL/MOL
REMARK 924 INTRA-LIGAND FREE ENERGY PREDICTED BY IDOCK:   -0.66 KCAL/MOL
REMARK 927      BINDING AFFINITY PREDICTED BY RF-SCORE:    0.00 PKD
ROOT
HETATM    1  C   UNL     1     -11.826  13.388  69.349  1.00  0.00    -0.390 C  
HETATM    2  C   UNL     1     -12.331  13.772  70.705  1.00  0.00    -0.451 C  
HETATM    3  C   UNL     1     -11.526  12.141  68.914  1.00  0.00    -0.350 C  
ENDROOT
BRANCH   3   4
HETATM    4  C   UNL     1     -11.698  11.009  69.851  1.00  0.00    -0.424 A  
HETATM    5  O   UNL     1     -12.132   8.091  72.779  1.00  0.00    -0.593 OA 
HETATM    6  H   UNL     1     -11.370   7.623  73.101  1.00  0.00     0.000 HD 
HETATM    7  C   UNL     1     -12.974  10.706  70.349  1.00  0.00    -0.210 A  
HETATM    8  C   UNL     1     -12.023   9.034  71.799  1.00  0.00    -0.368 A  
HETATM    9  C   UNL     1     -10.592  10.285  70.316  1.00  0.00    -0.264 A  
HETATM   10  C   UNL     1     -10.756   9.300  71.293  1.00  0.00    -0.422 A  
HETATM   11  C   UNL     1     -13.138   9.719  71.328  1.00  0.00    -0.465 A  
ENDBRANCH   3   4
BRANCH   3  12
HETATM   12  C   UNL     1     -11.088  11.958  67.517  1.00  0.00    -0.332 C  
HETATM   13  C   UNL     1     -10.678  10.732  67.120  1.00  0.00    -0.324 C  
HETATM   14  C   UNL     1     -10.258  10.288  65.753  1.00  0.00    -0.289 C  
BRANCH  12  15
HETATM   15  C   UNL     1     -11.166  13.053  66.523  1.00  0.00    -0.335 A  
HETATM   16  C   UNL     1     -11.350  15.229  64.775  1.00  0.00    -0.391 A  
HETATM   17  C   UNL     1     -10.081  13.930  66.357  1.00  0.00    -0.298 A  
HETATM   18  C   UNL     1     -10.172  15.021  65.486  1.00  0.00    -0.406 A  
HETATM   19  O   UNL     1     -11.497  16.298  63.939  1.00  0.00    -1.484 OA 
HETATM   20  C   UNL     1     -12.422  14.353  64.901  1.00  0.00    -0.368 A  
HETATM   21  H   UNL     1     -12.301  16.440  63.453  1.00  0.00     0.000 HD 
HETATM   22  C   UNL     1     -12.331  13.265  65.775  1.00  0.00    -0.505 A  
ENDBRANCH  12  15
ENDBRANCH   3  12
TORSDOF 3
ENDMDL
MODEL        5
REMARK 921   NORMALIZED FREE ENERGY PREDICTED BY IDOCK:   -7.09 KCAL/MOL
REMARK 922        TOTAL FREE ENERGY PREDICTED BY IDOCK:   -9.31 KCAL/MOL
REMARK 923 INTER-LIGAND FREE ENERGY PREDICTED BY IDOCK:   -8.47 KCAL/MOL
REMARK 924 INTRA-LIGAND FREE ENERGY PREDICTED BY IDOCK:   -0.84 KCAL/MOL
REMARK 927      BINDING AFFINITY PREDICTED BY RF-SCORE:    0.00 PKD
ROOT
HETATM    1  C   UNL     1     -10.709  10.611  67.174  1.00  0.00    -0.327 C  
HETATM    2  C   UNL     1     -10.316  10.156  65.803  1.00  0.00    -0.216 C  
HETATM    3  C   UNL     1     -11.113  11.851  67.539  1.00  0.00    -0.332 C  
ENDROOT
BRANCH   3   4
HETATM    4  C   UNL     1     -11.182  12.901  66.499  1.00  0.00    -0.340 A  
HETATM    5  O   UNL     1     -11.496  16.100  63.863  1.00  0.00    -1.351 OA 
HETATM    6  H   UNL     1     -12.315  16.264  63.409  1.00  0.00     0.000 HD 
HETATM    7  C   UNL     1     -10.071  13.726  66.268  1.00  0.00    -0.304 A  
HETATM    8  C   UNL     1     -11.356  15.041  64.712  1.00  0.00    -0.406 A  
HETATM    9  C   UNL     1     -12.370  13.141  65.796  1.00  0.00    -0.496 A  
HETATM   10  C   UNL     1     -12.456  14.215  64.905  1.00  0.00    -0.419 A  
HETATM   11  C   UNL     1     -10.158  14.802  65.376  1.00  0.00    -0.406 A  
ENDBRANCH   3   4
BRANCH   3  12
HETATM   12  C   UNL     1     -11.509  12.092  68.939  1.00  0.00    -0.356 C  
HETATM   13  C   UNL     1     -11.816  13.352  69.320  1.00  0.00    -0.385 C  
HETATM   14  C   UNL     1     -12.306  13.829  70.653  1.00  0.00    -0.445 C  
BRANCH  12  15
HETATM   15  C   UNL     1     -11.663  10.983  69.909  1.00  0.00    -0.424 A  
HETATM   16  C   UNL     1     -11.972   9.009  71.866  1.00  0.00    -0.375 A  
HETATM   17  C   UNL     1     -12.943  10.599  70.341  1.00  0.00    -0.210 A  
HETATM   18  C   UNL     1     -13.100   9.614  71.321  1.00  0.00    -0.437 A  
HETATM   19  O   UNL     1     -12.074   8.067  72.849  1.00  0.00    -0.619 OA 
HETATM   20  C   UNL     1     -10.698   9.352  71.428  1.00  0.00    -0.407 A  
HETATM   21  H   UNL     1     -11.304   7.653  73.221  1.00  0.00     0.000 HD 
HETATM   22  C   UNL     1     -10.542  10.340  70.450  1.00  0.00    -0.212 A  
ENDBRANCH  12  15
ENDBRANCH   3  12
TORSDOF 3
ENDMDL
MODEL        6
REMARK 921   NORMALIZED FREE ENERGY PREDICTED BY IDOCK:   -7.06 KCAL/MOL
REMARK 922        TOTAL FREE ENERGY PREDICTED BY IDOCK:   -9.28 KCAL/MOL
REMARK 923 INTER-LIGAND FREE ENERGY PREDICTED BY IDOCK:   -8.30 KCAL/MOL
REMARK 924 INTRA-LIGAND FREE ENERGY PREDICTED BY IDOCK:   -0.98 KCAL/MOL
REMARK 927      BINDING AFFINITY PREDICTED BY RF-SCORE:    0.00 PKD
ROOT
HETATM    1  C   UNL     1     -10.849  15.626  68.182  1.00  0.00    -0.301 C  
HETATM    2  C   UNL     1     -10.777  17.077  68.544  1.00  0.00    -0.352 C  
HETATM    3  C   UNL     1     -11.402  14.629  68.913  1.00  0.00    -0.305 C  
ENDROOT
BRANCH   3   4
HETATM    4  C   UNL     1     -12.006  14.968  70.220  1.00  0.00    -0.362 A  
HETATM    5  O   UNL     1     -13.713  16.299  73.769  1.00  0.00    -0.896 OA 
HETATM    6  H   UNL     1     -13.158  16.573  74.490  1.00  0.00     0.000 HD 
HETATM    7  C   UNL     1     -13.402  14.995  70.355  1.00  0.00    -0.056 A  
HETATM    8  C   UNL     1     -13.180  15.832  72.603  1.00  0.00    -0.502 A  
HETATM    9  C   UNL     1     -11.206  15.347  71.307  1.00  0.00    -0.407 A  
HETATM   10  C   UNL     1     -11.795  15.782  72.497  1.00  0.00    -0.605 A  
HETATM   11  C   UNL     1     -13.992  15.431  71.547  1.00  0.00    -0.601 A  
ENDBRANCH   3   4
BRANCH   3  12
HETATM   12  C   UNL     1     -11.420  13.262  68.359  1.00  0.00    -0.349 C  
HETATM   13  C   UNL     1     -11.636  12.224  69.198  1.00  0.00    -0.373 C  
HETATM   14  C   UNL     1     -11.766  10.769  68.866  1.00  0.00    -0.338 C  
BRANCH  12  15
HETATM   15  C   UNL     1     -11.296  13.006  66.906  1.00  0.00    -0.352 A  
HETATM   16  C   UNL     1     -11.142  12.371  64.186  1.00  0.00    -0.372 A  
HETATM   17  C   UNL     1     -12.387  13.243  66.054  1.00  0.00    -0.449 A  
HETATM   18  C   UNL     1     -12.314  12.923  64.694  1.00  0.00    -0.501 A  
HETATM   19  O   UNL     1     -11.035  12.013  62.873  1.00  0.00    -0.637 OA 
HETATM   20  C   UNL     1     -10.040  12.160  65.007  1.00  0.00    -0.289 A  
HETATM   21  H   UNL     1     -10.236  11.636  62.525  1.00  0.00     0.000 HD 
HETATM   22  C   UNL     1     -10.116  12.477  66.367  1.00  0.00    -0.255 A  
ENDBRANCH  12  15
ENDBRANCH   3  12
TORSDOF 3
ENDMDL
MODEL        7
REMARK 921   NORMALIZED FREE ENERGY PREDICTED BY IDOCK:   -7.06 KCAL/MOL
REMARK 922        TOTAL FREE ENERGY PREDICTED BY IDOCK:   -9.28 KCAL/MOL
REMARK 923 INTER-LIGAND FREE ENERGY PREDICTED BY IDOCK:   -8.29 KCAL/MOL
REMARK 924 INTRA-LIGAND FREE ENERGY PREDICTED BY IDOCK:   -0.99 KCAL/MOL
REMARK 927      BINDING AFFINITY PREDICTED BY RF-SCORE:    0.00 PKD
ROOT
HETATM    1  C   UNL     1     -11.739  12.197  69.310  1.00  0.00    -0.386 C  
HETATM    2  C   UNL     1     -11.885  10.746  68.969  1.00  0.00    -0.325 C  
HETATM    3  C   UNL     1     -11.519  13.219  68.449  1.00  0.00    -0.349 C  
ENDROOT
BRANCH   3   4
HETATM    4  C   UNL     1     -11.398  12.910  67.008  1.00  0.00    -0.355 A  
HETATM    5  O   UNL     1     -11.212  11.683  63.040  1.00  0.00    -0.720 OA 
HETATM    6  H   UNL     1     -10.432  11.251  62.712  1.00  0.00     0.000 HD 
HETATM    7  C   UNL     1     -12.483  13.152  66.151  1.00  0.00    -0.274 A  
HETATM    8  C   UNL     1     -11.290  12.121  64.330  1.00  0.00    -0.360 A  
HETATM    9  C   UNL     1     -10.246  12.299  66.495  1.00  0.00    -0.235 A  
HETATM   10  C   UNL     1     -10.195  11.902  65.156  1.00  0.00    -0.314 A  
HETATM   11  C   UNL     1     -12.432  12.753  64.810  1.00  0.00    -0.539 A  
ENDBRANCH   3   4
BRANCH   3  12
HETATM   12  C   UNL     1     -11.455  14.595  68.975  1.00  0.00    -0.317 C  
HETATM   13  C   UNL     1     -10.945  15.569  68.188  1.00  0.00    -0.312 C  
HETATM   14  C   UNL     1     -10.840  17.036  68.471  1.00  0.00    -0.310 C  
BRANCH  12  15
HETATM   15  C   UNL     1     -12.011  14.952  70.301  1.00  0.00    -0.365 A  
HETATM   16  C   UNL     1     -13.083  15.787  72.746  1.00  0.00    -0.503 A  
HETATM   17  C   UNL     1     -13.402  15.023  70.484  1.00  0.00    -0.177 A  
HETATM   18  C   UNL     1     -13.940  15.443  71.705  1.00  0.00    -0.626 A  
HETATM   19  O   UNL     1     -13.561  16.234  73.944  1.00  0.00    -0.906 OA 
HETATM   20  C   UNL     1     -11.704  15.692  72.594  1.00  0.00    -0.555 A  
HETATM   21  H   UNL     1     -12.977  16.469  74.654  1.00  0.00     0.000 HD 
HETATM   22  C   UNL     1     -11.167  15.275  71.372  1.00  0.00    -0.364 A  
ENDBRANCH  12  15
ENDBRANCH   3  12
TORSDOF 3
ENDMDL
MODEL        8
REMARK 921   NORMALIZED FREE ENERGY PREDICTED BY IDOCK:   -7.05 KCAL/MOL
REMARK 922        TOTAL FREE ENERGY PREDICTED BY IDOCK:   -9.27 KCAL/MOL
REMARK 923 INTER-LIGAND FREE ENERGY PREDICTED BY IDOCK:   -7.89 KCAL/MOL
REMARK 924 INTRA-LIGAND FREE ENERGY PREDICTED BY IDOCK:   -1.38 KCAL/MOL
REMARK 927      BINDING AFFINITY PREDICTED BY RF-SCORE:    0.00 PKD
ROOT
HETATM    1  C   UNL     1     -12.024  12.269  69.699  1.00  0.00    -0.347 C  
HETATM    2  C   UNL     1     -12.391  11.498  70.928  1.00  0.00    -0.460 C  
HETATM    3  C   UNL     1     -12.020  13.615  69.550  1.00  0.00    -0.397 C  
ENDROOT
BRANCH   3   4
HETATM    4  C   UNL     1     -12.420  14.450  70.704  1.00  0.00    -0.419 A  
HETATM    5  O   UNL     1     -13.536  16.464  74.165  1.00  0.00    -0.869 OA 
HETATM    6  H   UNL     1     -14.456  16.561  74.384  1.00  0.00     0.000 HD 
HETATM    7  C   UNL     1     -11.435  15.001  71.539  1.00  0.00    -0.377 A  
HETATM    8  C   UNL     1     -13.141  15.832  73.022  1.00  0.00    -0.543 A  
HETATM    9  C   UNL     1     -13.771  14.632  71.028  1.00  0.00    -0.281 A  
HETATM   10  C   UNL     1     -14.130  15.321  72.190  1.00  0.00    -0.658 A  
HETATM   11  C   UNL     1     -11.796  15.689  72.703  1.00  0.00    -0.590 A  
ENDBRANCH   3   4
BRANCH   3  12
HETATM   12  C   UNL     1     -11.575  14.192  68.268  1.00  0.00    -0.356 C  
HETATM   13  C   UNL     1     -12.077  13.686  67.118  1.00  0.00    -0.404 C  
HETATM   14  C   UNL     1     -11.833  14.145  65.714  1.00  0.00    -0.385 C  
BRANCH  12  15
HETATM   15  C   UNL     1     -10.666  15.360  68.209  1.00  0.00    -0.260 A  
HETATM   16  C   UNL     1      -8.930  17.552  68.269  1.00  0.00    -0.267 A  
HETATM   17  C   UNL     1      -9.275  15.169  68.223  1.00  0.00    -0.188 A  
HETATM   18  C   UNL     1      -8.405  16.264  68.256  1.00  0.00    -0.185 A  
HETATM   19  O   UNL     1      -8.121  18.650  68.334  1.00  0.00    -0.312 OA 
HETATM   20  C   UNL     1     -10.304  17.761  68.222  1.00  0.00    -0.387 A  
HETATM   21  H   UNL     1      -8.479  19.530  68.343  1.00  0.00     0.000 HD 
HETATM   22  C   UNL     1     -11.173  16.666  68.193  1.00  0.00    -0.202 A  
ENDBRANCH  12  15
ENDBRANCH   3  12
TORSDOF 3
ENDMDL
MODEL        9
REMARK 921   NORMALIZED FREE ENERGY PREDICTED BY IDOCK:   -6.97 KCAL/MOL
REMARK 922        TOTAL FREE ENERGY PREDICTED BY IDOCK:   -9.18 KCAL/MOL
REMARK 923 INTER-LIGAND FREE ENERGY PREDICTED BY IDOCK:   -8.49 KCAL/MOL
REMARK 924 INTRA-LIGAND FREE ENERGY PREDICTED BY IDOCK:   -0.69 KCAL/MOL
REMARK 927      BINDING AFFINITY PREDICTED BY RF-SCORE:    0.00 PKD
ROOT
HETATM    1  C   UNL     1     -10.023  14.315  68.696  1.00  0.00    -0.234 C  
HETATM    2  C   UNL     1      -9.140  14.841  67.607  1.00  0.00    -0.185 C  
HETATM    3  C   UNL     1     -11.159  13.593  68.548  1.00  0.00    -0.301 C  
ENDROOT
BRANCH   3   4
HETATM    4  C   UNL     1     -11.613  13.271  67.178  1.00  0.00    -0.402 A  
HETATM    5  O   UNL     1     -12.570  12.562  63.195  1.00  0.00    -0.724 OA 
HETATM    6  H   UNL     1     -13.113  13.180  62.719  1.00  0.00     0.000 HD 
HETATM    7  C   UNL     1     -11.147  12.109  66.545  1.00  0.00    -0.352 A  
HETATM    8  C   UNL     1     -12.263  12.755  64.511  1.00  0.00    -0.433 A  
HETATM    9  C   UNL     1     -12.438  14.153  66.467  1.00  0.00    -0.306 A  
HETATM   10  C   UNL     1     -12.759  13.895  65.131  1.00  0.00    -0.434 A  
HETATM   11  C   UNL     1     -11.468  11.851  65.207  1.00  0.00    -0.313 A  
ENDBRANCH   3   4
BRANCH   3  12
HETATM   12  C   UNL     1     -11.866  13.119  69.753  1.00  0.00    -0.386 C  
HETATM   13  C   UNL     1     -12.016  11.788  69.938  1.00  0.00    -0.405 C  
HETATM   14  C   UNL     1     -12.629  11.073  71.102  1.00  0.00    -0.522 C  
BRANCH  12  15
HETATM   15  C   UNL     1     -12.339  14.054  70.800  1.00  0.00    -0.443 A  
HETATM   16  C   UNL     1     -13.195  15.698  72.895  1.00  0.00    -0.532 A  
HETATM   17  C   UNL     1     -11.413  14.803  71.544  1.00  0.00    -0.203 A  
HETATM   18  C   UNL     1     -11.838  15.624  72.594  1.00  0.00    -0.590 A  
HETATM   19  O   UNL     1     -13.653  16.460  73.931  1.00  0.00    -0.891 OA 
HETATM   20  C   UNL     1     -14.129  14.990  72.148  1.00  0.00    -0.629 A  
HETATM   21  H   UNL     1     -14.578  16.511  74.137  1.00  0.00     0.000 HD 
HETATM   22  C   UNL     1     -13.703  14.167  71.101  1.00  0.00    -0.206 A  
ENDBRANCH  12  15
ENDBRANCH   3  12
TORSDOF 3
ENDMDL
MODEL       10
REMARK 921   NORMALIZED FREE ENERGY PREDICTED BY IDOCK:   -6.90 KCAL/MOL
REMARK 922        TOTAL FREE ENERGY PREDICTED BY IDOCK:   -9.09 KCAL/MOL
REMARK 923 INTER-LIGAND FREE ENERGY PREDICTED BY IDOCK:   -8.22 KCAL/MOL
REMARK 924 INTRA-LIGAND FREE ENERGY PREDICTED BY IDOCK:   -0.87 KCAL/MOL
REMARK 927      BINDING AFFINITY PREDICTED BY RF-SCORE:    0.00 PKD
ROOT
HETATM    1  C   UNL     1     -10.461  10.823  66.569  1.00  0.00    -0.299 C  
HETATM    2  C   UNL     1     -10.012  10.543  65.169  1.00  0.00    -0.375 C  
HETATM    3  C   UNL     1     -10.968  11.984  67.047  1.00  0.00    -0.323 C  
ENDROOT
BRANCH   3   4
HETATM    4  C   UNL     1     -11.105  13.127  66.117  1.00  0.00    -0.301 A  
HETATM    5  O   UNL     1     -11.585  16.557  63.820  1.00  0.00    -1.617 OA 
HETATM    6  H   UNL     1     -12.433  16.764  63.444  1.00  0.00     0.000 HD 
HETATM    7  C   UNL     1     -10.007  13.969  65.884  1.00  0.00    -0.325 A  
HETATM    8  C   UNL     1     -11.392  15.425  64.555  1.00  0.00    -0.313 A  
HETATM    9  C   UNL     1     -12.339  13.432  65.528  1.00  0.00    -0.528 A  
HETATM   10  C   UNL     1     -12.481  14.584  64.749  1.00  0.00    -0.333 A  
HETATM   11  C   UNL     1     -10.151  15.123  65.105  1.00  0.00    -0.331 A  
ENDBRANCH   3   4
BRANCH   3  12
HETATM   12  C   UNL     1     -11.405  12.049  68.455  1.00  0.00    -0.332 C  
HETATM   13  C   UNL     1     -11.641  10.893  69.116  1.00  0.00    -0.389 C  
HETATM   14  C   UNL     1     -12.022  10.702  70.551  1.00  0.00    -0.446 C  
BRANCH  12  15
HETATM   15  C   UNL     1     -11.507  13.334  69.184  1.00  0.00    -0.357 A  
HETATM   16  C   UNL     1     -11.614  15.688  70.690  1.00  0.00    -0.367 A  
HETATM   17  C   UNL     1     -10.418  14.222  69.200  1.00  0.00    -0.170 A  
HETATM   18  C   UNL     1     -10.469  15.398  69.955  1.00  0.00    -0.301 A  
HETATM   19  O   UNL     1     -11.695  16.808  71.468  1.00  0.00    -0.578 OA 
HETATM   20  C   UNL     1     -12.713  14.838  70.660  1.00  0.00    -0.415 A  
HETATM   21  H   UNL     1     -12.477  17.006  71.970  1.00  0.00     0.000 HD 
HETATM   22  C   UNL     1     -12.661  13.661  69.908  1.00  0.00    -0.116 A  
ENDBRANCH  12  15
ENDBRANCH   3  12
TORSDOF 3
ENDMDL
MODEL       11
REMARK 921   NORMALIZED FREE ENERGY PREDICTED BY IDOCK:   -6.84 KCAL/MOL
REMARK 922        TOTAL FREE ENERGY PREDICTED BY IDOCK:   -9.02 KCAL/MOL
REMARK 923 INTER-LIGAND FREE ENERGY PREDICTED BY IDOCK:   -8.27 KCAL/MOL
REMARK 924 INTRA-LIGAND FREE ENERGY PREDICTED BY IDOCK:   -0.75 KCAL/MOL
REMARK 927      BINDING AFFINITY PREDICTED BY RF-SCORE:    0.00 PKD
ROOT
HETATM    1  C   UNL     1     -11.944  11.048  69.435  1.00  0.00    -0.408 C  
HETATM    2  C   UNL     1     -12.379  10.893  70.859  1.00  0.00    -0.501 C  
HETATM    3  C   UNL     1     -11.638  12.203  68.796  1.00  0.00    -0.380 C  
ENDROOT
BRANCH   3   4
HETATM    4  C   UNL     1     -11.736  13.471  69.552  1.00  0.00    -0.382 A  
HETATM    5  O   UNL     1     -11.864  16.837  71.987  1.00  0.00    -0.608 OA 
HETATM    6  H   UNL     1     -12.640  17.021  72.505  1.00  0.00     0.000 HD 
HETATM    7  C   UNL     1     -10.638  14.343  69.594  1.00  0.00    -0.021 A  
HETATM    8  C   UNL     1     -11.805  15.755  71.159  1.00  0.00    -0.425 A  
HETATM    9  C   UNL     1     -12.882  13.777  70.298  1.00  0.00    -0.093 A  
HETATM   10  C   UNL     1     -12.913  14.919  71.104  1.00  0.00    -0.432 A  
HETATM   11  C   UNL     1     -10.670  15.486  70.402  1.00  0.00    -0.342 A  
ENDBRANCH   3   4
BRANCH   3  12
HETATM   12  C   UNL     1     -11.176  12.145  67.397  1.00  0.00    -0.362 C  
HETATM   13  C   UNL     1     -10.683  10.979  66.922  1.00  0.00    -0.325 C  
HETATM   14  C   UNL     1     -10.222  10.659  65.533  1.00  0.00    -0.329 C  
BRANCH  12  15
HETATM   15  C   UNL     1     -11.317  13.299  66.479  1.00  0.00    -0.353 A  
HETATM   16  C   UNL     1     -11.555  15.371  64.614  1.00  0.00    -0.311 A  
HETATM   17  C   UNL     1     -12.530  13.517  65.805  1.00  0.00    -0.514 A  
HETATM   18  C   UNL     1     -12.650  14.551  64.870  1.00  0.00    -0.246 A  
HETATM   19  O   UNL     1     -11.616  16.370  63.686  1.00  0.00    -1.514 OA 
HETATM   20  C   UNL     1     -10.357  15.191  65.296  1.00  0.00    -0.425 A  
HETATM   21  H   UNL     1     -10.869  16.930  63.512  1.00  0.00     0.000 HD 
HETATM   22  C   UNL     1     -10.237  14.155  66.228  1.00  0.00    -0.301 A  
ENDBRANCH  12  15
ENDBRANCH   3  12
TORSDOF 3
ENDMDL
MODEL       12
REMARK 921   NORMALIZED FREE ENERGY PREDICTED BY IDOCK:   -6.79 KCAL/MOL
REMARK 922        TOTAL FREE ENERGY PREDICTED BY IDOCK:   -8.96 KCAL/MOL
REMARK 923 INTER-LIGAND FREE ENERGY PREDICTED BY IDOCK:   -8.34 KCAL/MOL
REMARK 924 INTRA-LIGAND FREE ENERGY PREDICTED BY IDOCK:   -0.62 KCAL/MOL
REMARK 927      BINDING AFFINITY PREDICTED BY RF-SCORE:    0.00 PKD
ROOT
HETATM    1  C   UNL     1     -11.778  13.561  69.524  1.00  0.00    -0.382 C  
HETATM    2  C   UNL     1     -11.965  15.033  69.717  1.00  0.00    -0.366 C  
HETATM    3  C   UNL     1     -11.572  12.911  68.354  1.00  0.00    -0.369 C  
ENDROOT
BRANCH   3   4
HETATM    4  C   UNL     1     -11.524  13.706  67.108  1.00  0.00    -0.367 A  
HETATM    5  O   UNL     1     -11.555  16.239  63.812  1.00  0.00    -1.539 OA 
HETATM    6  H   UNL     1     -12.306  16.254  63.230  1.00  0.00     0.000 HD 
HETATM    7  C   UNL     1     -10.415  14.526  66.847  1.00  0.00    -0.269 A  
HETATM    8  C   UNL     1     -11.506  15.398  64.885  1.00  0.00    -0.311 A  
HETATM    9  C   UNL     1     -12.608  13.721  66.220  1.00  0.00    -0.372 A  
HETATM   10  C   UNL     1     -12.599  14.570  65.110  1.00  0.00    -0.242 A  
HETATM   11  C   UNL     1     -10.407  15.377  65.736  1.00  0.00    -0.381 A  
ENDBRANCH   3   4
BRANCH   3  12
HETATM   12  C   UNL     1     -11.358  11.451  68.374  1.00  0.00    -0.346 C  
HETATM   13  C   UNL     1     -10.939  10.840  67.243  1.00  0.00    -0.359 C  
HETATM   14  C   UNL     1     -10.591   9.398  67.038  1.00  0.00    -0.272 C  
BRANCH  12  15
HETATM   15  C   UNL     1     -11.506  10.657  69.615  1.00  0.00    -0.361 A  
HETATM   16  C   UNL     1     -11.788   9.014  71.861  1.00  0.00    -0.376 A  
HETATM   17  C   UNL     1     -10.387  10.026  70.183  1.00  0.00    -0.321 A  
HETATM   18  C   UNL     1     -10.526   9.201  71.305  1.00  0.00    -0.398 A  
HETATM   19  O   UNL     1     -11.976   8.192  72.936  1.00  0.00    -0.581 OA 
HETATM   20  C   UNL     1     -12.901   9.656  71.333  1.00  0.00    -0.471 A  
HETATM   21  H   UNL     1     -12.837   8.064  73.316  1.00  0.00     0.000 HD 
HETATM   22  C   UNL     1     -12.762  10.478  70.210  1.00  0.00    -0.255 A  
ENDBRANCH  12  15
ENDBRANCH   3  12
TORSDOF 3
ENDMDL
MODEL       13
REMARK 921   NORMALIZED FREE ENERGY PREDICTED BY IDOCK:   -6.70 KCAL/MOL
REMARK 922        TOTAL FREE ENERGY PREDICTED BY IDOCK:   -8.85 KCAL/MOL
REMARK 923 INTER-LIGAND FREE ENERGY PREDICTED BY IDOCK:   -8.39 KCAL/MOL
REMARK 924 INTRA-LIGAND FREE ENERGY PREDICTED BY IDOCK:   -0.46 KCAL/MOL
REMARK 927      BINDING AFFINITY PREDICTED BY RF-SCORE:    0.00 PKD
ROOT
HETATM    1  C   UNL     1     -11.051  10.985  67.381  1.00  0.00    -0.370 C  
HETATM    2  C   UNL     1     -10.739   9.530  67.216  1.00  0.00    -0.269 C  
HETATM    3  C   UNL     1     -11.454  11.610  68.513  1.00  0.00    -0.358 C  
ENDROOT
BRANCH   3   4
HETATM    4  C   UNL     1     -11.622  10.802  69.740  1.00  0.00    -0.393 A  
HETATM    5  O   UNL     1     -12.172   8.220  72.952  1.00  0.00    -0.584 OA 
HETATM    6  H   UNL     1     -13.035   8.116  73.336  1.00  0.00     0.000 HD 
HETATM    7  C   UNL     1     -10.527  10.099  70.266  1.00  0.00    -0.284 A  
HETATM    8  C   UNL     1     -11.957   9.081  71.915  1.00  0.00    -0.375 A  
HETATM    9  C   UNL     1     -12.880  10.657  70.342  1.00  0.00    -0.277 A  
HETATM   10  C   UNL     1     -13.046   9.793  71.427  1.00  0.00    -0.489 A  
HETATM   11  C   UNL     1     -10.695   9.233  71.353  1.00  0.00    -0.432 A  
ENDBRANCH   3   4
BRANCH   3  12
HETATM   12  C   UNL     1     -11.664  13.070  68.488  1.00  0.00    -0.377 C  
HETATM   13  C   UNL     1     -11.835  13.723  69.659  1.00  0.00    -0.393 C  
HETATM   14  C   UNL     1     -11.994  15.193  69.892  1.00  0.00    -0.372 C  
BRANCH  12  15
HETATM   15  C   UNL     1     -11.606  13.847  67.228  1.00  0.00    -0.393 A  
HETATM   16  C   UNL     1     -11.555  15.450  64.936  1.00  0.00    -0.248 A  
HETATM   17  C   UNL     1     -10.521  14.705  66.980  1.00  0.00    -0.269 A  
HETATM   18  C   UNL     1     -10.496  15.510  65.837  1.00  0.00    -0.356 A  
HETATM   19  O   UNL     1     -11.589  16.240  63.824  1.00  0.00    -1.539 OA 
HETATM   20  C   UNL     1     -12.620  14.582  65.148  1.00  0.00    -0.242 A  
HETATM   21  H   UNL     1     -12.311  16.200  63.209  1.00  0.00     0.000 HD 
HETATM   22  C   UNL     1     -12.647  13.781  66.293  1.00  0.00    -0.372 A  
ENDBRANCH  12  15
ENDBRANCH   3  12
TORSDOF 3
ENDMDL
MODEL       14
REMARK 921   NORMALIZED FREE ENERGY PREDICTED BY IDOCK:   -6.64 KCAL/MOL
REMARK 922        TOTAL FREE ENERGY PREDICTED BY IDOCK:   -8.78 KCAL/MOL
REMARK 923 INTER-LIGAND FREE ENERGY PREDICTED BY IDOCK:   -7.31 KCAL/MOL
REMARK 924 INTRA-LIGAND FREE ENERGY PREDICTED BY IDOCK:   -1.46 KCAL/MOL
REMARK 927      BINDING AFFINITY PREDICTED BY RF-SCORE:    0.00 PKD
ROOT
HETATM    1  C   UNL     1     -11.262  12.285  68.512  1.00  0.00    -0.316 C  
HETATM    2  C   UNL     1     -11.804  13.557  69.084  1.00  0.00    -0.386 C  
HETATM    3  C   UNL     1     -10.899  12.057  67.227  1.00  0.00    -0.290 C  
ENDROOT
BRANCH   3   4
HETATM    4  C   UNL     1     -11.043  13.159  66.251  1.00  0.00    -0.308 A  
HETATM    5  O   UNL     1     -11.611  16.469  63.802  1.00  0.00    -1.617 OA 
HETATM    6  H   UNL     1     -12.423  16.570  63.317  1.00  0.00     0.000 HD 
HETATM    7  C   UNL     1     -10.027  14.119  66.128  1.00  0.00    -0.328 A  
HETATM    8  C   UNL     1     -11.386  15.380  64.591  1.00  0.00    -0.355 A  
HETATM    9  C   UNL     1     -12.219  13.310  65.503  1.00  0.00    -0.506 A  
HETATM   10  C   UNL     1     -12.390  14.423  64.676  1.00  0.00    -0.435 A  
HETATM   11  C   UNL     1     -10.199  15.234  65.300  1.00  0.00    -0.397 A  
ENDBRANCH   3   4
BRANCH   3  12
HETATM   12  C   UNL     1     -10.333  10.744  66.865  1.00  0.00    -0.290 C  
HETATM   13  C   UNL     1     -10.775   9.644  67.517  1.00  0.00    -0.321 C  
HETATM   14  C   UNL     1     -10.407   8.212  67.282  1.00  0.00    -0.373 C  
BRANCH  12  15
HETATM   15  C   UNL     1      -9.364  10.588  65.756  1.00  0.00    -0.229 A  
HETATM   16  C   UNL     1      -7.560  10.124  63.669  1.00  0.00    -0.139 A  
HETATM   17  C   UNL     1      -9.825  10.400  64.442  1.00  0.00    -0.395 A  
HETATM   18  C   UNL     1      -8.924  10.165  63.398  1.00  0.00    -0.263 A  
HETATM   19  O   UNL     1      -6.647   9.865  62.689  1.00  0.00    -0.106 OA 
HETATM   20  C   UNL     1      -7.084  10.340  64.958  1.00  0.00    -0.111 A  
HETATM   21  H   UNL     1      -5.716   9.836  62.874  1.00  0.00     0.000 HD 
HETATM   22  C   UNL     1      -7.986  10.572  66.002  1.00  0.00    -0.149 A  
ENDBRANCH  12  15
ENDBRANCH   3  12
TORSDOF 3
ENDMDL
MODEL       15
REMARK 921   NORMALIZED FREE ENERGY PREDICTED BY IDOCK:   -6.63 KCAL/MOL
REMARK 922        TOTAL FREE ENERGY PREDICTED BY IDOCK:   -8.78 KCAL/MOL
REMARK 923 INTER-LIGAND FREE ENERGY PREDICTED BY IDOCK:   -7.84 KCAL/MOL
REMARK 924 INTRA-LIGAND FREE ENERGY PREDICTED BY IDOCK:   -0.93 KCAL/MOL
REMARK 927      BINDING AFFINITY PREDICTED BY RF-SCORE:    0.00 PKD
ROOT
HETATM    1  C   UNL     1     -10.283   9.267  67.446  1.00  0.00    -0.304 C  
HETATM    2  C   UNL     1     -10.495   7.830  67.810  1.00  0.00    -0.277 C  
HETATM    3  C   UNL     1     -10.602  10.353  68.190  1.00  0.00    -0.246 C  
ENDROOT
BRANCH   3   4
HETATM    4  C   UNL     1     -11.234  10.139  69.510  1.00  0.00    -0.288 A  
HETATM    5  O   UNL     1     -13.164   9.203  73.070  1.00  0.00    -0.750 OA 
HETATM    6  H   UNL     1     -14.050   9.508  73.226  1.00  0.00     0.000 HD 
HETATM    7  C   UNL     1     -10.567   9.386  70.487  1.00  0.00    -0.331 A  
HETATM    8  C   UNL     1     -12.496   9.518  71.923  1.00  0.00    -0.384 A  
HETATM    9  C   UNL     1     -12.529  10.607  69.772  1.00  0.00    -0.187 A  
HETATM   10  C   UNL     1     -13.160  10.292  70.979  1.00  0.00    -0.458 A  
HETATM   11  C   UNL     1     -11.200   9.070  71.695  1.00  0.00    -0.431 A  
ENDBRANCH   3   4
BRANCH   3  12
HETATM   12  C   UNL     1     -10.264  11.695  67.678  1.00  0.00    -0.206 C  
HETATM   13  C   UNL     1      -9.303  12.408  68.306  1.00  0.00    -0.199 C  
HETATM   14  C   UNL     1      -8.745  13.748  67.937  1.00  0.00    -0.183 C  
BRANCH  12  15
HETATM   15  C   UNL     1     -10.886  12.242  66.449  1.00  0.00    -0.299 A  
HETATM   16  C   UNL     1     -11.944  13.403  64.135  1.00  0.00    -0.450 A  
HETATM   17  C   UNL     1     -10.295  12.005  65.197  1.00  0.00    -0.313 A  
HETATM   18  C   UNL     1     -10.821  12.588  64.039  1.00  0.00    -0.446 A  
HETATM   19  O   UNL     1     -12.472  14.018  63.037  1.00  0.00    -1.101 OA 
HETATM   20  C   UNL     1     -12.562  13.621  65.361  1.00  0.00    -0.533 A  
HETATM   21  H   UNL     1     -13.239  14.575  63.102  1.00  0.00     0.000 HD 
HETATM   22  C   UNL     1     -12.034  13.042  66.519  1.00  0.00    -0.457 A  
ENDBRANCH  12  15
ENDBRANCH   3  12
TORSDOF 3
ENDMDL
MODEL       16
REMARK 921   NORMALIZED FREE ENERGY PREDICTED BY IDOCK:   -6.60 KCAL/MOL
REMARK 922        TOTAL FREE ENERGY PREDICTED BY IDOCK:   -8.73 KCAL/MOL
REMARK 923 INTER-LIGAND FREE ENERGY PREDICTED BY IDOCK:   -7.67 KCAL/MOL
REMARK 924 INTRA-LIGAND FREE ENERGY PREDICTED BY IDOCK:   -1.07 KCAL/MOL
REMARK 927      BINDING AFFINITY PREDICTED BY RF-SCORE:    0.00 PKD
ROOT
HETATM    1  C   UNL     1      -9.074  12.290  68.447  1.00  0.00    -0.146 C  
HETATM    2  C   UNL     1      -8.429  13.613  68.174  1.00  0.00    -0.175 C  
HETATM    3  C   UNL     1     -10.087  11.717  67.754  1.00  0.00    -0.199 C  
ENDROOT
BRANCH   3   4
HETATM    4  C   UNL     1     -10.649  12.449  66.598  1.00  0.00    -0.256 A  
HETATM    5  O   UNL     1     -12.465  14.192  63.290  1.00  0.00    -1.146 OA 
HETATM    6  H   UNL     1     -12.101  14.058  62.422  1.00  0.00     0.000 HD 
HETATM    7  C   UNL     1     -11.789  13.249  66.769  1.00  0.00    -0.448 A  
HETATM    8  C   UNL     1     -11.874  13.655  64.396  1.00  0.00    -0.424 A  
HETATM    9  C   UNL     1     -10.111  12.291  65.314  1.00  0.00    -0.295 A  
HETATM   10  C   UNL     1     -10.728  12.892  64.213  1.00  0.00    -0.430 A  
HETATM   11  C   UNL     1     -12.406  13.851  65.666  1.00  0.00    -0.511 A  
ENDBRANCH   3   4
BRANCH   3  12
HETATM   12  C   UNL     1     -10.555  10.375  68.149  1.00  0.00    -0.246 C  
HETATM   13  C   UNL     1     -10.310   9.332  67.324  1.00  0.00    -0.332 C  
HETATM   14  C   UNL     1     -10.621   7.883  67.536  1.00  0.00    -0.312 C  
BRANCH  12  15
HETATM   15  C   UNL     1     -11.205  10.127  69.456  1.00  0.00    -0.288 A  
HETATM   16  C   UNL     1     -12.488   9.507  71.863  1.00  0.00    -0.384 A  
HETATM   17  C   UNL     1     -10.581   9.302  70.407  1.00  0.00    -0.298 A  
HETATM   18  C   UNL     1     -11.222   8.989  71.610  1.00  0.00    -0.431 A  
HETATM   19  O   UNL     1     -13.166   9.201  73.008  1.00  0.00    -0.750 OA 
HETATM   20  C   UNL     1     -13.108  10.351  70.949  1.00  0.00    -0.412 A  
HETATM   21  H   UNL     1     -14.030   9.555  73.182  1.00  0.00     0.000 HD 
HETATM   22  C   UNL     1     -12.467  10.662  69.745  1.00  0.00    -0.187 A  
ENDBRANCH  12  15
ENDBRANCH   3  12
TORSDOF 3
ENDMDL
MODEL       17
REMARK 921   NORMALIZED FREE ENERGY PREDICTED BY IDOCK:   -6.60 KCAL/MOL
REMARK 922        TOTAL FREE ENERGY PREDICTED BY IDOCK:   -8.73 KCAL/MOL
REMARK 923 INTER-LIGAND FREE ENERGY PREDICTED BY IDOCK:   -7.26 KCAL/MOL
REMARK 924 INTRA-LIGAND FREE ENERGY PREDICTED BY IDOCK:   -1.47 KCAL/MOL
REMARK 927      BINDING AFFINITY PREDICTED BY RF-SCORE:    0.00 PKD
ROOT
HETATM    1  C   UNL     1     -10.926   9.600  67.554  1.00  0.00    -0.166 C  
HETATM    2  C   UNL     1     -10.493   8.191  67.292  1.00  0.00    -0.379 C  
HETATM    3  C   UNL     1     -10.481  10.719  66.934  1.00  0.00    -0.304 C  
ENDROOT
BRANCH   3   4
HETATM    4  C   UNL     1      -9.451  10.576  65.882  1.00  0.00    -0.236 A  
HETATM    5  O   UNL     1      -6.567   9.785  62.994  1.00  0.00    -0.104 OA 
HETATM    6  H   UNL     1      -5.646   9.779  63.230  1.00  0.00     0.000 HD 
HETATM    7  C   UNL     1      -9.840  10.336  64.555  1.00  0.00    -0.384 A  
HETATM    8  C   UNL     1      -7.533  10.069  63.915  1.00  0.00    -0.134 A  
HETATM    9  C   UNL     1      -8.086  10.594  66.202  1.00  0.00    -0.154 A  
HETATM   10  C   UNL     1      -7.129  10.336  65.217  1.00  0.00    -0.130 A  
HETATM   11  C   UNL     1      -8.880  10.078  63.570  1.00  0.00    -0.251 A  
ENDBRANCH   3   4
BRANCH   3  12
HETATM   12  C   UNL     1     -11.071  12.021  67.298  1.00  0.00    -0.341 C  
HETATM   13  C   UNL     1     -11.463  12.222  68.577  1.00  0.00    -0.349 C  
HETATM   14  C   UNL     1     -12.019  13.467  69.195  1.00  0.00    -0.378 C  
BRANCH  12  15
HETATM   15  C   UNL     1     -11.165  13.135  66.328  1.00  0.00    -0.328 A  
HETATM   16  C   UNL     1     -11.404  15.339  64.622  1.00  0.00    -0.358 A  
HETATM   17  C   UNL     1     -10.164  14.121  66.289  1.00  0.00    -0.301 A  
HETATM   18  C   UNL     1     -10.284  15.225  65.439  1.00  0.00    -0.414 A  
HETATM   19  O   UNL     1     -11.579  16.416  63.801  1.00  0.00    -1.605 OA 
HETATM   20  C   UNL     1     -12.388  14.357  64.622  1.00  0.00    -0.435 A  
HETATM   21  H   UNL     1     -12.343  16.494  63.243  1.00  0.00     0.000 HD 
HETATM   22  C   UNL     1     -12.270  13.255  65.475  1.00  0.00    -0.506 A  
ENDBRANCH  12  15
ENDBRANCH   3  12
TORSDOF 3
ENDMDL
MODEL       18
REMARK 921   NORMALIZED FREE ENERGY PREDICTED BY IDOCK:   -6.53 KCAL/MOL
REMARK 922        TOTAL FREE ENERGY PREDICTED BY IDOCK:   -8.65 KCAL/MOL
REMARK 923 INTER-LIGAND FREE ENERGY PREDICTED BY IDOCK:   -8.21 KCAL/MOL
REMARK 924 INTRA-LIGAND FREE ENERGY PREDICTED BY IDOCK:   -0.44 KCAL/MOL
REMARK 927      BINDING AFFINITY PREDICTED BY RF-SCORE:    0.00 PKD
ROOT
HETATM    1  C   UNL     1     -11.335  12.118  67.737  1.00  0.00    -0.371 C  
HETATM    2  C   UNL     1     -11.243  10.708  67.241  1.00  0.00    -0.237 C  
HETATM    3  C   UNL     1     -11.531  12.523  69.014  1.00  0.00    -0.355 C  
ENDROOT
BRANCH   3   4
HETATM    4  C   UNL     1     -11.680  11.491  70.063  1.00  0.00    -0.414 A  
HETATM    5  O   UNL     1     -12.287   8.369  72.740  1.00  0.00    -0.567 OA 
HETATM    6  H   UNL     1     -13.075   8.343  73.270  1.00  0.00     0.000 HD 
HETATM    7  C   UNL     1     -10.710  10.486  70.193  1.00  0.00    -0.232 A  
HETATM    8  C   UNL     1     -12.048   9.395  71.873  1.00  0.00    -0.357 A  
HETATM    9  C   UNL     1     -12.820  11.450  70.877  1.00  0.00    -0.323 A  
HETATM   10  C   UNL     1     -13.004  10.399  71.780  1.00  0.00    -0.580 A  
HETATM   11  C   UNL     1     -10.895   9.433  71.097  1.00  0.00    -0.427 A  
ENDBRANCH   3   4
BRANCH   3  12
HETATM   12  C   UNL     1     -11.541  13.967  69.312  1.00  0.00    -0.356 C  
HETATM   13  C   UNL     1     -11.069  14.827  68.382  1.00  0.00    -0.274 C  
HETATM   14  C   UNL     1     -11.040  16.324  68.425  1.00  0.00    -0.362 C  
BRANCH  12  15
HETATM   15  C   UNL     1     -12.131  14.504  70.561  1.00  0.00    -0.395 A  
HETATM   16  C   UNL     1     -13.265  15.667  72.837  1.00  0.00    -0.532 A  
HETATM   17  C   UNL     1     -13.526  14.586  70.701  1.00  0.00    -0.038 A  
HETATM   18  C   UNL     1     -14.095  15.170  71.837  1.00  0.00    -0.649 A  
HETATM   19  O   UNL     1     -13.776  16.275  73.948  1.00  0.00    -0.850 OA 
HETATM   20  C   UNL     1     -11.883  15.565  72.731  1.00  0.00    -0.575 A  
HETATM   21  H   UNL     1     -13.209  16.614  74.631  1.00  0.00     0.000 HD 
HETATM   22  C   UNL     1     -11.315  14.984  71.593  1.00  0.00    -0.320 A  
ENDBRANCH  12  15
ENDBRANCH   3  12
TORSDOF 3
ENDMDL
MODEL       19
REMARK 921   NORMALIZED FREE ENERGY PREDICTED BY IDOCK:   -6.50 KCAL/MOL
REMARK 922        TOTAL FREE ENERGY PREDICTED BY IDOCK:   -8.62 KCAL/MOL
REMARK 923 INTER-LIGAND FREE ENERGY PREDICTED BY IDOCK:   -7.14 KCAL/MOL
REMARK 924 INTRA-LIGAND FREE ENERGY PREDICTED BY IDOCK:   -1.49 KCAL/MOL
REMARK 927      BINDING AFFINITY PREDICTED BY RF-SCORE:    0.00 PKD
ROOT
HETATM    1  C   UNL     1     -11.380  12.280  69.222  1.00  0.00    -0.317 C  
HETATM    2  C   UNL     1     -11.519  10.923  68.605  1.00  0.00    -0.380 C  
HETATM    3  C   UNL     1     -11.292  13.466  68.574  1.00  0.00    -0.324 C  
ENDROOT
BRANCH   3   4
HETATM    4  C   UNL     1     -11.330  13.464  67.096  1.00  0.00    -0.344 A  
HETATM    5  O   UNL     1     -11.556  13.078  62.963  1.00  0.00    -0.783 OA 
HETATM    6  H   UNL     1     -10.799  12.782  62.470  1.00  0.00     0.000 HD 
HETATM    7  C   UNL     1     -12.522  13.787  66.429  1.00  0.00    -0.404 A  
HETATM    8  C   UNL     1     -11.503  13.240  64.316  1.00  0.00    -0.396 A  
HETATM    9  C   UNL     1     -10.216  13.060  66.347  1.00  0.00    -0.283 A  
HETATM   10  C   UNL     1     -10.305  12.946  64.957  1.00  0.00    -0.334 A  
HETATM   11  C   UNL     1     -12.611  13.671  65.037  1.00  0.00    -0.434 A  
ENDBRANCH   3   4
BRANCH   3  12
HETATM   12  C   UNL     1     -11.211  14.709  69.365  1.00  0.00    -0.307 C  
HETATM   13  C   UNL     1     -11.827  14.755  70.568  1.00  0.00    -0.362 C  
HETATM   14  C   UNL     1     -11.828  15.867  71.572  1.00  0.00    -0.536 C  
BRANCH  12  15
HETATM   15  C   UNL     1     -10.406  15.869  68.918  1.00  0.00    -0.228 A  
HETATM   16  C   UNL     1      -8.891  17.995  67.915  1.00  0.00    -0.268 A  
HETATM   17  C   UNL     1     -11.033  16.962  68.298  1.00  0.00    -0.298 A  
HETATM   18  C   UNL     1     -10.277  18.025  67.793  1.00  0.00    -0.385 A  
HETATM   19  O   UNL     1      -8.110  18.994  67.408  1.00  0.00    -0.262 OA 
HETATM   20  C   UNL     1      -8.256  16.937  68.555  1.00  0.00    -0.249 A  
HETATM   21  H   UNL     1      -7.164  18.974  67.491  1.00  0.00     0.000 HD 
HETATM   22  C   UNL     1      -9.012  15.874  69.057  1.00  0.00    -0.245 A  
ENDBRANCH  12  15
ENDBRANCH   3  12
TORSDOF 3
ENDMDL
MODEL       20
REMARK 921   NORMALIZED FREE ENERGY PREDICTED BY IDOCK:   -6.50 KCAL/MOL
REMARK 922        TOTAL FREE ENERGY PREDICTED BY IDOCK:   -8.62 KCAL/MOL
REMARK 923 INTER-LIGAND FREE ENERGY PREDICTED BY IDOCK:   -7.39 KCAL/MOL
REMARK 924 INTRA-LIGAND FREE ENERGY PREDICTED BY IDOCK:   -1.23 KCAL/MOL
REMARK 927      BINDING AFFINITY PREDICTED BY RF-SCORE:    0.00 PKD
ROOT
HETATM    1  C   UNL     1      -8.615  15.244  68.982  1.00  0.00    -0.226 C  
HETATM    2  C   UNL     1      -7.273  15.861  69.228  1.00  0.00    -0.217 C  
HETATM    3  C   UNL     1      -9.716  15.857  68.486  1.00  0.00    -0.211 C  
ENDROOT
BRANCH   3   4
HETATM    4  C   UNL     1      -9.627  17.292  68.141  1.00  0.00    -0.283 A  
HETATM    5  O   UNL     1      -9.744  21.297  67.031  1.00  0.00    -0.559 OA 
HETATM    6  H   UNL     1      -9.455  21.559  66.164  1.00  0.00     0.000 HD 
HETATM    7  C   UNL     1     -10.077  18.257  69.056  1.00  0.00    -0.283 A  
HETATM    8  C   UNL     1      -9.691  19.994  67.432  1.00  0.00    -0.417 A  
HETATM    9  C   UNL     1      -9.176  17.704  66.880  1.00  0.00    -0.270 A  
HETATM   10  C   UNL     1      -9.212  19.056  66.525  1.00  0.00    -0.357 A  
HETATM   11  C   UNL     1     -10.113  19.610  68.700  1.00  0.00    -0.547 A  
ENDBRANCH   3   4
BRANCH   3  12
HETATM   12  C   UNL     1     -10.939  15.061  68.266  1.00  0.00    -0.274 C  
HETATM   13  C   UNL     1     -11.265  14.705  67.003  1.00  0.00    -0.348 C  
HETATM   14  C   UNL     1     -12.405  13.852  66.541  1.00  0.00    -0.447 C  
BRANCH  12  15
HETATM   15  C   UNL     1     -11.767  14.573  69.393  1.00  0.00    -0.361 A  
HETATM   16  C   UNL     1     -13.207  13.705  71.628  1.00  0.00    -0.367 A  
HETATM   17  C   UNL     1     -12.542  15.477  70.139  1.00  0.00    -0.304 A  
HETATM   18  C   UNL     1     -13.260  15.045  71.259  1.00  0.00    -0.502 A  
HETATM   19  O   UNL     1     -13.865  13.245  72.733  1.00  0.00    -0.692 OA 
HETATM   20  C   UNL     1     -12.472  12.790  70.883  1.00  0.00    -0.373 A  
HETATM   21  H   UNL     1     -13.829  12.330  72.985  1.00  0.00     0.000 HD 
HETATM   22  C   UNL     1     -11.752  13.223  69.765  1.00  0.00    -0.354 A  
ENDBRANCH  12  15
ENDBRANCH   3  12
TORSDOF 3
ENDMDL
MODEL       21
REMARK 921   NORMALIZED FREE ENERGY PREDICTED BY IDOCK:   -6.45 KCAL/MOL
REMARK 922        TOTAL FREE ENERGY PREDICTED BY IDOCK:   -8.56 KCAL/MOL
REMARK 923 INTER-LIGAND FREE ENERGY PREDICTED BY IDOCK:   -7.15 KCAL/MOL
REMARK 924 INTRA-LIGAND FREE ENERGY PREDICTED BY IDOCK:   -1.41 KCAL/MOL
REMARK 927      BINDING AFFINITY PREDICTED BY RF-SCORE:    0.00 PKD
ROOT
HETATM    1  C   UNL     1     -11.807  14.680  70.540  1.00  0.00    -0.367 C  
HETATM    2  C   UNL     1     -11.727  15.848  71.473  1.00  0.00    -0.545 C  
HETATM    3  C   UNL     1     -11.173  14.540  69.351  1.00  0.00    -0.312 C  
ENDROOT
BRANCH   3   4
HETATM    4  C   UNL     1     -10.302  15.642  68.886  1.00  0.00    -0.218 A  
HETATM    5  O   UNL     1      -7.920  18.911  67.929  1.00  0.00    -0.260 OA 
HETATM    6  H   UNL     1      -8.302  19.670  67.503  1.00  0.00     0.000 HD 
HETATM    7  C   UNL     1      -8.930  15.614  69.178  1.00  0.00    -0.257 A  
HETATM    8  C   UNL     1      -8.672  17.813  68.230  1.00  0.00    -0.277 A  
HETATM    9  C   UNL     1     -10.839  16.757  68.229  1.00  0.00    -0.366 A  
HETATM   10  C   UNL     1     -10.023  17.844  67.905  1.00  0.00    -0.329 A  
HETATM   11  C   UNL     1      -8.113  16.703  68.853  1.00  0.00    -0.235 A  
ENDBRANCH   3   4
BRANCH   3  12
HETATM   12  C   UNL     1     -11.340  13.285  68.596  1.00  0.00    -0.324 C  
HETATM   13  C   UNL     1     -11.520  12.133  69.280  1.00  0.00    -0.363 C  
HETATM   14  C   UNL     1     -11.776  10.759  68.742  1.00  0.00    -0.315 C  
BRANCH  12  15
HETATM   15  C   UNL     1     -11.400  13.265  67.116  1.00  0.00    -0.351 A  
HETATM   16  C   UNL     1     -11.611  13.085  64.332  1.00  0.00    -0.369 A  
HETATM   17  C   UNL     1     -12.532  13.766  66.451  1.00  0.00    -0.404 A  
HETATM   18  C   UNL     1     -12.641  13.674  65.060  1.00  0.00    -0.434 A  
HETATM   19  O   UNL     1     -11.688  12.944  62.977  1.00  0.00    -0.831 OA 
HETATM   20  C   UNL     1     -10.469  12.614  64.969  1.00  0.00    -0.331 A  
HETATM   21  H   UNL     1     -10.986  12.542  62.480  1.00  0.00     0.000 HD 
HETATM   22  C   UNL     1     -10.362  12.703  66.361  1.00  0.00    -0.264 A  
ENDBRANCH  12  15
ENDBRANCH   3  12
TORSDOF 3
ENDMDL
MODEL       22
REMARK 921   NORMALIZED FREE ENERGY PREDICTED BY IDOCK:   -6.45 KCAL/MOL
REMARK 922        TOTAL FREE ENERGY PREDICTED BY IDOCK:   -8.56 KCAL/MOL
REMARK 923 INTER-LIGAND FREE ENERGY PREDICTED BY IDOCK:   -7.32 KCAL/MOL
REMARK 924 INTRA-LIGAND FREE ENERGY PREDICTED BY IDOCK:   -1.23 KCAL/MOL
REMARK 927      BINDING AFFINITY PREDICTED BY RF-SCORE:    0.00 PKD
ROOT
HETATM    1  C   UNL     1     -11.225  14.517  67.023  1.00  0.00    -0.342 C  
HETATM    2  C   UNL     1     -12.396  13.679  66.614  1.00  0.00    -0.381 C  
HETATM    3  C   UNL     1     -10.917  14.935  68.274  1.00  0.00    -0.268 C  
ENDROOT
BRANCH   3   4
HETATM    4  C   UNL     1     -11.814  14.548  69.384  1.00  0.00    -0.367 A  
HETATM    5  O   UNL     1     -14.033  13.541  72.752  1.00  0.00    -0.733 OA 
HETATM    6  H   UNL     1     -14.026  12.648  73.077  1.00  0.00     0.000 HD 
HETATM    7  C   UNL     1     -12.587  15.526  70.028  1.00  0.00    -0.232 A  
HETATM    8  C   UNL     1     -13.336  13.894  71.633  1.00  0.00    -0.362 A  
HETATM    9  C   UNL     1     -11.842  13.230  69.862  1.00  0.00    -0.380 A  
HETATM   10  C   UNL     1     -12.601  12.906  70.989  1.00  0.00    -0.376 A  
HETATM   11  C   UNL     1     -13.347  15.200  71.157  1.00  0.00    -0.535 A  
ENDBRANCH   3   4
BRANCH   3  12
HETATM   12  C   UNL     1      -9.683  15.716  68.483  1.00  0.00    -0.202 C  
HETATM   13  C   UNL     1      -8.602  15.095  69.006  1.00  0.00    -0.219 C  
HETATM   14  C   UNL     1      -7.232  15.651  69.245  1.00  0.00    -0.198 C  
BRANCH  12  15
HETATM   15  C   UNL     1      -9.571  17.131  68.060  1.00  0.00    -0.267 A  
HETATM   16  C   UNL     1      -9.529  19.800  67.224  1.00  0.00    -0.357 A  
HETATM   17  C   UNL     1      -9.964  18.159  68.933  1.00  0.00    -0.352 A  
HETATM   18  C   UNL     1      -9.947  19.494  68.516  1.00  0.00    -0.538 A  
HETATM   19  O   UNL     1      -9.527  21.084  66.763  1.00  0.00    -0.634 OA 
HETATM   20  C   UNL     1      -9.105  18.799  66.357  1.00  0.00    -0.305 A  
HETATM   21  H   UNL     1      -9.241  21.293  65.881  1.00  0.00     0.000 HD 
HETATM   22  C   UNL     1      -9.126  17.464  66.774  1.00  0.00    -0.276 A  
ENDBRANCH  12  15
ENDBRANCH   3  12
TORSDOF 3
ENDMDL
MODEL       23
REMARK 921   NORMALIZED FREE ENERGY PREDICTED BY IDOCK:   -6.44 KCAL/MOL
REMARK 922        TOTAL FREE ENERGY PREDICTED BY IDOCK:   -8.55 KCAL/MOL
REMARK 923 INTER-LIGAND FREE ENERGY PREDICTED BY IDOCK:   -7.36 KCAL/MOL
REMARK 924 INTRA-LIGAND FREE ENERGY PREDICTED BY IDOCK:   -1.19 KCAL/MOL
REMARK 927      BINDING AFFINITY PREDICTED BY RF-SCORE:    0.00 PKD
ROOT
HETATM    1  C   UNL     1     -10.866  16.084  68.178  1.00  0.00    -0.322 C  
HETATM    2  C   UNL     1     -10.713  17.462  68.743  1.00  0.00    -0.197 C  
HETATM    3  C   UNL     1     -11.436  15.014  68.779  1.00  0.00    -0.337 C  
ENDROOT
BRANCH   3   4
HETATM    4  C   UNL     1     -11.974  15.181  70.147  1.00  0.00    -0.374 A  
HETATM    5  O   UNL     1     -13.518  16.038  73.910  1.00  0.00    -0.861 OA 
HETATM    6  H   UNL     1     -12.933  16.258  74.626  1.00  0.00     0.000 HD 
HETATM    7  C   UNL     1     -13.360  15.128  70.361  1.00  0.00    -0.080 A  
HETATM    8  C   UNL     1     -13.038  15.726  72.672  1.00  0.00    -0.491 A  
HETATM    9  C   UNL     1     -11.127  15.475  71.224  1.00  0.00    -0.343 A  
HETATM   10  C   UNL     1     -11.661  15.751  72.485  1.00  0.00    -0.566 A  
HETATM   11  C   UNL     1     -13.895  15.405  71.624  1.00  0.00    -0.606 A  
ENDBRANCH   3   4
BRANCH   3  12
HETATM   12  C   UNL     1     -11.539  13.745  68.034  1.00  0.00    -0.368 C  
HETATM   13  C   UNL     1     -12.011  13.772  66.767  1.00  0.00    -0.465 C  
HETATM   14  C   UNL     1     -12.142  12.638  65.798  1.00  0.00    -0.484 C  
BRANCH  12  15
HETATM   15  C   UNL     1     -11.062  12.463  68.602  1.00  0.00    -0.297 A  
HETATM   16  C   UNL     1     -10.201   9.967  69.526  1.00  0.00    -0.234 A  
HETATM   17  C   UNL     1      -9.780  11.986  68.282  1.00  0.00    -0.205 A  
HETATM   18  C   UNL     1      -9.349  10.737  68.740  1.00  0.00    -0.186 A  
HETATM   19  O   UNL     1      -9.836   8.728  69.968  1.00  0.00    -0.171 OA 
HETATM   20  C   UNL     1     -11.461  10.437  69.881  1.00  0.00    -0.368 A  
HETATM   21  H   UNL     1     -10.418   8.203  70.505  1.00  0.00     0.000 HD 
HETATM   22  C   UNL     1     -11.892  11.685  69.419  1.00  0.00    -0.408 A  
ENDBRANCH  12  15
ENDBRANCH   3  12
TORSDOF 3
ENDMDL
MODEL       24
REMARK 921   NORMALIZED FREE ENERGY PREDICTED BY IDOCK:   -6.41 KCAL/MOL
REMARK 922        TOTAL FREE ENERGY PREDICTED BY IDOCK:   -8.52 KCAL/MOL
REMARK 923 INTER-LIGAND FREE ENERGY PREDICTED BY IDOCK:   -8.35 KCAL/MOL
REMARK 924 INTRA-LIGAND FREE ENERGY PREDICTED BY IDOCK:   -0.16 KCAL/MOL
REMARK 927      BINDING AFFINITY PREDICTED BY RF-SCORE:    0.00 PKD
ROOT
HETATM    1  C   UNL     1      -9.427  13.642  68.389  1.00  0.00    -0.190 C  
HETATM    2  C   UNL     1      -8.413  13.423  67.309  1.00  0.00    -0.205 C  
HETATM    3  C   UNL     1     -10.762  13.809  68.233  1.00  0.00    -0.264 C  
ENDROOT
BRANCH   3   4
HETATM    4  C   UNL     1     -11.318  13.784  66.863  1.00  0.00    -0.345 A  
HETATM    5  O   UNL     1     -12.519  13.599  62.888  1.00  0.00    -0.960 OA 
HETATM    6  H   UNL     1     -12.443  14.366  62.331  1.00  0.00     0.000 HD 
HETATM    7  C   UNL     1     -11.851  12.591  66.350  1.00  0.00    -0.445 A  
HETATM    8  C   UNL     1     -12.158  13.638  64.203  1.00  0.00    -0.435 A  
HETATM    9  C   UNL     1     -11.244  14.912  66.034  1.00  0.00    -0.327 A  
HETATM   10  C   UNL     1     -11.662  14.836  64.703  1.00  0.00    -0.426 A  
HETATM   11  C   UNL     1     -12.269  12.516  65.016  1.00  0.00    -0.519 A  
ENDBRANCH   3   4
BRANCH   3  12
HETATM   12  C   UNL     1     -11.608  13.962  69.432  1.00  0.00    -0.350 C  
HETATM   13  C   UNL     1     -12.065  15.193  69.753  1.00  0.00    -0.354 C  
HETATM   14  C   UNL     1     -12.984  15.584  70.868  1.00  0.00    -0.526 C  
BRANCH  12  15
HETATM   15  C   UNL     1     -12.038  12.797  70.239  1.00  0.00    -0.373 A  
HETATM   16  C   UNL     1     -12.974  10.568  71.646  1.00  0.00    -0.476 A  
HETATM   17  C   UNL     1     -11.644  11.500  69.867  1.00  0.00    -0.387 A  
HETATM   18  C   UNL     1     -12.114  10.384  70.568  1.00  0.00    -0.423 A  
HETATM   19  O   UNL     1     -13.483   9.507  72.339  1.00  0.00    -0.548 OA 
HETATM   20  C   UNL     1     -13.348  11.845  72.049  1.00  0.00    -0.425 A  
HETATM   21  H   UNL     1     -14.070   9.632  73.075  1.00  0.00     0.000 HD 
HETATM   22  C   UNL     1     -12.881  12.960  71.346  1.00  0.00    -0.377 A  
ENDBRANCH  12  15
ENDBRANCH   3  12
TORSDOF 3
ENDMDL
MODEL       25
REMARK 921   NORMALIZED FREE ENERGY PREDICTED BY IDOCK:   -6.41 KCAL/MOL
REMARK 922        TOTAL FREE ENERGY PREDICTED BY IDOCK:   -8.51 KCAL/MOL
REMARK 923 INTER-LIGAND FREE ENERGY PREDICTED BY IDOCK:   -6.98 KCAL/MOL
REMARK 924 INTRA-LIGAND FREE ENERGY PREDICTED BY IDOCK:   -1.54 KCAL/MOL
REMARK 927      BINDING AFFINITY PREDICTED BY RF-SCORE:    0.00 PKD
ROOT
HETATM    1  C   UNL     1     -11.175  11.028  69.530  1.00  0.00    -0.343 C  
HETATM    2  C   UNL     1     -10.782   9.601  69.758  1.00  0.00    -0.269 C  
HETATM    3  C   UNL     1     -10.867  11.797  68.458  1.00  0.00    -0.261 C  
ENDROOT
BRANCH   3   4
HETATM    4  C   UNL     1     -10.053  11.202  67.377  1.00  0.00    -0.213 A  
HETATM    5  O   UNL     1      -7.814   9.870  64.138  1.00  0.00    -0.131 OA 
HETATM    6  H   UNL     1      -8.240   9.416  63.419  1.00  0.00     0.000 HD 
HETATM    7  C   UNL     1      -8.665  11.409  67.356  1.00  0.00    -0.145 A  
HETATM    8  C   UNL     1      -8.519  10.294  65.226  1.00  0.00    -0.163 A  
HETATM    9  C   UNL     1     -10.656  10.503  66.322  1.00  0.00    -0.203 A  
HETATM   10  C   UNL     1      -9.887  10.052  65.245  1.00  0.00    -0.388 A  
HETATM   11  C   UNL     1      -7.896  10.958  66.277  1.00  0.00    -0.158 A  
ENDBRANCH   3   4
BRANCH   3  12
HETATM   12  C   UNL     1     -11.393  13.174  68.392  1.00  0.00    -0.324 C  
HETATM   13  C   UNL     1     -11.841  13.754  69.528  1.00  0.00    -0.394 C  
HETATM   14  C   UNL     1     -12.351  15.149  69.724  1.00  0.00    -0.278 C  
BRANCH  12  15
HETATM   15  C   UNL     1     -11.364  13.963  67.139  1.00  0.00    -0.346 A  
HETATM   16  C   UNL     1     -11.383  15.581  64.858  1.00  0.00    -0.335 A  
HETATM   17  C   UNL     1     -10.361  14.926  66.938  1.00  0.00    -0.264 A  
HETATM   18  C   UNL     1     -10.371  15.739  65.800  1.00  0.00    -0.390 A  
HETATM   19  O   UNL     1     -11.452  16.374  63.748  1.00  0.00    -1.590 OA 
HETATM   20  C   UNL     1     -12.365  14.611  65.023  1.00  0.00    -0.289 A  
HETATM   21  H   UNL     1     -12.143  16.267  63.105  1.00  0.00     0.000 HD 
HETATM   22  C   UNL     1     -12.356  13.801  66.164  1.00  0.00    -0.496 A  
ENDBRANCH  12  15
ENDBRANCH   3  12
TORSDOF 3
ENDMDL
MODEL       26
REMARK 921   NORMALIZED FREE ENERGY PREDICTED BY IDOCK:   -6.40 KCAL/MOL
REMARK 922        TOTAL FREE ENERGY PREDICTED BY IDOCK:   -8.50 KCAL/MOL
REMARK 923 INTER-LIGAND FREE ENERGY PREDICTED BY IDOCK:   -7.33 KCAL/MOL
REMARK 924 INTRA-LIGAND FREE ENERGY PREDICTED BY IDOCK:   -1.17 KCAL/MOL
REMARK 927      BINDING AFFINITY PREDICTED BY RF-SCORE:    0.00 PKD
ROOT
HETATM    1  C   UNL     1     -10.928  13.990  69.428  1.00  0.00    -0.194 C  
HETATM    2  C   UNL     1     -12.018  12.964  69.424  1.00  0.00    -0.327 C  
HETATM    3  C   UNL     1     -10.379  14.603  68.351  1.00  0.00    -0.237 C  
ENDROOT
BRANCH   3   4
HETATM    4  C   UNL     1     -10.881  14.242  67.007  1.00  0.00    -0.297 A  
HETATM    5  O   UNL     1     -12.214  13.604  63.122  1.00  0.00    -1.003 OA 
HETATM    6  H   UNL     1     -13.126  13.753  62.901  1.00  0.00     0.000 HD 
HETATM    7  C   UNL     1      -9.984  13.791  66.027  1.00  0.00    -0.319 A  
HETATM    8  C   UNL     1     -11.754  13.779  64.394  1.00  0.00    -0.408 A  
HETATM    9  C   UNL     1     -12.229  14.424  66.668  1.00  0.00    -0.340 A  
HETATM   10  C   UNL     1     -12.663  14.196  65.360  1.00  0.00    -0.453 A  
HETATM   11  C   UNL     1     -10.419  13.563  64.717  1.00  0.00    -0.430 A  
ENDBRANCH   3   4
BRANCH   3  12
HETATM   12  C   UNL     1      -9.344  15.631  68.564  1.00  0.00    -0.197 C  
HETATM   13  C   UNL     1      -8.171  15.266  69.129  1.00  0.00    -0.234 C  
HETATM   14  C   UNL     1      -6.957  16.106  69.381  1.00  0.00    -0.220 C  
BRANCH  12  15
HETATM   15  C   UNL     1      -9.521  17.027  68.100  1.00  0.00    -0.262 A  
HETATM   16  C   UNL     1      -9.687  19.688  67.255  1.00  0.00    -0.356 A  
HETATM   17  C   UNL     1      -9.134  17.389  66.799  1.00  0.00    -0.276 A  
HETATM   18  C   UNL     1      -9.214  18.720  66.376  1.00  0.00    -0.312 A  
HETATM   19  O   UNL     1      -9.752  21.004  66.898  1.00  0.00    -0.646 OA 
HETATM   20  C   UNL     1     -10.106  19.343  68.535  1.00  0.00    -0.527 A  
HETATM   21  H   UNL     1     -10.075  21.665  67.498  1.00  0.00     0.000 HD 
HETATM   22  C   UNL     1     -10.023  18.013  68.959  1.00  0.00    -0.292 A  
ENDBRANCH  12  15
ENDBRANCH   3  12
TORSDOF 3
ENDMDL
MODEL       27
REMARK 921   NORMALIZED FREE ENERGY PREDICTED BY IDOCK:   -6.35 KCAL/MOL
REMARK 922        TOTAL FREE ENERGY PREDICTED BY IDOCK:   -8.44 KCAL/MOL
REMARK 923 INTER-LIGAND FREE ENERGY PREDICTED BY IDOCK:   -6.95 KCAL/MOL
REMARK 924 INTRA-LIGAND FREE ENERGY PREDICTED BY IDOCK:   -1.49 KCAL/MOL
REMARK 927      BINDING AFFINITY PREDICTED BY RF-SCORE:    0.00 PKD
ROOT
HETATM    1  C   UNL     1     -11.519  14.772  69.995  1.00  0.00    -0.321 C  
HETATM    2  C   UNL     1     -11.354  16.114  70.637  1.00  0.00    -0.394 C  
HETATM    3  C   UNL     1     -10.978  14.354  68.826  1.00  0.00    -0.264 C  
ENDROOT
BRANCH   3   4
HETATM    4  C   UNL     1     -10.130  15.299  68.067  1.00  0.00    -0.229 A  
HETATM    5  O   UNL     1      -7.749  17.690  65.639  1.00  0.00    -0.527 OA 
HETATM    6  H   UNL     1      -6.803  17.606  65.669  1.00  0.00     0.000 HD 
HETATM    7  C   UNL     1     -10.726  16.242  67.216  1.00  0.00    -0.265 A  
HETATM    8  C   UNL     1      -8.554  16.938  66.444  1.00  0.00    -0.293 A  
HETATM    9  C   UNL     1      -8.732  15.213  68.119  1.00  0.00    -0.167 A  
HETATM   10  C   UNL     1      -7.945  16.032  67.304  1.00  0.00    -0.207 A  
HETATM   11  C   UNL     1      -9.938  17.061  66.400  1.00  0.00    -0.318 A  
ENDBRANCH   3   4
BRANCH   3  12
HETATM   12  C   UNL     1     -11.218  12.968  68.382  1.00  0.00    -0.304 C  
HETATM   13  C   UNL     1     -11.569  12.042  69.302  1.00  0.00    -0.380 C  
HETATM   14  C   UNL     1     -11.926  10.604  69.087  1.00  0.00    -0.230 C  
BRANCH  12  15
HETATM   15  C   UNL     1     -11.168  12.586  66.952  1.00  0.00    -0.354 A  
HETATM   16  C   UNL     1     -11.183  11.734  64.287  1.00  0.00    -0.344 A  
HETATM   17  C   UNL     1     -12.203  12.972  66.084  1.00  0.00    -0.428 A  
HETATM   18  C   UNL     1     -12.214  12.545  64.752  1.00  0.00    -0.532 A  
HETATM   19  O   UNL     1     -11.170  11.267  63.005  1.00  0.00    -0.838 OA 
HETATM   20  C   UNL     1     -10.133  11.369  65.122  1.00  0.00    -0.319 A  
HETATM   21  H   UNL     1     -10.466  10.713  62.687  1.00  0.00     0.000 HD 
HETATM   22  C   UNL     1     -10.125  11.794  66.454  1.00  0.00    -0.239 A  
ENDBRANCH  12  15
ENDBRANCH   3  12
TORSDOF 3
ENDMDL
MODEL       28
REMARK 921   NORMALIZED FREE ENERGY PREDICTED BY IDOCK:   -6.34 KCAL/MOL
REMARK 922        TOTAL FREE ENERGY PREDICTED BY IDOCK:   -8.43 KCAL/MOL
REMARK 923 INTER-LIGAND FREE ENERGY PREDICTED BY IDOCK:   -7.03 KCAL/MOL
REMARK 924 INTRA-LIGAND FREE ENERGY PREDICTED BY IDOCK:   -1.41 KCAL/MOL
REMARK 927      BINDING AFFINITY PREDICTED BY RF-SCORE:    0.00 PKD
ROOT
HETATM    1  C   UNL     1      -8.199  14.194  67.550  1.00  0.00    -0.196 C  
HETATM    2  C   UNL     1      -7.066  15.170  67.468  1.00  0.00    -0.225 C  
HETATM    3  C   UNL     1      -9.523  14.477  67.535  1.00  0.00    -0.203 C  
ENDROOT
BRANCH   3   4
HETATM    4  C   UNL     1      -9.937  15.893  67.433  1.00  0.00    -0.239 A  
HETATM    5  O   UNL     1     -10.716  19.965  67.117  1.00  0.00    -0.429 OA 
HETATM    6  H   UNL     1     -10.758  20.503  67.899  1.00  0.00     0.000 HD 
HETATM    7  C   UNL     1     -10.154  16.466  66.171  1.00  0.00    -0.364 A  
HETATM    8  C   UNL     1     -10.489  18.621  67.193  1.00  0.00    -0.415 A  
HETATM    9  C   UNL     1     -10.035  16.699  68.576  1.00  0.00    -0.261 A  
HETATM   10  C   UNL     1     -10.308  18.065  68.453  1.00  0.00    -0.377 A  
HETATM   11  C   UNL     1     -10.427  17.833  66.049  1.00  0.00    -0.286 A  
ENDBRANCH   3   4
BRANCH   3  12
HETATM   12  C   UNL     1     -10.492  13.366  67.574  1.00  0.00    -0.236 C  
HETATM   13  C   UNL     1     -10.910  12.909  68.776  1.00  0.00    -0.277 C  
HETATM   14  C   UNL     1     -11.929  11.850  69.067  1.00  0.00    -0.321 C  
BRANCH  12  15
HETATM   15  C   UNL     1     -11.081  12.799  66.338  1.00  0.00    -0.320 A  
HETATM   16  C   UNL     1     -12.086  11.828  63.915  1.00  0.00    -0.309 A  
HETATM   17  C   UNL     1     -10.410  11.779  65.644  1.00  0.00    -0.293 A  
HETATM   18  C   UNL     1     -10.909  11.294  64.431  1.00  0.00    -0.373 A  
HETATM   19  O   UNL     1     -12.593  11.410  62.719  1.00  0.00    -0.952 OA 
HETATM   20  C   UNL     1     -12.781  12.815  64.605  1.00  0.00    -0.439 A  
HETATM   21  H   UNL     1     -13.396  11.774  62.367  1.00  0.00     0.000 HD 
HETATM   22  C   UNL     1     -12.280  13.301  65.816  1.00  0.00    -0.510 A  
ENDBRANCH  12  15
ENDBRANCH   3  12
TORSDOF 3
ENDMDL
MODEL       29
REMARK 921   NORMALIZED FREE ENERGY PREDICTED BY IDOCK:   -6.34 KCAL/MOL
REMARK 922        TOTAL FREE ENERGY PREDICTED BY IDOCK:   -8.43 KCAL/MOL
REMARK 923 INTER-LIGAND FREE ENERGY PREDICTED BY IDOCK:   -7.06 KCAL/MOL
REMARK 924 INTRA-LIGAND FREE ENERGY PREDICTED BY IDOCK:   -1.37 KCAL/MOL
REMARK 927      BINDING AFFINITY PREDICTED BY RF-SCORE:    0.00 PKD
ROOT
HETATM    1  C   UNL     1     -10.677  12.630  68.758  1.00  0.00    -0.240 C  
HETATM    2  C   UNL     1     -11.726  11.565  68.846  1.00  0.00    -0.403 C  
HETATM    3  C   UNL     1     -10.225  13.239  67.636  1.00  0.00    -0.228 C  
ENDROOT
BRANCH   3   4
HETATM    4  C   UNL     1     -10.802  12.833  66.335  1.00  0.00    -0.294 A  
HETATM    5  O   UNL     1     -12.613  11.405  62.877  1.00  0.00    -0.970 OA 
HETATM    6  H   UNL     1     -12.184  10.734  62.357  1.00  0.00     0.000 HD 
HETATM    7  C   UNL     1     -12.039  13.356  65.929  1.00  0.00    -0.486 A  
HETATM    8  C   UNL     1     -12.029  11.911  64.001  1.00  0.00    -0.356 A  
HETATM    9  C   UNL     1     -10.172  11.868  65.538  1.00  0.00    -0.290 A  
HETATM   10  C   UNL     1     -10.789  11.406  64.372  1.00  0.00    -0.397 A  
HETATM   11  C   UNL     1     -12.657  12.892  64.762  1.00  0.00    -0.493 A  
ENDBRANCH   3   4
BRANCH   3  12
HETATM   12  C   UNL     1      -9.217  14.309  67.759  1.00  0.00    -0.194 C  
HETATM   13  C   UNL     1      -7.917  13.964  67.898  1.00  0.00    -0.160 C  
HETATM   14  C   UNL     1      -6.719  14.859  67.971  1.00  0.00    -0.152 C  
BRANCH  12  15
HETATM   15  C   UNL     1      -9.579  15.741  67.651  1.00  0.00    -0.220 A  
HETATM   16  C   UNL     1     -10.427  18.400  67.474  1.00  0.00    -0.419 A  
HETATM   17  C   UNL     1      -9.777  16.506  68.812  1.00  0.00    -0.251 A  
HETATM   18  C   UNL     1     -10.204  17.835  68.726  1.00  0.00    -0.373 A  
HETATM   19  O   UNL     1     -10.875  19.683  67.342  1.00  0.00    -0.463 OA 
HETATM   20  C   UNL     1     -10.204  17.669  66.313  1.00  0.00    -0.362 A  
HETATM   21  H   UNL     1     -11.027  20.069  66.488  1.00  0.00     0.000 HD 
HETATM   22  C   UNL     1      -9.781  16.339  66.400  1.00  0.00    -0.310 A  
ENDBRANCH  12  15
ENDBRANCH   3  12
TORSDOF 3
ENDMDL
MODEL       30
REMARK 921   NORMALIZED FREE ENERGY PREDICTED BY IDOCK:   -6.33 KCAL/MOL
REMARK 922        TOTAL FREE ENERGY PREDICTED BY IDOCK:   -8.42 KCAL/MOL
REMARK 923 INTER-LIGAND FREE ENERGY PREDICTED BY IDOCK:   -7.02 KCAL/MOL
REMARK 924 INTRA-LIGAND FREE ENERGY PREDICTED BY IDOCK:   -1.39 KCAL/MOL
REMARK 927      BINDING AFFINITY PREDICTED BY RF-SCORE:    0.00 PKD
ROOT
HETATM    1  C   UNL     1     -11.629  12.160  69.369  1.00  0.00    -0.381 C  
HETATM    2  C   UNL     1     -12.064  10.733  69.250  1.00  0.00    -0.278 C  
HETATM    3  C   UNL     1     -11.313  13.004  68.358  1.00  0.00    -0.326 C  
ENDROOT
BRANCH   3   4
HETATM    4  C   UNL     1     -11.390  12.497  66.970  1.00  0.00    -0.386 A  
HETATM    5  O   UNL     1     -11.362  11.370  62.969  1.00  0.00    -0.841 OA 
HETATM    6  H   UNL     1     -12.009  11.725  62.370  1.00  0.00     0.000 HD 
HETATM    7  C   UNL     1     -10.433  11.578  66.511  1.00  0.00    -0.284 A  
HETATM    8  C   UNL     1     -11.364  11.701  64.293  1.00  0.00    -0.284 A  
HETATM    9  C   UNL     1     -12.354  12.984  66.078  1.00  0.00    -0.387 A  
HETATM   10  C   UNL     1     -12.337  12.587  64.738  1.00  0.00    -0.544 A  
HETATM   11  C   UNL     1     -10.417  11.182  65.169  1.00  0.00    -0.341 A  
ENDBRANCH   3   4
BRANCH   3  12
HETATM   12  C   UNL     1     -10.953  14.398  68.676  1.00  0.00    -0.264 C  
HETATM   13  C   UNL     1     -11.410  14.942  69.827  1.00  0.00    -0.314 C  
HETATM   14  C   UNL     1     -11.126  16.298  70.394  1.00  0.00    -0.322 C  
BRANCH  12  15
HETATM   15  C   UNL     1     -10.039  15.186  67.816  1.00  0.00    -0.230 A  
HETATM   16  C   UNL     1      -8.279  16.772  66.330  1.00  0.00    -0.324 A  
HETATM   17  C   UNL     1      -8.654  14.957  67.869  1.00  0.00    -0.160 A  
HETATM   18  C   UNL     1      -7.772  15.751  67.128  1.00  0.00    -0.255 A  
HETATM   19  O   UNL     1      -7.454  17.593  65.616  1.00  0.00    -0.508 OA 
HETATM   20  C   UNL     1      -9.649  16.991  66.240  1.00  0.00    -0.289 A  
HETATM   21  H   UNL     1      -7.800  18.289  65.070  1.00  0.00     0.000 HD 
HETATM   22  C   UNL     1     -10.529  16.199  66.983  1.00  0.00    -0.306 A  
ENDBRANCH  12  15
ENDBRANCH   3  12
TORSDOF 3
ENDMDL
MODEL       31
REMARK 921   NORMALIZED FREE ENERGY PREDICTED BY IDOCK:   -6.30 KCAL/MOL
REMARK 922        TOTAL FREE ENERGY PREDICTED BY IDOCK:   -8.38 KCAL/MOL
REMARK 923 INTER-LIGAND FREE ENERGY PREDICTED BY IDOCK:   -6.81 KCAL/MOL
REMARK 924 INTRA-LIGAND FREE ENERGY PREDICTED BY IDOCK:   -1.57 KCAL/MOL
REMARK 927      BINDING AFFINITY PREDICTED BY RF-SCORE:    0.00 PKD
ROOT
HETATM    1  C   UNL     1     -11.230  12.339  68.852  1.00  0.00    -0.323 C  
HETATM    2  C   UNL     1     -11.663  13.610  69.514  1.00  0.00    -0.380 C  
HETATM    3  C   UNL     1     -11.012  12.141  67.530  1.00  0.00    -0.304 C  
ENDROOT
BRANCH   3   4
HETATM    4  C   UNL     1     -11.217  13.278  66.606  1.00  0.00    -0.332 A  
HETATM    5  O   UNL     1     -11.648  16.239  63.721  1.00  0.00    -1.539 OA 
HETATM    6  H   UNL     1     -10.937  16.848  63.554  1.00  0.00     0.000 HD 
HETATM    7  C   UNL     1     -12.420  13.386  65.893  1.00  0.00    -0.468 A  
HETATM    8  C   UNL     1     -11.544  15.275  64.681  1.00  0.00    -0.333 A  
HETATM    9  C   UNL     1     -10.193  14.205  66.367  1.00  0.00    -0.292 A  
HETATM   10  C   UNL     1     -10.358  15.201  65.401  1.00  0.00    -0.415 A  
HETATM   11  C   UNL     1     -12.584  14.384  64.925  1.00  0.00    -0.298 A  
ENDBRANCH   3   4
BRANCH   3  12
HETATM   12  C   UNL     1     -10.536  10.821  67.074  1.00  0.00    -0.312 C  
HETATM   13  C   UNL     1     -10.958   9.716  67.729  1.00  0.00    -0.203 C  
HETATM   14  C   UNL     1     -10.671   8.280  67.415  1.00  0.00    -0.236 C  
BRANCH  12  15
HETATM   15  C   UNL     1      -9.683  10.670  65.873  1.00  0.00    -0.273 A  
HETATM   16  C   UNL     1      -8.046  10.554  63.608  1.00  0.00    -0.051 A  
HETATM   17  C   UNL     1      -8.285  10.629  66.003  1.00  0.00    -0.158 A  
HETATM   18  C   UNL     1      -7.465  10.574  64.872  1.00  0.00     0.006 A  
HETATM   19  O   UNL     1      -7.285  10.534  62.475  1.00  0.00    -0.143 OA 
HETATM   20  C   UNL     1      -9.428  10.561  63.460  1.00  0.00    -0.352 A  
HETATM   21  H   UNL     1      -7.681  10.521  61.612  1.00  0.00     0.000 HD 
HETATM   22  C   UNL     1     -10.248  10.619  64.592  1.00  0.00    -0.404 A  
ENDBRANCH  12  15
ENDBRANCH   3  12
TORSDOF 3
ENDMDL
MODEL       32
REMARK 921   NORMALIZED FREE ENERGY PREDICTED BY IDOCK:   -6.21 KCAL/MOL
REMARK 922        TOTAL FREE ENERGY PREDICTED BY IDOCK:   -8.28 KCAL/MOL
REMARK 923 INTER-LIGAND FREE ENERGY PREDICTED BY IDOCK:   -6.92 KCAL/MOL
REMARK 924 INTRA-LIGAND FREE ENERGY PREDICTED BY IDOCK:   -1.36 KCAL/MOL
REMARK 927      BINDING AFFINITY PREDICTED BY RF-SCORE:    0.00 PKD
ROOT
HETATM    1  C   UNL     1     -10.821  16.069  67.864  1.00  0.00    -0.333 C  
HETATM    2  C   UNL     1     -10.574  17.464  68.350  1.00  0.00    -0.355 C  
HETATM    3  C   UNL     1     -11.426  15.064  68.540  1.00  0.00    -0.335 C  
ENDROOT
BRANCH   3   4
HETATM    4  C   UNL     1     -11.905  15.331  69.914  1.00  0.00    -0.363 A  
HETATM    5  O   UNL     1     -13.241  15.687  73.834  1.00  0.00    -0.655 OA 
HETATM    6  H   UNL     1     -14.172  15.668  74.023  1.00  0.00     0.000 HD 
HETATM    7  C   UNL     1     -10.978  15.495  70.955  1.00  0.00    -0.333 A  
HETATM    8  C   UNL     1     -12.775  15.599  72.555  1.00  0.00    -0.433 A  
HETATM    9  C   UNL     1     -13.275  15.338  70.211  1.00  0.00    -0.054 A  
HETATM   10  C   UNL     1     -13.708  15.469  71.533  1.00  0.00    -0.553 A  
HETATM   11  C   UNL     1     -11.412  15.626  72.278  1.00  0.00    -0.459 A  
ENDBRANCH   3   4
BRANCH   3  12
HETATM   12  C   UNL     1     -11.624  13.767  67.867  1.00  0.00    -0.376 C  
HETATM   13  C   UNL     1     -12.060  13.758  66.587  1.00  0.00    -0.471 C  
HETATM   14  C   UNL     1     -12.267  12.583  65.682  1.00  0.00    -0.403 C  
BRANCH  12  15
HETATM   15  C   UNL     1     -11.277  12.485  68.523  1.00  0.00    -0.322 A  
HETATM   16  C   UNL     1     -10.589  10.153  69.906  1.00  0.00    -0.285 A  
HETATM   17  C   UNL     1     -12.209  11.849  69.360  1.00  0.00    -0.185 A  
HETATM   18  C   UNL     1     -11.866  10.684  70.055  1.00  0.00    -0.403 A  
HETATM   19  O   UNL     1     -10.198   9.037  70.589  1.00  0.00    -0.198 OA 
HETATM   20  C   UNL     1      -9.664  10.749  69.057  1.00  0.00    -0.201 A  
HETATM   21  H   UNL     1      -9.327   8.674  70.488  1.00  0.00     0.000 HD 
HETATM   22  C   UNL     1     -10.007  11.916  68.365  1.00  0.00    -0.203 A  
ENDBRANCH  12  15
ENDBRANCH   3  12
TORSDOF 3
ENDMDL
MODEL       33
REMARK 921   NORMALIZED FREE ENERGY PREDICTED BY IDOCK:   -6.21 KCAL/MOL
REMARK 922        TOTAL FREE ENERGY PREDICTED BY IDOCK:   -8.28 KCAL/MOL
REMARK 923 INTER-LIGAND FREE ENERGY PREDICTED BY IDOCK:   -7.21 KCAL/MOL
REMARK 924 INTRA-LIGAND FREE ENERGY PREDICTED BY IDOCK:   -1.07 KCAL/MOL
REMARK 927      BINDING AFFINITY PREDICTED BY RF-SCORE:    0.00 PKD
ROOT
HETATM    1  C   UNL     1     -10.490  10.653  66.364  1.00  0.00    -0.276 C  
HETATM    2  C   UNL     1      -9.891   9.336  65.980  1.00  0.00    -0.363 C  
HETATM    3  C   UNL     1     -10.590  11.172  67.611  1.00  0.00    -0.250 C  
ENDROOT
BRANCH   3   4
HETATM    4  C   UNL     1     -10.067  10.379  68.746  1.00  0.00    -0.198 A  
HETATM    5  O   UNL     1      -8.660   8.472  72.161  1.00  0.00    -0.184 OA 
HETATM    6  H   UNL     1      -7.738   8.520  72.387  1.00  0.00     0.000 HD 
HETATM    7  C   UNL     1     -10.954   9.651  69.553  1.00  0.00    -0.233 A  
HETATM    8  C   UNL     1      -9.145   9.065  71.032  1.00  0.00    -0.257 A  
HETATM    9  C   UNL     1      -8.707  10.411  69.080  1.00  0.00    -0.170 A  
HETATM   10  C   UNL     1      -8.248   9.755  70.226  1.00  0.00    -0.178 A  
HETATM   11  C   UNL     1     -10.494   8.996  70.701  1.00  0.00    -0.285 A  
ENDBRANCH   3   4
BRANCH   3  12
HETATM   12  C   UNL     1     -11.171  12.517  67.782  1.00  0.00    -0.318 C  
HETATM   13  C   UNL     1     -11.629  12.878  69.002  1.00  0.00    -0.372 C  
HETATM   14  C   UNL     1     -12.190  14.197  69.434  1.00  0.00    -0.329 C  
BRANCH  12  15
HETATM   15  C   UNL     1     -11.187  13.507  66.681  1.00  0.00    -0.328 A  
HETATM   16  C   UNL     1     -11.261  15.498  64.717  1.00  0.00    -0.390 A  
HETATM   17  C   UNL     1     -10.088  14.361  66.487  1.00  0.00    -0.281 A  
HETATM   18  C   UNL     1     -10.124  15.359  65.508  1.00  0.00    -0.405 A  
HETATM   19  O   UNL     1     -11.354  16.478  63.771  1.00  0.00    -1.553 OA 
HETATM   20  C   UNL     1     -12.345  14.641  64.872  1.00  0.00    -0.322 A  
HETATM   21  H   UNL     1     -12.130  16.573  63.231  1.00  0.00     0.000 HD 
HETATM   22  C   UNL     1     -12.309  13.646  65.854  1.00  0.00    -0.516 A  
ENDBRANCH  12  15
ENDBRANCH   3  12
TORSDOF 3
ENDMDL
MODEL       34
REMARK 921   NORMALIZED FREE ENERGY PREDICTED BY IDOCK:   -6.18 KCAL/MOL
REMARK 922        TOTAL FREE ENERGY PREDICTED BY IDOCK:   -8.24 KCAL/MOL
REMARK 923 INTER-LIGAND FREE ENERGY PREDICTED BY IDOCK:   -7.40 KCAL/MOL
REMARK 924 INTRA-LIGAND FREE ENERGY PREDICTED BY IDOCK:   -0.84 KCAL/MOL
REMARK 927      BINDING AFFINITY PREDICTED BY RF-SCORE:    0.00 PKD
ROOT
HETATM    1  C   UNL     1     -11.517  13.136  69.318  1.00  0.00    -0.348 C  
HETATM    2  C   UNL     1     -11.780  14.583  69.596  1.00  0.00    -0.356 C  
HETATM    3  C   UNL     1     -11.317  12.560  68.109  1.00  0.00    -0.343 C  
ENDROOT
BRANCH   3   4
HETATM    4  C   UNL     1     -11.359  13.420  66.906  1.00  0.00    -0.351 A  
HETATM    5  O   UNL     1     -11.574  16.137  63.768  1.00  0.00    -1.390 OA 
HETATM    6  H   UNL     1     -12.396  16.272  63.310  1.00  0.00     0.000 HD 
HETATM    7  C   UNL     1     -10.210  14.124  66.513  1.00  0.00    -0.278 A  
HETATM    8  C   UNL     1     -11.468  15.232  64.783  1.00  0.00    -0.363 A  
HETATM    9  C   UNL     1     -12.553  13.610  66.198  1.00  0.00    -0.391 A  
HETATM   10  C   UNL     1     -12.607  14.520  65.139  1.00  0.00    -0.242 A  
HETATM   11  C   UNL     1     -10.265  15.035  65.452  1.00  0.00    -0.411 A  
ENDBRANCH   3   4
BRANCH   3  12
HETATM   12  C   UNL     1     -11.019  11.117  68.045  1.00  0.00    -0.307 C  
HETATM   13  C   UNL     1     -10.739  10.564  66.843  1.00  0.00    -0.281 C  
HETATM   14  C   UNL     1     -10.344   9.152  66.537  1.00  0.00    -0.269 C  
BRANCH  12  15
HETATM   15  C   UNL     1     -10.936  10.280  69.264  1.00  0.00    -0.284 A  
HETATM   16  C   UNL     1     -10.786   8.846  71.661  1.00  0.00    -0.349 A  
HETATM   17  C   UNL     1     -12.101   9.977  69.989  1.00  0.00    -0.090 A  
HETATM   18  C   UNL     1     -12.027   9.262  71.189  1.00  0.00    -0.394 A  
HETATM   19  O   UNL     1     -10.663   8.174  72.843  1.00  0.00    -0.352 OA 
HETATM   20  C   UNL     1      -9.627   9.108  70.940  1.00  0.00    -0.347 A  
HETATM   21  H   UNL     1      -9.816   7.890  73.165  1.00  0.00     0.000 HD 
HETATM   22  C   UNL     1      -9.701   9.825  69.742  1.00  0.00    -0.256 A  
ENDBRANCH  12  15
ENDBRANCH   3  12
TORSDOF 3
ENDMDL
MODEL       35
REMARK 921   NORMALIZED FREE ENERGY PREDICTED BY IDOCK:   -6.15 KCAL/MOL
REMARK 922        TOTAL FREE ENERGY PREDICTED BY IDOCK:   -8.21 KCAL/MOL
REMARK 923 INTER-LIGAND FREE ENERGY PREDICTED BY IDOCK:   -6.79 KCAL/MOL
REMARK 924 INTRA-LIGAND FREE ENERGY PREDICTED BY IDOCK:   -1.42 KCAL/MOL
REMARK 927      BINDING AFFINITY PREDICTED BY RF-SCORE:    0.00 PKD
ROOT
HETATM    1  C   UNL     1     -11.175  13.325  69.432  1.00  0.00    -0.220 C  
HETATM    2  C   UNL     1     -12.277  14.288  69.750  1.00  0.00    -0.390 C  
HETATM    3  C   UNL     1     -10.523  13.192  68.252  1.00  0.00    -0.258 C  
ENDROOT
BRANCH   3   4
HETATM    4  C   UNL     1     -10.916  14.071  67.129  1.00  0.00    -0.303 A  
HETATM    5  O   UNL     1     -11.731  16.368  63.762  1.00  0.00    -1.553 OA 
HETATM    6  H   UNL     1     -11.288  17.199  63.634  1.00  0.00     0.000 HD 
HETATM    7  C   UNL     1     -11.859  13.624  66.192  1.00  0.00    -0.424 A  
HETATM    8  C   UNL     1     -11.504  15.606  64.871  1.00  0.00    -0.245 A  
HETATM    9  C   UNL     1     -10.297  15.314  66.938  1.00  0.00    -0.278 A  
HETATM   10  C   UNL     1     -10.590  16.079  65.805  1.00  0.00    -0.366 A  
HETATM   11  C   UNL     1     -12.151  14.390  65.058  1.00  0.00    -0.417 A  
ENDBRANCH   3   4
BRANCH   3  12
HETATM   12  C   UNL     1      -9.424  12.214  68.150  1.00  0.00    -0.205 C  
HETATM   13  C   UNL     1      -8.181  12.591  68.526  1.00  0.00    -0.079 C  
HETATM   14  C   UNL     1      -6.933  11.765  68.577  1.00  0.00    -0.083 C  
BRANCH  12  15
HETATM   15  C   UNL     1      -9.660  10.813  67.730  1.00  0.00    -0.176 A  
HETATM   16  C   UNL     1     -10.261   8.217  66.879  1.00  0.00    -0.318 A  
HETATM   17  C   UNL     1      -9.478  10.441  66.388  1.00  0.00    -0.209 A  
HETATM   18  C   UNL     1      -9.780   9.145  65.959  1.00  0.00    -0.358 A  
HETATM   19  O   UNL     1     -10.601   6.950  66.500  1.00  0.00    -0.497 OA 
HETATM   20  C   UNL     1     -10.417   8.557  68.218  1.00  0.00    -0.222 A  
HETATM   21  H   UNL     1     -10.929   6.317  67.127  1.00  0.00     0.000 HD 
HETATM   22  C   UNL     1     -10.117   9.855  68.644  1.00  0.00    -0.191 A  
ENDBRANCH  12  15
ENDBRANCH   3  12
TORSDOF 3
ENDMDL
MODEL       36
REMARK 921   NORMALIZED FREE ENERGY PREDICTED BY IDOCK:   -6.15 KCAL/MOL
REMARK 922        TOTAL FREE ENERGY PREDICTED BY IDOCK:   -8.20 KCAL/MOL
REMARK 923 INTER-LIGAND FREE ENERGY PREDICTED BY IDOCK:   -6.80 KCAL/MOL
REMARK 924 INTRA-LIGAND FREE ENERGY PREDICTED BY IDOCK:   -1.40 KCAL/MOL
REMARK 927      BINDING AFFINITY PREDICTED BY RF-SCORE:    0.00 PKD
ROOT
HETATM    1  C   UNL     1      -8.107  12.604  68.557  1.00  0.00    -0.082 C  
HETATM    2  C   UNL     1      -6.917  11.708  68.704  1.00  0.00    -0.088 C  
HETATM    3  C   UNL     1      -9.337  12.260  68.106  1.00  0.00    -0.205 C  
ENDROOT
BRANCH   3   4
HETATM    4  C   UNL     1      -9.570  10.856  67.702  1.00  0.00    -0.177 A  
HETATM    5  O   UNL     1     -10.589   7.023  66.457  1.00  0.00    -0.505 OA 
HETATM    6  H   UNL     1     -10.981   6.412  67.071  1.00  0.00     0.000 HD 
HETATM    7  C   UNL     1      -9.318  10.463  66.379  1.00  0.00    -0.197 A  
HETATM    8  C   UNL     1     -10.220   8.278  66.845  1.00  0.00    -0.318 A  
HETATM    9  C   UNL     1     -10.119   9.930  68.598  1.00  0.00    -0.191 A  
HETATM   10  C   UNL     1     -10.447   8.641  68.167  1.00  0.00    -0.241 A  
HETATM   11  C   UNL     1      -9.647   9.172  65.947  1.00  0.00    -0.343 A  
ENDBRANCH   3   4
BRANCH   3  12
HETATM   12  C   UNL     1     -10.401  13.281  68.082  1.00  0.00    -0.246 C  
HETATM   13  C   UNL     1     -11.068  13.553  69.227  1.00  0.00    -0.230 C  
HETATM   14  C   UNL     1     -12.128  14.583  69.465  1.00  0.00    -0.348 C  
BRANCH  12  15
HETATM   15  C   UNL     1     -10.698  14.073  66.866  1.00  0.00    -0.285 A  
HETATM   16  C   UNL     1     -11.368  15.661  64.663  1.00  0.00    -0.349 A  
HETATM   17  C   UNL     1     -10.085  15.322  66.673  1.00  0.00    -0.268 A  
HETATM   18  C   UNL     1     -10.421  16.119  65.574  1.00  0.00    -0.407 A  
HETATM   19  O   UNL     1     -11.751  16.419  63.594  1.00  0.00    -1.520 OA 
HETATM   20  C   UNL     1     -11.960  14.413  64.819  1.00  0.00    -0.455 A  
HETATM   21  H   UNL     1     -12.397  16.106  62.972  1.00  0.00     0.000 HD 
HETATM   22  C   UNL     1     -11.626  13.618  65.920  1.00  0.00    -0.346 A  
ENDBRANCH  12  15
ENDBRANCH   3  12
TORSDOF 3
ENDMDL
MODEL       37
REMARK 921   NORMALIZED FREE ENERGY PREDICTED BY IDOCK:   -6.14 KCAL/MOL
REMARK 922        TOTAL FREE ENERGY PREDICTED BY IDOCK:   -8.20 KCAL/MOL
REMARK 923 INTER-LIGAND FREE ENERGY PREDICTED BY IDOCK:   -7.09 KCAL/MOL
REMARK 924 INTRA-LIGAND FREE ENERGY PREDICTED BY IDOCK:   -1.11 KCAL/MOL
REMARK 927      BINDING AFFINITY PREDICTED BY RF-SCORE:    0.00 PKD
ROOT
HETATM    1  C   UNL     1      -9.666  10.695  64.743  1.00  0.00    -0.350 C  
HETATM    2  C   UNL     1      -8.839   9.729  63.952  1.00  0.00    -0.259 C  
HETATM    3  C   UNL     1     -10.063  10.565  66.031  1.00  0.00    -0.317 C  
ENDROOT
BRANCH   3   4
HETATM    4  C   UNL     1      -9.662   9.348  66.771  1.00  0.00    -0.257 A  
HETATM    5  O   UNL     1      -8.715   6.086  69.167  1.00  0.00    -0.119 OA 
HETATM    6  H   UNL     1      -7.904   6.079  69.663  1.00  0.00     0.000 HD 
HETATM    7  C   UNL     1     -10.535   8.251  66.833  1.00  0.00    -0.365 A  
HETATM    8  C   UNL     1      -9.039   7.131  68.352  1.00  0.00    -0.127 A  
HETATM    9  C   UNL     1      -8.456   9.304  67.484  1.00  0.00    -0.115 A  
HETATM   10  C   UNL     1      -8.148   8.195  68.277  1.00  0.00    -0.128 A  
HETATM   11  C   UNL     1     -10.226   7.142  67.628  1.00  0.00    -0.253 A  
ENDBRANCH   3   4
BRANCH   3  12
HETATM   12  C   UNL     1     -10.836  11.656  66.654  1.00  0.00    -0.327 C  
HETATM   13  C   UNL     1     -11.281  11.496  67.921  1.00  0.00    -0.344 C  
HETATM   14  C   UNL     1     -12.018  12.476  68.780  1.00  0.00    -0.283 C  
BRANCH  12  15
HETATM   15  C   UNL     1     -11.062  12.947  65.965  1.00  0.00    -0.308 A  
HETATM   16  C   UNL     1     -11.412  15.318  64.523  1.00  0.00    -0.315 A  
HETATM   17  C   UNL     1     -12.143  13.091  65.079  1.00  0.00    -0.470 A  
HETATM   18  C   UNL     1     -12.318  14.275  64.355  1.00  0.00    -0.417 A  
HETATM   19  O   UNL     1     -11.525  16.479  63.814  1.00  0.00    -1.615 OA 
HETATM   20  C   UNL     1     -10.356  15.206  65.420  1.00  0.00    -0.415 A  
HETATM   21  H   UNL     1     -10.907  17.191  63.929  1.00  0.00     0.000 HD 
HETATM   22  C   UNL     1     -10.180  14.021  66.141  1.00  0.00    -0.308 A  
ENDBRANCH  12  15
ENDBRANCH   3  12
TORSDOF 3
ENDMDL
MODEL       38
REMARK 921   NORMALIZED FREE ENERGY PREDICTED BY IDOCK:   -6.14 KCAL/MOL
REMARK 922        TOTAL FREE ENERGY PREDICTED BY IDOCK:   -8.20 KCAL/MOL
REMARK 923 INTER-LIGAND FREE ENERGY PREDICTED BY IDOCK:   -7.05 KCAL/MOL
REMARK 924 INTRA-LIGAND FREE ENERGY PREDICTED BY IDOCK:   -1.15 KCAL/MOL
REMARK 927      BINDING AFFINITY PREDICTED BY RF-SCORE:    0.00 PKD
ROOT
HETATM    1  C   UNL     1     -11.223  11.423  68.044  1.00  0.00    -0.346 C  
HETATM    2  C   UNL     1     -11.916  12.445  68.891  1.00  0.00    -0.289 C  
HETATM    3  C   UNL     1     -10.802  11.573  66.765  1.00  0.00    -0.330 C  
ENDROOT
BRANCH   3   4
HETATM    4  C   UNL     1     -11.037  12.871  66.096  1.00  0.00    -0.314 A  
HETATM    5  O   UNL     1     -11.547  16.354  63.885  1.00  0.00    -1.564 OA 
HETATM    6  H   UNL     1     -10.854  17.004  63.855  1.00  0.00     0.000 HD 
HETATM    7  C   UNL     1     -12.241  13.091  65.409  1.00  0.00    -0.520 A  
HETATM    8  C   UNL     1     -11.418  15.215  64.624  1.00  0.00    -0.362 A  
HETATM    9  C   UNL     1     -10.042  13.856  66.064  1.00  0.00    -0.324 A  
HETATM   10  C   UNL     1     -10.233  15.027  65.324  1.00  0.00    -0.409 A  
HETATM   11  C   UNL     1     -12.431  14.263  64.668  1.00  0.00    -0.371 A  
ENDBRANCH   3   4
BRANCH   3  12
HETATM   12  C   UNL     1     -10.088  10.459  66.113  1.00  0.00    -0.299 C  
HETATM   13  C   UNL     1      -9.779  10.565  64.801  1.00  0.00    -0.365 C  
HETATM   14  C   UNL     1      -9.007   9.609  63.945  1.00  0.00    -0.254 C  
BRANCH  12  15
HETATM   15  C   UNL     1      -9.627   9.274  66.872  1.00  0.00    -0.229 A  
HETATM   16  C   UNL     1      -8.863   7.083  68.433  1.00  0.00    -0.123 A  
HETATM   17  C   UNL     1     -10.417   8.112  66.908  1.00  0.00    -0.379 A  
HETATM   18  C   UNL     1     -10.038   7.017  67.690  1.00  0.00    -0.218 A  
HETATM   19  O   UNL     1      -8.470   6.051  69.237  1.00  0.00    -0.113 OA 
HETATM   20  C   UNL     1      -8.052   8.211  68.384  1.00  0.00    -0.128 A  
HETATM   21  H   UNL     1      -7.669   6.096  69.744  1.00  0.00     0.000 HD 
HETATM   22  C   UNL     1      -8.434   9.307  67.604  1.00  0.00    -0.116 A  
ENDBRANCH  12  15
ENDBRANCH   3  12
TORSDOF 3
ENDMDL
MODEL       39
REMARK 921   NORMALIZED FREE ENERGY PREDICTED BY IDOCK:   -6.11 KCAL/MOL
REMARK 922        TOTAL FREE ENERGY PREDICTED BY IDOCK:   -8.16 KCAL/MOL
REMARK 923 INTER-LIGAND FREE ENERGY PREDICTED BY IDOCK:   -6.58 KCAL/MOL
REMARK 924 INTRA-LIGAND FREE ENERGY PREDICTED BY IDOCK:   -1.58 KCAL/MOL
REMARK 927      BINDING AFFINITY PREDICTED BY RF-SCORE:    0.00 PKD
ROOT
HETATM    1  C   UNL     1     -10.645  16.299  66.494  1.00  0.00    -0.256 C  
HETATM    2  C   UNL     1     -10.651  16.956  65.149  1.00  0.00    -0.087 C  
HETATM    3  C   UNL     1     -10.935  15.006  66.773  1.00  0.00    -0.323 C  
ENDROOT
BRANCH   3   4
HETATM    4  C   UNL     1     -11.307  14.113  65.653  1.00  0.00    -0.319 A  
HETATM    5  O   UNL     1     -12.328  11.302  62.766  1.00  0.00    -0.856 OA 
HETATM    6  H   UNL     1     -11.650  10.883  62.249  1.00  0.00     0.000 HD 
HETATM    7  C   UNL     1     -12.656  13.798  65.433  1.00  0.00    -0.534 A  
HETATM    8  C   UNL     1     -12.024  12.248  63.701  1.00  0.00    -0.543 A  
HETATM    9  C   UNL     1     -10.325  13.507  64.858  1.00  0.00    -0.395 A  
HETATM   10  C   UNL     1     -10.685  12.572  63.884  1.00  0.00    -0.473 A  
HETATM   11  C   UNL     1     -13.017  12.861  64.458  1.00  0.00    -0.168 A  
ENDBRANCH   3   4
BRANCH   3  12
HETATM   12  C   UNL     1     -10.822  14.531  68.165  1.00  0.00    -0.246 C  
HETATM   13  C   UNL     1     -10.787  15.443  69.162  1.00  0.00    -0.249 C  
HETATM   14  C   UNL     1     -10.746  15.207  70.640  1.00  0.00    -0.160 C  
BRANCH  12  15
HETATM   15  C   UNL     1     -10.834  13.089  68.502  1.00  0.00    -0.282 A  
HETATM   16  C   UNL     1     -10.868  10.332  68.971  1.00  0.00    -0.230 A  
HETATM   17  C   UNL     1      -9.659  12.329  68.381  1.00  0.00    -0.183 A  
HETATM   18  C   UNL     1      -9.675  10.950  68.612  1.00  0.00    -0.188 A  
HETATM   19  O   UNL     1     -10.939   8.984  69.175  1.00  0.00    -0.404 OA 
HETATM   20  C   UNL     1     -12.034  11.073  69.129  1.00  0.00    -0.394 A  
HETATM   21  H   UNL     1     -11.753   8.562  69.420  1.00  0.00     0.000 HD 
HETATM   22  C   UNL     1     -12.018  12.451  68.894  1.00  0.00    -0.289 A  
ENDBRANCH  12  15
ENDBRANCH   3  12
TORSDOF 3
ENDMDL
MODEL       40
REMARK 921   NORMALIZED FREE ENERGY PREDICTED BY IDOCK:   -6.11 KCAL/MOL
REMARK 922        TOTAL FREE ENERGY PREDICTED BY IDOCK:   -8.16 KCAL/MOL
REMARK 923 INTER-LIGAND FREE ENERGY PREDICTED BY IDOCK:   -6.75 KCAL/MOL
REMARK 924 INTRA-LIGAND FREE ENERGY PREDICTED BY IDOCK:   -1.41 KCAL/MOL
REMARK 927      BINDING AFFINITY PREDICTED BY RF-SCORE:    0.00 PKD
ROOT
HETATM    1  C   UNL     1     -10.502  16.171  66.289  1.00  0.00    -0.321 C  
HETATM    2  C   UNL     1     -10.913  16.903  65.049  1.00  0.00    -0.055 C  
HETATM    3  C   UNL     1     -10.580  14.838  66.514  1.00  0.00    -0.299 C  
ENDROOT
BRANCH   3   4
HETATM    4  C   UNL     1     -11.130  13.976  65.445  1.00  0.00    -0.318 A  
HETATM    5  O   UNL     1     -12.620  11.247  62.686  1.00  0.00    -0.821 OA 
HETATM    6  H   UNL     1     -12.034  10.829  62.066  1.00  0.00     0.000 HD 
HETATM    7  C   UNL     1     -12.503  13.688  65.421  1.00  0.00    -0.537 A  
HETATM    8  C   UNL     1     -12.164  12.167  63.584  1.00  0.00    -0.562 A  
HETATM    9  C   UNL     1     -10.288  13.372  64.501  1.00  0.00    -0.394 A  
HETATM   10  C   UNL     1     -10.806  12.465  63.573  1.00  0.00    -0.487 A  
HETATM   11  C   UNL     1     -13.021  12.779  64.492  1.00  0.00    -0.210 A  
ENDBRANCH   3   4
BRANCH   3  12
HETATM   12  C   UNL     1     -10.073  14.297  67.789  1.00  0.00    -0.231 C  
HETATM   13  C   UNL     1      -8.737  14.176  67.959  1.00  0.00    -0.177 C  
HETATM   14  C   UNL     1      -7.990  13.723  69.175  1.00  0.00     0.247 C  
BRANCH  12  15
HETATM   15  C   UNL     1     -10.979  13.966  68.913  1.00  0.00    -0.290 A  
HETATM   16  C   UNL     1     -12.553  13.344  71.140  1.00  0.00    -0.345 A  
HETATM   17  C   UNL     1     -11.423  14.979  69.780  1.00  0.00    -0.324 A  
HETATM   18  C   UNL     1     -12.207  14.669  70.896  1.00  0.00    -0.391 A  
HETATM   19  O   UNL     1     -13.289  12.990  72.234  1.00  0.00    -0.517 OA 
HETATM   20  C   UNL     1     -12.151  12.332  70.275  1.00  0.00    -0.376 A  
HETATM   21  H   UNL     1     -13.525  12.086  72.401  1.00  0.00     0.000 HD 
HETATM   22  C   UNL     1     -11.364  12.642  69.162  1.00  0.00    -0.339 A  
ENDBRANCH  12  15
ENDBRANCH   3  12
TORSDOF 3
ENDMDL
MODEL       41
REMARK 921   NORMALIZED FREE ENERGY PREDICTED BY IDOCK:   -6.11 KCAL/MOL
REMARK 922        TOTAL FREE ENERGY PREDICTED BY IDOCK:   -8.16 KCAL/MOL
REMARK 923 INTER-LIGAND FREE ENERGY PREDICTED BY IDOCK:   -7.01 KCAL/MOL
REMARK 924 INTRA-LIGAND FREE ENERGY PREDICTED BY IDOCK:   -1.14 KCAL/MOL
REMARK 927      BINDING AFFINITY PREDICTED BY RF-SCORE:    0.00 PKD
ROOT
HETATM    1  C   UNL     1      -8.744   9.293  70.271  1.00  0.00    -0.246 C  
HETATM    2  C   UNL     1      -8.454   8.829  71.665  1.00  0.00    -0.209 C  
HETATM    3  C   UNL     1      -9.959   9.557  69.735  1.00  0.00    -0.234 C  
ENDROOT
BRANCH   3   4
HETATM    4  C   UNL     1     -11.156   9.375  70.585  1.00  0.00    -0.351 A  
HETATM    5  O   UNL     1     -14.278   8.891  73.287  1.00  0.00    -1.197 OA 
HETATM    6  H   UNL     1     -14.523   8.021  73.579  1.00  0.00     0.000 HD 
HETATM    7  C   UNL     1     -11.857  10.499  71.050  1.00  0.00    -0.438 A  
HETATM    8  C   UNL     1     -13.276   9.078  72.380  1.00  0.00    -0.447 A  
HETATM    9  C   UNL     1     -11.555   8.099  71.004  1.00  0.00    -0.301 A  
HETATM   10  C   UNL     1     -12.613   7.952  71.905  1.00  0.00    -0.348 A  
HETATM   11  C   UNL     1     -12.916  10.351  71.952  1.00  0.00    -0.555 A  
ENDBRANCH   3   4
BRANCH   3  12
HETATM   12  C   UNL     1     -10.036  10.056  68.349  1.00  0.00    -0.186 C  
HETATM   13  C   UNL     1      -9.944   9.170  67.332  1.00  0.00    -0.262 C  
HETATM   14  C   UNL     1     -10.062   9.424  65.861  1.00  0.00    -0.243 C  
BRANCH  12  15
HETATM   15  C   UNL     1     -10.297  11.483  68.045  1.00  0.00    -0.208 A  
HETATM   16  C   UNL     1     -10.779  14.208  67.641  1.00  0.00    -0.257 A  
HETATM   17  C   UNL     1      -9.231  12.397  67.996  1.00  0.00    -0.203 A  
HETATM   18  C   UNL     1      -9.471  13.760  67.797  1.00  0.00    -0.216 A  
HETATM   19  O   UNL     1     -11.063  15.533  67.478  1.00  0.00    -0.321 OA 
HETATM   20  C   UNL     1     -11.843  13.314  67.654  1.00  0.00    -0.400 A  
HETATM   21  H   UNL     1     -11.956  15.839  67.371  1.00  0.00     0.000 HD 
HETATM   22  C   UNL     1     -11.603  11.951  67.857  1.00  0.00    -0.393 A  
ENDBRANCH  12  15
ENDBRANCH   3  12
TORSDOF 3
ENDMDL
MODEL       42
REMARK 921   NORMALIZED FREE ENERGY PREDICTED BY IDOCK:   -6.08 KCAL/MOL
REMARK 922        TOTAL FREE ENERGY PREDICTED BY IDOCK:   -8.12 KCAL/MOL
REMARK 923 INTER-LIGAND FREE ENERGY PREDICTED BY IDOCK:   -7.08 KCAL/MOL
REMARK 924 INTRA-LIGAND FREE ENERGY PREDICTED BY IDOCK:   -1.04 KCAL/MOL
REMARK 927      BINDING AFFINITY PREDICTED BY RF-SCORE:    0.00 PKD
ROOT
HETATM    1  C   UNL     1     -10.917  10.244  67.837  1.00  0.00    -0.350 C  
HETATM    2  C   UNL     1     -10.519   8.845  67.482  1.00  0.00    -0.337 C  
HETATM    3  C   UNL     1     -11.228  10.717  69.067  1.00  0.00    -0.324 C  
ENDROOT
BRANCH   3   4
HETATM    4  C   UNL     1     -11.188   9.779  70.211  1.00  0.00    -0.347 A  
HETATM    5  O   UNL     1     -11.114   7.462  73.661  1.00  0.00    -0.576 OA 
HETATM    6  H   UNL     1     -10.287   7.271  74.089  1.00  0.00     0.000 HD 
HETATM    7  C   UNL     1     -12.386   9.265  70.732  1.00  0.00    -0.144 A  
HETATM    8  C   UNL     1     -11.166   8.196  72.513  1.00  0.00    -0.391 A  
HETATM    9  C   UNL     1      -9.977   9.460  70.839  1.00  0.00    -0.353 A  
HETATM   10  C   UNL     1      -9.968   8.671  71.992  1.00  0.00    -0.399 A  
HETATM   11  C   UNL     1     -12.376   8.475  71.887  1.00  0.00    -0.407 A  
ENDBRANCH   3   4
BRANCH   3  12
HETATM   12  C   UNL     1     -11.547  12.148  69.224  1.00  0.00    -0.377 C  
HETATM   13  C   UNL     1     -12.055  12.576  70.401  1.00  0.00    -0.380 C  
HETATM   14  C   UNL     1     -12.389  13.975  70.818  1.00  0.00    -0.443 C  
BRANCH  12  15
HETATM   15  C   UNL     1     -11.247  13.137  68.162  1.00  0.00    -0.304 A  
HETATM   16  C   UNL     1     -10.652  14.871  66.050  1.00  0.00    -0.315 A  
HETATM   17  C   UNL     1     -12.223  13.457  67.204  1.00  0.00    -0.306 A  
HETATM   18  C   UNL     1     -11.927  14.322  66.145  1.00  0.00    -0.422 A  
HETATM   19  O   UNL     1     -10.307  15.694  65.016  1.00  0.00    -0.413 OA 
HETATM   20  C   UNL     1      -9.683  14.591  67.007  1.00  0.00    -0.247 A  
HETATM   21  H   UNL     1      -9.437  16.069  64.951  1.00  0.00     0.000 HD 
HETATM   22  C   UNL     1      -9.980  13.724  68.063  1.00  0.00    -0.246 A  
ENDBRANCH  12  15
ENDBRANCH   3  12
TORSDOF 3
ENDMDL
MODEL       43
REMARK 921   NORMALIZED FREE ENERGY PREDICTED BY IDOCK:   -6.07 KCAL/MOL
REMARK 922        TOTAL FREE ENERGY PREDICTED BY IDOCK:   -8.12 KCAL/MOL
REMARK 923 INTER-LIGAND FREE ENERGY PREDICTED BY IDOCK:   -7.25 KCAL/MOL
REMARK 924 INTRA-LIGAND FREE ENERGY PREDICTED BY IDOCK:   -0.87 KCAL/MOL
REMARK 927      BINDING AFFINITY PREDICTED BY RF-SCORE:    0.00 PKD
ROOT
HETATM    1  C   UNL     1      -9.874  10.648  65.441  1.00  0.00    -0.325 C  
HETATM    2  C   UNL     1     -10.080  10.660  63.958  1.00  0.00    -0.378 C  
HETATM    3  C   UNL     1     -10.070  11.676  66.301  1.00  0.00    -0.254 C  
ENDROOT
BRANCH   3   4
HETATM    4  C   UNL     1     -10.532  12.970  65.754  1.00  0.00    -0.292 A  
HETATM    5  O   UNL     1     -11.705  16.481  63.862  1.00  0.00    -1.527 OA 
HETATM    6  H   UNL     1     -11.099  17.209  63.792  1.00  0.00     0.000 HD 
HETATM    7  C   UNL     1     -11.831  13.083  65.235  1.00  0.00    -0.413 A  
HETATM    8  C   UNL     1     -11.357  15.327  64.501  1.00  0.00    -0.300 A  
HETATM    9  C   UNL     1      -9.664  14.067  65.667  1.00  0.00    -0.181 A  
HETATM   10  C   UNL     1     -10.077  15.245  65.037  1.00  0.00    -0.250 A  
HETATM   11  C   UNL     1     -12.244  14.261  64.604  1.00  0.00    -0.470 A  
ENDBRANCH   3   4
BRANCH   3  12
HETATM   12  C   UNL     1      -9.860  11.452  67.743  1.00  0.00    -0.186 C  
HETATM   13  C   UNL     1      -8.710  10.868  68.150  1.00  0.00    -0.133 C  
HETATM   14  C   UNL     1      -8.244  10.602  69.548  1.00  0.00    -0.036 C  
BRANCH  12  15
HETATM   15  C   UNL     1     -10.831  11.924  68.757  1.00  0.00    -0.270 A  
HETATM   16  C   UNL     1     -12.531  12.850  70.776  1.00  0.00    -0.286 A  
HETATM   17  C   UNL     1     -11.066  13.300  68.918  1.00  0.00    -0.304 A  
HETATM   18  C   UNL     1     -11.913  13.765  69.929  1.00  0.00    -0.412 A  
HETATM   19  O   UNL     1     -13.340  13.258  71.797  1.00  0.00    -0.400 OA 
HETATM   20  C   UNL     1     -12.336  11.483  70.611  1.00  0.00    -0.457 A  
HETATM   21  H   UNL     1     -13.761  12.634  72.376  1.00  0.00     0.000 HD 
HETATM   22  C   UNL     1     -11.486  11.019  69.602  1.00  0.00    -0.375 A  
ENDBRANCH  12  15
ENDBRANCH   3  12
TORSDOF 3
ENDMDL
MODEL       44
REMARK 921   NORMALIZED FREE ENERGY PREDICTED BY IDOCK:   -6.06 KCAL/MOL
REMARK 922        TOTAL FREE ENERGY PREDICTED BY IDOCK:   -8.10 KCAL/MOL
REMARK 923 INTER-LIGAND FREE ENERGY PREDICTED BY IDOCK:   -7.08 KCAL/MOL
REMARK 924 INTRA-LIGAND FREE ENERGY PREDICTED BY IDOCK:   -1.02 KCAL/MOL
REMARK 927      BINDING AFFINITY PREDICTED BY RF-SCORE:    0.00 PKD
ROOT
HETATM    1  C   UNL     1      -9.674  14.318  68.174  1.00  0.00    -0.226 C  
HETATM    2  C   UNL     1      -9.107  15.217  69.229  1.00  0.00    -0.240 C  
HETATM    3  C   UNL     1     -10.847  13.643  68.221  1.00  0.00    -0.268 C  
ENDROOT
BRANCH   3   4
HETATM    4  C   UNL     1     -11.688  13.780  69.431  1.00  0.00    -0.379 A  
HETATM    5  O   UNL     1     -14.363  14.082  72.598  1.00  0.00    -0.596 OA 
HETATM    6  H   UNL     1     -14.765  14.918  72.804  1.00  0.00     0.000 HD 
HETATM    7  C   UNL     1     -11.983  12.647  70.205  1.00  0.00    -0.375 A  
HETATM    8  C   UNL     1     -13.461  13.959  71.582  1.00  0.00    -0.352 A  
HETATM    9  C   UNL     1     -12.266  15.010  69.771  1.00  0.00    -0.324 A  
HETATM   10  C   UNL     1     -13.156  15.097  70.846  1.00  0.00    -0.498 A  
HETATM   11  C   UNL     1     -12.875  12.735  71.280  1.00  0.00    -0.355 A  
ENDBRANCH   3   4
BRANCH   3  12
HETATM   12  C   UNL     1     -11.259  12.843  67.053  1.00  0.00    -0.329 C  
HETATM   13  C   UNL     1     -12.130  13.381  66.170  1.00  0.00    -0.481 C  
HETATM   14  C   UNL     1     -12.637  12.797  64.887  1.00  0.00    -0.541 C  
BRANCH  12  15
HETATM   15  C   UNL     1     -10.682  11.506  66.778  1.00  0.00    -0.311 A  
HETATM   16  C   UNL     1      -9.701   8.970  66.126  1.00  0.00    -0.283 A  
HETATM   17  C   UNL     1      -9.716  11.352  65.770  1.00  0.00    -0.263 A  
HETATM   18  C   UNL     1      -9.226  10.084  65.440  1.00  0.00    -0.259 A  
HETATM   19  O   UNL     1      -9.276   7.710  65.816  1.00  0.00    -0.376 OA 
HETATM   20  C   UNL     1     -10.632   9.107  67.148  1.00  0.00    -0.286 A  
HETATM   21  H   UNL     1      -9.600   6.949  66.283  1.00  0.00     0.000 HD 
HETATM   22  C   UNL     1     -11.124  10.375  67.475  1.00  0.00    -0.336 A  
ENDBRANCH  12  15
ENDBRANCH   3  12
TORSDOF 3
ENDMDL
MODEL       45
REMARK 921   NORMALIZED FREE ENERGY PREDICTED BY IDOCK:   -6.06 KCAL/MOL
REMARK 922        TOTAL FREE ENERGY PREDICTED BY IDOCK:   -8.10 KCAL/MOL
REMARK 923 INTER-LIGAND FREE ENERGY PREDICTED BY IDOCK:   -7.49 KCAL/MOL
REMARK 924 INTRA-LIGAND FREE ENERGY PREDICTED BY IDOCK:   -0.61 KCAL/MOL
REMARK 927      BINDING AFFINITY PREDICTED BY RF-SCORE:    0.00 PKD
ROOT
HETATM    1  C   UNL     1      -9.328  10.415  69.272  1.00  0.00    -0.202 C  
HETATM    2  C   UNL     1      -8.776   9.418  70.243  1.00  0.00    -0.261 C  
HETATM    3  C   UNL     1     -10.598  10.883  69.216  1.00  0.00    -0.251 C  
ENDROOT
BRANCH   3   4
HETATM    4  C   UNL     1     -11.577  10.377  70.202  1.00  0.00    -0.392 A  
HETATM    5  O   UNL     1     -14.046   8.997  73.248  1.00  0.00    -1.218 OA 
HETATM    6  H   UNL     1     -14.074   8.070  73.455  1.00  0.00     0.000 HD 
HETATM    7  C   UNL     1     -12.382  11.281  70.911  1.00  0.00    -0.490 A  
HETATM    8  C   UNL     1     -13.266   9.474  72.236  1.00  0.00    -0.421 A  
HETATM    9  C   UNL     1     -11.657   9.010  70.502  1.00  0.00    -0.209 A  
HETATM   10  C   UNL     1     -12.500   8.561  71.522  1.00  0.00    -0.353 A  
HETATM   11  C   UNL     1     -13.225  10.831  71.933  1.00  0.00    -0.524 A  
ENDBRANCH   3   4
BRANCH   3  12
HETATM   12  C   UNL     1     -10.939  11.907  68.211  1.00  0.00    -0.273 C  
HETATM   13  C   UNL     1     -11.403  11.507  67.006  1.00  0.00    -0.340 C  
HETATM   14  C   UNL     1     -11.874  12.350  65.862  1.00  0.00    -0.467 C  
BRANCH  12  15
HETATM   15  C   UNL     1     -10.868  13.355  68.515  1.00  0.00    -0.285 A  
HETATM   16  C   UNL     1     -10.792  16.120  68.930  1.00  0.00    -0.305 A  
HETATM   17  C   UNL     1     -12.032  14.056  68.872  1.00  0.00    -0.387 A  
HETATM   18  C   UNL     1     -11.996  15.439  69.077  1.00  0.00    -0.313 A  
HETATM   19  O   UNL     1     -10.716  17.474  69.087  1.00  0.00    -0.369 OA 
HETATM   20  C   UNL     1      -9.623  15.439  68.609  1.00  0.00    -0.204 A  
HETATM   21  H   UNL     1      -9.894  17.939  68.987  1.00  0.00     0.000 HD 
HETATM   22  C   UNL     1      -9.660  14.056  68.401  1.00  0.00    -0.222 A  
ENDBRANCH  12  15
ENDBRANCH   3  12
TORSDOF 3
ENDMDL
MODEL       46
REMARK 921   NORMALIZED FREE ENERGY PREDICTED BY IDOCK:   -6.04 KCAL/MOL
REMARK 922        TOTAL FREE ENERGY PREDICTED BY IDOCK:   -8.08 KCAL/MOL
REMARK 923 INTER-LIGAND FREE ENERGY PREDICTED BY IDOCK:   -7.23 KCAL/MOL
REMARK 924 INTRA-LIGAND FREE ENERGY PREDICTED BY IDOCK:   -0.85 KCAL/MOL
REMARK 927      BINDING AFFINITY PREDICTED BY RF-SCORE:    0.00 PKD
ROOT
HETATM    1  C   UNL     1     -11.655  13.404  68.497  1.00  0.00    -0.368 C  
HETATM    2  C   UNL     1     -11.771  14.802  67.974  1.00  0.00    -0.360 C  
HETATM    3  C   UNL     1     -11.939  12.975  69.749  1.00  0.00    -0.377 C  
ENDROOT
BRANCH   3   4
HETATM    4  C   UNL     1     -12.416  13.965  70.740  1.00  0.00    -0.445 A  
HETATM    5  O   UNL     1     -13.724  16.460  73.797  1.00  0.00    -0.866 OA 
HETATM    6  H   UNL     1     -14.651  16.520  73.998  1.00  0.00     0.000 HD 
HETATM    7  C   UNL     1     -11.487  14.730  71.462  1.00  0.00    -0.203 A  
HETATM    8  C   UNL     1     -13.269  15.670  72.781  1.00  0.00    -0.516 A  
HETATM    9  C   UNL     1     -13.781  14.093  71.032  1.00  0.00    -0.101 A  
HETATM   10  C   UNL     1     -14.205  14.944  72.056  1.00  0.00    -0.638 A  
HETATM   11  C   UNL     1     -11.913  15.582  72.487  1.00  0.00    -0.557 A  
ENDBRANCH   3   4
BRANCH   3  12
HETATM   12  C   UNL     1     -11.809  11.539  70.060  1.00  0.00    -0.435 C  
HETATM   13  C   UNL     1     -12.550  11.021  71.066  1.00  0.00    -0.512 C  
HETATM   14  C   UNL     1     -12.640   9.597  71.519  1.00  0.00    -0.483 C  
BRANCH  12  15
HETATM   15  C   UNL     1     -10.959  10.637  69.249  1.00  0.00    -0.294 A  
HETATM   16  C   UNL     1      -9.269   9.074  67.660  1.00  0.00    -0.136 A  
HETATM   17  C   UNL     1      -9.679  10.279  69.705  1.00  0.00    -0.216 A  
HETATM   18  C   UNL     1      -8.832   9.500  68.911  1.00  0.00    -0.137 A  
HETATM   19  O   UNL     1      -8.464   8.340  66.837  1.00  0.00    -0.115 OA 
HETATM   20  C   UNL     1     -10.544   9.391  67.206  1.00  0.00    -0.314 A  
HETATM   21  H   UNL     1      -8.762   8.050  65.983  1.00  0.00     0.000 HD 
HETATM   22  C   UNL     1     -11.389  10.173  67.999  1.00  0.00    -0.152 A  
ENDBRANCH  12  15
ENDBRANCH   3  12
TORSDOF 3
ENDMDL
MODEL       47
REMARK 921   NORMALIZED FREE ENERGY PREDICTED BY IDOCK:   -6.03 KCAL/MOL
REMARK 922        TOTAL FREE ENERGY PREDICTED BY IDOCK:   -8.07 KCAL/MOL
REMARK 923 INTER-LIGAND FREE ENERGY PREDICTED BY IDOCK:   -6.62 KCAL/MOL
REMARK 924 INTRA-LIGAND FREE ENERGY PREDICTED BY IDOCK:   -1.44 KCAL/MOL
REMARK 927      BINDING AFFINITY PREDICTED BY RF-SCORE:    0.00 PKD
ROOT
HETATM    1  C   UNL     1     -11.864  11.935  69.876  1.00  0.00    -0.418 C  
HETATM    2  C   UNL     1     -12.389  10.857  70.772  1.00  0.00    -0.487 C  
HETATM    3  C   UNL     1     -10.925  11.807  68.908  1.00  0.00    -0.288 C  
ENDROOT
BRANCH   3   4
HETATM    4  C   UNL     1     -10.325  10.473  68.684  1.00  0.00    -0.201 A  
HETATM    5  O   UNL     1      -8.410   6.897  67.778  1.00  0.00    -0.119 OA 
HETATM    6  H   UNL     1      -8.761   6.326  67.105  1.00  0.00     0.000 HD 
HETATM    7  C   UNL     1      -9.168  10.104  69.388  1.00  0.00    -0.229 A  
HETATM    8  C   UNL     1      -9.032   8.063  68.116  1.00  0.00    -0.135 A  
HETATM    9  C   UNL     1     -10.844   9.602  67.717  1.00  0.00    -0.278 A  
HETATM   10  C   UNL     1     -10.194   8.399  67.431  1.00  0.00    -0.328 A  
HETATM   11  C   UNL     1      -8.517   8.898  69.101  1.00  0.00    -0.132 A  
ENDBRANCH   3   4
BRANCH   3  12
HETATM   12  C   UNL     1     -10.575  12.983  68.090  1.00  0.00    -0.257 C  
HETATM   13  C   UNL     1      -9.669  13.864  68.572  1.00  0.00    -0.202 C  
HETATM   14  C   UNL     1      -9.108  15.082  67.905  1.00  0.00    -0.180 C  
BRANCH  12  15
HETATM   15  C   UNL     1     -11.122  13.179  66.728  1.00  0.00    -0.314 A  
HETATM   16  C   UNL     1     -12.046  13.682  64.136  1.00  0.00    -0.435 A  
HETATM   17  C   UNL     1     -10.423  12.689  65.612  1.00  0.00    -0.298 A  
HETATM   18  C   UNL     1     -10.882  12.942  64.316  1.00  0.00    -0.423 A  
HETATM   19  O   UNL     1     -12.514  13.982  62.889  1.00  0.00    -1.028 OA 
HETATM   20  C   UNL     1     -12.770  14.147  65.229  1.00  0.00    -0.425 A  
HETATM   21  H   UNL     1     -13.309  14.486  62.766  1.00  0.00     0.000 HD 
HETATM   22  C   UNL     1     -12.308  13.896  66.525  1.00  0.00    -0.447 A  
ENDBRANCH  12  15
ENDBRANCH   3  12
TORSDOF 3
ENDMDL
MODEL       48
REMARK 921   NORMALIZED FREE ENERGY PREDICTED BY IDOCK:   -6.03 KCAL/MOL
REMARK 922        TOTAL FREE ENERGY PREDICTED BY IDOCK:   -8.06 KCAL/MOL
REMARK 923 INTER-LIGAND FREE ENERGY PREDICTED BY IDOCK:   -6.63 KCAL/MOL
REMARK 924 INTRA-LIGAND FREE ENERGY PREDICTED BY IDOCK:   -1.43 KCAL/MOL
REMARK 927      BINDING AFFINITY PREDICTED BY RF-SCORE:    0.00 PKD
ROOT
HETATM    1  C   UNL     1      -9.798  14.232  68.803  1.00  0.00    -0.189 C  
HETATM    2  C   UNL     1      -9.289  15.486  68.162  1.00  0.00    -0.197 C  
HETATM    3  C   UNL     1     -10.581  13.285  68.235  1.00  0.00    -0.262 C  
ENDROOT
BRANCH   3   4
HETATM    4  C   UNL     1     -11.005  13.474  66.831  1.00  0.00    -0.296 A  
HETATM    5  O   UNL     1     -12.346  13.637  62.899  1.00  0.00    -0.970 OA 
HETATM    6  H   UNL     1     -11.778  13.356  62.191  1.00  0.00     0.000 HD 
HETATM    7  C   UNL     1     -12.292  13.961  66.552  1.00  0.00    -0.447 A  
HETATM    8  C   UNL     1     -11.923  13.620  64.196  1.00  0.00    -0.443 A  
HETATM    9  C   UNL     1     -10.173  13.095  65.769  1.00  0.00    -0.294 A  
HETATM   10  C   UNL     1     -10.635  13.165  64.452  1.00  0.00    -0.441 A  
HETATM   11  C   UNL     1     -12.754  14.031  65.233  1.00  0.00    -0.468 A  
ENDBRANCH   3   4
BRANCH   3  12
HETATM   12  C   UNL     1     -10.937  12.087  69.019  1.00  0.00    -0.260 C  
HETATM   13  C   UNL     1     -11.865  12.202  69.996  1.00  0.00    -0.383 C  
HETATM   14  C   UNL     1     -12.436  11.128  70.870  1.00  0.00    -0.509 C  
BRANCH  12  15
HETATM   15  C   UNL     1     -10.373  10.753  68.709  1.00  0.00    -0.209 A  
HETATM   16  C   UNL     1      -9.183   8.313  68.035  1.00  0.00    -0.136 A  
HETATM   17  C   UNL     1      -9.282  10.263  69.445  1.00  0.00    -0.206 A  
HETATM   18  C   UNL     1      -8.683   9.045  69.108  1.00  0.00    -0.135 A  
HETATM   19  O   UNL     1      -8.611   7.136  67.649  1.00  0.00    -0.122 OA 
HETATM   20  C   UNL     1     -10.283   8.766  67.316  1.00  0.00    -0.332 A  
HETATM   21  H   UNL     1      -8.951   6.636  66.916  1.00  0.00     0.000 HD 
HETATM   22  C   UNL     1     -10.878   9.986  67.652  1.00  0.00    -0.336 A  
ENDBRANCH  12  15
ENDBRANCH   3  12
TORSDOF 3
ENDMDL
MODEL       49
REMARK 921   NORMALIZED FREE ENERGY PREDICTED BY IDOCK:   -6.00 KCAL/MOL
REMARK 922        TOTAL FREE ENERGY PREDICTED BY IDOCK:   -8.04 KCAL/MOL
REMARK 923 INTER-LIGAND FREE ENERGY PREDICTED BY IDOCK:   -6.94 KCAL/MOL
REMARK 924 INTRA-LIGAND FREE ENERGY PREDICTED BY IDOCK:   -1.10 KCAL/MOL
REMARK 927      BINDING AFFINITY PREDICTED BY RF-SCORE:    0.00 PKD
ROOT
HETATM    1  C   UNL     1     -10.122  10.342  65.905  1.00  0.00    -0.319 C  
HETATM    2  C   UNL     1      -9.898  10.388  64.426  1.00  0.00    -0.395 C  
HETATM    3  C   UNL     1     -10.604  11.335  66.689  1.00  0.00    -0.309 C  
ENDROOT
BRANCH   3   4
HETATM    4  C   UNL     1     -10.955  12.624  66.054  1.00  0.00    -0.313 A  
HETATM    5  O   UNL     1     -11.790  16.099  63.930  1.00  0.00    -1.359 OA 
HETATM    6  H   UNL     1     -11.145  16.796  63.887  1.00  0.00     0.000 HD 
HETATM    7  C   UNL     1     -12.196  12.771  65.416  1.00  0.00    -0.532 A  
HETATM    8  C   UNL     1     -11.554  14.959  64.642  1.00  0.00    -0.395 A  
HETATM    9  C   UNL     1     -10.032  13.678  66.003  1.00  0.00    -0.313 A  
HETATM   10  C   UNL     1     -10.332  14.844  65.294  1.00  0.00    -0.424 A  
HETATM   11  C   UNL     1     -12.496  13.939  64.705  1.00  0.00    -0.386 A  
ENDBRANCH   3   4
BRANCH   3  12
HETATM   12  C   UNL     1     -10.803  11.078  68.128  1.00  0.00    -0.274 C  
HETATM   13  C   UNL     1     -11.730  11.802  68.796  1.00  0.00    -0.389 C  
HETATM   14  C   UNL     1     -12.156  11.677  70.226  1.00  0.00    -0.443 C  
BRANCH  12  15
HETATM   15  C   UNL     1     -10.081   9.996  68.836  1.00  0.00    -0.200 A  
HETATM   16  C   UNL     1      -8.616   7.937  70.034  1.00  0.00    -0.135 A  
HETATM   17  C   UNL     1      -8.848  10.263  69.456  1.00  0.00    -0.166 A  
HETATM   18  C   UNL     1      -8.113   9.234  70.053  1.00  0.00    -0.140 A  
HETATM   19  O   UNL     1      -7.918   6.895  70.575  1.00  0.00    -0.110 OA 
HETATM   20  C   UNL     1      -9.849   7.660  69.455  1.00  0.00    -0.171 A  
HETATM   21  H   UNL     1      -8.261   6.010  70.562  1.00  0.00     0.000 HD 
HETATM   22  C   UNL     1     -10.582   8.689  68.855  1.00  0.00    -0.166 A  
ENDBRANCH  12  15
ENDBRANCH   3  12
TORSDOF 3
ENDMDL
MODEL       50
REMARK 921   NORMALIZED FREE ENERGY PREDICTED BY IDOCK:   -5.98 KCAL/MOL
REMARK 922        TOTAL FREE ENERGY PREDICTED BY IDOCK:   -8.01 KCAL/MOL
REMARK 923 INTER-LIGAND FREE ENERGY PREDICTED BY IDOCK:   -7.14 KCAL/MOL
REMARK 924 INTRA-LIGAND FREE ENERGY PREDICTED BY IDOCK:   -0.87 KCAL/MOL
REMARK 927      BINDING AFFINITY PREDICTED BY RF-SCORE:    0.00 PKD
ROOT
HETATM    1  C   UNL     1     -11.691  13.037  69.213  1.00  0.00    -0.375 C  
HETATM    2  C   UNL     1     -12.251  14.338  69.697  1.00  0.00    -0.371 C  
HETATM    3  C   UNL     1     -11.303  12.734  67.951  1.00  0.00    -0.339 C  
ENDROOT
BRANCH   3   4
HETATM    4  C   UNL     1     -11.434  13.774  66.908  1.00  0.00    -0.368 A  
HETATM    5  O   UNL     1     -11.608  16.450  63.731  1.00  0.00    -1.605 OA 
HETATM    6  H   UNL     1     -10.912  17.084  63.604  1.00  0.00     0.000 HD 
HETATM    7  C   UNL     1     -12.532  13.750  66.035  1.00  0.00    -0.491 A  
HETATM    8  C   UNL     1     -11.591  15.578  64.781  1.00  0.00    -0.256 A  
HETATM    9  C   UNL     1     -10.433  14.738  66.721  1.00  0.00    -0.282 A  
HETATM   10  C   UNL     1     -10.512  15.637  65.654  1.00  0.00    -0.402 A  
HETATM   11  C   UNL     1     -12.610  14.650  64.966  1.00  0.00    -0.162 A  
ENDBRANCH   3   4
BRANCH   3  12
HETATM   12  C   UNL     1     -10.724  11.405  67.681  1.00  0.00    -0.261 C  
HETATM   13  C   UNL     1     -10.633  10.984  66.399  1.00  0.00    -0.308 C  
HETATM   14  C   UNL     1     -10.028   9.719  65.874  1.00  0.00    -0.345 C  
BRANCH  12  15
HETATM   15  C   UNL     1     -10.166  10.560  68.762  1.00  0.00    -0.205 A  
HETATM   16  C   UNL     1      -9.147   9.092  70.913  1.00  0.00    -0.250 A  
HETATM   17  C   UNL     1     -11.028   9.846  69.612  1.00  0.00    -0.285 A  
HETATM   18  C   UNL     1     -10.520   9.114  70.690  1.00  0.00    -0.305 A  
HETATM   19  O   UNL     1      -8.609   8.418  71.972  1.00  0.00    -0.160 OA 
HETATM   20  C   UNL     1      -8.277   9.765  70.063  1.00  0.00    -0.207 A  
HETATM   21  H   UNL     1      -7.672   8.403  72.125  1.00  0.00     0.000 HD 
HETATM   22  C   UNL     1      -8.785  10.499  68.987  1.00  0.00    -0.160 A  
ENDBRANCH  12  15
ENDBRANCH   3  12
TORSDOF 3
ENDMDL
MODEL       51
REMARK 921   NORMALIZED FREE ENERGY PREDICTED BY IDOCK:   -5.97 KCAL/MOL
REMARK 922        TOTAL FREE ENERGY PREDICTED BY IDOCK:   -8.00 KCAL/MOL
REMARK 923 INTER-LIGAND FREE ENERGY PREDICTED BY IDOCK:   -7.03 KCAL/MOL
REMARK 924 INTRA-LIGAND FREE ENERGY PREDICTED BY IDOCK:   -0.97 KCAL/MOL
REMARK 927      BINDING AFFINITY PREDICTED BY RF-SCORE:    0.00 PKD
ROOT
HETATM    1  C   UNL     1     -11.844  12.541  69.024  1.00  0.00    -0.344 C  
HETATM    2  C   UNL     1     -12.291  12.564  70.453  1.00  0.00    -0.311 C  
HETATM    3  C   UNL     1     -11.027  11.633  68.439  1.00  0.00    -0.265 C  
ENDROOT
BRANCH   3   4
HETATM    4  C   UNL     1     -10.493  10.531  69.269  1.00  0.00    -0.258 A  
HETATM    5  O   UNL     1      -8.934   7.233  71.262  1.00  0.00    -0.139 OA 
HETATM    6  H   UNL     1      -9.511   6.534  71.549  1.00  0.00     0.000 HD 
HETATM    7  C   UNL     1      -9.116  10.461  69.531  1.00  0.00    -0.129 A  
HETATM    8  C   UNL     1      -9.421   8.340  70.630  1.00  0.00    -0.164 A  
HETATM    9  C   UNL     1     -11.330   9.505  69.729  1.00  0.00    -0.117 A  
HETATM   10  C   UNL     1     -10.791   8.408  70.407  1.00  0.00    -0.246 A  
HETATM   11  C   UNL     1      -8.578   9.362  70.209  1.00  0.00    -0.249 A  
ENDBRANCH   3   4
BRANCH   3  12
HETATM   12  C   UNL     1     -10.742  11.753  66.997  1.00  0.00    -0.286 C  
HETATM   13  C   UNL     1     -10.378  10.645  66.312  1.00  0.00    -0.296 C  
HETATM   14  C   UNL     1     -10.107  10.503  64.846  1.00  0.00    -0.403 C  
BRANCH  12  15
HETATM   15  C   UNL     1     -10.926  13.028  66.266  1.00  0.00    -0.303 A  
HETATM   16  C   UNL     1     -11.235  15.353  64.741  1.00  0.00    -0.395 A  
HETATM   17  C   UNL     1     -12.126  13.278  65.581  1.00  0.00    -0.488 A  
HETATM   18  C   UNL     1     -12.281  14.439  64.815  1.00  0.00    -0.458 A  
HETATM   19  O   UNL     1     -11.328  16.482  63.980  1.00  0.00    -1.475 OA 
HETATM   20  C   UNL     1     -10.052  15.138  65.440  1.00  0.00    -0.384 A  
HETATM   21  H   UNL     1     -10.614  17.106  63.930  1.00  0.00     0.000 HD 
HETATM   22  C   UNL     1      -9.896  13.976  66.202  1.00  0.00    -0.319 A  
ENDBRANCH  12  15
ENDBRANCH   3  12
TORSDOF 3
ENDMDL
MODEL       52
REMARK 921   NORMALIZED FREE ENERGY PREDICTED BY IDOCK:   -5.96 KCAL/MOL
REMARK 922        TOTAL FREE ENERGY PREDICTED BY IDOCK:   -7.98 KCAL/MOL
REMARK 923 INTER-LIGAND FREE ENERGY PREDICTED BY IDOCK:   -7.21 KCAL/MOL
REMARK 924 INTRA-LIGAND FREE ENERGY PREDICTED BY IDOCK:   -0.77 KCAL/MOL
REMARK 927      BINDING AFFINITY PREDICTED BY RF-SCORE:    0.00 PKD
ROOT
HETATM    1  C   UNL     1      -8.345  11.148  67.858  1.00  0.00    -0.129 C  
HETATM    2  C   UNL     1      -7.845  10.938  69.253  1.00  0.00    -0.096 C  
HETATM    3  C   UNL     1      -9.607  11.462  67.482  1.00  0.00    -0.176 C  
ENDROOT
BRANCH   3   4
HETATM    4  C   UNL     1     -10.635  11.619  68.535  1.00  0.00    -0.241 A  
HETATM    5  O   UNL     1     -13.225  12.064  71.756  1.00  0.00    -0.450 OA 
HETATM    6  H   UNL     1     -13.571  11.297  72.198  1.00  0.00     0.000 HD 
HETATM    7  C   UNL     1     -11.010  12.904  68.956  1.00  0.00    -0.244 A  
HETATM    8  C   UNL     1     -12.395  11.948  70.679  1.00  0.00    -0.313 A  
HETATM    9  C   UNL     1     -11.182  10.501  69.180  1.00  0.00    -0.314 A  
HETATM   10  C   UNL     1     -12.059  10.668  70.255  1.00  0.00    -0.423 A  
HETATM   11  C   UNL     1     -11.888  13.070  70.033  1.00  0.00    -0.355 A  
ENDBRANCH   3   4
BRANCH   3  12
HETATM   12  C   UNL     1      -9.895  11.681  66.052  1.00  0.00    -0.258 C  
HETATM   13  C   UNL     1      -9.741  10.648  65.193  1.00  0.00    -0.327 C  
HETATM   14  C   UNL     1     -10.032  10.606  63.725  1.00  0.00    -0.379 C  
BRANCH  12  15
HETATM   15  C   UNL     1     -10.426  12.968  65.549  1.00  0.00    -0.297 A  
HETATM   16  C   UNL     1     -11.353  15.367  64.448  1.00  0.00    -0.238 A  
HETATM   17  C   UNL     1     -11.576  12.987  64.741  1.00  0.00    -0.368 A  
HETATM   18  C   UNL     1     -12.039  14.185  64.187  1.00  0.00    -0.437 A  
HETATM   19  O   UNL     1     -11.749  16.554  63.903  1.00  0.00    -1.527 OA 
HETATM   20  C   UNL     1     -10.233  15.373  65.272  1.00  0.00    -0.390 A  
HETATM   21  H   UNL     1     -11.281  17.361  64.080  1.00  0.00     0.000 HD 
HETATM   22  C   UNL     1      -9.769  14.174  65.822  1.00  0.00    -0.246 A  
ENDBRANCH  12  15
ENDBRANCH   3  12
TORSDOF 3
ENDMDL
MODEL       53
REMARK 921   NORMALIZED FREE ENERGY PREDICTED BY IDOCK:   -5.95 KCAL/MOL
REMARK 922        TOTAL FREE ENERGY PREDICTED BY IDOCK:   -7.98 KCAL/MOL
REMARK 923 INTER-LIGAND FREE ENERGY PREDICTED BY IDOCK:   -6.84 KCAL/MOL
REMARK 924 INTRA-LIGAND FREE ENERGY PREDICTED BY IDOCK:   -1.14 KCAL/MOL
REMARK 927      BINDING AFFINITY PREDICTED BY RF-SCORE:    0.00 PKD
ROOT
HETATM    1  C   UNL     1     -12.073  11.579  70.030  1.00  0.00    -0.408 C  
HETATM    2  C   UNL     1     -12.552  11.011  71.330  1.00  0.00    -0.517 C  
HETATM    3  C   UNL     1     -12.024  12.886  69.679  1.00  0.00    -0.358 C  
ENDROOT
BRANCH   3   4
HETATM    4  C   UNL     1     -12.491  13.893  70.657  1.00  0.00    -0.436 A  
HETATM    5  O   UNL     1     -13.741  16.451  73.686  1.00  0.00    -0.859 OA 
HETATM    6  H   UNL     1     -14.655  16.474  73.942  1.00  0.00     0.000 HD 
HETATM    7  C   UNL     1     -11.561  14.735  71.287  1.00  0.00    -0.314 A  
HETATM    8  C   UNL     1     -13.307  15.642  72.677  1.00  0.00    -0.536 A  
HETATM    9  C   UNL     1     -13.841  13.966  71.028  1.00  0.00     0.121 A  
HETATM   10  C   UNL     1     -14.246  14.839  72.041  1.00  0.00    -0.626 A  
HETATM   11  C   UNL     1     -11.968  15.608  72.302  1.00  0.00    -0.562 A  
ENDBRANCH   3   4
BRANCH   3  12
HETATM   12  C   UNL     1     -11.468  13.253  68.363  1.00  0.00    -0.349 C  
HETATM   13  C   UNL     1     -12.109  14.186  67.624  1.00  0.00    -0.337 C  
HETATM   14  C   UNL     1     -11.705  14.767  66.304  1.00  0.00    -0.260 C  
BRANCH  12  15
HETATM   15  C   UNL     1     -10.188  12.693  67.872  1.00  0.00    -0.220 A  
HETATM   16  C   UNL     1      -7.762  11.768  66.833  1.00  0.00    -0.129 A  
HETATM   17  C   UNL     1      -8.969  13.229  68.318  1.00  0.00    -0.176 A  
HETATM   18  C   UNL     1      -7.754  12.770  67.798  1.00  0.00    -0.152 A  
HETATM   19  O   UNL     1      -6.603  11.311  66.272  1.00  0.00    -0.283 OA 
HETATM   20  C   UNL     1      -8.957  11.202  66.403  1.00  0.00    -0.190 A  
HETATM   21  H   UNL     1      -6.608  10.627  65.614  1.00  0.00     0.000 HD 
HETATM   22  C   UNL     1     -10.170  11.664  66.922  1.00  0.00    -0.244 A  
ENDBRANCH  12  15
ENDBRANCH   3  12
TORSDOF 3
ENDMDL
MODEL       54
REMARK 921   NORMALIZED FREE ENERGY PREDICTED BY IDOCK:   -5.94 KCAL/MOL
REMARK 922        TOTAL FREE ENERGY PREDICTED BY IDOCK:   -7.96 KCAL/MOL
REMARK 923 INTER-LIGAND FREE ENERGY PREDICTED BY IDOCK:   -6.48 KCAL/MOL
REMARK 924 INTRA-LIGAND FREE ENERGY PREDICTED BY IDOCK:   -1.49 KCAL/MOL
REMARK 927      BINDING AFFINITY PREDICTED BY RF-SCORE:    0.00 PKD
ROOT
HETATM    1  C   UNL     1     -12.385  10.727  70.889  1.00  0.00    -0.497 C  
HETATM    2  C   UNL     1     -12.458   9.347  71.466  1.00  0.00    -0.450 C  
HETATM    3  C   UNL     1     -11.544  11.164  69.921  1.00  0.00    -0.416 C  
ENDROOT
BRANCH   3   4
HETATM    4  C   UNL     1     -10.574  10.205  69.348  1.00  0.00    -0.261 A  
HETATM    5  O   UNL     1      -8.025   7.231  67.958  1.00  0.00    -0.116 OA 
HETATM    6  H   UNL     1      -7.213   7.047  68.417  1.00  0.00     0.000 HD 
HETATM    7  C   UNL     1     -10.908   9.486  68.191  1.00  0.00    -0.208 A  
HETATM    8  C   UNL     1      -8.867   8.219  68.376  1.00  0.00    -0.137 A  
HETATM    9  C   UNL     1      -9.358   9.940  69.991  1.00  0.00    -0.232 A  
HETATM   10  C   UNL     1      -8.507   8.944  69.505  1.00  0.00    -0.128 A  
HETATM   11  C   UNL     1     -10.056   8.488  67.705  1.00  0.00    -0.271 A  
ENDBRANCH   3   4
BRANCH   3  12
HETATM   12  C   UNL     1     -11.661  12.556  69.447  1.00  0.00    -0.383 C  
HETATM   13  C   UNL     1     -12.104  13.500  70.307  1.00  0.00    -0.425 C  
HETATM   14  C   UNL     1     -12.241  14.975  70.082  1.00  0.00    -0.392 C  
BRANCH  12  15
HETATM   15  C   UNL     1     -11.227  12.959  68.090  1.00  0.00    -0.305 A  
HETATM   16  C   UNL     1     -10.383  13.552  65.490  1.00  0.00    -0.300 A  
HETATM   17  C   UNL     1     -12.122  12.870  67.011  1.00  0.00    -0.296 A  
HETATM   18  C   UNL     1     -11.701  13.163  65.709  1.00  0.00    -0.415 A  
HETATM   19  O   UNL     1      -9.919  13.817  64.234  1.00  0.00    -0.742 OA 
HETATM   20  C   UNL     1      -9.492  13.678  66.550  1.00  0.00    -0.270 A  
HETATM   21  H   UNL     1      -9.019  14.082  64.084  1.00  0.00     0.000 HD 
HETATM   22  C   UNL     1      -9.913  13.380  67.850  1.00  0.00    -0.236 A  
ENDBRANCH  12  15
ENDBRANCH   3  12
TORSDOF 3
ENDMDL
MODEL       55
REMARK 921   NORMALIZED FREE ENERGY PREDICTED BY IDOCK:   -5.93 KCAL/MOL
REMARK 922        TOTAL FREE ENERGY PREDICTED BY IDOCK:   -7.96 KCAL/MOL
REMARK 923 INTER-LIGAND FREE ENERGY PREDICTED BY IDOCK:   -6.85 KCAL/MOL
REMARK 924 INTRA-LIGAND FREE ENERGY PREDICTED BY IDOCK:   -1.10 KCAL/MOL
REMARK 927      BINDING AFFINITY PREDICTED BY RF-SCORE:    0.00 PKD
ROOT
HETATM    1  C   UNL     1     -10.292  14.790  68.949  1.00  0.00    -0.243 C  
HETATM    2  C   UNL     1     -10.003  16.215  69.305  1.00  0.00    -0.253 C  
HETATM    3  C   UNL     1     -11.198  13.970  69.533  1.00  0.00    -0.249 C  
ENDROOT
BRANCH   3   4
HETATM    4  C   UNL     1     -12.007  14.502  70.652  1.00  0.00    -0.387 A  
HETATM    5  O   UNL     1     -14.190  16.360  73.663  1.00  0.00    -0.576 OA 
HETATM    6  H   UNL     1     -13.771  16.579  74.488  1.00  0.00     0.000 HD 
HETATM    7  C   UNL     1     -13.366  14.789  70.453  1.00  0.00     0.026 A  
HETATM    8  C   UNL     1     -13.505  15.725  72.667  1.00  0.00    -0.539 A  
HETATM    9  C   UNL     1     -11.418  14.805  71.887  1.00  0.00    -0.090 A  
HETATM   10  C   UNL     1     -12.168  15.420  72.893  1.00  0.00    -0.529 A  
HETATM   11  C   UNL     1     -14.117  15.405  71.460  1.00  0.00    -0.596 A  
ENDBRANCH   3   4
BRANCH   3  12
HETATM   12  C   UNL     1     -11.373  12.605  69.004  1.00  0.00    -0.345 C  
HETATM   13  C   UNL     1     -11.327  12.415  67.666  1.00  0.00    -0.371 C  
HETATM   14  C   UNL     1     -11.408  11.129  66.904  1.00  0.00    -0.168 C  
BRANCH  12  15
HETATM   15  C   UNL     1     -11.512  11.432  69.897  1.00  0.00    -0.353 A  
HETATM   16  C   UNL     1     -11.742   9.321  71.718  1.00  0.00    -0.386 A  
HETATM   17  C   UNL     1     -12.715  11.214  70.590  1.00  0.00    -0.350 A  
HETATM   18  C   UNL     1     -12.831  10.161  71.503  1.00  0.00    -0.548 A  
HETATM   19  O   UNL     1     -11.799   8.301  72.623  1.00  0.00    -0.417 OA 
HETATM   20  C   UNL     1     -10.555   9.501  71.017  1.00  0.00    -0.392 A  
HETATM   21  H   UNL     1     -11.056   7.727  72.770  1.00  0.00     0.000 HD 
HETATM   22  C   UNL     1     -10.439  10.556  70.107  1.00  0.00    -0.084 A  
ENDBRANCH  12  15
ENDBRANCH   3  12
TORSDOF 3
ENDMDL
MODEL       56
REMARK 921   NORMALIZED FREE ENERGY PREDICTED BY IDOCK:   -5.92 KCAL/MOL
REMARK 922        TOTAL FREE ENERGY PREDICTED BY IDOCK:   -7.94 KCAL/MOL
REMARK 923 INTER-LIGAND FREE ENERGY PREDICTED BY IDOCK:   -6.63 KCAL/MOL
REMARK 924 INTRA-LIGAND FREE ENERGY PREDICTED BY IDOCK:   -1.31 KCAL/MOL
REMARK 927      BINDING AFFINITY PREDICTED BY RF-SCORE:    0.00 PKD
ROOT
HETATM    1  C   UNL     1      -9.467  19.527  66.132  1.00  0.00    -0.401 C  
HETATM    2  C   UNL     1     -10.906  19.833  65.851  1.00  0.00    -0.389 C  
HETATM    3  C   UNL     1      -8.965  18.393  66.676  1.00  0.00    -0.295 C  
ENDROOT
BRANCH   3   4
HETATM    4  C   UNL     1      -9.908  17.316  67.051  1.00  0.00    -0.281 A  
HETATM    5  O   UNL     1     -12.245  14.095  68.251  1.00  0.00    -0.548 OA 
HETATM    6  H   UNL     1     -12.395  13.368  67.657  1.00  0.00     0.000 HD 
HETATM    7  C   UNL     1     -10.489  17.314  68.328  1.00  0.00    -0.385 A  
HETATM    8  C   UNL     1     -11.505  15.178  67.874  1.00  0.00    -0.332 A  
HETATM    9  C   UNL     1     -10.168  16.250  66.179  1.00  0.00    -0.361 A  
HETATM   10  C   UNL     1     -10.964  15.179  66.594  1.00  0.00    -0.318 A  
HETATM   11  C   UNL     1     -11.286  16.241  68.743  1.00  0.00    -0.343 A  
ENDBRANCH   3   4
BRANCH   3  12
HETATM   12  C   UNL     1      -7.504  18.258  66.827  1.00  0.00    -0.243 C  
HETATM   13  C   UNL     1      -6.750  18.075  65.720  1.00  0.00    -0.292 C  
HETATM   14  C   UNL     1      -5.259  17.981  65.614  1.00  0.00    -0.220 C  
BRANCH  12  15
HETATM   15  C   UNL     1      -6.838  18.404  68.142  1.00  0.00    -0.234 A  
HETATM   16  C   UNL     1      -5.722  18.615  70.698  1.00  0.00    -0.117 A  
HETATM   17  C   UNL     1      -6.245  17.289  68.757  1.00  0.00    -0.176 A  
HETATM   18  C   UNL     1      -5.689  17.391  70.036  1.00  0.00    -0.243 A  
HETATM   19  O   UNL     1      -5.222  18.755  71.961  1.00  0.00    -0.744 OA 
HETATM   20  C   UNL     1      -6.275  19.737  70.092  1.00  0.00    -0.342 A  
HETATM   21  H   UNL     1      -5.244  19.590  72.413  1.00  0.00     0.000 HD 
HETATM   22  C   UNL     1      -6.833  19.633  68.814  1.00  0.00    -0.362 A  
ENDBRANCH  12  15
ENDBRANCH   3  12
TORSDOF 3
ENDMDL
MODEL       57
REMARK 921   NORMALIZED FREE ENERGY PREDICTED BY IDOCK:   -5.87 KCAL/MOL
REMARK 922        TOTAL FREE ENERGY PREDICTED BY IDOCK:   -7.88 KCAL/MOL
REMARK 923 INTER-LIGAND FREE ENERGY PREDICTED BY IDOCK:   -7.21 KCAL/MOL
REMARK 924 INTRA-LIGAND FREE ENERGY PREDICTED BY IDOCK:   -0.67 KCAL/MOL
REMARK 927      BINDING AFFINITY PREDICTED BY RF-SCORE:    0.00 PKD
ROOT
HETATM    1  C   UNL     1     -13.047   8.461  71.599  1.00  0.00    -0.355 C  
HETATM    2  C   UNL     1     -14.402   8.830  72.117  1.00  0.00    -0.481 C  
HETATM    3  C   UNL     1     -12.108   9.299  71.098  1.00  0.00    -0.389 C  
ENDROOT
BRANCH   3   4
HETATM    4  C   UNL     1     -12.419  10.744  71.034  1.00  0.00    -0.522 A  
HETATM    5  O   UNL     1     -12.949  14.867  71.044  1.00  0.00    -0.332 OA 
HETATM    6  H   UNL     1     -13.399  15.287  71.768  1.00  0.00     0.000 HD 
HETATM    7  C   UNL     1     -11.947  11.510  69.957  1.00  0.00    -0.435 A  
HETATM    8  C   UNL     1     -12.785  13.513  71.001  1.00  0.00    -0.322 A  
HETATM    9  C   UNL     1     -13.108  11.379  72.076  1.00  0.00    -0.423 A  
HETATM   10  C   UNL     1     -13.287  12.765  72.059  1.00  0.00    -0.565 A  
HETATM   11  C   UNL     1     -12.127  12.898  69.942  1.00  0.00    -0.335 A  
ENDBRANCH   3   4
BRANCH   3  12
HETATM   12  C   UNL     1     -10.805   8.747  70.682  1.00  0.00    -0.273 C  
HETATM   13  C   UNL     1      -9.735   8.931  71.488  1.00  0.00    -0.372 C  
HETATM   14  C   UNL     1      -8.340   8.412  71.317  1.00  0.00    -0.174 C  
BRANCH  12  15
HETATM   15  C   UNL     1     -10.657   7.929  69.456  1.00  0.00    -0.220 A  
HETATM   16  C   UNL     1     -10.545   6.414  67.108  1.00  0.00    -0.321 A  
HETATM   17  C   UNL     1     -10.480   8.554  68.211  1.00  0.00    -0.222 A  
HETATM   18  C   UNL     1     -10.427   7.799  67.035  1.00  0.00    -0.419 A  
HETATM   19  O   UNL     1     -10.531   5.639  65.984  1.00  0.00    -0.445 OA 
HETATM   20  C   UNL     1     -10.688   5.776  68.334  1.00  0.00    -0.283 A  
HETATM   21  H   UNL     1     -10.612   4.694  66.033  1.00  0.00     0.000 HD 
HETATM   22  C   UNL     1     -10.744   6.532  69.509  1.00  0.00    -0.322 A  
ENDBRANCH  12  15
ENDBRANCH   3  12
TORSDOF 3
ENDMDL
MODEL       58
REMARK 921   NORMALIZED FREE ENERGY PREDICTED BY IDOCK:   -5.86 KCAL/MOL
REMARK 922        TOTAL FREE ENERGY PREDICTED BY IDOCK:   -7.87 KCAL/MOL
REMARK 923 INTER-LIGAND FREE ENERGY PREDICTED BY IDOCK:   -6.35 KCAL/MOL
REMARK 924 INTRA-LIGAND FREE ENERGY PREDICTED BY IDOCK:   -1.53 KCAL/MOL
REMARK 927      BINDING AFFINITY PREDICTED BY RF-SCORE:    0.00 PKD
ROOT
HETATM    1  C   UNL     1      -9.620   3.806  69.904  1.00  0.00    -0.255 C  
HETATM    2  C   UNL     1      -9.095   3.169  68.655  1.00  0.00    -0.209 C  
HETATM    3  C   UNL     1     -10.026   5.089  70.058  1.00  0.00    -0.324 C  
ENDROOT
BRANCH   3   4
HETATM    4  C   UNL     1      -9.953   5.993  68.890  1.00  0.00    -0.192 A  
HETATM    5  O   UNL     1      -9.915   8.815  65.837  1.00  0.00    -0.466 OA 
HETATM    6  H   UNL     1     -10.657   8.888  65.247  1.00  0.00     0.000 HD 
HETATM    7  C   UNL     1      -8.835   6.825  68.722  1.00  0.00    -0.131 A  
HETATM    8  C   UNL     1      -9.888   7.880  66.830  1.00  0.00    -0.239 A  
HETATM    9  C   UNL     1     -11.023   6.096  67.990  1.00  0.00    -0.399 A  
HETATM   10  C   UNL     1     -10.990   7.043  66.963  1.00  0.00    -0.357 A  
HETATM   11  C   UNL     1      -8.803   7.773  67.693  1.00  0.00    -0.128 A  
ENDBRANCH   3   4
BRANCH   3  12
HETATM   12  C   UNL     1     -10.565   5.516  71.363  1.00  0.00    -0.310 C  
HETATM   13  C   UNL     1     -10.287   4.772  72.457  1.00  0.00    -0.259 C  
HETATM   14  C   UNL     1     -10.659   5.037  73.883  1.00  0.00    -0.340 C  
BRANCH  12  15
HETATM   15  C   UNL     1     -11.325   6.778  71.519  1.00  0.00    -0.316 A  
HETATM   16  C   UNL     1     -12.730   9.151  71.984  1.00  0.00    -0.398 A  
HETATM   17  C   UNL     1     -10.641   7.998  71.659  1.00  0.00    -0.280 A  
HETATM   18  C   UNL     1     -11.342   9.185  71.894  1.00  0.00    -0.416 A  
HETATM   19  O   UNL     1     -13.454  10.279  72.246  1.00  0.00    -0.588 OA 
HETATM   20  C   UNL     1     -13.426   7.959  71.815  1.00  0.00    -0.379 A  
HETATM   21  H   UNL     1     -14.402  10.256  72.307  1.00  0.00     0.000 HD 
HETATM   22  C   UNL     1     -12.724   6.772  71.583  1.00  0.00    -0.360 A  
ENDBRANCH  12  15
ENDBRANCH   3  12
TORSDOF 3
ENDMDL
MODEL       59
REMARK 921   NORMALIZED FREE ENERGY PREDICTED BY IDOCK:   -5.82 KCAL/MOL
REMARK 922        TOTAL FREE ENERGY PREDICTED BY IDOCK:   -7.82 KCAL/MOL
REMARK 923 INTER-LIGAND FREE ENERGY PREDICTED BY IDOCK:   -6.50 KCAL/MOL
REMARK 924 INTRA-LIGAND FREE ENERGY PREDICTED BY IDOCK:   -1.32 KCAL/MOL
REMARK 927      BINDING AFFINITY PREDICTED BY RF-SCORE:    0.00 PKD
ROOT
HETATM    1  C   UNL     1     -11.022  13.232  69.193  1.00  0.00    -0.208 C  
HETATM    2  C   UNL     1     -11.995  14.367  69.115  1.00  0.00    -0.357 C  
HETATM    3  C   UNL     1     -10.502  12.529  68.159  1.00  0.00    -0.238 C  
ENDROOT
BRANCH   3   4
HETATM    4  C   UNL     1     -10.919  12.888  66.786  1.00  0.00    -0.300 A  
HETATM    5  O   UNL     1     -12.346  14.154  63.092  1.00  0.00    -1.125 OA 
HETATM    6  H   UNL     1     -13.087  13.713  62.692  1.00  0.00     0.000 HD 
HETATM    7  C   UNL     1     -10.293  13.956  66.125  1.00  0.00    -0.303 A  
HETATM    8  C   UNL     1     -11.839  13.743  64.291  1.00  0.00    -0.417 A  
HETATM    9  C   UNL     1     -11.989  12.231  66.163  1.00  0.00    -0.323 A  
HETATM   10  C   UNL     1     -12.451  12.663  64.916  1.00  0.00    -0.564 A  
HETATM   11  C   UNL     1     -10.756  14.388  64.877  1.00  0.00    -0.444 A  
ENDBRANCH   3   4
BRANCH   3  12
HETATM   12  C   UNL     1      -9.512  11.472  68.438  1.00  0.00    -0.195 C  
HETATM   13  C   UNL     1      -8.199  11.797  68.446  1.00  0.00    -0.154 C  
HETATM   14  C   UNL     1      -7.025  10.924  68.767  1.00  0.00    -0.078 C  
BRANCH  12  15
HETATM   15  C   UNL     1      -9.919  10.093  68.793  1.00  0.00    -0.187 A  
HETATM   16  C   UNL     1     -10.848   7.528  69.410  1.00  0.00    -0.150 A  
HETATM   17  C   UNL     1     -10.037   9.115  67.790  1.00  0.00    -0.253 A  
HETATM   18  C   UNL     1     -10.504   7.833  68.097  1.00  0.00    -0.230 A  
HETATM   19  O   UNL     1     -11.339   6.300  69.750  1.00  0.00    -0.405 OA 
HETATM   20  C   UNL     1     -10.706   8.472  70.421  1.00  0.00    -0.246 A  
HETATM   21  H   UNL     1     -11.573   6.091  70.646  1.00  0.00     0.000 HD 
HETATM   22  C   UNL     1     -10.242   9.755  70.113  1.00  0.00    -0.328 A  
ENDBRANCH  12  15
ENDBRANCH   3  12
TORSDOF 3
ENDMDL
MODEL       60
REMARK 921   NORMALIZED FREE ENERGY PREDICTED BY IDOCK:   -5.82 KCAL/MOL
REMARK 922        TOTAL FREE ENERGY PREDICTED BY IDOCK:   -7.82 KCAL/MOL
REMARK 923 INTER-LIGAND FREE ENERGY PREDICTED BY IDOCK:   -6.47 KCAL/MOL
REMARK 924 INTRA-LIGAND FREE ENERGY PREDICTED BY IDOCK:   -1.35 KCAL/MOL
REMARK 927      BINDING AFFINITY PREDICTED BY RF-SCORE:    0.00 PKD
ROOT
HETATM    1  C   UNL     1     -10.868  15.028  69.424  1.00  0.00    -0.265 C  
HETATM    2  C   UNL     1     -11.492  16.004  70.373  1.00  0.00    -0.392 C  
HETATM    3  C   UNL     1     -10.123  15.316  68.330  1.00  0.00    -0.220 C  
ENDROOT
BRANCH   3   4
HETATM    4  C   UNL     1      -9.879  16.737  68.001  1.00  0.00    -0.265 A  
HETATM    5  O   UNL     1      -8.978  20.602  66.765  1.00  0.00    -0.562 OA 
HETATM    6  H   UNL     1      -8.203  21.040  67.098  1.00  0.00     0.000 HD 
HETATM    7  C   UNL     1     -10.732  17.399  67.105  1.00  0.00    -0.188 A  
HETATM    8  C   UNL     1      -9.313  19.345  67.174  1.00  0.00    -0.320 A  
HETATM    9  C   UNL     1      -8.759  17.412  68.504  1.00  0.00    -0.277 A  
HETATM   10  C   UNL     1      -8.475  18.715  68.086  1.00  0.00    -0.336 A  
HETATM   11  C   UNL     1     -10.448  18.704  66.687  1.00  0.00    -0.459 A  
ENDBRANCH   3   4
BRANCH   3  12
HETATM   12  C   UNL     1      -9.549  14.207  67.545  1.00  0.00    -0.223 C  
HETATM   13  C   UNL     1      -8.334  13.725  67.891  1.00  0.00    -0.172 C  
HETATM   14  C   UNL     1      -7.584  12.574  67.296  1.00  0.00    -0.131 C  
BRANCH  12  15
HETATM   15  C   UNL     1     -10.300  13.556  66.446  1.00  0.00    -0.289 A  
HETATM   16  C   UNL     1     -11.584  12.221  64.351  1.00  0.00    -0.360 A  
HETATM   17  C   UNL     1     -10.974  12.346  66.678  1.00  0.00    -0.309 A  
HETATM   18  C   UNL     1     -11.615  11.675  65.630  1.00  0.00    -0.087 A  
HETATM   19  O   UNL     1     -12.166  11.586  63.292  1.00  0.00    -0.861 OA 
HETATM   20  C   UNL     1     -10.950  13.434  64.110  1.00  0.00    -0.329 A  
HETATM   21  H   UNL     1     -12.146  11.958  62.419  1.00  0.00     0.000 HD 
HETATM   22  C   UNL     1     -10.307  14.103  65.157  1.00  0.00    -0.429 A  
ENDBRANCH  12  15
ENDBRANCH   3  12
TORSDOF 3
ENDMDL
MODEL       61
REMARK 921   NORMALIZED FREE ENERGY PREDICTED BY IDOCK:   -5.81 KCAL/MOL
REMARK 922        TOTAL FREE ENERGY PREDICTED BY IDOCK:   -7.81 KCAL/MOL
REMARK 923 INTER-LIGAND FREE ENERGY PREDICTED BY IDOCK:   -7.15 KCAL/MOL
REMARK 924 INTRA-LIGAND FREE ENERGY PREDICTED BY IDOCK:   -0.66 KCAL/MOL
REMARK 927      BINDING AFFINITY PREDICTED BY RF-SCORE:    0.00 PKD
ROOT
HETATM    1  C   UNL     1     -12.128   9.868  71.358  1.00  0.00    -0.501 C  
HETATM    2  C   UNL     1     -13.275  10.650  71.917  1.00  0.00    -0.528 C  
HETATM    3  C   UNL     1     -11.360  10.194  70.291  1.00  0.00    -0.387 C  
ENDROOT
BRANCH   3   4
HETATM    4  C   UNL     1     -11.659  11.450  69.569  1.00  0.00    -0.399 A  
HETATM    5  O   UNL     1     -12.106  15.054  67.546  1.00  0.00    -0.442 OA 
HETATM    6  H   UNL     1     -12.243  15.859  68.032  1.00  0.00     0.000 HD 
HETATM    7  C   UNL     1     -11.625  11.471  68.166  1.00  0.00    -0.378 A  
HETATM    8  C   UNL     1     -11.984  13.853  68.182  1.00  0.00    -0.350 A  
HETATM    9  C   UNL     1     -11.893  12.643  70.265  1.00  0.00    -0.295 A  
HETATM   10  C   UNL     1     -12.051  13.845  69.570  1.00  0.00    -0.393 A  
HETATM   11  C   UNL     1     -11.784  12.675  67.470  1.00  0.00    -0.429 A  
ENDBRANCH   3   4
BRANCH   3  12
HETATM   12  C   UNL     1     -10.236   9.313  69.923  1.00  0.00    -0.235 C  
HETATM   13  C   UNL     1      -9.057   9.459  70.568  1.00  0.00    -0.308 C  
HETATM   14  C   UNL     1      -7.807   8.648  70.421  1.00  0.00    -0.091 C  
BRANCH  12  15
HETATM   15  C   UNL     1     -10.389   8.223  68.931  1.00  0.00    -0.230 A  
HETATM   16  C   UNL     1     -10.833   6.228  67.022  1.00  0.00    -0.383 A  
HETATM   17  C   UNL     1     -10.159   8.475  67.569  1.00  0.00    -0.282 A  
HETATM   18  C   UNL     1     -10.383   7.480  66.612  1.00  0.00    -0.252 A  
HETATM   19  O   UNL     1     -11.097   5.237  66.121  1.00  0.00    -0.730 OA 
HETATM   20  C   UNL     1     -11.034   5.950  68.369  1.00  0.00    -0.264 A  
HETATM   21  H   UNL     1     -11.403   4.383  66.400  1.00  0.00     0.000 HD 
HETATM   22  C   UNL     1     -10.812   6.947  69.324  1.00  0.00    -0.270 A  
ENDBRANCH  12  15
ENDBRANCH   3  12
TORSDOF 3
ENDMDL
MODEL       62
REMARK 921   NORMALIZED FREE ENERGY PREDICTED BY IDOCK:   -5.80 KCAL/MOL
REMARK 922        TOTAL FREE ENERGY PREDICTED BY IDOCK:   -7.79 KCAL/MOL
REMARK 923 INTER-LIGAND FREE ENERGY PREDICTED BY IDOCK:   -6.84 KCAL/MOL
REMARK 924 INTRA-LIGAND FREE ENERGY PREDICTED BY IDOCK:   -0.96 KCAL/MOL
REMARK 927      BINDING AFFINITY PREDICTED BY RF-SCORE:    0.00 PKD
ROOT
HETATM    1  C   UNL     1     -12.087  12.053  70.155  1.00  0.00    -0.377 C  
HETATM    2  C   UNL     1     -12.725  12.407  71.461  1.00  0.00    -0.333 C  
HETATM    3  C   UNL     1     -11.509  10.874  69.821  1.00  0.00    -0.390 C  
ENDROOT
BRANCH   3   4
HETATM    4  C   UNL     1     -11.483   9.794  70.833  1.00  0.00    -0.447 A  
HETATM    5  O   UNL     1     -11.335   6.509  73.375  1.00  0.00    -0.458 OA 
HETATM    6  H   UNL     1     -12.127   6.020  73.567  1.00  0.00     0.000 HD 
HETATM    7  C   UNL     1     -10.264   9.421  71.420  1.00  0.00    -0.297 A  
HETATM    8  C   UNL     1     -11.359   7.608  72.567  1.00  0.00    -0.355 A  
HETATM    9  C   UNL     1     -12.644   9.079  71.154  1.00  0.00    -0.263 A  
HETATM   10  C   UNL     1     -12.579   7.983  72.019  1.00  0.00    -0.346 A  
HETATM   11  C   UNL     1     -10.200   8.323  72.286  1.00  0.00    -0.375 A  
ENDBRANCH   3   4
BRANCH   3  12
HETATM   12  C   UNL     1     -10.976  10.699  68.457  1.00  0.00    -0.296 C  
HETATM   13  C   UNL     1     -10.577   9.467  68.069  1.00  0.00    -0.278 C  
HETATM   14  C   UNL     1     -10.071   9.031  66.728  1.00  0.00    -0.344 C  
BRANCH  12  15
HETATM   15  C   UNL     1     -10.948  11.811  67.480  1.00  0.00    -0.310 A  
HETATM   16  C   UNL     1     -10.847  13.798  65.514  1.00  0.00    -0.299 A  
HETATM   17  C   UNL     1     -12.031  12.009  66.608  1.00  0.00    -0.082 A  
HETATM   18  C   UNL     1     -11.982  13.000  65.622  1.00  0.00    -0.479 A  
HETATM   19  O   UNL     1     -10.741  14.756  64.547  1.00  0.00    -0.605 OA 
HETATM   20  C   UNL     1      -9.779  13.639  66.389  1.00  0.00    -0.300 A  
HETATM   21  H   UNL     1      -9.966  15.301  64.473  1.00  0.00     0.000 HD 
HETATM   22  C   UNL     1      -9.828  12.646  67.372  1.00  0.00    -0.205 A  
ENDBRANCH  12  15
ENDBRANCH   3  12
TORSDOF 3
ENDMDL
MODEL       63
REMARK 921   NORMALIZED FREE ENERGY PREDICTED BY IDOCK:   -5.79 KCAL/MOL
REMARK 922        TOTAL FREE ENERGY PREDICTED BY IDOCK:   -7.78 KCAL/MOL
REMARK 923 INTER-LIGAND FREE ENERGY PREDICTED BY IDOCK:   -6.51 KCAL/MOL
REMARK 924 INTRA-LIGAND FREE ENERGY PREDICTED BY IDOCK:   -1.27 KCAL/MOL
REMARK 927      BINDING AFFINITY PREDICTED BY RF-SCORE:    0.00 PKD
ROOT
HETATM    1  C   UNL     1     -11.980  11.721  69.966  1.00  0.00    -0.421 C  
HETATM    2  C   UNL     1     -12.639  10.699  70.839  1.00  0.00    -0.503 C  
HETATM    3  C   UNL     1     -10.948  11.522  69.112  1.00  0.00    -0.276 C  
ENDROOT
BRANCH   3   4
HETATM    4  C   UNL     1     -10.378  10.161  69.005  1.00  0.00    -0.230 A  
HETATM    5  O   UNL     1      -9.101   6.207  68.894  1.00  0.00    -0.124 OA 
HETATM    6  H   UNL     1      -8.573   5.857  69.603  1.00  0.00     0.000 HD 
HETATM    7  C   UNL     1     -10.714   9.350  67.910  1.00  0.00    -0.269 A  
HETATM    8  C   UNL     1      -9.511   7.508  68.890  1.00  0.00    -0.145 A  
HETATM    9  C   UNL     1      -9.573   9.635  70.024  1.00  0.00    -0.281 A  
HETATM   10  C   UNL     1      -9.143   8.306  69.967  1.00  0.00    -0.150 A  
HETATM   11  C   UNL     1     -10.283   8.019  67.853  1.00  0.00    -0.267 A  
ENDBRANCH   3   4
BRANCH   3  12
HETATM   12  C   UNL     1     -10.468  12.651  68.294  1.00  0.00    -0.249 C  
HETATM   13  C   UNL     1      -9.462  13.418  68.771  1.00  0.00     0.061 C  
HETATM   14  C   UNL     1      -8.766  14.563  68.103  1.00  0.00    -0.171 C  
BRANCH  12  15
HETATM   15  C   UNL     1     -10.998  12.914  66.936  1.00  0.00    -0.294 A  
HETATM   16  C   UNL     1     -11.883  13.538  64.357  1.00  0.00    -0.414 A  
HETATM   17  C   UNL     1     -10.318  12.423  65.809  1.00  0.00    -0.289 A  
HETATM   18  C   UNL     1     -10.757  12.736  64.519  1.00  0.00    -0.380 A  
HETATM   19  O   UNL     1     -12.329  13.896  63.117  1.00  0.00    -1.122 OA 
HETATM   20  C   UNL     1     -12.588  14.005  65.460  1.00  0.00    -0.543 A  
HETATM   21  H   UNL     1     -13.097  14.444  63.007  1.00  0.00     0.000 HD 
HETATM   22  C   UNL     1     -12.146  13.695  66.750  1.00  0.00    -0.445 A  
ENDBRANCH  12  15
ENDBRANCH   3  12
TORSDOF 3
ENDMDL
MODEL       64
REMARK 921   NORMALIZED FREE ENERGY PREDICTED BY IDOCK:   -5.78 KCAL/MOL
REMARK 922        TOTAL FREE ENERGY PREDICTED BY IDOCK:   -7.77 KCAL/MOL
REMARK 923 INTER-LIGAND FREE ENERGY PREDICTED BY IDOCK:   -6.24 KCAL/MOL
REMARK 924 INTRA-LIGAND FREE ENERGY PREDICTED BY IDOCK:   -1.54 KCAL/MOL
REMARK 927      BINDING AFFINITY PREDICTED BY RF-SCORE:    0.00 PKD
ROOT
HETATM    1  C   UNL     1     -12.043  13.097  70.208  1.00  0.00    -0.399 C  
HETATM    2  C   UNL     1     -12.281  14.535  69.868  1.00  0.00    -0.379 C  
HETATM    3  C   UNL     1     -11.489  12.151  69.412  1.00  0.00    -0.355 C  
ENDROOT
BRANCH   3   4
HETATM    4  C   UNL     1     -11.064  12.540  68.049  1.00  0.00    -0.285 A  
HETATM    5  O   UNL     1     -10.043  13.986  64.288  1.00  0.00    -0.697 OA 
HETATM    6  H   UNL     1     -10.635  13.864  63.555  1.00  0.00     0.000 HD 
HETATM    7  C   UNL     1      -9.836  13.193  67.863  1.00  0.00    -0.231 A  
HETATM    8  C   UNL     1     -10.340  13.499  65.527  1.00  0.00    -0.300 A  
HETATM    9  C   UNL     1     -11.908  12.343  66.948  1.00  0.00    -0.377 A  
HETATM   10  C   UNL     1     -11.545  12.826  65.688  1.00  0.00    -0.410 A  
HETATM   11  C   UNL     1      -9.474  13.678  66.601  1.00  0.00    -0.285 A  
ENDBRANCH   3   4
BRANCH   3  12
HETATM   12  C   UNL     1     -11.289  10.792  69.949  1.00  0.00    -0.385 C  
HETATM   13  C   UNL     1     -12.084  10.368  70.957  1.00  0.00    -0.488 C  
HETATM   14  C   UNL     1     -12.118   9.022  71.614  1.00  0.00    -0.422 C  
BRANCH  12  15
HETATM   15  C   UNL     1     -10.305   9.855  69.359  1.00  0.00    -0.238 A  
HETATM   16  C   UNL     1      -8.386   8.217  68.153  1.00  0.00    -0.129 A  
HETATM   17  C   UNL     1      -8.987   9.824  69.843  1.00  0.00    -0.254 A  
HETATM   18  C   UNL     1      -8.025   9.008  69.239  1.00  0.00    -0.096 A  
HETATM   19  O   UNL     1      -7.473   7.430  67.511  1.00  0.00    -0.095 OA 
HETATM   20  C   UNL     1      -9.694   8.209  67.681  1.00  0.00    -0.200 A  
HETATM   21  H   UNL     1      -7.720   6.889  66.770  1.00  0.00     0.000 HD 
HETATM   22  C   UNL     1     -10.654   9.028  68.284  1.00  0.00    -0.213 A  
ENDBRANCH  12  15
ENDBRANCH   3  12
TORSDOF 3
ENDMDL
MODEL       65
REMARK 921   NORMALIZED FREE ENERGY PREDICTED BY IDOCK:   -5.75 KCAL/MOL
REMARK 922        TOTAL FREE ENERGY PREDICTED BY IDOCK:   -7.74 KCAL/MOL
REMARK 923 INTER-LIGAND FREE ENERGY PREDICTED BY IDOCK:   -6.18 KCAL/MOL
REMARK 924 INTRA-LIGAND FREE ENERGY PREDICTED BY IDOCK:   -1.55 KCAL/MOL
REMARK 927      BINDING AFFINITY PREDICTED BY RF-SCORE:    0.00 PKD
ROOT
HETATM    1  C   UNL     1      -9.360   9.852  64.631  1.00  0.00    -0.338 C  
HETATM    2  C   UNL     1      -8.539   8.619  64.849  1.00  0.00    -0.163 C  
HETATM    3  C   UNL     1      -9.907  10.647  65.580  1.00  0.00    -0.307 C  
ENDROOT
BRANCH   3   4
HETATM    4  C   UNL     1      -9.698  10.291  67.001  1.00  0.00    -0.217 A  
HETATM    5  O   UNL     1      -9.288   9.633  71.085  1.00  0.00    -0.322 OA 
HETATM    6  H   UNL     1      -8.509   9.935  71.539  1.00  0.00     0.000 HD 
HETATM    7  C   UNL     1     -10.704   9.607  67.702  1.00  0.00    -0.324 A  
HETATM    8  C   UNL     1      -9.437   9.811  69.740  1.00  0.00    -0.228 A  
HETATM    9  C   UNL     1      -8.545  10.699  67.684  1.00  0.00    -0.118 A  
HETATM   10  C   UNL     1      -8.417  10.461  69.056  1.00  0.00    -0.155 A  
HETATM   11  C   UNL     1     -10.575   9.370  69.075  1.00  0.00    -0.233 A  
ENDBRANCH   3   4
BRANCH   3  12
HETATM   12  C   UNL     1     -10.644  11.855  65.164  1.00  0.00    -0.333 C  
HETATM   13  C   UNL     1     -11.297  11.843  63.980  1.00  0.00    -0.475 C  
HETATM   14  C   UNL     1     -12.160  12.909  63.380  1.00  0.00    -0.610 C  
BRANCH  12  15
HETATM   15  C   UNL     1     -10.759  13.043  66.042  1.00  0.00    -0.290 A  
HETATM   16  C   UNL     1     -11.097  15.346  67.593  1.00  0.00    -0.316 A  
HETATM   17  C   UNL     1     -11.806  13.128  66.975  1.00  0.00    -0.435 A  
HETATM   18  C   UNL     1     -11.978  14.280  67.749  1.00  0.00    -0.384 A  
HETATM   19  O   UNL     1     -11.246  16.502  68.302  1.00  0.00    -0.356 OA 
HETATM   20  C   UNL     1     -10.036  15.266  66.698  1.00  0.00    -0.268 A  
HETATM   21  H   UNL     1     -10.645  17.230  68.196  1.00  0.00     0.000 HD 
HETATM   22  C   UNL     1      -9.867  14.115  65.922  1.00  0.00    -0.312 A  
ENDBRANCH  12  15
ENDBRANCH   3  12
TORSDOF 3
ENDMDL
MODEL       66
REMARK 921   NORMALIZED FREE ENERGY PREDICTED BY IDOCK:   -5.74 KCAL/MOL
REMARK 922        TOTAL FREE ENERGY PREDICTED BY IDOCK:   -7.73 KCAL/MOL
REMARK 923 INTER-LIGAND FREE ENERGY PREDICTED BY IDOCK:   -6.69 KCAL/MOL
REMARK 924 INTRA-LIGAND FREE ENERGY PREDICTED BY IDOCK:   -1.04 KCAL/MOL
REMARK 927      BINDING AFFINITY PREDICTED BY RF-SCORE:    0.00 PKD
ROOT
HETATM    1  C   UNL     1     -12.478  12.854  70.824  1.00  0.00    -0.370 C  
HETATM    2  C   UNL     1     -13.184  12.933  72.142  1.00  0.00    -0.552 C  
HETATM    3  C   UNL     1     -12.037  11.736  70.200  1.00  0.00    -0.398 C  
ENDROOT
BRANCH   3   4
HETATM    4  C   UNL     1     -12.252  10.431  70.862  1.00  0.00    -0.484 A  
HETATM    5  O   UNL     1     -12.772   6.594  72.373  1.00  0.00    -0.532 OA 
HETATM    6  H   UNL     1     -13.628   6.181  72.340  1.00  0.00     0.000 HD 
HETATM    7  C   UNL     1     -11.165   9.754  71.436  1.00  0.00    -0.368 A  
HETATM    8  C   UNL     1     -12.578   7.862  71.910  1.00  0.00    -0.319 A  
HETATM    9  C   UNL     1     -13.512   9.817  70.853  1.00  0.00    -0.167 A  
HETATM   10  C   UNL     1     -13.673   8.531  71.374  1.00  0.00    -0.286 A  
HETATM   11  C   UNL     1     -11.326   8.465  71.957  1.00  0.00    -0.411 A  
ENDBRANCH   3   4
BRANCH   3  12
HETATM   12  C   UNL     1     -11.406  11.860  68.873  1.00  0.00    -0.335 C  
HETATM   13  C   UNL     1     -11.294  10.756  68.100  1.00  0.00    -0.377 C  
HETATM   14  C   UNL     1     -10.760  10.645  66.706  1.00  0.00    -0.272 C  
BRANCH  12  15
HETATM   15  C   UNL     1     -10.972  13.169  68.332  1.00  0.00    -0.287 A  
HETATM   16  C   UNL     1     -10.111  15.560  67.165  1.00  0.00    -0.254 A  
HETATM   17  C   UNL     1     -11.816  13.887  67.469  1.00  0.00    -0.431 A  
HETATM   18  C   UNL     1     -11.386  15.082  66.882  1.00  0.00    -0.302 A  
HETATM   19  O   UNL     1      -9.636  16.704  66.589  1.00  0.00    -0.240 OA 
HETATM   20  C   UNL     1      -9.274  14.880  68.042  1.00  0.00    -0.185 A  
HETATM   21  H   UNL     1      -8.765  17.031  66.782  1.00  0.00     0.000 HD 
HETATM   22  C   UNL     1      -9.704  13.685  68.626  1.00  0.00    -0.118 A  
ENDBRANCH  12  15
ENDBRANCH   3  12
TORSDOF 3
ENDMDL
MODEL       67
REMARK 921   NORMALIZED FREE ENERGY PREDICTED BY IDOCK:   -5.74 KCAL/MOL
REMARK 922        TOTAL FREE ENERGY PREDICTED BY IDOCK:   -7.73 KCAL/MOL
REMARK 923 INTER-LIGAND FREE ENERGY PREDICTED BY IDOCK:   -6.64 KCAL/MOL
REMARK 924 INTRA-LIGAND FREE ENERGY PREDICTED BY IDOCK:   -1.08 KCAL/MOL
REMARK 927      BINDING AFFINITY PREDICTED BY RF-SCORE:    0.00 PKD
ROOT
HETATM    1  C   UNL     1      -8.541  15.030  68.215  1.00  0.00    -0.156 C  
HETATM    2  C   UNL     1      -7.558  15.787  69.052  1.00  0.00    -0.191 C  
HETATM    3  C   UNL     1      -9.460  15.548  67.366  1.00  0.00    -0.213 C  
ENDROOT
BRANCH   3   4
HETATM    4  C   UNL     1      -9.536  17.018  67.226  1.00  0.00    -0.244 A  
HETATM    5  O   UNL     1      -9.510  21.174  67.147  1.00  0.00    -0.681 OA 
HETATM    6  H   UNL     1     -10.160  21.664  67.637  1.00  0.00     0.000 HD 
HETATM    7  C   UNL     1      -8.575  17.695  66.460  1.00  0.00    -0.287 A  
HETATM    8  C   UNL     1      -9.511  19.810  67.133  1.00  0.00    -0.355 A  
HETATM    9  C   UNL     1     -10.506  17.759  67.915  1.00  0.00    -0.401 A  
HETATM   10  C   UNL     1     -10.490  19.155  67.870  1.00  0.00    -0.492 A  
HETATM   11  C   UNL     1      -8.559  19.094  66.416  1.00  0.00    -0.335 A  
ENDBRANCH   3   4
BRANCH   3  12
HETATM   12  C   UNL     1     -10.310  14.630  66.585  1.00  0.00    -0.273 C  
HETATM   13  C   UNL     1     -10.853  15.071  65.428  1.00  0.00    -0.376 C  
HETATM   14  C   UNL     1     -11.684  14.313  64.439  1.00  0.00    -0.405 C  
BRANCH  12  15
HETATM   15  C   UNL     1     -10.515  13.219  66.989  1.00  0.00    -0.249 A  
HETATM   16  C   UNL     1     -10.977  10.529  67.599  1.00  0.00    -0.314 A  
HETATM   17  C   UNL     1      -9.651  12.219  66.512  1.00  0.00    -0.242 A  
HETATM   18  C   UNL     1      -9.882  10.873  66.813  1.00  0.00    -0.231 A  
HETATM   19  O   UNL     1     -11.262   9.226  67.892  1.00  0.00    -0.501 OA 
HETATM   20  C   UNL     1     -11.824  11.507  68.108  1.00  0.00    -0.306 A  
HETATM   21  H   UNL     1     -12.009   8.991  68.429  1.00  0.00     0.000 HD 
HETATM   22  C   UNL     1     -11.594  12.853  67.803  1.00  0.00    -0.391 A  
ENDBRANCH  12  15
ENDBRANCH   3  12
TORSDOF 3
ENDMDL
MODEL       68
REMARK 921   NORMALIZED FREE ENERGY PREDICTED BY IDOCK:   -5.73 KCAL/MOL
REMARK 922        TOTAL FREE ENERGY PREDICTED BY IDOCK:   -7.72 KCAL/MOL
REMARK 923 INTER-LIGAND FREE ENERGY PREDICTED BY IDOCK:   -6.97 KCAL/MOL
REMARK 924 INTRA-LIGAND FREE ENERGY PREDICTED BY IDOCK:   -0.74 KCAL/MOL
REMARK 927      BINDING AFFINITY PREDICTED BY RF-SCORE:    0.00 PKD
ROOT
HETATM    1  C   UNL     1     -12.187  13.239  66.299  1.00  0.00    -0.440 C  
HETATM    2  C   UNL     1     -12.689  14.091  65.174  1.00  0.00    -0.419 C  
HETATM    3  C   UNL     1     -11.213  13.551  67.187  1.00  0.00    -0.324 C  
ENDROOT
BRANCH   3   4
HETATM    4  C   UNL     1     -10.544  14.865  67.064  1.00  0.00    -0.289 A  
HETATM    5  O   UNL     1      -8.424  18.440  67.011  1.00  0.00    -0.242 OA 
HETATM    6  H   UNL     1      -8.700  19.165  67.561  1.00  0.00     0.000 HD 
HETATM    7  C   UNL     1      -9.432  15.004  66.220  1.00  0.00    -0.342 A  
HETATM    8  C   UNL     1      -9.117  17.265  66.987  1.00  0.00    -0.236 A  
HETATM    9  C   UNL     1     -10.953  15.957  67.842  1.00  0.00    -0.327 A  
HETATM   10  C   UNL     1     -10.235  17.155  67.805  1.00  0.00    -0.324 A  
HETATM   11  C   UNL     1      -8.713  16.204  66.184  1.00  0.00    -0.358 A  
ENDBRANCH   3   4
BRANCH   3  12
HETATM   12  C   UNL     1     -10.893  12.594  68.262  1.00  0.00    -0.261 C  
HETATM   13  C   UNL     1      -9.826  11.776  68.109  1.00  0.00    -0.190 C  
HETATM   14  C   UNL     1      -9.268  10.781  69.079  1.00  0.00    -0.157 C  
BRANCH  12  15
HETATM   15  C   UNL     1     -11.651  12.564  69.534  1.00  0.00    -0.348 A  
HETATM   16  C   UNL     1     -13.228  12.485  71.843  1.00  0.00    -0.392 A  
HETATM   17  C   UNL     1     -12.038  11.334  70.093  1.00  0.00    -0.448 A  
HETATM   18  C   UNL     1     -12.829  11.293  71.246  1.00  0.00    -0.491 A  
HETATM   19  O   UNL     1     -14.027  12.493  72.950  1.00  0.00    -0.532 OA 
HETATM   20  C   UNL     1     -12.827  13.710  71.323  1.00  0.00    -0.424 A  
HETATM   21  H   UNL     1     -14.299  13.307  73.358  1.00  0.00     0.000 HD 
HETATM   22  C   UNL     1     -12.039  13.751  70.168  1.00  0.00    -0.429 A  
ENDBRANCH  12  15
ENDBRANCH   3  12
TORSDOF 3
ENDMDL
MODEL       69
REMARK 921   NORMALIZED FREE ENERGY PREDICTED BY IDOCK:   -5.72 KCAL/MOL
REMARK 922        TOTAL FREE ENERGY PREDICTED BY IDOCK:   -7.70 KCAL/MOL
REMARK 923 INTER-LIGAND FREE ENERGY PREDICTED BY IDOCK:   -6.80 KCAL/MOL
REMARK 924 INTRA-LIGAND FREE ENERGY PREDICTED BY IDOCK:   -0.90 KCAL/MOL
REMARK 927      BINDING AFFINITY PREDICTED BY RF-SCORE:    0.00 PKD
ROOT
HETATM    1  C   UNL     1     -10.563  13.730  68.857  1.00  0.00    -0.224 C  
HETATM    2  C   UNL     1     -11.490  12.608  69.206  1.00  0.00    -0.354 C  
HETATM    3  C   UNL     1     -10.538  14.969  69.405  1.00  0.00    -0.262 C  
ENDROOT
BRANCH   3   4
HETATM    4  C   UNL     1     -11.520  15.288  70.464  1.00  0.00    -0.342 A  
HETATM    5  O   UNL     1     -14.285  15.796  73.526  1.00  0.00    -0.275 OA 
HETATM    6  H   UNL     1     -15.216  15.742  73.341  1.00  0.00     0.000 HD 
HETATM    7  C   UNL     1     -11.076  15.557  71.768  1.00  0.00    -0.237 A  
HETATM    8  C   UNL     1     -13.356  15.661  72.536  1.00  0.00    -0.516 A  
HETATM    9  C   UNL     1     -12.897  15.243  70.207  1.00  0.00    -0.298 A  
HETATM   10  C   UNL     1     -13.814  15.427  71.246  1.00  0.00    -0.523 A  
HETATM   11  C   UNL     1     -11.995  15.740  72.807  1.00  0.00    -0.598 A  
ENDBRANCH   3   4
BRANCH   3  12
HETATM   12  C   UNL     1      -9.509  15.927  68.960  1.00  0.00    -0.247 C  
HETATM   13  C   UNL     1      -8.221  15.706  69.307  1.00  0.00    -0.253 C  
HETATM   14  C   UNL     1      -7.005  16.489  68.922  1.00  0.00    -0.191 C  
BRANCH  12  15
HETATM   15  C   UNL     1      -9.835  17.071  68.078  1.00  0.00    -0.275 A  
HETATM   16  C   UNL     1     -10.297  19.210  66.336  1.00  0.00    -0.455 A  
HETATM   17  C   UNL     1     -10.294  16.841  66.770  1.00  0.00    -0.293 A  
HETATM   18  C   UNL     1     -10.523  17.909  65.896  1.00  0.00    -0.253 A  
HETATM   19  O   UNL     1     -10.475  20.282  65.509  1.00  0.00    -0.386 OA 
HETATM   20  C   UNL     1      -9.875  19.459  67.637  1.00  0.00    -0.450 A  
HETATM   21  H   UNL     1     -10.321  21.170  65.808  1.00  0.00     0.000 HD 
HETATM   22  C   UNL     1      -9.643  18.390  68.508  1.00  0.00    -0.368 A  
ENDBRANCH  12  15
ENDBRANCH   3  12
TORSDOF 3
ENDMDL
MODEL       70
REMARK 921   NORMALIZED FREE ENERGY PREDICTED BY IDOCK:   -5.71 KCAL/MOL
REMARK 922        TOTAL FREE ENERGY PREDICTED BY IDOCK:   -7.69 KCAL/MOL
REMARK 923 INTER-LIGAND FREE ENERGY PREDICTED BY IDOCK:   -6.17 KCAL/MOL
REMARK 924 INTRA-LIGAND FREE ENERGY PREDICTED BY IDOCK:   -1.52 KCAL/MOL
REMARK 927      BINDING AFFINITY PREDICTED BY RF-SCORE:    0.00 PKD
ROOT
HETATM    1  C   UNL     1     -11.282  11.793  64.046  1.00  0.00    -0.461 C  
HETATM    2  C   UNL     1     -12.107  12.898  63.465  1.00  0.00    -0.633 C  
HETATM    3  C   UNL     1     -10.622  11.802  65.229  1.00  0.00    -0.327 C  
ENDROOT
BRANCH   3   4
HETATM    4  C   UNL     1     -10.696  13.020  66.065  1.00  0.00    -0.290 A  
HETATM    5  O   UNL     1     -11.138  16.598  68.134  1.00  0.00    -0.361 OA 
HETATM    6  H   UNL     1     -10.526  17.311  67.988  1.00  0.00     0.000 HD 
HETATM    7  C   UNL     1     -11.740  13.166  66.991  1.00  0.00    -0.431 A  
HETATM    8  C   UNL     1     -11.001  15.403  67.489  1.00  0.00    -0.315 A  
HETATM    9  C   UNL     1      -9.787  14.071  65.888  1.00  0.00    -0.302 A  
HETATM   10  C   UNL     1      -9.943  15.265  66.599  1.00  0.00    -0.264 A  
HETATM   11  C   UNL     1     -11.896  14.361  67.702  1.00  0.00    -0.412 A  
ENDBRANCH   3   4
BRANCH   3  12
HETATM   12  C   UNL     1      -9.900  10.588  65.654  1.00  0.00    -0.311 C  
HETATM   13  C   UNL     1      -9.370   9.781  64.707  1.00  0.00    -0.327 C  
HETATM   14  C   UNL     1      -8.545   8.545  64.891  1.00  0.00    -0.135 C  
BRANCH  12  15
HETATM   15  C   UNL     1      -9.667  10.277  67.083  1.00  0.00    -0.210 A  
HETATM   16  C   UNL     1      -9.331   9.822  69.822  1.00  0.00    -0.226 A  
HETATM   17  C   UNL     1     -10.619   9.541  67.807  1.00  0.00    -0.318 A  
HETATM   18  C   UNL     1     -10.455   9.314  69.177  1.00  0.00    -0.231 A  
HETATM   19  O   UNL     1      -9.145   9.654  71.164  1.00  0.00    -0.338 OA 
HETATM   20  C   UNL     1      -8.362  10.525  69.116  1.00  0.00    -0.154 A  
HETATM   21  H   UNL     1      -8.378  10.000  71.605  1.00  0.00     0.000 HD 
HETATM   22  C   UNL     1      -8.529  10.753  67.747  1.00  0.00    -0.120 A  
ENDBRANCH  12  15
ENDBRANCH   3  12
TORSDOF 3
ENDMDL
MODEL       71
REMARK 921   NORMALIZED FREE ENERGY PREDICTED BY IDOCK:   -5.70 KCAL/MOL
REMARK 922        TOTAL FREE ENERGY PREDICTED BY IDOCK:   -7.68 KCAL/MOL
REMARK 923 INTER-LIGAND FREE ENERGY PREDICTED BY IDOCK:   -7.32 KCAL/MOL
REMARK 924 INTRA-LIGAND FREE ENERGY PREDICTED BY IDOCK:   -0.36 KCAL/MOL
REMARK 927      BINDING AFFINITY PREDICTED BY RF-SCORE:    0.00 PKD
ROOT
HETATM    1  C   UNL     1     -10.370   8.287  66.752  1.00  0.00    -0.361 C  
HETATM    2  C   UNL     1     -10.727   6.851  66.974  1.00  0.00    -0.432 C  
HETATM    3  C   UNL     1     -10.422   9.292  67.659  1.00  0.00    -0.325 C  
ENDROOT
BRANCH   3   4
HETATM    4  C   UNL     1     -10.880   8.977  69.030  1.00  0.00    -0.092 A  
HETATM    5  O   UNL     1     -11.812   8.214  73.008  1.00  0.00    -0.560 OA 
HETATM    6  H   UNL     1     -11.626   7.362  73.386  1.00  0.00     0.000 HD 
HETATM    7  C   UNL     1     -11.486   9.975  69.808  1.00  0.00    -0.240 A  
HETATM    8  C   UNL     1     -11.542   8.484  71.699  1.00  0.00    -0.299 A  
HETATM    9  C   UNL     1     -10.644   7.717  69.597  1.00  0.00    -0.243 A  
HETATM   10  C   UNL     1     -10.972   7.473  70.933  1.00  0.00    -0.267 A  
HETATM   11  C   UNL     1     -11.814   9.731  71.146  1.00  0.00    -0.466 A  
ENDBRANCH   3   4
BRANCH   3  12
HETATM   12  C   UNL     1      -9.978  10.640  67.259  1.00  0.00    -0.224 C  
HETATM   13  C   UNL     1      -8.867  11.156  67.833  1.00  0.00    -0.136 C  
HETATM   14  C   UNL     1      -8.189  12.459  67.544  1.00  0.00    -0.173 C  
BRANCH  12  15
HETATM   15  C   UNL     1     -10.663  11.405  66.191  1.00  0.00    -0.320 A  
HETATM   16  C   UNL     1     -11.836  12.970  64.192  1.00  0.00    -0.416 A  
HETATM   17  C   UNL     1     -10.172  11.368  64.876  1.00  0.00    -0.330 A  
HETATM   18  C   UNL     1     -10.755  12.153  63.875  1.00  0.00    -0.456 A  
HETATM   19  O   UNL     1     -12.416  13.777  63.256  1.00  0.00    -1.065 OA 
HETATM   20  C   UNL     1     -12.357  12.994  65.481  1.00  0.00    -0.527 A  
HETATM   21  H   UNL     1     -13.154  14.335  63.472  1.00  0.00     0.000 HD 
HETATM   22  C   UNL     1     -11.771  12.212  66.481  1.00  0.00    -0.392 A  
ENDBRANCH  12  15
ENDBRANCH   3  12
TORSDOF 3
ENDMDL
MODEL       72
REMARK 921   NORMALIZED FREE ENERGY PREDICTED BY IDOCK:   -5.70 KCAL/MOL
REMARK 922        TOTAL FREE ENERGY PREDICTED BY IDOCK:   -7.68 KCAL/MOL
REMARK 923 INTER-LIGAND FREE ENERGY PREDICTED BY IDOCK:   -6.43 KCAL/MOL
REMARK 924 INTRA-LIGAND FREE ENERGY PREDICTED BY IDOCK:   -1.25 KCAL/MOL
REMARK 927      BINDING AFFINITY PREDICTED BY RF-SCORE:    0.00 PKD
ROOT
HETATM    1  C   UNL     1      -8.774   8.653  70.042  1.00  0.00    -0.141 C  
HETATM    2  C   UNL     1      -8.443   8.659  71.502  1.00  0.00    -0.238 C  
HETATM    3  C   UNL     1     -10.008   8.696  69.485  1.00  0.00    -0.196 C  
ENDROOT
BRANCH   3   4
HETATM    4  C   UNL     1     -11.183   8.750  70.382  1.00  0.00    -0.247 A  
HETATM    5  O   UNL     1     -14.228   8.894  73.208  1.00  0.00    -1.197 OA 
HETATM    6  H   UNL     1     -14.612   8.089  73.535  1.00  0.00     0.000 HD 
HETATM    7  C   UNL     1     -11.652   9.991  70.839  1.00  0.00    -0.463 A  
HETATM    8  C   UNL     1     -13.246   8.878  72.261  1.00  0.00    -0.447 A  
HETATM    9  C   UNL     1     -11.785   7.576  70.853  1.00  0.00    -0.307 A  
HETATM   10  C   UNL     1     -12.815   7.642  71.796  1.00  0.00    -0.357 A  
HETATM   11  C   UNL     1     -12.683  10.056  71.783  1.00  0.00    -0.526 A  
ENDBRANCH   3   4
BRANCH   3  12
HETATM   12  C   UNL     1     -10.128   8.733  68.015  1.00  0.00    -0.241 C  
HETATM   13  C   UNL     1     -10.317   9.927  67.409  1.00  0.00    -0.301 C  
HETATM   14  C   UNL     1     -10.398  10.225  65.943  1.00  0.00    -0.241 C  
BRANCH  12  15
HETATM   15  C   UNL     1      -9.961   7.517  67.186  1.00  0.00    -0.288 A  
HETATM   16  C   UNL     1      -9.609   5.135  65.764  1.00  0.00    -0.122 A  
HETATM   17  C   UNL     1     -10.997   6.571  67.109  1.00  0.00    -0.480 A  
HETATM   18  C   UNL     1     -10.821   5.378  66.401  1.00  0.00    -0.202 A  
HETATM   19  O   UNL     1      -9.381   3.970  65.089  1.00  0.00    -0.142 OA 
HETATM   20  C   UNL     1      -8.584   6.074  65.801  1.00  0.00    -0.155 A  
HETATM   21  H   UNL     1      -8.553   3.804  64.654  1.00  0.00     0.000 HD 
HETATM   22  C   UNL     1      -8.759   7.265  66.512  1.00  0.00    -0.141 A  
ENDBRANCH  12  15
ENDBRANCH   3  12
TORSDOF 3
ENDMDL
MODEL       73
REMARK 921   NORMALIZED FREE ENERGY PREDICTED BY IDOCK:   -5.68 KCAL/MOL
REMARK 922        TOTAL FREE ENERGY PREDICTED BY IDOCK:   -7.66 KCAL/MOL
REMARK 923 INTER-LIGAND FREE ENERGY PREDICTED BY IDOCK:   -6.54 KCAL/MOL
REMARK 924 INTRA-LIGAND FREE ENERGY PREDICTED BY IDOCK:   -1.12 KCAL/MOL
REMARK 927      BINDING AFFINITY PREDICTED BY RF-SCORE:    0.00 PKD
ROOT
HETATM    1  C   UNL     1     -11.287  14.811  65.866  1.00  0.00    -0.331 C  
HETATM    2  C   UNL     1     -12.154  14.004  64.950  1.00  0.00    -0.435 C  
HETATM    3  C   UNL     1     -10.546  14.353  66.902  1.00  0.00    -0.278 C  
ENDROOT
BRANCH   3   4
HETATM    4  C   UNL     1     -10.572  12.903  67.198  1.00  0.00    -0.246 A  
HETATM    5  O   UNL     1     -10.915   8.796  67.738  1.00  0.00    -0.494 OA 
HETATM    6  H   UNL     1     -11.558   8.448  68.345  1.00  0.00     0.000 HD 
HETATM    7  C   UNL     1      -9.726  12.034  66.493  1.00  0.00    -0.230 A  
HETATM    8  C   UNL     1     -10.762  10.140  67.561  1.00  0.00    -0.290 A  
HETATM    9  C   UNL     1     -11.491  12.371  68.112  1.00  0.00    -0.370 A  
HETATM   10  C   UNL     1     -11.587  10.988  68.290  1.00  0.00    -0.354 A  
HETATM   11  C   UNL     1      -9.822  10.649  66.671  1.00  0.00    -0.245 A  
ENDBRANCH   3   4
BRANCH   3  12
HETATM   12  C   UNL     1      -9.712  15.304  67.661  1.00  0.00    -0.208 C  
HETATM   13  C   UNL     1      -8.868  14.822  68.601  1.00  0.00    -0.180 C  
HETATM   14  C   UNL     1      -7.884  15.574  69.442  1.00  0.00    -0.231 C  
BRANCH  12  15
HETATM   15  C   UNL     1      -9.711  16.754  67.361  1.00  0.00    -0.245 A  
HETATM   16  C   UNL     1      -9.579  19.511  66.907  1.00  0.00    -0.347 A  
HETATM   17  C   UNL     1      -8.774  17.285  66.459  1.00  0.00    -0.293 A  
HETATM   18  C   UNL     1      -8.705  18.664  66.233  1.00  0.00    -0.229 A  
HETATM   19  O   UNL     1      -9.525  20.865  66.743  1.00  0.00    -0.660 OA 
HETATM   20  C   UNL     1     -10.534  19.001  67.778  1.00  0.00    -0.499 A  
HETATM   21  H   UNL     1     -10.122  21.444  67.203  1.00  0.00     0.000 HD 
HETATM   22  C   UNL     1     -10.601  17.622  68.006  1.00  0.00    -0.379 A  
ENDBRANCH  12  15
ENDBRANCH   3  12
TORSDOF 3
ENDMDL
MODEL       74
REMARK 921   NORMALIZED FREE ENERGY PREDICTED BY IDOCK:   -5.67 KCAL/MOL
REMARK 922        TOTAL FREE ENERGY PREDICTED BY IDOCK:   -7.64 KCAL/MOL
REMARK 923 INTER-LIGAND FREE ENERGY PREDICTED BY IDOCK:   -6.64 KCAL/MOL
REMARK 924 INTRA-LIGAND FREE ENERGY PREDICTED BY IDOCK:   -1.00 KCAL/MOL
REMARK 927      BINDING AFFINITY PREDICTED BY RF-SCORE:    0.00 PKD
ROOT
HETATM    1  C   UNL     1     -11.852  13.378  69.636  1.00  0.00    -0.394 C  
HETATM    2  C   UNL     1     -12.221  13.856  71.006  1.00  0.00    -0.421 C  
HETATM    3  C   UNL     1     -11.647  12.097  69.247  1.00  0.00    -0.377 C  
ENDROOT
BRANCH   3   4
HETATM    4  C   UNL     1     -11.789  11.024  70.256  1.00  0.00    -0.456 A  
HETATM    5  O   UNL     1     -12.282   7.767  72.791  1.00  0.00    -0.587 OA 
HETATM    6  H   UNL     1     -13.134   7.586  73.173  1.00  0.00     0.000 HD 
HETATM    7  C   UNL     1     -10.692  10.205  70.560  1.00  0.00    -0.295 A  
HETATM    8  C   UNL     1     -12.085   8.845  71.978  1.00  0.00    -0.371 A  
HETATM    9  C   UNL     1     -13.028  10.758  70.854  1.00  0.00    -0.385 A  
HETATM   10  C   UNL     1     -13.175   9.665  71.712  1.00  0.00    -0.520 A  
HETATM   11  C   UNL     1     -10.840   9.110  71.419  1.00  0.00    -0.419 A  
ENDBRANCH   3   4
BRANCH   3  12
HETATM   12  C   UNL     1     -11.339  11.821  67.831  1.00  0.00    -0.362 C  
HETATM   13  C   UNL     1     -11.884  12.612  66.880  1.00  0.00    -0.425 C  
HETATM   14  C   UNL     1     -11.667  12.574  65.399  1.00  0.00    -0.444 C  
BRANCH  12  15
HETATM   15  C   UNL     1     -10.386  10.759  67.431  1.00  0.00    -0.251 A  
HETATM   16  C   UNL     1      -8.581   8.827  66.519  1.00  0.00    -0.118 A  
HETATM   17  C   UNL     1      -9.007  11.026  67.406  1.00  0.00    -0.141 A  
HETATM   18  C   UNL     1      -8.103  10.062  66.948  1.00  0.00    -0.117 A  
HETATM   19  O   UNL     1      -7.739   7.869  66.033  1.00  0.00    -0.087 OA 
HETATM   20  C   UNL     1      -9.939   8.534  66.567  1.00  0.00    -0.350 A  
HETATM   21  H   UNL     1      -8.065   7.026  65.740  1.00  0.00     0.000 HD 
HETATM   22  C   UNL     1     -10.842   9.499  67.023  1.00  0.00    -0.125 A  
ENDBRANCH  12  15
ENDBRANCH   3  12
TORSDOF 3
ENDMDL
MODEL       75
REMARK 921   NORMALIZED FREE ENERGY PREDICTED BY IDOCK:   -5.65 KCAL/MOL
REMARK 922        TOTAL FREE ENERGY PREDICTED BY IDOCK:   -7.62 KCAL/MOL
REMARK 923 INTER-LIGAND FREE ENERGY PREDICTED BY IDOCK:   -6.60 KCAL/MOL
REMARK 924 INTRA-LIGAND FREE ENERGY PREDICTED BY IDOCK:   -1.02 KCAL/MOL
REMARK 927      BINDING AFFINITY PREDICTED BY RF-SCORE:    0.00 PKD
ROOT
HETATM    1  C   UNL     1     -10.675   6.681  67.936  1.00  0.00    -0.341 C  
HETATM    2  C   UNL     1     -11.075   6.144  66.597  1.00  0.00    -0.124 C  
HETATM    3  C   UNL     1     -10.246   7.935  68.217  1.00  0.00    -0.240 C  
ENDROOT
BRANCH   3   4
HETATM    4  C   UNL     1     -10.142   8.907  67.107  1.00  0.00    -0.316 A  
HETATM    5  O   UNL     1      -9.540  11.797  64.181  1.00  0.00    -0.412 OA 
HETATM    6  H   UNL     1      -9.976  12.639  64.246  1.00  0.00     0.000 HD 
HETATM    7  C   UNL     1      -9.308   8.629  66.014  1.00  0.00    -0.284 A  
HETATM    8  C   UNL     1      -9.740  10.820  65.112  1.00  0.00    -0.265 A  
HETATM    9  C   UNL     1     -10.800  10.143  67.168  1.00  0.00    -0.257 A  
HETATM   10  C   UNL     1     -10.595  11.100  66.171  1.00  0.00    -0.305 A  
HETATM   11  C   UNL     1      -9.102   9.589  65.016  1.00  0.00    -0.281 A  
ENDBRANCH   3   4
BRANCH   3  12
HETATM   12  C   UNL     1      -9.946   8.291  69.617  1.00  0.00    -0.193 C  
HETATM   13  C   UNL     1      -8.659   8.499  69.973  1.00  0.00    -0.134 C  
HETATM   14  C   UNL     1      -8.118   8.931  71.301  1.00  0.00    -0.185 C  
BRANCH  12  15
HETATM   15  C   UNL     1     -11.018   8.509  70.615  1.00  0.00    -0.268 A  
HETATM   16  C   UNL     1     -13.157   8.868  72.382  1.00  0.00    -0.418 A  
HETATM   17  C   UNL     1     -11.541   7.422  71.335  1.00  0.00    -0.303 A  
HETATM   18  C   UNL     1     -12.612   7.599  72.216  1.00  0.00    -0.146 A  
HETATM   19  O   UNL     1     -14.224   9.083  73.206  1.00  0.00    -1.192 OA 
HETATM   20  C   UNL     1     -12.632   9.962  71.703  1.00  0.00    -0.519 A  
HETATM   21  H   UNL     1     -14.596   9.950  73.319  1.00  0.00     0.000 HD 
HETATM   22  C   UNL     1     -11.563   9.783  70.819  1.00  0.00    -0.417 A  
ENDBRANCH  12  15
ENDBRANCH   3  12
TORSDOF 3
ENDMDL
MODEL       76
REMARK 921   NORMALIZED FREE ENERGY PREDICTED BY IDOCK:   -5.65 KCAL/MOL
REMARK 922        TOTAL FREE ENERGY PREDICTED BY IDOCK:   -7.62 KCAL/MOL
REMARK 923 INTER-LIGAND FREE ENERGY PREDICTED BY IDOCK:   -6.19 KCAL/MOL
REMARK 924 INTRA-LIGAND FREE ENERGY PREDICTED BY IDOCK:   -1.43 KCAL/MOL
REMARK 927      BINDING AFFINITY PREDICTED BY RF-SCORE:    0.00 PKD
ROOT
HETATM    1  C   UNL     1     -10.316  16.392  69.216  1.00  0.00    -0.292 C  
HETATM    2  C   UNL     1     -11.722  15.881  69.172  1.00  0.00    -0.369 C  
HETATM    3  C   UNL     1      -9.377  16.284  68.246  1.00  0.00    -0.204 C  
ENDROOT
BRANCH   3   4
HETATM    4  C   UNL     1      -9.740  15.587  66.992  1.00  0.00    -0.230 A  
HETATM    5  O   UNL     1     -11.114  13.555  63.636  1.00  0.00    -0.513 OA 
HETATM    6  H   UNL     1     -10.982  12.617  63.560  1.00  0.00     0.000 HD 
HETATM    7  C   UNL     1     -10.383  16.293  65.964  1.00  0.00    -0.363 A  
HETATM    8  C   UNL     1     -10.650  14.252  64.713  1.00  0.00    -0.412 A  
HETATM    9  C   UNL     1      -9.528  14.209  66.847  1.00  0.00    -0.275 A  
HETATM   10  C   UNL     1      -9.987  13.542  65.707  1.00  0.00    -0.266 A  
HETATM   11  C   UNL     1     -10.843  15.625  64.824  1.00  0.00    -0.377 A  
ENDBRANCH   3   4
BRANCH   3  12
HETATM   12  C   UNL     1      -8.055  16.902  68.457  1.00  0.00    -0.244 C  
HETATM   13  C   UNL     1      -7.210  16.340  69.351  1.00  0.00    -0.192 C  
HETATM   14  C   UNL     1      -5.806  16.740  69.684  1.00  0.00    -0.207 C  
BRANCH  12  15
HETATM   15  C   UNL     1      -7.598  18.064  67.660  1.00  0.00    -0.219 A  
HETATM   16  C   UNL     1      -6.894  20.266  66.086  1.00  0.00    -0.250 A  
HETATM   17  C   UNL     1      -7.912  19.368  68.076  1.00  0.00    -0.340 A  
HETATM   18  C   UNL     1      -7.563  20.471  67.288  1.00  0.00    -0.386 A  
HETATM   19  O   UNL     1      -6.562  21.308  65.269  1.00  0.00    -0.487 OA 
HETATM   20  C   UNL     1      -6.546  18.984  65.675  1.00  0.00    -0.304 A  
HETATM   21  H   UNL     1      -6.105  21.169  64.449  1.00  0.00     0.000 HD 
HETATM   22  C   UNL     1      -6.898  17.882  66.461  1.00  0.00    -0.259 A  
ENDBRANCH  12  15
ENDBRANCH   3  12
TORSDOF 3
ENDMDL
MODEL       77
REMARK 921   NORMALIZED FREE ENERGY PREDICTED BY IDOCK:   -5.63 KCAL/MOL
REMARK 922        TOTAL FREE ENERGY PREDICTED BY IDOCK:   -7.59 KCAL/MOL
REMARK 923 INTER-LIGAND FREE ENERGY PREDICTED BY IDOCK:   -6.48 KCAL/MOL
REMARK 924 INTRA-LIGAND FREE ENERGY PREDICTED BY IDOCK:   -1.11 KCAL/MOL
REMARK 927      BINDING AFFINITY PREDICTED BY RF-SCORE:    0.00 PKD
ROOT
HETATM    1  C   UNL     1     -10.451   9.006  68.297  1.00  0.00    -0.247 C  
HETATM    2  C   UNL     1      -9.833   8.840  66.943  1.00  0.00    -0.295 C  
HETATM    3  C   UNL     1     -10.903  10.156  68.852  1.00  0.00    -0.256 C  
ENDROOT
BRANCH   3   4
HETATM    4  C   UNL     1     -10.788  11.406  68.071  1.00  0.00    -0.264 A  
HETATM    5  O   UNL     1     -10.275  14.708  65.598  1.00  0.00    -0.317 OA 
HETATM    6  H   UNL     1      -9.499  15.250  65.683  1.00  0.00     0.000 HD 
HETATM    7  C   UNL     1     -11.772  11.727  67.123  1.00  0.00    -0.267 A  
HETATM    8  C   UNL     1     -10.483  13.635  66.414  1.00  0.00    -0.288 A  
HETATM    9  C   UNL     1      -9.667  12.237  68.201  1.00  0.00    -0.213 A  
HETATM   10  C   UNL     1      -9.514  13.349  67.369  1.00  0.00    -0.222 A  
HETATM   11  C   UNL     1     -11.618  12.841  66.289  1.00  0.00    -0.433 A  
ENDBRANCH   3   4
BRANCH   3  12
HETATM   12  C   UNL     1     -11.531  10.107  70.186  1.00  0.00    -0.368 C  
HETATM   13  C   UNL     1     -12.334  11.126  70.565  1.00  0.00    -0.454 C  
HETATM   14  C   UNL     1     -13.128  11.268  71.827  1.00  0.00    -0.527 C  
BRANCH  12  15
HETATM   15  C   UNL     1     -11.374   8.937  71.082  1.00  0.00    -0.357 A  
HETATM   16  C   UNL     1     -11.186   6.806  72.883  1.00  0.00    -0.198 A  
HETATM   17  C   UNL     1     -12.357   7.934  71.106  1.00  0.00    -0.248 A  
HETATM   18  C   UNL     1     -12.266   6.869  72.008  1.00  0.00    -0.318 A  
HETATM   19  O   UNL     1     -11.072   5.803  73.803  1.00  0.00    -0.418 OA 
HETATM   20  C   UNL     1     -10.187   7.772  72.851  1.00  0.00    -0.377 A  
HETATM   21  H   UNL     1     -10.335   5.760  74.400  1.00  0.00     0.000 HD 
HETATM   22  C   UNL     1     -10.280   8.838  71.951  1.00  0.00    -0.415 A  
ENDBRANCH  12  15
ENDBRANCH   3  12
TORSDOF 3
ENDMDL
MODEL       78
REMARK 921   NORMALIZED FREE ENERGY PREDICTED BY IDOCK:   -5.62 KCAL/MOL
REMARK 922        TOTAL FREE ENERGY PREDICTED BY IDOCK:   -7.59 KCAL/MOL
REMARK 923 INTER-LIGAND FREE ENERGY PREDICTED BY IDOCK:   -6.20 KCAL/MOL
REMARK 924 INTRA-LIGAND FREE ENERGY PREDICTED BY IDOCK:   -1.39 KCAL/MOL
REMARK 927      BINDING AFFINITY PREDICTED BY RF-SCORE:    0.00 PKD
ROOT
HETATM    1  C   UNL     1      -8.948   6.947  70.605  1.00  0.00    -0.151 C  
HETATM    2  C   UNL     1      -8.757   7.110  72.081  1.00  0.00    -0.132 C  
HETATM    3  C   UNL     1     -10.066   7.220  69.892  1.00  0.00    -0.196 C  
ENDROOT
BRANCH   3   4
HETATM    4  C   UNL     1     -11.252   7.732  70.613  1.00  0.00    -0.278 A  
HETATM    5  O   UNL     1     -14.372   9.133  72.976  1.00  0.00    -1.075 OA 
HETATM    6  H   UNL     1     -15.006   8.524  73.338  1.00  0.00     0.000 HD 
HETATM    7  C   UNL     1     -11.376   9.108  70.860  1.00  0.00    -0.359 A  
HETATM    8  C   UNL     1     -13.354   8.705  72.175  1.00  0.00    -0.396 A  
HETATM    9  C   UNL     1     -12.215   6.855  71.130  1.00  0.00    -0.428 A  
HETATM   10  C   UNL     1     -13.264   7.343  71.914  1.00  0.00    -0.292 A  
HETATM   11  C   UNL     1     -12.427   9.596  71.646  1.00  0.00    -0.494 A  
ENDBRANCH   3   4
BRANCH   3  12
HETATM   12  C   UNL     1     -10.042   7.042  68.428  1.00  0.00    -0.176 C  
HETATM   13  C   UNL     1     -10.513   5.887  67.905  1.00  0.00    -0.297 C  
HETATM   14  C   UNL     1     -10.655   5.506  66.464  1.00  0.00    -0.343 C  
BRANCH  12  15
HETATM   15  C   UNL     1      -9.599   8.121  67.516  1.00  0.00    -0.196 A  
HETATM   16  C   UNL     1      -8.698  10.243  65.931  1.00  0.00    -0.156 A  
HETATM   17  C   UNL     1      -8.259   8.181  67.096  1.00  0.00    -0.120 A  
HETATM   18  C   UNL     1      -7.806   9.242  66.306  1.00  0.00    -0.103 A  
HETATM   19  O   UNL     1      -8.293  11.315  65.189  1.00  0.00    -0.379 OA 
HETATM   20  C   UNL     1     -10.034  10.184  66.309  1.00  0.00    -0.304 A  
HETATM   21  H   UNL     1      -8.901  11.998  64.932  1.00  0.00     0.000 HD 
HETATM   22  C   UNL     1     -10.485   9.124  67.102  1.00  0.00    -0.325 A  
ENDBRANCH  12  15
ENDBRANCH   3  12
TORSDOF 3
ENDMDL
MODEL       79
REMARK 921   NORMALIZED FREE ENERGY PREDICTED BY IDOCK:   -5.61 KCAL/MOL
REMARK 922        TOTAL FREE ENERGY PREDICTED BY IDOCK:   -7.58 KCAL/MOL
REMARK 923 INTER-LIGAND FREE ENERGY PREDICTED BY IDOCK:   -7.00 KCAL/MOL
REMARK 924 INTRA-LIGAND FREE ENERGY PREDICTED BY IDOCK:   -0.58 KCAL/MOL
REMARK 927      BINDING AFFINITY PREDICTED BY RF-SCORE:    0.00 PKD
ROOT
HETATM    1  C   UNL     1     -12.679  13.862  70.861  1.00  0.00    -0.410 C  
HETATM    2  C   UNL     1     -12.884  15.189  71.522  1.00  0.00    -0.442 C  
HETATM    3  C   UNL     1     -11.871  13.589  69.809  1.00  0.00    -0.395 C  
ENDROOT
BRANCH   3   4
HETATM    4  C   UNL     1     -11.093  14.699  69.216  1.00  0.00    -0.290 A  
HETATM    5  O   UNL     1      -9.070  18.053  67.824  1.00  0.00    -0.256 OA 
HETATM    6  H   UNL     1      -9.462  18.602  67.154  1.00  0.00     0.000 HD 
HETATM    7  C   UNL     1      -9.822  15.009  69.725  1.00  0.00    -0.044 A  
HETATM    8  C   UNL     1      -9.698  16.931  68.280  1.00  0.00    -0.256 A  
HETATM    9  C   UNL     1     -11.639  15.503  68.206  1.00  0.00    -0.344 A  
HETATM   10  C   UNL     1     -10.942  16.622  67.742  1.00  0.00    -0.234 A  
HETATM   11  C   UNL     1      -9.125  16.129  69.260  1.00  0.00    -0.213 A  
ENDBRANCH   3   4
BRANCH   3  12
HETATM   12  C   UNL     1     -11.764  12.199  69.330  1.00  0.00    -0.386 C  
HETATM   13  C   UNL     1     -11.451  11.980  68.033  1.00  0.00    -0.392 C  
HETATM   14  C   UNL     1     -11.221  10.674  67.338  1.00  0.00    -0.280 C  
BRANCH  12  15
HETATM   15  C   UNL     1     -11.905  11.043  70.246  1.00  0.00    -0.456 A  
HETATM   16  C   UNL     1     -12.150   8.970  72.108  1.00  0.00    -0.342 A  
HETATM   17  C   UNL     1     -13.131  10.801  70.888  1.00  0.00    -0.291 A  
HETATM   18  C   UNL     1     -13.254   9.767  71.822  1.00  0.00    -0.532 A  
HETATM   19  O   UNL     1     -12.215   7.971  73.035  1.00  0.00    -0.659 OA 
HETATM   20  C   UNL     1     -10.938   9.174  71.457  1.00  0.00    -0.434 A  
HETATM   21  H   UNL     1     -11.461   7.427  73.231  1.00  0.00     0.000 HD 
HETATM   22  C   UNL     1     -10.815  10.210  70.527  1.00  0.00    -0.340 A  
ENDBRANCH  12  15
ENDBRANCH   3  12
TORSDOF 3
ENDMDL
MODEL       80
REMARK 921   NORMALIZED FREE ENERGY PREDICTED BY IDOCK:   -5.59 KCAL/MOL
REMARK 922        TOTAL FREE ENERGY PREDICTED BY IDOCK:   -7.55 KCAL/MOL
REMARK 923 INTER-LIGAND FREE ENERGY PREDICTED BY IDOCK:   -7.76 KCAL/MOL
REMARK 924 INTRA-LIGAND FREE ENERGY PREDICTED BY IDOCK:    0.21 KCAL/MOL
REMARK 927      BINDING AFFINITY PREDICTED BY RF-SCORE:    0.00 PKD
ROOT
HETATM    1  C   UNL     1     -12.080  15.189  69.845  1.00  0.00    -0.373 C  
HETATM    2  C   UNL     1     -12.987  15.417  71.014  1.00  0.00    -0.556 C  
HETATM    3  C   UNL     1     -11.628  13.999  69.382  1.00  0.00    -0.349 C  
ENDROOT
BRANCH   3   4
HETATM    4  C   UNL     1     -12.051  12.767  70.083  1.00  0.00    -0.370 A  
HETATM    5  O   UNL     1     -12.944   9.371  72.308  1.00  0.00    -0.401 OA 
HETATM    6  H   UNL     1     -12.537   8.540  72.092  1.00  0.00     0.000 HD 
HETATM    7  C   UNL     1     -12.967  12.849  71.143  1.00  0.00    -0.259 A  
HETATM    8  C   UNL     1     -12.691  10.496  71.579  1.00  0.00    -0.452 A  
HETATM    9  C   UNL     1     -11.488  11.525  69.760  1.00  0.00    -0.362 A  
HETATM   10  C   UNL     1     -11.806  10.391  70.512  1.00  0.00    -0.430 A  
HETATM   11  C   UNL     1     -13.285  11.712  71.896  1.00  0.00    -0.475 A  
ENDBRANCH   3   4
BRANCH   3  12
HETATM   12  C   UNL     1     -10.777  13.977  68.178  1.00  0.00    -0.254 C  
HETATM   13  C   UNL     1      -9.534  14.504  68.251  1.00  0.00    -0.207 C  
HETATM   14  C   UNL     1      -8.473  14.536  67.195  1.00  0.00    -0.234 C  
BRANCH  12  15
HETATM   15  C   UNL     1     -11.213  13.319  66.925  1.00  0.00    -0.332 A  
HETATM   16  C   UNL     1     -11.901  12.151  64.478  1.00  0.00    -0.343 A  
HETATM   17  C   UNL     1     -10.584  12.139  66.494  1.00  0.00    -0.269 A  
HETATM   18  C   UNL     1     -10.925  11.555  65.270  1.00  0.00    -0.291 A  
HETATM   19  O   UNL     1     -12.243  11.635  63.261  1.00  0.00    -0.861 OA 
HETATM   20  C   UNL     1     -12.558  13.300  64.903  1.00  0.00    -0.444 A  
HETATM   21  H   UNL     1     -12.910  12.042  62.721  1.00  0.00     0.000 HD 
HETATM   22  C   UNL     1     -12.214  13.886  66.125  1.00  0.00    -0.498 A  
ENDBRANCH  12  15
ENDBRANCH   3  12
TORSDOF 3
ENDMDL
MODEL       81
REMARK 921   NORMALIZED FREE ENERGY PREDICTED BY IDOCK:   -5.55 KCAL/MOL
REMARK 922        TOTAL FREE ENERGY PREDICTED BY IDOCK:   -7.50 KCAL/MOL
REMARK 923 INTER-LIGAND FREE ENERGY PREDICTED BY IDOCK:   -6.16 KCAL/MOL
REMARK 924 INTRA-LIGAND FREE ENERGY PREDICTED BY IDOCK:   -1.35 KCAL/MOL
REMARK 927      BINDING AFFINITY PREDICTED BY RF-SCORE:    0.00 PKD
ROOT
HETATM    1  C   UNL     1      -7.617  12.150  67.407  1.00  0.00    -0.155 C  
HETATM    2  C   UNL     1      -6.276  11.510  67.230  1.00  0.00    -0.104 C  
HETATM    3  C   UNL     1      -8.799  11.722  66.902  1.00  0.00    -0.191 C  
ENDROOT
BRANCH   3   4
HETATM    4  C   UNL     1      -8.807  10.495  66.076  1.00  0.00    -0.179 A  
HETATM    5  O   UNL     1      -8.433   7.039  63.796  1.00  0.00    -0.346 OA 
HETATM    6  H   UNL     1      -8.314   7.100  62.855  1.00  0.00     0.000 HD 
HETATM    7  C   UNL     1      -8.874   9.238  66.698  1.00  0.00    -0.146 A  
HETATM    8  C   UNL     1      -8.586   8.155  64.566  1.00  0.00     0.100 A  
HETATM    9  C   UNL     1      -8.663  10.562  64.684  1.00  0.00    -0.193 A  
HETATM   10  C   UNL     1      -8.549   9.391  63.930  1.00  0.00    -0.225 A  
HETATM   11  C   UNL     1      -8.759   8.066  65.942  1.00  0.00    -0.184 A  
ENDBRANCH   3   4
BRANCH   3  12
HETATM   12  C   UNL     1     -10.029  12.466  67.232  1.00  0.00    -0.209 C  
HETATM   13  C   UNL     1     -10.658  12.198  68.398  1.00  0.00    -0.243 C  
HETATM   14  C   UNL     1     -11.869  12.861  68.978  1.00  0.00    -0.352 C  
BRANCH  12  15
HETATM   15  C   UNL     1     -10.542  13.553  66.366  1.00  0.00    -0.283 A  
HETATM   16  C   UNL     1     -11.410  15.544  64.603  1.00  0.00    -0.357 A  
HETATM   17  C   UNL     1     -11.558  13.287  65.433  1.00  0.00    -0.346 A  
HETATM   18  C   UNL     1     -11.992  14.281  64.549  1.00  0.00    -0.478 A  
HETATM   19  O   UNL     1     -11.778  16.534  63.739  1.00  0.00    -1.548 OA 
HETATM   20  C   UNL     1     -10.426  15.834  65.542  1.00  0.00    -0.425 A  
HETATM   21  H   UNL     1     -11.381  17.397  63.776  1.00  0.00     0.000 HD 
HETATM   22  C   UNL     1      -9.991  14.839  66.423  1.00  0.00    -0.291 A  
ENDBRANCH  12  15
ENDBRANCH   3  12
TORSDOF 3
ENDMDL
MODEL       82
REMARK 921   NORMALIZED FREE ENERGY PREDICTED BY IDOCK:   -5.55 KCAL/MOL
REMARK 922        TOTAL FREE ENERGY PREDICTED BY IDOCK:   -7.50 KCAL/MOL
REMARK 923 INTER-LIGAND FREE ENERGY PREDICTED BY IDOCK:   -6.25 KCAL/MOL
REMARK 924 INTRA-LIGAND FREE ENERGY PREDICTED BY IDOCK:   -1.25 KCAL/MOL
REMARK 927      BINDING AFFINITY PREDICTED BY RF-SCORE:    0.00 PKD
ROOT
HETATM    1  C   UNL     1     -10.817  13.593  68.625  1.00  0.00    -0.283 C  
HETATM    2  C   UNL     1     -11.935  12.604  68.742  1.00  0.00    -0.279 C  
HETATM    3  C   UNL     1     -10.032  13.813  67.544  1.00  0.00    -0.233 C  
ENDROOT
BRANCH   3   4
HETATM    4  C   UNL     1     -10.269  13.005  66.328  1.00  0.00    -0.291 A  
HETATM    5  O   UNL     1     -10.604  10.899  62.760  1.00  0.00    -0.780 OA 
HETATM    6  H   UNL     1     -11.089  11.271  62.031  1.00  0.00     0.000 HD 
HETATM    7  C   UNL     1      -9.679  11.738  66.208  1.00  0.00    -0.242 A  
HETATM    8  C   UNL     1     -10.501  11.555  63.951  1.00  0.00    -0.385 A  
HETATM    9  C   UNL     1     -11.006  13.521  65.253  1.00  0.00    -0.303 A  
HETATM   10  C   UNL     1     -11.118  12.796  64.063  1.00  0.00    -0.458 A  
HETATM   11  C   UNL     1      -9.791  11.012  65.016  1.00  0.00    -0.321 A  
ENDBRANCH   3   4
BRANCH   3  12
HETATM   12  C   UNL     1      -9.009  14.874  67.607  1.00  0.00    -0.181 C  
HETATM   13  C   UNL     1      -7.706  14.519  67.674  1.00  0.00    -0.194 C  
HETATM   14  C   UNL     1      -6.498  15.403  67.678  1.00  0.00    -0.190 C  
BRANCH  12  15
HETATM   15  C   UNL     1      -9.364  16.309  67.512  1.00  0.00    -0.217 A  
HETATM   16  C   UNL     1     -10.200  18.971  67.318  1.00  0.00    -0.399 A  
HETATM   17  C   UNL     1      -9.858  16.987  68.640  1.00  0.00    -0.290 A  
HETATM   18  C   UNL     1     -10.279  18.317  68.544  1.00  0.00    -0.402 A  
HETATM   19  O   UNL     1     -10.630  20.258  67.169  1.00  0.00    -0.293 OA 
HETATM   20  C   UNL     1      -9.684  18.327  66.199  1.00  0.00    -0.229 A  
HETATM   21  H   UNL     1     -10.577  20.705  66.333  1.00  0.00     0.000 HD 
HETATM   22  C   UNL     1      -9.266  16.996  66.296  1.00  0.00    -0.278 A  
ENDBRANCH  12  15
ENDBRANCH   3  12
TORSDOF 3
ENDMDL
MODEL       83
REMARK 921   NORMALIZED FREE ENERGY PREDICTED BY IDOCK:   -5.54 KCAL/MOL
REMARK 922        TOTAL FREE ENERGY PREDICTED BY IDOCK:   -7.50 KCAL/MOL
REMARK 923 INTER-LIGAND FREE ENERGY PREDICTED BY IDOCK:   -6.15 KCAL/MOL
REMARK 924 INTRA-LIGAND FREE ENERGY PREDICTED BY IDOCK:   -1.34 KCAL/MOL
REMARK 927      BINDING AFFINITY PREDICTED BY RF-SCORE:    0.00 PKD
ROOT
HETATM    1  C   UNL     1     -12.082  15.015  70.307  1.00  0.00    -0.378 C  
HETATM    2  C   UNL     1     -12.016  16.012  71.422  1.00  0.00    -0.507 C  
HETATM    3  C   UNL     1     -11.336  15.003  69.177  1.00  0.00    -0.311 C  
ENDROOT
BRANCH   3   4
HETATM    4  C   UNL     1     -10.339  16.079  68.982  1.00  0.00    -0.242 A  
HETATM    5  O   UNL     1      -7.506  18.977  68.058  1.00  0.00    -0.249 OA 
HETATM    6  H   UNL     1      -6.581  18.793  68.177  1.00  0.00     0.000 HD 
HETATM    7  C   UNL     1     -10.754  17.335  68.512  1.00  0.00    -0.305 A  
HETATM    8  C   UNL     1      -8.459  18.055  68.379  1.00  0.00    -0.298 A  
HETATM    9  C   UNL     1      -8.973  15.839  69.179  1.00  0.00    -0.256 A  
HETATM   10  C   UNL     1      -8.033  16.828  68.874  1.00  0.00    -0.237 A  
HETATM   11  C   UNL     1      -9.812  18.324  68.205  1.00  0.00    -0.366 A  
ENDBRANCH   3   4
BRANCH   3  12
HETATM   12  C   UNL     1     -11.514  13.900  68.214  1.00  0.00    -0.346 C  
HETATM   13  C   UNL     1     -12.065  14.170  67.010  1.00  0.00    -0.449 C  
HETATM   14  C   UNL     1     -12.282  13.242  65.855  1.00  0.00    -0.497 C  
BRANCH  12  15
HETATM   15  C   UNL     1     -11.028  12.529  68.498  1.00  0.00    -0.280 A  
HETATM   16  C   UNL     1     -10.092   9.989  69.197  1.00  0.00    -0.208 A  
HETATM   17  C   UNL     1     -11.893  11.582  69.070  1.00  0.00    -0.408 A  
HETATM   18  C   UNL     1     -11.426  10.312  69.423  1.00  0.00    -0.248 A  
HETATM   19  O   UNL     1      -9.584   8.773  69.556  1.00  0.00    -0.163 OA 
HETATM   20  C   UNL     1      -9.229  10.902  68.602  1.00  0.00    -0.187 A  
HETATM   21  H   UNL     1      -8.673   8.552  69.402  1.00  0.00     0.000 HD 
HETATM   22  C   UNL     1      -9.697  12.173  68.252  1.00  0.00    -0.216 A  
ENDBRANCH  12  15
ENDBRANCH   3  12
TORSDOF 3
ENDMDL
MODEL       84
REMARK 921   NORMALIZED FREE ENERGY PREDICTED BY IDOCK:   -5.53 KCAL/MOL
REMARK 922        TOTAL FREE ENERGY PREDICTED BY IDOCK:   -7.48 KCAL/MOL
REMARK 923 INTER-LIGAND FREE ENERGY PREDICTED BY IDOCK:   -5.91 KCAL/MOL
REMARK 924 INTRA-LIGAND FREE ENERGY PREDICTED BY IDOCK:   -1.57 KCAL/MOL
REMARK 927      BINDING AFFINITY PREDICTED BY RF-SCORE:    0.00 PKD
ROOT
HETATM    1  C   UNL     1     -10.660  18.202  65.848  1.00  0.00    -0.247 C  
HETATM    2  C   UNL     1     -10.116  19.572  66.111  1.00  0.00    -0.557 C  
HETATM    3  C   UNL     1     -10.106  17.021  66.209  1.00  0.00    -0.330 C  
ENDROOT
BRANCH   3   4
HETATM    4  C   UNL     1      -8.821  17.042  66.941  1.00  0.00    -0.251 A  
HETATM    5  O   UNL     1      -5.236  16.707  69.019  1.00  0.00    -0.118 OA 
HETATM    6  H   UNL     1      -5.233  16.736  69.969  1.00  0.00     0.000 HD 
HETATM    7  C   UNL     1      -7.616  16.903  66.235  1.00  0.00    -0.312 A  
HETATM    8  C   UNL     1      -6.394  16.842  68.310  1.00  0.00    -0.137 A  
HETATM    9  C   UNL     1      -8.789  17.115  68.340  1.00  0.00    -0.255 A  
HETATM   10  C   UNL     1      -7.575  17.011  69.023  1.00  0.00    -0.194 A  
HETATM   11  C   UNL     1      -6.400  16.798  66.920  1.00  0.00    -0.229 A  
ENDBRANCH   3   4
BRANCH   3  12
HETATM   12  C   UNL     1     -10.825  15.770  65.901  1.00  0.00    -0.272 C  
HETATM   13  C   UNL     1     -11.403  15.634  64.686  1.00  0.00    -0.355 C  
HETATM   14  C   UNL     1     -12.119  14.446  64.123  1.00  0.00    -0.405 C  
BRANCH  12  15
HETATM   15  C   UNL     1     -10.856  14.632  66.849  1.00  0.00    -0.305 A  
HETATM   16  C   UNL     1     -10.844  12.588  68.758  1.00  0.00    -0.239 A  
HETATM   17  C   UNL     1     -11.878  14.546  67.810  1.00  0.00    -0.390 A  
HETATM   18  C   UNL     1     -11.872  13.526  68.767  1.00  0.00    -0.390 A  
HETATM   19  O   UNL     1     -10.779  11.595  69.693  1.00  0.00    -0.450 OA 
HETATM   20  C   UNL     1      -9.843  12.638  67.795  1.00  0.00    -0.212 A  
HETATM   21  H   UNL     1     -10.078  10.955  69.687  1.00  0.00     0.000 HD 
HETATM   22  C   UNL     1      -9.848  13.660  66.841  1.00  0.00    -0.261 A  
ENDBRANCH  12  15
ENDBRANCH   3  12
TORSDOF 3
ENDMDL
MODEL       85
REMARK 921   NORMALIZED FREE ENERGY PREDICTED BY IDOCK:   -5.52 KCAL/MOL
REMARK 922        TOTAL FREE ENERGY PREDICTED BY IDOCK:   -7.47 KCAL/MOL
REMARK 923 INTER-LIGAND FREE ENERGY PREDICTED BY IDOCK:   -6.06 KCAL/MOL
REMARK 924 INTRA-LIGAND FREE ENERGY PREDICTED BY IDOCK:   -1.41 KCAL/MOL
REMARK 927      BINDING AFFINITY PREDICTED BY RF-SCORE:    0.00 PKD
ROOT
HETATM    1  C   UNL     1     -11.662  13.031  66.148  1.00  0.00    -0.445 C  
HETATM    2  C   UNL     1     -12.808  13.939  65.829  1.00  0.00    -0.437 C  
HETATM    3  C   UNL     1     -10.945  12.994  67.297  1.00  0.00    -0.288 C  
ENDROOT
BRANCH   3   4
HETATM    4  C   UNL     1     -11.299  13.942  68.376  1.00  0.00    -0.316 A  
HETATM    5  O   UNL     1     -11.973  16.472  71.605  1.00  0.00    -0.651 OA 
HETATM    6  H   UNL     1     -12.510  16.181  72.334  1.00  0.00     0.000 HD 
HETATM    7  C   UNL     1     -10.746  15.232  68.379  1.00  0.00    -0.250 A  
HETATM    8  C   UNL     1     -11.757  15.673  70.520  1.00  0.00    -0.366 A  
HETATM    9  C   UNL     1     -12.113  13.545  69.445  1.00  0.00    -0.340 A  
HETATM   10  C   UNL     1     -12.339  14.411  70.519  1.00  0.00    -0.413 A  
HETATM   11  C   UNL     1     -10.971  16.098  69.455  1.00  0.00    -0.333 A  
ENDBRANCH   3   4
BRANCH   3  12
HETATM   12  C   UNL     1      -9.878  11.986  67.442  1.00  0.00    -0.191 C  
HETATM   13  C   UNL     1      -8.599  12.353  67.201  1.00  0.00    -0.189 C  
HETATM   14  C   UNL     1      -7.352  11.537  67.346  1.00  0.00    -0.123 C  
BRANCH  12  15
HETATM   15  C   UNL     1     -10.159  10.614  67.925  1.00  0.00    -0.194 A  
HETATM   16  C   UNL     1     -10.519   8.003  68.860  1.00  0.00    -0.191 A  
HETATM   17  C   UNL     1     -10.183  10.346  69.304  1.00  0.00    -0.248 A  
HETATM   18  C   UNL     1     -10.360   9.041  69.773  1.00  0.00    -0.219 A  
HETATM   19  O   UNL     1     -10.662   6.709  69.271  1.00  0.00    -0.224 OA 
HETATM   20  C   UNL     1     -10.531   8.254  67.493  1.00  0.00    -0.325 A  
HETATM   21  H   UNL     1     -10.771   6.001  68.648  1.00  0.00     0.000 HD 
HETATM   22  C   UNL     1     -10.351   9.559  67.024  1.00  0.00    -0.319 A  
ENDBRANCH  12  15
ENDBRANCH   3  12
TORSDOF 3
ENDMDL
MODEL       86
REMARK 921   NORMALIZED FREE ENERGY PREDICTED BY IDOCK:   -5.51 KCAL/MOL
REMARK 922        TOTAL FREE ENERGY PREDICTED BY IDOCK:   -7.45 KCAL/MOL
REMARK 923 INTER-LIGAND FREE ENERGY PREDICTED BY IDOCK:   -6.04 KCAL/MOL
REMARK 924 INTRA-LIGAND FREE ENERGY PREDICTED BY IDOCK:   -1.41 KCAL/MOL
REMARK 927      BINDING AFFINITY PREDICTED BY RF-SCORE:    0.00 PKD
ROOT
HETATM    1  C   UNL     1      -7.255  15.363  68.872  1.00  0.00    -0.139 C  
HETATM    2  C   UNL     1      -6.773  16.591  69.579  1.00  0.00    -0.198 C  
HETATM    3  C   UNL     1      -8.134  15.305  67.843  1.00  0.00    -0.146 C  
ENDROOT
BRANCH   3   4
HETATM    4  C   UNL     1      -8.706  16.572  67.336  1.00  0.00    -0.195 A  
HETATM    5  O   UNL     1     -10.143  20.310  66.224  1.00  0.00    -0.490 OA 
HETATM    6  H   UNL     1     -10.989  20.608  66.538  1.00  0.00     0.000 HD 
HETATM    7  C   UNL     1      -7.946  17.385  66.482  1.00  0.00    -0.317 A  
HETATM    8  C   UNL     1      -9.658  19.077  66.550  1.00  0.00    -0.351 A  
HETATM    9  C   UNL     1      -9.965  17.016  67.762  1.00  0.00    -0.280 A  
HETATM   10  C   UNL     1     -10.438  18.271  67.371  1.00  0.00    -0.430 A  
HETATM   11  C   UNL     1      -8.420  18.643  66.091  1.00  0.00    -0.161 A  
ENDBRANCH   3   4
BRANCH   3  12
HETATM   12  C   UNL     1      -8.448  13.995  67.243  1.00  0.00    -0.220 C  
HETATM   13  C   UNL     1      -7.547  12.993  67.360  1.00  0.00    -0.141 C  
HETATM   14  C   UNL     1      -7.667  11.573  66.900  1.00  0.00    -0.157 C  
BRANCH  12  15
HETATM   15  C   UNL     1      -9.752  13.724  66.595  1.00  0.00    -0.293 A  
HETATM   16  C   UNL     1     -12.171  13.045  65.366  1.00  0.00    -0.471 A  
HETATM   17  C   UNL     1     -10.826  13.234  67.355  1.00  0.00    -0.279 A  
HETATM   18  C   UNL     1     -12.036  12.891  66.742  1.00  0.00    -0.335 A  
HETATM   19  O   UNL     1     -13.321  12.692  64.720  1.00  0.00    -0.787 OA 
HETATM   20  C   UNL     1     -11.130  13.559  64.602  1.00  0.00    -0.383 A  
HETATM   21  H   UNL     1     -13.414  12.798  63.781  1.00  0.00     0.000 HD 
HETATM   22  C   UNL     1      -9.920  13.899  65.215  1.00  0.00    -0.266 A  
ENDBRANCH  12  15
ENDBRANCH   3  12
TORSDOF 3
ENDMDL
MODEL       87
REMARK 921   NORMALIZED FREE ENERGY PREDICTED BY IDOCK:   -5.51 KCAL/MOL
REMARK 922        TOTAL FREE ENERGY PREDICTED BY IDOCK:   -7.45 KCAL/MOL
REMARK 923 INTER-LIGAND FREE ENERGY PREDICTED BY IDOCK:   -5.96 KCAL/MOL
REMARK 924 INTRA-LIGAND FREE ENERGY PREDICTED BY IDOCK:   -1.49 KCAL/MOL
REMARK 927      BINDING AFFINITY PREDICTED BY RF-SCORE:    0.00 PKD
ROOT
HETATM    1  C   UNL     1     -11.537  11.209  69.212  1.00  0.00    -0.388 C  
HETATM    2  C   UNL     1     -12.115  11.876  70.421  1.00  0.00    -0.421 C  
HETATM    3  C   UNL     1     -10.950   9.990  69.153  1.00  0.00    -0.256 C  
ENDROOT
BRANCH   3   4
HETATM    4  C   UNL     1     -10.844   9.201  70.400  1.00  0.00    -0.285 A  
HETATM    5  O   UNL     1     -10.668   7.310  74.098  1.00  0.00    -0.565 OA 
HETATM    6  H   UNL     1      -9.866   7.334  74.607  1.00  0.00     0.000 HD 
HETATM    7  C   UNL     1     -11.967   8.513  70.886  1.00  0.00    -0.204 A  
HETATM    8  C   UNL     1     -10.746   7.899  72.869  1.00  0.00    -0.375 A  
HETATM    9  C   UNL     1      -9.662   9.198  71.152  1.00  0.00    -0.360 A  
HETATM   10  C   UNL     1      -9.616   8.548  72.389  1.00  0.00    -0.356 A  
HETATM   11  C   UNL     1     -11.920   7.864  72.125  1.00  0.00    -0.379 A  
ENDBRANCH   3   4
BRANCH   3  12
HETATM   12  C   UNL     1     -10.485   9.482  67.849  1.00  0.00    -0.293 C  
HETATM   13  C   UNL     1     -10.400  10.342  66.809  1.00  0.00    -0.288 C  
HETATM   14  C   UNL     1      -9.897  10.080  65.423  1.00  0.00    -0.384 C  
BRANCH  12  15
HETATM   15  C   UNL     1     -10.029   8.084  67.672  1.00  0.00    -0.234 A  
HETATM   16  C   UNL     1      -9.113   5.487  67.181  1.00  0.00    -0.111 A  
HETATM   17  C   UNL     1      -8.676   7.756  67.861  1.00  0.00    -0.124 A  
HETATM   18  C   UNL     1      -8.216   6.459  67.613  1.00  0.00    -0.118 A  
HETATM   19  O   UNL     1      -8.703   4.217  66.895  1.00  0.00    -0.110 OA 
HETATM   20  C   UNL     1     -10.462   5.785  67.020  1.00  0.00    -0.342 A  
HETATM   21  H   UNL     1      -9.315   3.553  66.600  1.00  0.00     0.000 HD 
HETATM   22  C   UNL     1     -10.921   7.083  67.265  1.00  0.00    -0.372 A  
ENDBRANCH  12  15
ENDBRANCH   3  12
TORSDOF 3
ENDMDL
MODEL       88
REMARK 921   NORMALIZED FREE ENERGY PREDICTED BY IDOCK:   -5.50 KCAL/MOL
REMARK 922        TOTAL FREE ENERGY PREDICTED BY IDOCK:   -7.45 KCAL/MOL
REMARK 923 INTER-LIGAND FREE ENERGY PREDICTED BY IDOCK:   -6.61 KCAL/MOL
REMARK 924 INTRA-LIGAND FREE ENERGY PREDICTED BY IDOCK:   -0.84 KCAL/MOL
REMARK 927      BINDING AFFINITY PREDICTED BY RF-SCORE:    0.00 PKD
ROOT
HETATM    1  C   UNL     1      -9.331   8.994  68.524  1.00  0.00    -0.141 C  
HETATM    2  C   UNL     1      -9.516   7.570  68.947  1.00  0.00    -0.145 C  
HETATM    3  C   UNL     1      -9.929  10.088  69.054  1.00  0.00    -0.203 C  
ENDROOT
BRANCH   3   4
HETATM    4  C   UNL     1     -10.878   9.897  70.172  1.00  0.00    -0.356 A  
HETATM    5  O   UNL     1     -13.648   9.016  73.143  1.00  0.00    -0.979 OA 
HETATM    6  H   UNL     1     -14.550   9.302  73.053  1.00  0.00     0.000 HD 
HETATM    7  C   UNL     1     -10.474   9.192  71.316  1.00  0.00    -0.398 A  
HETATM    8  C   UNL     1     -12.712   9.315  72.197  1.00  0.00    -0.390 A  
HETATM    9  C   UNL     1     -12.205  10.336  70.073  1.00  0.00    -0.191 A  
HETATM   10  C   UNL     1     -13.122  10.041  71.086  1.00  0.00    -0.472 A  
HETATM   11  C   UNL     1     -11.392   8.897  72.329  1.00  0.00    -0.288 A  
ENDBRANCH   3   4
BRANCH   3  12
HETATM   12  C   UNL     1      -9.575  11.421  68.529  1.00  0.00    -0.190 C  
HETATM   13  C   UNL     1      -8.332  11.900  68.756  1.00  0.00     0.019 C  
HETATM   14  C   UNL     1      -7.724  13.180  68.272  1.00  0.00    -0.141 C  
BRANCH  12  15
HETATM   15  C   UNL     1     -10.513  12.206  67.693  1.00  0.00    -0.225 A  
HETATM   16  C   UNL     1     -12.413  13.609  66.195  1.00  0.00    -0.395 A  
HETATM   17  C   UNL     1     -11.130  13.353  68.217  1.00  0.00    -0.289 A  
HETATM   18  C   UNL     1     -12.083  14.055  67.471  1.00  0.00    -0.361 A  
HETATM   19  O   UNL     1     -13.360  14.242  65.443  1.00  0.00    -0.649 OA 
HETATM   20  C   UNL     1     -11.788  12.494  65.647  1.00  0.00    -0.493 A  
HETATM   21  H   UNL     1     -13.586  13.937  64.572  1.00  0.00     0.000 HD 
HETATM   22  C   UNL     1     -10.838  11.792  66.395  1.00  0.00    -0.325 A  
ENDBRANCH  12  15
ENDBRANCH   3  12
TORSDOF 3
ENDMDL
MODEL       89
REMARK 921   NORMALIZED FREE ENERGY PREDICTED BY IDOCK:   -5.50 KCAL/MOL
REMARK 922        TOTAL FREE ENERGY PREDICTED BY IDOCK:   -7.44 KCAL/MOL
REMARK 923 INTER-LIGAND FREE ENERGY PREDICTED BY IDOCK:   -6.20 KCAL/MOL
REMARK 924 INTRA-LIGAND FREE ENERGY PREDICTED BY IDOCK:   -1.24 KCAL/MOL
REMARK 927      BINDING AFFINITY PREDICTED BY RF-SCORE:    0.00 PKD
ROOT
HETATM    1  C   UNL     1      -8.429  12.127  67.092  1.00  0.00    -0.182 C  
HETATM    2  C   UNL     1      -7.178  11.329  67.290  1.00  0.00    -0.114 C  
HETATM    3  C   UNL     1      -9.705  11.694  67.233  1.00  0.00    -0.192 C  
ENDROOT
BRANCH   3   4
HETATM    4  C   UNL     1      -9.929  10.284  67.620  1.00  0.00    -0.212 A  
HETATM    5  O   UNL     1     -10.948   6.401  68.696  1.00  0.00    -0.294 OA 
HETATM    6  H   UNL     1     -11.044   6.171  69.614  1.00  0.00     0.000 HD 
HETATM    7  C   UNL     1     -10.114   9.311  66.626  1.00  0.00    -0.341 A  
HETATM    8  C   UNL     1     -10.588   7.660  68.315  1.00  0.00    -0.124 A  
HETATM    9  C   UNL     1     -10.044   9.916  68.967  1.00  0.00    -0.199 A  
HETATM   10  C   UNL     1     -10.377   8.604  69.313  1.00  0.00    -0.228 A  
HETATM   11  C   UNL     1     -10.448   7.997  66.973  1.00  0.00    -0.410 A  
ENDBRANCH   3   4
BRANCH   3  12
HETATM   12  C   UNL     1     -10.810  12.652  67.042  1.00  0.00    -0.282 C  
HETATM   13  C   UNL     1     -11.474  12.653  65.864  1.00  0.00    -0.407 C  
HETATM   14  C   UNL     1     -12.660  13.474  65.464  1.00  0.00    -0.531 C  
BRANCH  12  15
HETATM   15  C   UNL     1     -11.266  13.546  68.131  1.00  0.00    -0.302 A  
HETATM   16  C   UNL     1     -12.287  15.226  70.122  1.00  0.00    -0.353 A  
HETATM   17  C   UNL     1     -11.898  13.009  69.265  1.00  0.00    -0.370 A  
HETATM   18  C   UNL     1     -12.412  13.847  70.260  1.00  0.00    -0.380 A  
HETATM   19  O   UNL     1     -12.801  16.083  71.051  1.00  0.00    -0.574 OA 
HETATM   20  C   UNL     1     -11.635  15.775  69.023  1.00  0.00    -0.406 A  
HETATM   21  H   UNL     1     -12.716  17.025  70.957  1.00  0.00     0.000 HD 
HETATM   22  C   UNL     1     -11.125  14.936  68.027  1.00  0.00    -0.301 A  
ENDBRANCH  12  15
ENDBRANCH   3  12
TORSDOF 3
ENDMDL
MODEL       90
REMARK 921   NORMALIZED FREE ENERGY PREDICTED BY IDOCK:   -5.49 KCAL/MOL
REMARK 922        TOTAL FREE ENERGY PREDICTED BY IDOCK:   -7.43 KCAL/MOL
REMARK 923 INTER-LIGAND FREE ENERGY PREDICTED BY IDOCK:   -6.28 KCAL/MOL
REMARK 924 INTRA-LIGAND FREE ENERGY PREDICTED BY IDOCK:   -1.15 KCAL/MOL
REMARK 927      BINDING AFFINITY PREDICTED BY RF-SCORE:    0.00 PKD
ROOT
HETATM    1  C   UNL     1     -12.570  12.793  64.984  1.00  0.00    -0.538 C  
HETATM    2  C   UNL     1     -12.904  11.867  63.855  1.00  0.00    -0.346 C  
HETATM    3  C   UNL     1     -11.603  12.627  65.917  1.00  0.00    -0.443 C  
ENDROOT
BRANCH   3   4
HETATM    4  C   UNL     1     -10.765  11.410  65.851  1.00  0.00    -0.311 A  
HETATM    5  O   UNL     1      -8.701   7.824  65.451  1.00  0.00    -0.298 OA 
HETATM    6  H   UNL     1      -8.820   7.132  66.093  1.00  0.00     0.000 HD 
HETATM    7  C   UNL     1      -9.880  11.230  64.777  1.00  0.00    -0.312 A  
HETATM    8  C   UNL     1      -9.344   9.021  65.572  1.00  0.00    -0.187 A  
HETATM    9  C   UNL     1     -10.901  10.390  66.803  1.00  0.00    -0.186 A  
HETATM   10  C   UNL     1     -10.192   9.194  66.660  1.00  0.00    -0.328 A  
HETATM   11  C   UNL     1      -9.171  10.032  64.634  1.00  0.00    -0.310 A  
ENDBRANCH   3   4
BRANCH   3  12
HETATM   12  C   UNL     1     -11.394  13.683  66.925  1.00  0.00    -0.345 C  
HETATM   13  C   UNL     1     -12.024  13.579  68.117  1.00  0.00    -0.376 C  
HETATM   14  C   UNL     1     -11.917  14.477  69.310  1.00  0.00    -0.355 C  
BRANCH  12  15
HETATM   15  C   UNL     1     -10.450  14.803  66.701  1.00  0.00    -0.286 A  
HETATM   16  C   UNL     1      -8.677  16.883  66.108  1.00  0.00    -0.245 A  
HETATM   17  C   UNL     1     -10.932  16.056  66.288  1.00  0.00    -0.071 A  
HETATM   18  C   UNL     1     -10.047  17.097  65.989  1.00  0.00    -0.303 A  
HETATM   19  O   UNL     1      -7.775  17.859  65.795  1.00  0.00    -0.538 OA 
HETATM   20  C   UNL     1      -8.183  15.660  66.547  1.00  0.00    -0.227 A  
HETATM   21  H   UNL     1      -6.840  17.714  65.877  1.00  0.00     0.000 HD 
HETATM   22  C   UNL     1      -9.069  14.619  66.843  1.00  0.00    -0.272 A  
ENDBRANCH  12  15
ENDBRANCH   3  12
TORSDOF 3
ENDMDL
MODEL       91
REMARK 921   NORMALIZED FREE ENERGY PREDICTED BY IDOCK:   -5.48 KCAL/MOL
REMARK 922        TOTAL FREE ENERGY PREDICTED BY IDOCK:   -7.43 KCAL/MOL
REMARK 923 INTER-LIGAND FREE ENERGY PREDICTED BY IDOCK:   -5.83 KCAL/MOL
REMARK 924 INTRA-LIGAND FREE ENERGY PREDICTED BY IDOCK:   -1.60 KCAL/MOL
REMARK 927      BINDING AFFINITY PREDICTED BY RF-SCORE:    0.00 PKD
ROOT
HETATM    1  C   UNL     1     -11.952  12.049  70.244  1.00  0.00    -0.398 C  
HETATM    2  C   UNL     1     -11.522  13.243  69.450  1.00  0.00    -0.323 C  
HETATM    3  C   UNL     1     -11.543  10.769  70.079  1.00  0.00    -0.417 C  
ENDROOT
BRANCH   3   4
HETATM    4  C   UNL     1     -10.570  10.475  69.004  1.00  0.00    -0.250 A  
HETATM    5  O   UNL     1      -7.859   9.270  66.093  1.00  0.00    -0.098 OA 
HETATM    6  H   UNL     1      -6.930   9.241  66.290  1.00  0.00     0.000 HD 
HETATM    7  C   UNL     1     -11.029  10.128  67.725  1.00  0.00    -0.338 A  
HETATM    8  C   UNL     1      -8.769   9.687  67.020  1.00  0.00    -0.128 A  
HETATM    9  C   UNL     1      -9.193  10.457  69.265  1.00  0.00    -0.198 A  
HETATM   10  C   UNL     1      -8.294  10.059  68.272  1.00  0.00    -0.110 A  
HETATM   11  C   UNL     1     -10.128   9.729  66.731  1.00  0.00    -0.295 A  
ENDBRANCH   3   4
BRANCH   3  12
HETATM   12  C   UNL     1     -12.046   9.733  71.000  1.00  0.00    -0.434 C  
HETATM   13  C   UNL     1     -13.254   9.911  71.582  1.00  0.00    -0.519 C  
HETATM   14  C   UNL     1     -13.997   8.979  72.489  1.00  0.00    -0.472 C  
BRANCH  12  15
HETATM   15  C   UNL     1     -11.307   8.471  71.236  1.00  0.00    -0.325 A  
HETATM   16  C   UNL     1      -9.784   6.151  71.585  1.00  0.00    -0.158 A  
HETATM   17  C   UNL     1     -10.294   8.421  72.208  1.00  0.00    -0.403 A  
HETATM   18  C   UNL     1      -9.529   7.263  72.381  1.00  0.00    -0.178 A  
HETATM   19  O   UNL     1      -9.042   5.011  71.696  1.00  0.00    -0.137 OA 
HETATM   20  C   UNL     1     -10.805   6.170  70.642  1.00  0.00    -0.355 A  
HETATM   21  H   UNL     1      -9.216   4.251  71.153  1.00  0.00     0.000 HD 
HETATM   22  C   UNL     1     -11.567   7.330  70.466  1.00  0.00    -0.292 A  
ENDBRANCH  12  15
ENDBRANCH   3  12
TORSDOF 3
ENDMDL
MODEL       92
REMARK 921   NORMALIZED FREE ENERGY PREDICTED BY IDOCK:   -5.48 KCAL/MOL
REMARK 922        TOTAL FREE ENERGY PREDICTED BY IDOCK:   -7.42 KCAL/MOL
REMARK 923 INTER-LIGAND FREE ENERGY PREDICTED BY IDOCK:   -6.28 KCAL/MOL
REMARK 924 INTRA-LIGAND FREE ENERGY PREDICTED BY IDOCK:   -1.14 KCAL/MOL
REMARK 927      BINDING AFFINITY PREDICTED BY RF-SCORE:    0.00 PKD
ROOT
HETATM    1  C   UNL     1     -11.808  14.842  70.578  1.00  0.00    -0.362 C  
HETATM    2  C   UNL     1     -11.690  15.924  71.606  1.00  0.00    -0.563 C  
HETATM    3  C   UNL     1     -11.191  14.789  69.374  1.00  0.00    -0.308 C  
ENDROOT
BRANCH   3   4
HETATM    4  C   UNL     1     -10.299  15.905  68.992  1.00  0.00    -0.231 A  
HETATM    5  O   UNL     1      -7.828  19.174  68.294  1.00  0.00    -0.290 OA 
HETATM    6  H   UNL     1      -8.199  19.996  67.994  1.00  0.00     0.000 HD 
HETATM    7  C   UNL     1      -8.914  15.786  69.183  1.00  0.00    -0.256 A  
HETATM    8  C   UNL     1      -8.611  18.077  68.505  1.00  0.00    -0.297 A  
HETATM    9  C   UNL     1     -10.822  17.117  68.520  1.00  0.00    -0.281 A  
HETATM   10  C   UNL     1      -9.977  18.203  68.280  1.00  0.00    -0.380 A  
HETATM   11  C   UNL     1      -8.068  16.875  68.943  1.00  0.00    -0.219 A  
ENDBRANCH   3   4
BRANCH   3  12
HETATM   12  C   UNL     1     -11.396  13.606  68.517  1.00  0.00    -0.325 C  
HETATM   13  C   UNL     1     -11.809  13.789  67.243  1.00  0.00    -0.436 C  
HETATM   14  C   UNL     1     -12.018  12.762  66.174  1.00  0.00    -0.476 C  
BRANCH  12  15
HETATM   15  C   UNL     1     -11.079  12.237  68.985  1.00  0.00    -0.289 A  
HETATM   16  C   UNL     1     -10.526   9.593  69.714  1.00  0.00    -0.238 A  
HETATM   17  C   UNL     1      -9.852  11.644  68.644  1.00  0.00    -0.173 A  
HETATM   18  C   UNL     1      -9.575  10.321  69.005  1.00  0.00    -0.210 A  
HETATM   19  O   UNL     1     -10.313   8.290  70.058  1.00  0.00    -0.202 OA 
HETATM   20  C   UNL     1     -11.732  10.175  70.089  1.00  0.00    -0.330 A  
HETATM   21  H   UNL     1     -10.962   7.793  70.542  1.00  0.00     0.000 HD 
HETATM   22  C   UNL     1     -12.009  11.496  69.724  1.00  0.00    -0.415 A  
ENDBRANCH  12  15
ENDBRANCH   3  12
TORSDOF 3
ENDMDL
MODEL       93
REMARK 921   NORMALIZED FREE ENERGY PREDICTED BY IDOCK:   -5.46 KCAL/MOL
REMARK 922        TOTAL FREE ENERGY PREDICTED BY IDOCK:   -7.40 KCAL/MOL
REMARK 923 INTER-LIGAND FREE ENERGY PREDICTED BY IDOCK:   -6.15 KCAL/MOL
REMARK 924 INTRA-LIGAND FREE ENERGY PREDICTED BY IDOCK:   -1.25 KCAL/MOL
REMARK 927      BINDING AFFINITY PREDICTED BY RF-SCORE:    0.00 PKD
ROOT
HETATM    1  C   UNL     1     -11.200  13.652  66.113  1.00  0.00    -0.309 C  
HETATM    2  C   UNL     1     -12.265  12.640  65.824  1.00  0.00    -0.427 C  
HETATM    3  C   UNL     1     -10.566  13.854  67.292  1.00  0.00    -0.276 C  
ENDROOT
BRANCH   3   4
HETATM    4  C   UNL     1     -10.940  13.007  68.446  1.00  0.00    -0.288 A  
HETATM    5  O   UNL     1     -12.283  10.479  71.460  1.00  0.00    -0.355 OA 
HETATM    6  H   UNL     1     -12.943  10.780  72.075  1.00  0.00     0.000 HD 
HETATM    7  C   UNL     1     -10.404  11.715  68.563  1.00  0.00    -0.224 A  
HETATM    8  C   UNL     1     -11.804  11.296  70.478  1.00  0.00    -0.324 A  
HETATM    9  C   UNL     1     -11.888  13.442  69.382  1.00  0.00    -0.390 A  
HETATM   10  C   UNL     1     -12.322  12.583  70.396  1.00  0.00    -0.311 A  
HETATM   11  C   UNL     1     -10.840  10.856  69.578  1.00  0.00    -0.286 A  
ENDBRANCH   3   4
BRANCH   3  12
HETATM   12  C   UNL     1      -9.501  14.873  67.366  1.00  0.00    -0.206 C  
HETATM   13  C   UNL     1      -8.212  14.472  67.292  1.00  0.00    -0.230 C  
HETATM   14  C   UNL     1      -6.974  15.315  67.275  1.00  0.00    -0.152 C  
BRANCH  12  15
HETATM   15  C   UNL     1      -9.807  16.320  67.432  1.00  0.00    -0.242 A  
HETATM   16  C   UNL     1     -10.218  19.085  67.528  1.00  0.00    -0.394 A  
HETATM   17  C   UNL     1      -9.949  17.063  66.248  1.00  0.00    -0.324 A  
HETATM   18  C   UNL     1     -10.151  18.446  66.294  1.00  0.00    -0.409 A  
HETATM   19  O   UNL     1     -10.381  20.438  67.622  1.00  0.00    -0.321 OA 
HETATM   20  C   UNL     1     -10.113  18.362  68.711  1.00  0.00    -0.393 A  
HETATM   21  H   UNL     1     -10.427  20.874  68.464  1.00  0.00     0.000 HD 
HETATM   22  C   UNL     1      -9.907  16.979  68.664  1.00  0.00    -0.290 A  
ENDBRANCH  12  15
ENDBRANCH   3  12
TORSDOF 3
ENDMDL
MODEL       94
REMARK 921   NORMALIZED FREE ENERGY PREDICTED BY IDOCK:   -5.46 KCAL/MOL
REMARK 922        TOTAL FREE ENERGY PREDICTED BY IDOCK:   -7.40 KCAL/MOL
REMARK 923 INTER-LIGAND FREE ENERGY PREDICTED BY IDOCK:   -6.55 KCAL/MOL
REMARK 924 INTRA-LIGAND FREE ENERGY PREDICTED BY IDOCK:   -0.85 KCAL/MOL
REMARK 927      BINDING AFFINITY PREDICTED BY RF-SCORE:    0.00 PKD
ROOT
HETATM    1  C   UNL     1      -9.312  12.013  67.991  1.00  0.00    -0.196 C  
HETATM    2  C   UNL     1      -8.544  11.126  68.921  1.00  0.00    -0.092 C  
HETATM    3  C   UNL     1     -10.620  12.355  68.082  1.00  0.00    -0.232 C  
ENDROOT
BRANCH   3   4
HETATM    4  C   UNL     1     -11.411  11.809  69.207  1.00  0.00    -0.369 A  
HETATM    5  O   UNL     1     -13.313  10.327  72.593  1.00  0.00    -0.496 OA 
HETATM    6  H   UNL     1     -13.277   9.398  72.791  1.00  0.00     0.000 HD 
HETATM    7  C   UNL     1     -12.120  12.682  70.047  1.00  0.00    -0.339 A  
HETATM    8  C   UNL     1     -12.721  10.837  71.474  1.00  0.00    -0.431 A  
HETATM    9  C   UNL     1     -11.398  10.439  69.499  1.00  0.00    -0.325 A  
HETATM   10  C   UNL     1     -12.051   9.955  70.636  1.00  0.00    -0.343 A  
HETATM   11  C   UNL     1     -12.774  12.196  71.185  1.00  0.00    -0.351 A  
ENDBRANCH   3   4
BRANCH   3  12
HETATM   12  C   UNL     1     -11.186  13.288  67.091  1.00  0.00    -0.327 C  
HETATM   13  C   UNL     1     -12.141  12.839  66.245  1.00  0.00    -0.400 C  
HETATM   14  C   UNL     1     -12.906  13.605  65.212  1.00  0.00    -0.421 C  
BRANCH  12  15
HETATM   15  C   UNL     1     -10.801  14.718  67.053  1.00  0.00    -0.315 A  
HETATM   16  C   UNL     1      -9.924  17.374  67.058  1.00  0.00    -0.295 A  
HETATM   17  C   UNL     1      -9.942  15.188  66.046  1.00  0.00    -0.335 A  
HETATM   18  C   UNL     1      -9.500  16.516  66.048  1.00  0.00    -0.317 A  
HETATM   19  O   UNL     1      -9.493  18.668  67.119  1.00  0.00    -0.286 OA 
HETATM   20  C   UNL     1     -10.800  16.935  68.044  1.00  0.00    -0.338 A  
HETATM   21  H   UNL     1      -9.782  19.254  67.808  1.00  0.00     0.000 HD 
HETATM   22  C   UNL     1     -11.239  15.607  68.043  1.00  0.00    -0.339 A  
ENDBRANCH  12  15
ENDBRANCH   3  12
TORSDOF 3
ENDMDL
MODEL       95
REMARK 921   NORMALIZED FREE ENERGY PREDICTED BY IDOCK:   -5.46 KCAL/MOL
REMARK 922        TOTAL FREE ENERGY PREDICTED BY IDOCK:   -7.39 KCAL/MOL
REMARK 923 INTER-LIGAND FREE ENERGY PREDICTED BY IDOCK:   -6.50 KCAL/MOL
REMARK 924 INTRA-LIGAND FREE ENERGY PREDICTED BY IDOCK:   -0.89 KCAL/MOL
REMARK 927      BINDING AFFINITY PREDICTED BY RF-SCORE:    0.00 PKD
ROOT
HETATM    1  C   UNL     1     -12.476  10.127  71.359  1.00  0.00    -0.524 C  
HETATM    2  C   UNL     1     -13.552   9.538  72.217  1.00  0.00    -0.494 C  
HETATM    3  C   UNL     1     -11.382   9.494  70.873  1.00  0.00    -0.410 C  
ENDROOT
BRANCH   3   4
HETATM    4  C   UNL     1     -11.190   8.066  71.207  1.00  0.00    -0.287 A  
HETATM    5  O   UNL     1     -10.270   4.100  72.047  1.00  0.00    -0.179 OA 
HETATM    6  H   UNL     1     -10.343   3.440  71.367  1.00  0.00     0.000 HD 
HETATM    7  C   UNL     1     -10.788   7.702  72.501  1.00  0.00    -0.367 A  
HETATM    8  C   UNL     1     -10.591   5.404  71.807  1.00  0.00    -0.222 A  
HETATM    9  C   UNL     1     -11.322   7.072  70.228  1.00  0.00    -0.339 A  
HETATM   10  C   UNL     1     -11.019   5.742  70.529  1.00  0.00    -0.320 A  
HETATM   11  C   UNL     1     -10.483   6.370  72.802  1.00  0.00    -0.238 A  
ENDBRANCH   3   4
BRANCH   3  12
HETATM   12  C   UNL     1     -10.456  10.237  69.997  1.00  0.00    -0.293 C  
HETATM   13  C   UNL     1      -9.140   9.930  70.033  1.00  0.00    -0.217 C  
HETATM   14  C   UNL     1      -8.030  10.490  69.199  1.00  0.00    -0.145 C  
BRANCH  12  15
HETATM   15  C   UNL     1     -10.939  11.242  69.022  1.00  0.00    -0.288 A  
HETATM   16  C   UNL     1     -12.012  13.106  67.233  1.00  0.00    -0.335 A  
HETATM   17  C   UNL     1     -11.290  12.531  69.458  1.00  0.00    -0.240 A  
HETATM   18  C   UNL     1     -11.829  13.463  68.566  1.00  0.00    -0.401 A  
HETATM   19  O   UNL     1     -12.566  13.971  66.334  1.00  0.00    -0.482 OA 
HETATM   20  C   UNL     1     -11.641  11.846  66.777  1.00  0.00    -0.341 A  
HETATM   21  H   UNL     1     -12.691  13.727  65.425  1.00  0.00     0.000 HD 
HETATM   22  C   UNL     1     -11.105  10.914  67.671  1.00  0.00    -0.376 A  
ENDBRANCH  12  15
ENDBRANCH   3  12
TORSDOF 3
ENDMDL
MODEL       96
REMARK 921   NORMALIZED FREE ENERGY PREDICTED BY IDOCK:   -5.45 KCAL/MOL
REMARK 922        TOTAL FREE ENERGY PREDICTED BY IDOCK:   -7.38 KCAL/MOL
REMARK 923 INTER-LIGAND FREE ENERGY PREDICTED BY IDOCK:   -5.73 KCAL/MOL
REMARK 924 INTRA-LIGAND FREE ENERGY PREDICTED BY IDOCK:   -1.65 KCAL/MOL
REMARK 927      BINDING AFFINITY PREDICTED BY RF-SCORE:    0.00 PKD
ROOT
HETATM    1  C   UNL     1     -10.670  15.296  64.961  1.00  0.00    -0.461 C  
HETATM    2  C   UNL     1     -10.892  16.749  65.243  1.00  0.00    -0.148 C  
HETATM    3  C   UNL     1     -10.585  14.293  65.867  1.00  0.00    -0.306 C  
ENDROOT
BRANCH   3   4
HETATM    4  C   UNL     1     -10.715  14.629  67.302  1.00  0.00    -0.290 A  
HETATM    5  O   UNL     1     -10.991  15.195  71.411  1.00  0.00    -0.541 OA 
HETATM    6  H   UNL     1     -11.822  15.066  71.854  1.00  0.00     0.000 HD 
HETATM    7  C   UNL     1      -9.582  15.027  68.029  1.00  0.00    -0.208 A  
HETATM    8  C   UNL     1     -10.877  15.043  70.060  1.00  0.00    -0.219 A  
HETATM    9  C   UNL     1     -11.937  14.476  67.970  1.00  0.00    -0.305 A  
HETATM   10  C   UNL     1     -12.016  14.680  69.350  1.00  0.00    -0.351 A  
HETATM   11  C   UNL     1      -9.662  15.230  69.411  1.00  0.00    -0.248 A  
ENDBRANCH   3   4
BRANCH   3  12
HETATM   12  C   UNL     1     -10.414  12.908  65.388  1.00  0.00    -0.308 C  
HETATM   13  C   UNL     1     -10.552  12.656  64.066  1.00  0.00    -0.457 C  
HETATM   14  C   UNL     1     -10.360  11.361  63.340  1.00  0.00    -0.458 C  
BRANCH  12  15
HETATM   15  C   UNL     1     -10.013  11.810  66.297  1.00  0.00    -0.246 A  
HETATM   16  C   UNL     1      -9.293   9.839  68.146  1.00  0.00    -0.128 A  
HETATM   17  C   UNL     1     -10.993  11.002  66.898  1.00  0.00    -0.311 A  
HETATM   18  C   UNL     1     -10.635  10.018  67.825  1.00  0.00    -0.311 A  
HETATM   19  O   UNL     1      -8.900   8.914  69.070  1.00  0.00    -0.134 OA 
HETATM   20  C   UNL     1      -8.307  10.606  67.537  1.00  0.00    -0.115 A  
HETATM   21  H   UNL     1      -7.984   8.791  69.289  1.00  0.00     0.000 HD 
HETATM   22  C   UNL     1      -8.666  11.592  66.612  1.00  0.00    -0.187 A  
ENDBRANCH  12  15
ENDBRANCH   3  12
TORSDOF 3
ENDMDL
MODEL       97
REMARK 921   NORMALIZED FREE ENERGY PREDICTED BY IDOCK:   -5.44 KCAL/MOL
REMARK 922        TOTAL FREE ENERGY PREDICTED BY IDOCK:   -7.37 KCAL/MOL
REMARK 923 INTER-LIGAND FREE ENERGY PREDICTED BY IDOCK:   -7.01 KCAL/MOL
REMARK 924 INTRA-LIGAND FREE ENERGY PREDICTED BY IDOCK:   -0.36 KCAL/MOL
REMARK 927      BINDING AFFINITY PREDICTED BY RF-SCORE:    0.00 PKD
ROOT
HETATM    1  C   UNL     1     -10.289   8.620  67.939  1.00  0.00    -0.286 C  
HETATM    2  C   UNL     1      -9.639   7.272  67.953  1.00  0.00    -0.153 C  
HETATM    3  C   UNL     1     -10.760   9.310  69.005  1.00  0.00    -0.189 C  
ENDROOT
BRANCH   3   4
HETATM    4  C   UNL     1     -10.644   8.697  70.346  1.00  0.00    -0.244 A  
HETATM    5  O   UNL     1     -10.526   7.283  74.253  1.00  0.00    -0.469 OA 
HETATM    6  H   UNL     1      -9.814   7.537  74.830  1.00  0.00     0.000 HD 
HETATM    7  C   UNL     1     -11.648   7.831  70.805  1.00  0.00    -0.270 A  
HETATM    8  C   UNL     1     -10.576   7.710  72.958  1.00  0.00    -0.375 A  
HETATM    9  C   UNL     1      -9.587   9.034  71.203  1.00  0.00    -0.356 A  
HETATM   10  C   UNL     1      -9.556   8.541  72.510  1.00  0.00    -0.324 A  
HETATM   11  C   UNL     1     -11.617   7.339  72.115  1.00  0.00    -0.324 A  
ENDBRANCH   3   4
BRANCH   3  12
HETATM   12  C   UNL     1     -11.325  10.656  68.792  1.00  0.00    -0.339 C  
HETATM   13  C   UNL     1     -11.325  11.172  67.542  1.00  0.00    -0.351 C  
HETATM   14  C   UNL     1     -11.897  12.472  67.070  1.00  0.00    -0.394 C  
BRANCH  12  15
HETATM   15  C   UNL     1     -11.965  11.418  69.889  1.00  0.00    -0.434 A  
HETATM   16  C   UNL     1     -13.316  12.868  71.863  1.00  0.00    -0.435 A  
HETATM   17  C   UNL     1     -12.854  10.774  70.766  1.00  0.00    -0.408 A  
HETATM   18  C   UNL     1     -13.532  11.498  71.752  1.00  0.00    -0.203 A  
HETATM   19  O   UNL     1     -13.981  13.621  72.788  1.00  0.00    -0.725 OA 
HETATM   20  C   UNL     1     -12.416  13.516  71.025  1.00  0.00    -0.451 A  
HETATM   21  H   UNL     1     -13.833  14.556  72.864  1.00  0.00     0.000 HD 
HETATM   22  C   UNL     1     -11.740  12.792  70.038  1.00  0.00    -0.282 A  
ENDBRANCH  12  15
ENDBRANCH   3  12
TORSDOF 3
ENDMDL
MODEL       98
REMARK 921   NORMALIZED FREE ENERGY PREDICTED BY IDOCK:   -5.43 KCAL/MOL
REMARK 922        TOTAL FREE ENERGY PREDICTED BY IDOCK:   -7.37 KCAL/MOL
REMARK 923 INTER-LIGAND FREE ENERGY PREDICTED BY IDOCK:   -5.95 KCAL/MOL
REMARK 924 INTRA-LIGAND FREE ENERGY PREDICTED BY IDOCK:   -1.42 KCAL/MOL
REMARK 927      BINDING AFFINITY PREDICTED BY RF-SCORE:    0.00 PKD
ROOT
HETATM    1  C   UNL     1     -13.236  10.029  71.242  1.00  0.00    -0.469 C  
HETATM    2  C   UNL     1     -13.670   8.782  71.948  1.00  0.00    -0.477 C  
HETATM    3  C   UNL     1     -12.036  10.261  70.658  1.00  0.00    -0.433 C  
ENDROOT
BRANCH   3   4
HETATM    4  C   UNL     1     -11.014   9.192  70.704  1.00  0.00    -0.319 A  
HETATM    5  O   UNL     1      -8.410   5.969  71.031  1.00  0.00    -0.121 OA 
HETATM    6  H   UNL     1      -7.832   5.898  71.782  1.00  0.00     0.000 HD 
HETATM    7  C   UNL     1     -10.978   8.219  69.693  1.00  0.00    -0.092 A  
HETATM    8  C   UNL     1      -9.255   7.030  70.884  1.00  0.00    -0.156 A  
HETATM    9  C   UNL     1     -10.133   9.085  71.788  1.00  0.00    -0.373 A  
HETATM   10  C   UNL     1      -9.256   8.001  71.878  1.00  0.00    -0.222 A  
HETATM   11  C   UNL     1     -10.100   7.133  69.784  1.00  0.00    -0.200 A  
ENDBRANCH   3   4
BRANCH   3  12
HETATM   12  C   UNL     1     -11.815  11.543  69.962  1.00  0.00    -0.435 C  
HETATM   13  C   UNL     1     -12.230  12.684  70.556  1.00  0.00    -0.383 C  
HETATM   14  C   UNL     1     -12.058  14.095  70.084  1.00  0.00    -0.411 C  
BRANCH  12  15
HETATM   15  C   UNL     1     -11.079  11.619  68.679  1.00  0.00    -0.287 A  
HETATM   16  C   UNL     1      -9.710  11.594  66.240  1.00  0.00    -0.218 A  
HETATM   17  C   UNL     1     -11.784  11.643  67.464  1.00  0.00    -0.288 A  
HETATM   18  C   UNL     1     -11.101  11.627  66.244  1.00  0.00    -0.345 A  
HETATM   19  O   UNL     1      -9.003  11.544  65.074  1.00  0.00    -0.404 OA 
HETATM   20  C   UNL     1      -8.995  11.604  67.432  1.00  0.00    -0.166 A  
HETATM   21  H   UNL     1      -8.053  11.522  65.071  1.00  0.00     0.000 HD 
HETATM   22  C   UNL     1      -9.678  11.616  68.652  1.00  0.00    -0.151 A  
ENDBRANCH  12  15
ENDBRANCH   3  12
TORSDOF 3
ENDMDL
MODEL       99
REMARK 921   NORMALIZED FREE ENERGY PREDICTED BY IDOCK:   -5.43 KCAL/MOL
REMARK 922        TOTAL FREE ENERGY PREDICTED BY IDOCK:   -7.36 KCAL/MOL
REMARK 923 INTER-LIGAND FREE ENERGY PREDICTED BY IDOCK:   -6.17 KCAL/MOL
REMARK 924 INTRA-LIGAND FREE ENERGY PREDICTED BY IDOCK:   -1.19 KCAL/MOL
REMARK 927      BINDING AFFINITY PREDICTED BY RF-SCORE:    0.00 PKD
ROOT
HETATM    1  C   UNL     1     -11.707  10.943  70.230  1.00  0.00    -0.437 C  
HETATM    2  C   UNL     1     -12.982  10.856  71.011  1.00  0.00    -0.396 C  
HETATM    3  C   UNL     1     -10.746   9.994  70.128  1.00  0.00    -0.361 C  
ENDROOT
BRANCH   3   4
HETATM    4  C   UNL     1     -10.936   8.721  70.856  1.00  0.00    -0.315 A  
HETATM    5  O   UNL     1     -11.848   5.252  72.957  1.00  0.00    -0.510 OA 
HETATM    6  H   UNL     1     -11.745   5.226  73.901  1.00  0.00     0.000 HD 
HETATM    7  C   UNL     1     -11.381   7.584  70.165  1.00  0.00    -0.170 A  
HETATM    8  C   UNL     1     -11.531   6.367  72.239  1.00  0.00    -0.298 A  
HETATM    9  C   UNL     1     -10.760   8.652  72.245  1.00  0.00    -0.383 A  
HETATM   10  C   UNL     1     -11.061   7.474  72.935  1.00  0.00    -0.426 A  
HETATM   11  C   UNL     1     -11.683   6.405  70.857  1.00  0.00    -0.366 A  
ENDBRANCH   3   4
BRANCH   3  12
HETATM   12  C   UNL     1      -9.579  10.249  69.263  1.00  0.00    -0.239 C  
HETATM   13  C   UNL     1      -8.393   9.689  69.590  1.00  0.00    -0.173 C  
HETATM   14  C   UNL     1      -7.098   9.745  68.840  1.00  0.00    -0.067 C  
BRANCH  12  15
HETATM   15  C   UNL     1      -9.691  11.027  68.008  1.00  0.00    -0.181 A  
HETATM   16  C   UNL     1     -10.050  12.561  65.697  1.00  0.00    -0.269 A  
HETATM   17  C   UNL     1      -9.313  12.380  67.983  1.00  0.00    -0.204 A  
HETATM   18  C   UNL     1      -9.495  13.149  66.829  1.00  0.00    -0.252 A  
HETATM   19  O   UNL     1     -10.277  13.281  64.559  1.00  0.00    -0.530 OA 
HETATM   20  C   UNL     1     -10.400  11.216  65.693  1.00  0.00    -0.311 A  
HETATM   21  H   UNL     1     -10.656  12.880  63.786  1.00  0.00     0.000 HD 
HETATM   22  C   UNL     1     -10.221  10.448  66.848  1.00  0.00    -0.281 A  
ENDBRANCH  12  15
ENDBRANCH   3  12
TORSDOF 3
ENDMDL
MODEL      100
REMARK 921   NORMALIZED FREE ENERGY PREDICTED BY IDOCK:   -5.43 KCAL/MOL
REMARK 922        TOTAL FREE ENERGY PREDICTED BY IDOCK:   -7.36 KCAL/MOL
REMARK 923 INTER-LIGAND FREE ENERGY PREDICTED BY IDOCK:   -6.02 KCAL/MOL
REMARK 924 INTRA-LIGAND FREE ENERGY PREDICTED BY IDOCK:   -1.33 KCAL/MOL
REMARK 927      BINDING AFFINITY PREDICTED BY RF-SCORE:    0.00 PKD
ROOT
HETATM    1  C   UNL     1     -11.951  13.927  68.411  1.00  0.00    -0.391 C  
HETATM    2  C   UNL     1     -11.787  14.920  69.520  1.00  0.00    -0.360 C  
HETATM    3  C   UNL     1     -11.255  13.879  67.250  1.00  0.00    -0.329 C  
ENDROOT
BRANCH   3   4
HETATM    4  C   UNL     1     -10.215  14.902  67.012  1.00  0.00    -0.256 A  
HETATM    5  O   UNL     1      -7.223  17.602  65.991  1.00  0.00    -0.302 OA 
HETATM    6  H   UNL     1      -6.320  17.424  66.227  1.00  0.00     0.000 HD 
HETATM    7  C   UNL     1     -10.545  16.085  66.333  1.00  0.00    -0.284 A  
HETATM    8  C   UNL     1      -8.229  16.748  66.337  1.00  0.00    -0.314 A  
HETATM    9  C   UNL     1      -8.882  14.674  67.379  1.00  0.00    -0.205 A  
HETATM   10  C   UNL     1      -7.889  15.596  67.037  1.00  0.00    -0.266 A  
HETATM   11  C   UNL     1      -9.550  17.008  65.990  1.00  0.00    -0.215 A  
ENDBRANCH   3   4
BRANCH   3  12
HETATM   12  C   UNL     1     -11.529  12.786  66.298  1.00  0.00    -0.405 C  
HETATM   13  C   UNL     1     -12.425  12.997  65.307  1.00  0.00    -0.555 C  
HETATM   14  C   UNL     1     -12.815  12.076  64.192  1.00  0.00    -0.283 C  
BRANCH  12  15
HETATM   15  C   UNL     1     -10.791  11.503  66.346  1.00  0.00    -0.334 A  
HETATM   16  C   UNL     1      -9.493   9.026  66.305  1.00  0.00    -0.242 A  
HETATM   17  C   UNL     1      -9.747  11.258  65.438  1.00  0.00    -0.271 A  
HETATM   18  C   UNL     1      -9.099  10.019  65.414  1.00  0.00    -0.235 A  
HETATM   19  O   UNL     1      -8.912   7.790  66.296  1.00  0.00    -0.160 OA 
HETATM   20  C   UNL     1     -10.501   9.261  67.233  1.00  0.00    -0.334 A  
HETATM   21  H   UNL     1      -9.181   7.112  66.904  1.00  0.00     0.000 HD 
HETATM   22  C   UNL     1     -11.151  10.499  67.254  1.00  0.00    -0.284 A  
ENDBRANCH  12  15
ENDBRANCH   3  12
TORSDOF 3
ENDMDL
MODEL      101
REMARK 921   NORMALIZED FREE ENERGY PREDICTED BY IDOCK:   -5.41 KCAL/MOL
REMARK 922        TOTAL FREE ENERGY PREDICTED BY IDOCK:   -7.34 KCAL/MOL
REMARK 923 INTER-LIGAND FREE ENERGY PREDICTED BY IDOCK:   -7.05 KCAL/MOL
REMARK 924 INTRA-LIGAND FREE ENERGY PREDICTED BY IDOCK:   -0.30 KCAL/MOL
REMARK 927      BINDING AFFINITY PREDICTED BY RF-SCORE:    0.00 PKD
ROOT
HETATM    1  C   UNL     1     -12.283  13.050  66.958  1.00  0.00    -0.217 C  
HETATM    2  C   UNL     1     -12.098  13.555  65.561  1.00  0.00    -0.454 C  
HETATM    3  C   UNL     1     -11.447  13.230  68.009  1.00  0.00    -0.344 C  
ENDROOT
BRANCH   3   4
HETATM    4  C   UNL     1     -10.203  14.000  67.792  1.00  0.00    -0.240 A  
HETATM    5  O   UNL     1      -6.755  16.096  66.795  1.00  0.00    -0.249 OA 
HETATM    6  H   UNL     1      -5.920  15.644  66.747  1.00  0.00     0.000 HD 
HETATM    7  C   UNL     1     -10.273  15.379  67.544  1.00  0.00    -0.244 A  
HETATM    8  C   UNL     1      -7.898  15.439  67.147  1.00  0.00    -0.214 A  
HETATM    9  C   UNL     1      -8.958  13.359  67.747  1.00  0.00    -0.205 A  
HETATM   10  C   UNL     1      -7.806  14.080  67.420  1.00  0.00    -0.188 A  
HETATM   11  C   UNL     1      -9.119  16.101  67.217  1.00  0.00    -0.215 A  
ENDBRANCH   3   4
BRANCH   3  12
HETATM   12  C   UNL     1     -11.832  12.694  69.328  1.00  0.00    -0.358 C  
HETATM   13  C   UNL     1     -11.765  11.359  69.533  1.00  0.00    -0.417 C  
HETATM   14  C   UNL     1     -12.034  10.595  70.792  1.00  0.00    -0.477 C  
BRANCH  12  15
HETATM   15  C   UNL     1     -12.204  13.582  70.454  1.00  0.00    -0.426 A  
HETATM   16  C   UNL     1     -13.040  15.315  72.484  1.00  0.00    -0.406 A  
HETATM   17  C   UNL     1     -13.240  13.211  71.328  1.00  0.00    -0.202 A  
HETATM   18  C   UNL     1     -13.661  14.078  72.342  1.00  0.00    -0.669 A  
HETATM   19  O   UNL     1     -13.440  16.206  73.438  1.00  0.00    -0.695 OA 
HETATM   20  C   UNL     1     -11.992  15.685  71.649  1.00  0.00    -0.503 A  
HETATM   21  H   UNL     1     -13.016  17.051  73.535  1.00  0.00     0.000 HD 
HETATM   22  C   UNL     1     -11.573  14.819  70.634  1.00  0.00    -0.324 A  
ENDBRANCH  12  15
ENDBRANCH   3  12
TORSDOF 3
ENDMDL
MODEL      102
REMARK 921   NORMALIZED FREE ENERGY PREDICTED BY IDOCK:   -5.41 KCAL/MOL
REMARK 922        TOTAL FREE ENERGY PREDICTED BY IDOCK:   -7.34 KCAL/MOL
REMARK 923 INTER-LIGAND FREE ENERGY PREDICTED BY IDOCK:   -6.75 KCAL/MOL
REMARK 924 INTRA-LIGAND FREE ENERGY PREDICTED BY IDOCK:   -0.58 KCAL/MOL
REMARK 927      BINDING AFFINITY PREDICTED BY RF-SCORE:    0.00 PKD
ROOT
HETATM    1  C   UNL     1     -11.701  11.624  68.117  1.00  0.00    -0.365 C  
HETATM    2  C   UNL     1     -12.150  11.490  69.539  1.00  0.00    -0.351 C  
HETATM    3  C   UNL     1     -10.812  10.839  67.464  1.00  0.00    -0.342 C  
ENDROOT
BRANCH   3   4
HETATM    4  C   UNL     1     -10.190   9.718  68.203  1.00  0.00    -0.220 A  
HETATM    5  O   UNL     1      -8.756   6.582  70.524  1.00  0.00    -0.141 OA 
HETATM    6  H   UNL     1      -8.193   6.759  71.268  1.00  0.00     0.000 HD 
HETATM    7  C   UNL     1     -10.526   8.396  67.873  1.00  0.00    -0.255 A  
HETATM    8  C   UNL     1      -9.219   7.589  69.728  1.00  0.00    -0.147 A  
HETATM    9  C   UNL     1      -9.333   9.956  69.285  1.00  0.00    -0.215 A  
HETATM   10  C   UNL     1      -8.851   8.890  70.049  1.00  0.00    -0.165 A  
HETATM   11  C   UNL     1     -10.044   7.329  68.639  1.00  0.00    -0.182 A  
ENDBRANCH   3   4
BRANCH   3  12
HETATM   12  C   UNL     1     -10.537  11.102  66.039  1.00  0.00    -0.298 C  
HETATM   13  C   UNL     1     -10.006  10.112  65.286  1.00  0.00    -0.381 C  
HETATM   14  C   UNL     1      -9.706  10.117  63.819  1.00  0.00    -0.203 C  
BRANCH  12  15
HETATM   15  C   UNL     1     -10.903  12.385  65.396  1.00  0.00    -0.320 A  
HETATM   16  C   UNL     1     -11.664  14.857  64.331  1.00  0.00    -0.328 A  
HETATM   17  C   UNL     1     -10.107  13.525  65.598  1.00  0.00    -0.292 A  
HETATM   18  C   UNL     1     -10.488  14.762  65.069  1.00  0.00    -0.443 A  
HETATM   19  O   UNL     1     -12.092  16.050  63.824  1.00  0.00    -1.318 OA 
HETATM   20  C   UNL     1     -12.446  13.733  64.093  1.00  0.00    -0.293 A  
HETATM   21  H   UNL     1     -12.894  16.114  63.320  1.00  0.00     0.000 HD 
HETATM   22  C   UNL     1     -12.067  12.496  64.625  1.00  0.00    -0.496 A  
ENDBRANCH  12  15
ENDBRANCH   3  12
TORSDOF 3
ENDMDL
MODEL      103
REMARK 921   NORMALIZED FREE ENERGY PREDICTED BY IDOCK:   -5.41 KCAL/MOL
REMARK 922        TOTAL FREE ENERGY PREDICTED BY IDOCK:   -7.34 KCAL/MOL
REMARK 923 INTER-LIGAND FREE ENERGY PREDICTED BY IDOCK:   -6.34 KCAL/MOL
REMARK 924 INTRA-LIGAND FREE ENERGY PREDICTED BY IDOCK:   -1.00 KCAL/MOL
REMARK 927      BINDING AFFINITY PREDICTED BY RF-SCORE:    0.00 PKD
ROOT
HETATM    1  C   UNL     1      -9.910   9.068  67.570  1.00  0.00    -0.230 C  
HETATM    2  C   UNL     1     -10.557   7.766  67.928  1.00  0.00    -0.221 C  
HETATM    3  C   UNL     1     -10.018  10.243  68.234  1.00  0.00    -0.166 C  
ENDROOT
BRANCH   3   4
HETATM    4  C   UNL     1     -10.862  10.288  69.448  1.00  0.00    -0.282 A  
HETATM    5  O   UNL     1     -13.451  10.124  72.697  1.00  0.00    -0.565 OA 
HETATM    6  H   UNL     1     -14.231  10.666  72.711  1.00  0.00     0.000 HD 
HETATM    7  C   UNL     1     -10.571   9.443  70.530  1.00  0.00    -0.331 A  
HETATM    8  C   UNL     1     -12.569  10.177  71.657  1.00  0.00    -0.434 A  
HETATM    9  C   UNL     1     -12.001  11.102  69.504  1.00  0.00    -0.425 A  
HETATM   10  C   UNL     1     -12.856  11.043  70.608  1.00  0.00    -0.305 A  
HETATM   11  C   UNL     1     -11.428   9.383  71.635  1.00  0.00    -0.463 A  
ENDBRANCH   3   4
BRANCH   3  12
HETATM   12  C   UNL     1      -9.258  11.411  67.751  1.00  0.00    -0.159 C  
HETATM   13  C   UNL     1      -7.968  11.550  68.132  1.00  0.00    -0.136 C  
HETATM   14  C   UNL     1      -6.984  12.602  67.721  1.00  0.00    -0.125 C  
BRANCH  12  15
HETATM   15  C   UNL     1      -9.840  12.381  66.795  1.00  0.00    -0.228 A  
HETATM   16  C   UNL     1     -10.779  14.268  64.956  1.00  0.00    -0.420 A  
HETATM   17  C   UNL     1      -9.849  12.095  65.420  1.00  0.00    -0.231 A  
HETATM   18  C   UNL     1     -10.316  13.038  64.499  1.00  0.00    -0.386 A  
HETATM   19  O   UNL     1     -11.213  15.231  64.092  1.00  0.00    -0.664 OA 
HETATM   20  C   UNL     1     -10.808  14.556  66.316  1.00  0.00    -0.317 A  
HETATM   21  H   UNL     1     -11.529  16.071  64.404  1.00  0.00     0.000 HD 
HETATM   22  C   UNL     1     -10.339  13.614  67.236  1.00  0.00    -0.249 A  
ENDBRANCH  12  15
ENDBRANCH   3  12
TORSDOF 3
ENDMDL
MODEL      104
REMARK 921   NORMALIZED FREE ENERGY PREDICTED BY IDOCK:   -5.40 KCAL/MOL
REMARK 922        TOTAL FREE ENERGY PREDICTED BY IDOCK:   -7.33 KCAL/MOL
REMARK 923 INTER-LIGAND FREE ENERGY PREDICTED BY IDOCK:   -5.88 KCAL/MOL
REMARK 924 INTRA-LIGAND FREE ENERGY PREDICTED BY IDOCK:   -1.44 KCAL/MOL
REMARK 927      BINDING AFFINITY PREDICTED BY RF-SCORE:    0.00 PKD
ROOT
HETATM    1  C   UNL     1     -10.528  11.178  64.292  1.00  0.00    -0.427 C  
HETATM    2  C   UNL     1     -11.469  12.016  63.483  1.00  0.00    -0.536 C  
HETATM    3  C   UNL     1     -10.131  11.397  65.568  1.00  0.00    -0.293 C  
ENDROOT
BRANCH   3   4
HETATM    4  C   UNL     1     -10.657  12.586  66.273  1.00  0.00    -0.273 A  
HETATM    5  O   UNL     1     -11.888  15.838  68.552  1.00  0.00    -0.435 OA 
HETATM    6  H   UNL     1     -12.611  15.746  69.161  1.00  0.00     0.000 HD 
HETATM    7  C   UNL     1     -10.012  13.824  66.128  1.00  0.00    -0.318 A  
HETATM    8  C   UNL     1     -11.480  14.796  67.771  1.00  0.00    -0.345 A  
HETATM    9  C   UNL     1     -11.743  12.480  67.154  1.00  0.00    -0.425 A  
HETATM   10  C   UNL     1     -12.151  13.586  67.905  1.00  0.00    -0.304 A  
HETATM   11  C   UNL     1     -10.421  14.931  66.881  1.00  0.00    -0.280 A  
ENDBRANCH   3   4
BRANCH   3  12
HETATM   12  C   UNL     1      -9.233  10.422  66.215  1.00  0.00    -0.195 C  
HETATM   13  C   UNL     1      -7.897  10.611  66.126  1.00  0.00    -0.152 C  
HETATM   14  C   UNL     1      -6.799   9.805  66.750  1.00  0.00    -0.084 C  
BRANCH  12  15
HETATM   15  C   UNL     1      -9.754   9.298  67.026  1.00  0.00    -0.241 A  
HETATM   16  C   UNL     1     -10.895   7.217  68.506  1.00  0.00    -0.095 A  
HETATM   17  C   UNL     1     -10.078   8.078  66.410  1.00  0.00    -0.174 A  
HETATM   18  C   UNL     1     -10.652   7.037  67.148  1.00  0.00    -0.412 A  
HETATM   19  O   UNL     1     -11.484   6.241  69.259  1.00  0.00    -0.528 OA 
HETATM   20  C   UNL     1     -10.551   8.405  69.140  1.00  0.00    -0.177 A  
HETATM   21  H   UNL     1     -11.650   6.364  70.186  1.00  0.00     0.000 HD 
HETATM   22  C   UNL     1      -9.980   9.446  68.401  1.00  0.00    -0.191 A  
ENDBRANCH  12  15
ENDBRANCH   3  12
TORSDOF 3
ENDMDL
MODEL      105
REMARK 921   NORMALIZED FREE ENERGY PREDICTED BY IDOCK:   -5.40 KCAL/MOL
REMARK 922        TOTAL FREE ENERGY PREDICTED BY IDOCK:   -7.32 KCAL/MOL
REMARK 923 INTER-LIGAND FREE ENERGY PREDICTED BY IDOCK:   -6.19 KCAL/MOL
REMARK 924 INTRA-LIGAND FREE ENERGY PREDICTED BY IDOCK:   -1.13 KCAL/MOL
REMARK 927      BINDING AFFINITY PREDICTED BY RF-SCORE:    0.00 PKD
ROOT
HETATM    1  C   UNL     1      -8.338  13.485  67.223  1.00  0.00    -0.188 C  
HETATM    2  C   UNL     1      -7.192  14.273  67.778  1.00  0.00    -0.188 C  
HETATM    3  C   UNL     1      -9.558  13.955  66.870  1.00  0.00    -0.271 C  
ENDROOT
BRANCH   3   4
HETATM    4  C   UNL     1      -9.829  15.399  67.040  1.00  0.00    -0.236 A  
HETATM    5  O   UNL     1     -10.947  19.391  67.349  1.00  0.00    -0.490 OA 
HETATM    6  H   UNL     1     -10.747  19.997  66.645  1.00  0.00     0.000 HD 
HETATM    7  C   UNL     1     -10.487  15.852  68.194  1.00  0.00    -0.270 A  
HETATM    8  C   UNL     1     -10.568  18.082  67.287  1.00  0.00    -0.346 A  
HETATM    9  C   UNL     1      -9.516  16.316  66.028  1.00  0.00    -0.369 A  
HETATM   10  C   UNL     1      -9.889  17.657  66.151  1.00  0.00    -0.253 A  
HETATM   11  C   UNL     1     -10.861  17.195  68.317  1.00  0.00    -0.314 A  
ENDBRANCH   3   4
BRANCH   3  12
HETATM   12  C   UNL     1     -10.543  13.024  66.290  1.00  0.00    -0.283 C  
HETATM   13  C   UNL     1     -11.612  13.532  65.636  1.00  0.00    -0.343 C  
HETATM   14  C   UNL     1     -12.698  12.797  64.913  1.00  0.00    -0.479 C  
BRANCH  12  15
HETATM   15  C   UNL     1     -10.349  11.556  66.329  1.00  0.00    -0.280 A  
HETATM   16  C   UNL     1     -10.116   8.769  66.295  1.00  0.00    -0.184 A  
HETATM   17  C   UNL     1      -9.666  10.909  65.286  1.00  0.00    -0.296 A  
HETATM   18  C   UNL     1      -9.552   9.515  65.266  1.00  0.00    -0.314 A  
HETATM   19  O   UNL     1     -10.058   7.405  66.301  1.00  0.00    -0.463 OA 
HETATM   20  C   UNL     1     -10.767   9.394  67.353  1.00  0.00    -0.280 A  
HETATM   21  H   UNL     1     -10.443   6.895  67.003  1.00  0.00     0.000 HD 
HETATM   22  C   UNL     1     -10.884  10.787  67.371  1.00  0.00    -0.345 A  
ENDBRANCH  12  15
ENDBRANCH   3  12
TORSDOF 3
ENDMDL
MODEL      106
REMARK 921   NORMALIZED FREE ENERGY PREDICTED BY IDOCK:   -5.38 KCAL/MOL
REMARK 922        TOTAL FREE ENERGY PREDICTED BY IDOCK:   -7.31 KCAL/MOL
REMARK 923 INTER-LIGAND FREE ENERGY PREDICTED BY IDOCK:   -5.81 KCAL/MOL
REMARK 924 INTRA-LIGAND FREE ENERGY PREDICTED BY IDOCK:   -1.50 KCAL/MOL
REMARK 927      BINDING AFFINITY PREDICTED BY RF-SCORE:    0.00 PKD
ROOT
HETATM    1  C   UNL     1      -6.886  17.560  66.231  1.00  0.00    -0.323 C  
HETATM    2  C   UNL     1      -5.405  17.345  66.220  1.00  0.00    -0.202 C  
HETATM    3  C   UNL     1      -7.802  16.900  66.980  1.00  0.00    -0.232 C  
ENDROOT
BRANCH   3   4
HETATM    4  C   UNL     1      -7.327  15.840  67.896  1.00  0.00    -0.151 A  
HETATM    5  O   UNL     1      -6.372  12.807  70.574  1.00  0.00    -0.458 OA 
HETATM    6  H   UNL     1      -6.183  13.015  71.482  1.00  0.00     0.000 HD 
HETATM    7  C   UNL     1      -7.267  14.511  67.452  1.00  0.00    -0.165 A  
HETATM    8  C   UNL     1      -6.661  13.784  69.667  1.00  0.00    -0.015 A  
HETATM    9  C   UNL     1      -7.014  16.129  69.232  1.00  0.00    -0.210 A  
HETATM   10  C   UNL     1      -6.685  15.099  70.117  1.00  0.00    -0.072 A  
HETATM   11  C   UNL     1      -6.938  13.479  68.339  1.00  0.00    -0.105 A  
ENDBRANCH   3   4
BRANCH   3  12
HETATM   12  C   UNL     1      -9.220  17.293  66.887  1.00  0.00    -0.265 C  
HETATM   13  C   UNL     1      -9.551  18.587  67.100  1.00  0.00    -0.302 C  
HETATM   14  C   UNL     1     -10.898  19.233  66.995  1.00  0.00    -0.515 C  
BRANCH  12  15
HETATM   15  C   UNL     1     -10.273  16.333  66.485  1.00  0.00    -0.307 A  
HETATM   16  C   UNL     1     -12.143  14.394  65.732  1.00  0.00    -0.355 A  
HETATM   17  C   UNL     1     -10.895  15.526  67.453  1.00  0.00    -0.312 A  
HETATM   18  C   UNL     1     -11.828  14.553  67.078  1.00  0.00    -0.408 A  
HETATM   19  O   UNL     1     -13.023  13.436  65.316  1.00  0.00    -0.681 OA 
HETATM   20  C   UNL     1     -11.563  15.206  64.764  1.00  0.00    -0.364 A  
HETATM   21  H   UNL     1     -13.239  13.327  64.397  1.00  0.00     0.000 HD 
HETATM   22  C   UNL     1     -10.628  16.175  65.139  1.00  0.00    -0.366 A  
ENDBRANCH  12  15
ENDBRANCH   3  12
TORSDOF 3
ENDMDL
MODEL      107
REMARK 921   NORMALIZED FREE ENERGY PREDICTED BY IDOCK:   -5.36 KCAL/MOL
REMARK 922        TOTAL FREE ENERGY PREDICTED BY IDOCK:   -7.28 KCAL/MOL
REMARK 923 INTER-LIGAND FREE ENERGY PREDICTED BY IDOCK:   -6.18 KCAL/MOL
REMARK 924 INTRA-LIGAND FREE ENERGY PREDICTED BY IDOCK:   -1.10 KCAL/MOL
REMARK 927      BINDING AFFINITY PREDICTED BY RF-SCORE:    0.00 PKD
ROOT
HETATM    1  C   UNL     1      -9.749  14.008  67.703  1.00  0.00    -0.228 C  
HETATM    2  C   UNL     1      -9.990  12.566  68.029  1.00  0.00    -0.219 C  
HETATM    3  C   UNL     1     -10.126  14.665  66.581  1.00  0.00    -0.277 C  
ENDROOT
BRANCH   3   4
HETATM    4  C   UNL     1     -10.852  13.911  65.535  1.00  0.00    -0.306 A  
HETATM    5  O   UNL     1     -12.823  11.464  62.814  1.00  0.00    -0.860 OA 
HETATM    6  H   UNL     1     -12.343  11.066  62.096  1.00  0.00     0.000 HD 
HETATM    7  C   UNL     1     -12.231  13.688  65.669  1.00  0.00    -0.490 A  
HETATM    8  C   UNL     1     -12.208  12.293  63.706  1.00  0.00    -0.546 A  
HETATM    9  C   UNL     1     -10.169  13.340  64.453  1.00  0.00    -0.300 A  
HETATM   10  C   UNL     1     -10.848  12.529  63.540  1.00  0.00    -0.443 A  
HETATM   11  C   UNL     1     -12.911  12.874  64.755  1.00  0.00    -0.359 A  
ENDBRANCH   3   4
BRANCH   3  12
HETATM   12  C   UNL     1      -9.840  16.107  66.466  1.00  0.00    -0.283 C  
HETATM   13  C   UNL     1     -10.757  16.907  65.876  1.00  0.00    -0.151 C  
HETATM   14  C   UNL     1     -10.725  18.395  65.707  1.00  0.00    -0.161 C  
BRANCH  12  15
HETATM   15  C   UNL     1      -8.623  16.712  67.054  1.00  0.00    -0.220 A  
HETATM   16  C   UNL     1      -6.377  18.007  68.104  1.00  0.00    -0.185 A  
HETATM   17  C   UNL     1      -8.695  17.381  68.287  1.00  0.00    -0.261 A  
HETATM   18  C   UNL     1      -7.574  18.032  68.812  1.00  0.00    -0.277 A  
HETATM   19  O   UNL     1      -5.266  18.656  68.561  1.00  0.00    -0.172 OA 
HETATM   20  C   UNL     1      -6.277  17.322  66.898  1.00  0.00    -0.220 A  
HETATM   21  H   UNL     1      -4.448  18.639  68.078  1.00  0.00     0.000 HD 
HETATM   22  C   UNL     1      -7.400  16.675  66.372  1.00  0.00    -0.216 A  
ENDBRANCH  12  15
ENDBRANCH   3  12
TORSDOF 3
ENDMDL
MODEL      108
REMARK 921   NORMALIZED FREE ENERGY PREDICTED BY IDOCK:   -5.36 KCAL/MOL
REMARK 922        TOTAL FREE ENERGY PREDICTED BY IDOCK:   -7.28 KCAL/MOL
REMARK 923 INTER-LIGAND FREE ENERGY PREDICTED BY IDOCK:   -5.79 KCAL/MOL
REMARK 924 INTRA-LIGAND FREE ENERGY PREDICTED BY IDOCK:   -1.49 KCAL/MOL
REMARK 927      BINDING AFFINITY PREDICTED BY RF-SCORE:    0.00 PKD
ROOT
HETATM    1  C   UNL     1     -13.384   9.659  71.487  1.00  0.00    -0.468 C  
HETATM    2  C   UNL     1     -14.129   8.791  72.452  1.00  0.00    -0.485 C  
HETATM    3  C   UNL     1     -12.130   9.464  71.013  1.00  0.00    -0.373 C  
ENDROOT
BRANCH   3   4
HETATM    4  C   UNL     1     -11.380   8.278  71.480  1.00  0.00    -0.320 A  
HETATM    5  O   UNL     1      -9.567   4.883  73.051  1.00  0.00    -0.135 OA 
HETATM    6  H   UNL     1      -8.969   4.960  73.786  1.00  0.00     0.000 HD 
HETATM    7  C   UNL     1     -11.640   7.022  70.911  1.00  0.00    -0.370 A  
HETATM    8  C   UNL     1     -10.155   5.983  72.498  1.00  0.00    -0.178 A  
HETATM    9  C   UNL     1     -10.471   8.373  72.542  1.00  0.00    -0.372 A  
HETATM   10  C   UNL     1      -9.861   7.223  73.052  1.00  0.00    -0.254 A  
HETATM   11  C   UNL     1     -11.030   5.871  71.423  1.00  0.00    -0.327 A  
ENDBRANCH   3   4
BRANCH   3  12
HETATM   12  C   UNL     1     -11.585  10.410  70.021  1.00  0.00    -0.378 C  
HETATM   13  C   UNL     1     -12.010  11.694  70.045  1.00  0.00    -0.429 C  
HETATM   14  C   UNL     1     -11.557  12.841  69.196  1.00  0.00    -0.373 C  
BRANCH  12  15
HETATM   15  C   UNL     1     -10.527  10.015  69.063  1.00  0.00    -0.233 A  
HETATM   16  C   UNL     1      -8.519   9.434  67.204  1.00  0.00    -0.128 A  
HETATM   17  C   UNL     1      -9.175  10.213  69.387  1.00  0.00    -0.229 A  
HETATM   18  C   UNL     1      -8.169   9.926  68.458  1.00  0.00    -0.106 A  
HETATM   19  O   UNL     1      -7.575   9.171  66.254  1.00  0.00    -0.091 OA 
HETATM   20  C   UNL     1      -9.850   9.200  66.877  1.00  0.00    -0.280 A  
HETATM   21  H   UNL     1      -7.813   8.835  65.398  1.00  0.00     0.000 HD 
HETATM   22  C   UNL     1     -10.855   9.491  67.806  1.00  0.00    -0.258 A  
ENDBRANCH  12  15
ENDBRANCH   3  12
TORSDOF 3
ENDMDL
MODEL      109
REMARK 921   NORMALIZED FREE ENERGY PREDICTED BY IDOCK:   -5.34 KCAL/MOL
REMARK 922        TOTAL FREE ENERGY PREDICTED BY IDOCK:   -7.26 KCAL/MOL
REMARK 923 INTER-LIGAND FREE ENERGY PREDICTED BY IDOCK:   -6.27 KCAL/MOL
REMARK 924 INTRA-LIGAND FREE ENERGY PREDICTED BY IDOCK:   -0.98 KCAL/MOL
REMARK 927      BINDING AFFINITY PREDICTED BY RF-SCORE:    0.00 PKD
ROOT
HETATM    1  C   UNL     1     -13.088   7.219  71.799  1.00  0.00    -0.365 C  
HETATM    2  C   UNL     1     -14.381   7.708  71.226  1.00  0.00    -0.438 C  
HETATM    3  C   UNL     1     -11.895   7.861  71.790  1.00  0.00    -0.333 C  
ENDROOT
BRANCH   3   4
HETATM    4  C   UNL     1     -11.820   9.192  71.149  1.00  0.00    -0.374 A  
HETATM    5  O   UNL     1     -11.932  12.830  69.141  1.00  0.00    -0.291 OA 
HETATM    6  H   UNL     1     -11.470  12.933  68.317  1.00  0.00     0.000 HD 
HETATM    7  C   UNL     1     -12.527  10.271  71.700  1.00  0.00    -0.491 A  
HETATM    8  C   UNL     1     -11.890  11.656  69.835  1.00  0.00    -0.358 A  
HETATM    9  C   UNL     1     -11.119   9.375  69.949  1.00  0.00    -0.223 A  
HETATM   10  C   UNL     1     -11.159  10.607  69.291  1.00  0.00    -0.306 A  
HETATM   11  C   UNL     1     -12.566  11.505  71.041  1.00  0.00    -0.457 A  
ENDBRANCH   3   4
BRANCH   3  12
HETATM   12  C   UNL     1     -10.739   7.233  72.457  1.00  0.00    -0.301 C  
HETATM   13  C   UNL     1      -9.899   8.013  73.174  1.00  0.00    -0.332 C  
HETATM   14  C   UNL     1      -8.711   7.601  73.986  1.00  0.00    -0.303 C  
BRANCH  12  15
HETATM   15  C   UNL     1     -10.524   5.768  72.433  1.00  0.00    -0.252 A  
HETATM   16  C   UNL     1     -10.249   2.989  72.276  1.00  0.00    -0.105 A  
HETATM   17  C   UNL     1      -9.806   5.180  71.379  1.00  0.00    -0.239 A  
HETATM   18  C   UNL     1      -9.670   3.790  71.297  1.00  0.00    -0.245 A  
HETATM   19  O   UNL     1     -10.169   1.627  72.219  1.00  0.00    -0.137 OA 
HETATM   20  C   UNL     1     -10.934   3.554  73.345  1.00  0.00    -0.308 A  
HETATM   21  H   UNL     1     -10.564   1.080  72.888  1.00  0.00     0.000 HD 
HETATM   22  C   UNL     1     -11.073   4.944  73.424  1.00  0.00    -0.415 A  
ENDBRANCH  12  15
ENDBRANCH   3  12
TORSDOF 3
ENDMDL
MODEL      110
REMARK 921   NORMALIZED FREE ENERGY PREDICTED BY IDOCK:   -5.34 KCAL/MOL
REMARK 922        TOTAL FREE ENERGY PREDICTED BY IDOCK:   -7.25 KCAL/MOL
REMARK 923 INTER-LIGAND FREE ENERGY PREDICTED BY IDOCK:   -5.71 KCAL/MOL
REMARK 924 INTRA-LIGAND FREE ENERGY PREDICTED BY IDOCK:   -1.54 KCAL/MOL
REMARK 927      BINDING AFFINITY PREDICTED BY RF-SCORE:    0.00 PKD
ROOT
HETATM    1  C   UNL     1     -10.950  11.242  68.135  1.00  0.00    -0.284 C  
HETATM    2  C   UNL     1     -10.342  11.535  66.798  1.00  0.00    -0.262 C  
HETATM    3  C   UNL     1     -10.880  10.080  68.826  1.00  0.00    -0.252 C  
ENDROOT
BRANCH   3   4
HETATM    4  C   UNL     1     -10.135   8.951  68.228  1.00  0.00    -0.219 A  
HETATM    5  O   UNL     1      -7.964   6.017  66.239  1.00  0.00    -0.102 OA 
HETATM    6  H   UNL     1      -8.402   5.425  65.638  1.00  0.00     0.000 HD 
HETATM    7  C   UNL     1      -8.757   8.825  68.460  1.00  0.00    -0.135 A  
HETATM    8  C   UNL     1      -8.655   6.971  66.926  1.00  0.00    -0.120 A  
HETATM    9  C   UNL     1     -10.768   8.048  67.362  1.00  0.00    -0.260 A  
HETATM   10  C   UNL     1     -10.025   7.061  66.709  1.00  0.00    -0.266 A  
HETATM   11  C   UNL     1      -8.014   7.836  67.805  1.00  0.00    -0.124 A  
ENDBRANCH   3   4
BRANCH   3  12
HETATM   12  C   UNL     1     -11.506  10.002  70.160  1.00  0.00    -0.344 C  
HETATM   13  C   UNL     1     -12.313  11.011  70.559  1.00  0.00    -0.462 C  
HETATM   14  C   UNL     1     -13.105  11.125  71.825  1.00  0.00    -0.536 C  
BRANCH  12  15
HETATM   15  C   UNL     1     -11.344   8.816  71.032  1.00  0.00    -0.332 A  
HETATM   16  C   UNL     1     -11.159   6.642  72.782  1.00  0.00    -0.249 A  
HETATM   17  C   UNL     1     -12.258   7.752  70.948  1.00  0.00    -0.166 A  
HETATM   18  C   UNL     1     -12.169   6.666  71.824  1.00  0.00    -0.400 A  
HETATM   19  O   UNL     1     -11.053   5.618  73.679  1.00  0.00    -0.433 OA 
HETATM   20  C   UNL     1     -10.226   7.670  72.857  1.00  0.00    -0.356 A  
HETATM   21  H   UNL     1     -10.364   5.602  74.332  1.00  0.00     0.000 HD 
HETATM   22  C   UNL     1     -10.318   8.757  71.983  1.00  0.00    -0.411 A  
ENDBRANCH  12  15
ENDBRANCH   3  12
TORSDOF 3
ENDMDL
MODEL      111
REMARK 921   NORMALIZED FREE ENERGY PREDICTED BY IDOCK:   -5.33 KCAL/MOL
REMARK 922        TOTAL FREE ENERGY PREDICTED BY IDOCK:   -7.25 KCAL/MOL
REMARK 923 INTER-LIGAND FREE ENERGY PREDICTED BY IDOCK:   -5.92 KCAL/MOL
REMARK 924 INTRA-LIGAND FREE ENERGY PREDICTED BY IDOCK:   -1.32 KCAL/MOL
REMARK 927      BINDING AFFINITY PREDICTED BY RF-SCORE:    0.00 PKD
ROOT
HETATM    1  C   UNL     1     -11.630  10.445  70.775  1.00  0.00    -0.450 C  
HETATM    2  C   UNL     1     -12.920  10.394  71.532  1.00  0.00    -0.562 C  
HETATM    3  C   UNL     1     -10.681   9.481  70.712  1.00  0.00    -0.391 C  
ENDROOT
BRANCH   3   4
HETATM    4  C   UNL     1     -10.903   8.227  71.464  1.00  0.00    -0.308 A  
HETATM    5  O   UNL     1     -11.163   4.593  73.466  1.00  0.00    -0.317 OA 
HETATM    6  H   UNL     1     -11.502   3.826  73.019  1.00  0.00     0.000 HD 
HETATM    7  C   UNL     1     -10.504   8.140  72.807  1.00  0.00    -0.385 A  
HETATM    8  C   UNL     1     -11.092   5.804  72.843  1.00  0.00    -0.281 A  
HETATM    9  C   UNL     1     -11.430   7.092  70.833  1.00  0.00    -0.333 A  
HETATM   10  C   UNL     1     -11.521   5.880  71.523  1.00  0.00    -0.216 A  
HETATM   11  C   UNL     1     -10.594   6.926  73.497  1.00  0.00    -0.378 A  
ENDBRANCH   3   4
BRANCH   3  12
HETATM   12  C   UNL     1      -9.493   9.700  69.865  1.00  0.00    -0.260 C  
HETATM   13  C   UNL     1      -8.276   9.747  70.451  1.00  0.00    -0.119 C  
HETATM   14  C   UNL     1      -6.934   9.887  69.801  1.00  0.00    -0.095 C  
BRANCH  12  15
HETATM   15  C   UNL     1      -9.591   9.784  68.389  1.00  0.00    -0.157 A  
HETATM   16  C   UNL     1      -9.945   9.952  65.620  1.00  0.00    -0.283 A  
HETATM   17  C   UNL     1      -9.765  11.030  67.766  1.00  0.00    -0.183 A  
HETATM   18  C   UNL     1      -9.945  11.116  66.381  1.00  0.00    -0.257 A  
HETATM   19  O   UNL     1     -10.151   9.984  64.270  1.00  0.00    -0.437 OA 
HETATM   20  C   UNL     1      -9.741   8.712  66.215  1.00  0.00    -0.322 A  
HETATM   21  H   UNL     1     -10.151   9.189  63.750  1.00  0.00     0.000 HD 
HETATM   22  C   UNL     1      -9.564   8.627  67.599  1.00  0.00    -0.190 A  
ENDBRANCH  12  15
ENDBRANCH   3  12
TORSDOF 3
ENDMDL
MODEL      112
REMARK 921   NORMALIZED FREE ENERGY PREDICTED BY IDOCK:   -5.32 KCAL/MOL
REMARK 922        TOTAL FREE ENERGY PREDICTED BY IDOCK:   -7.24 KCAL/MOL
REMARK 923 INTER-LIGAND FREE ENERGY PREDICTED BY IDOCK:   -5.72 KCAL/MOL
REMARK 924 INTRA-LIGAND FREE ENERGY PREDICTED BY IDOCK:   -1.51 KCAL/MOL
REMARK 927      BINDING AFFINITY PREDICTED BY RF-SCORE:    0.00 PKD
ROOT
HETATM    1  C   UNL     1      -9.768   9.652  65.339  1.00  0.00    -0.365 C  
HETATM    2  C   UNL     1      -9.608  10.676  64.260  1.00  0.00    -0.350 C  
HETATM    3  C   UNL     1     -10.086   9.875  66.637  1.00  0.00    -0.297 C  
ENDROOT
BRANCH   3   4
HETATM    4  C   UNL     1     -10.302  11.271  67.076  1.00  0.00    -0.263 A  
HETATM    5  O   UNL     1     -10.995  15.048  68.670  1.00  0.00    -0.239 OA 
HETATM    6  H   UNL     1     -11.868  15.422  68.644  1.00  0.00     0.000 HD 
HETATM    7  C   UNL     1      -9.240  11.998  67.636  1.00  0.00    -0.182 A  
HETATM    8  C   UNL     1     -10.733  13.822  68.130  1.00  0.00    -0.248 A  
HETATM    9  C   UNL     1     -11.575  11.855  67.019  1.00  0.00    -0.365 A  
HETATM   10  C   UNL     1     -11.789  13.130  67.551  1.00  0.00    -0.409 A  
HETATM   11  C   UNL     1      -9.455  13.274  68.168  1.00  0.00    -0.222 A  
ENDBRANCH   3   4
BRANCH   3  12
HETATM   12  C   UNL     1     -10.248   8.723  67.542  1.00  0.00    -0.309 C  
HETATM   13  C   UNL     1     -10.696   7.553  67.033  1.00  0.00    -0.367 C  
HETATM   14  C   UNL     1     -10.875   6.240  67.731  1.00  0.00    -0.424 C  
BRANCH  12  15
HETATM   15  C   UNL     1      -9.855   8.788  68.969  1.00  0.00    -0.183 A  
HETATM   16  C   UNL     1      -9.143   8.741  71.673  1.00  0.00    -0.244 A  
HETATM   17  C   UNL     1      -8.567   8.387  69.362  1.00  0.00    -0.129 A  
HETATM   18  C   UNL     1      -8.210   8.361  70.714  1.00  0.00    -0.129 A  
HETATM   19  O   UNL     1      -8.850   8.700  73.006  1.00  0.00    -0.355 OA 
HETATM   20  C   UNL     1     -10.411   9.172  71.301  1.00  0.00    -0.398 A  
HETATM   21  H   UNL     1      -9.487   8.959  73.662  1.00  0.00     0.000 HD 
HETATM   22  C   UNL     1     -10.768   9.195  69.949  1.00  0.00    -0.246 A  
ENDBRANCH  12  15
ENDBRANCH   3  12
TORSDOF 3
ENDMDL
MODEL      113
REMARK 921   NORMALIZED FREE ENERGY PREDICTED BY IDOCK:   -5.28 KCAL/MOL
REMARK 922        TOTAL FREE ENERGY PREDICTED BY IDOCK:   -7.18 KCAL/MOL
REMARK 923 INTER-LIGAND FREE ENERGY PREDICTED BY IDOCK:   -6.15 KCAL/MOL
REMARK 924 INTRA-LIGAND FREE ENERGY PREDICTED BY IDOCK:   -1.04 KCAL/MOL
REMARK 927      BINDING AFFINITY PREDICTED BY RF-SCORE:    0.00 PKD
ROOT
HETATM    1  C   UNL     1     -10.234  10.630  66.121  1.00  0.00    -0.308 C  
HETATM    2  C   UNL     1     -10.100   9.141  66.199  1.00  0.00    -0.278 C  
HETATM    3  C   UNL     1     -10.484  11.481  67.144  1.00  0.00    -0.259 C  
ENDROOT
BRANCH   3   4
HETATM    4  C   UNL     1     -10.653  10.918  68.501  1.00  0.00    -0.219 A  
HETATM    5  O   UNL     1     -11.247   9.000  72.141  1.00  0.00    -0.351 OA 
HETATM    6  H   UNL     1     -12.092   9.048  72.572  1.00  0.00     0.000 HD 
HETATM    7  C   UNL     1      -9.597  10.214  69.099  1.00  0.00    -0.222 A  
HETATM    8  C   UNL     1     -11.015   9.642  70.959  1.00  0.00    -0.361 A  
HETATM    9  C   UNL     1     -11.882  11.004  69.169  1.00  0.00    -0.407 A  
HETATM   10  C   UNL     1     -12.062  10.362  70.397  1.00  0.00    -0.402 A  
HETATM   11  C   UNL     1      -9.778   9.570  70.328  1.00  0.00    -0.314 A  
ENDBRANCH   3   4
BRANCH   3  12
HETATM   12  C   UNL     1     -10.530  12.931  66.873  1.00  0.00    -0.252 C  
HETATM   13  C   UNL     1     -10.407  13.358  65.596  1.00  0.00    -0.295 C  
HETATM   14  C   UNL     1     -10.491  14.757  65.069  1.00  0.00    -0.443 C  
BRANCH  12  15
HETATM   15  C   UNL     1     -10.792  13.919  67.945  1.00  0.00    -0.256 A  
HETATM   16  C   UNL     1     -11.275  15.655  70.083  1.00  0.00    -0.336 A  
HETATM   17  C   UNL     1      -9.726  14.436  68.699  1.00  0.00    -0.216 A  
HETATM   18  C   UNL     1      -9.966  15.303  69.771  1.00  0.00    -0.210 A  
HETATM   19  O   UNL     1     -11.559  16.471  71.140  1.00  0.00    -0.612 OA 
HETATM   20  C   UNL     1     -12.340  15.179  69.328  1.00  0.00    -0.128 A  
HETATM   21  H   UNL     1     -12.452  16.712  71.354  1.00  0.00     0.000 HD 
HETATM   22  C   UNL     1     -12.100  14.310  68.258  1.00  0.00    -0.278 A  
ENDBRANCH  12  15
ENDBRANCH   3  12
TORSDOF 3
ENDMDL
MODEL      114
REMARK 921   NORMALIZED FREE ENERGY PREDICTED BY IDOCK:   -5.27 KCAL/MOL
REMARK 922        TOTAL FREE ENERGY PREDICTED BY IDOCK:   -7.17 KCAL/MOL
REMARK 923 INTER-LIGAND FREE ENERGY PREDICTED BY IDOCK:   -6.21 KCAL/MOL
REMARK 924 INTRA-LIGAND FREE ENERGY PREDICTED BY IDOCK:   -0.97 KCAL/MOL
REMARK 927      BINDING AFFINITY PREDICTED BY RF-SCORE:    0.00 PKD
ROOT
HETATM    1  C   UNL     1      -8.974  14.040  66.660  1.00  0.00    -0.177 C  
HETATM    2  C   UNL     1      -8.213  15.098  67.396  1.00  0.00    -0.215 C  
HETATM    3  C   UNL     1     -10.230  13.607  66.921  1.00  0.00    -0.261 C  
ENDROOT
BRANCH   3   4
HETATM    4  C   UNL     1     -10.963  14.218  68.052  1.00  0.00    -0.261 A  
HETATM    5  O   UNL     1     -12.666  16.016  71.391  1.00  0.00    -0.547 OA 
HETATM    6  H   UNL     1     -12.870  15.495  72.160  1.00  0.00     0.000 HD 
HETATM    7  C   UNL     1     -11.252  15.591  68.034  1.00  0.00    -0.332 A  
HETATM    8  C   UNL     1     -12.132  15.448  70.271  1.00  0.00    -0.369 A  
HETATM    9  C   UNL     1     -11.300  13.463  69.184  1.00  0.00    -0.333 A  
HETATM   10  C   UNL     1     -11.882  14.081  70.294  1.00  0.00    -0.373 A  
HETATM   11  C   UNL     1     -11.834  16.209  69.146  1.00  0.00    -0.182 A  
ENDBRANCH   3   4
BRANCH   3  12
HETATM   12  C   UNL     1     -10.831  12.584  66.045  1.00  0.00    -0.309 C  
HETATM   13  C   UNL     1     -11.834  12.948  65.214  1.00  0.00    -0.429 C  
HETATM   14  C   UNL     1     -12.547  12.115  64.194  1.00  0.00    -0.466 C  
BRANCH  12  15
HETATM   15  C   UNL     1     -10.310  11.199  65.989  1.00  0.00    -0.308 A  
HETATM   16  C   UNL     1      -9.453   8.545  65.771  1.00  0.00    -0.064 A  
HETATM   17  C   UNL     1      -9.496  10.797  64.917  1.00  0.00    -0.288 A  
HETATM   18  C   UNL     1      -9.069   9.470  64.805  1.00  0.00    -0.271 A  
HETATM   19  O   UNL     1      -9.088   7.233  65.686  1.00  0.00    -0.375 OA 
HETATM   20  C   UNL     1     -10.231   8.932  66.857  1.00  0.00    -0.347 A  
HETATM   21  H   UNL     1      -9.350   6.601  66.345  1.00  0.00     0.000 HD 
HETATM   22  C   UNL     1     -10.661  10.258  66.966  1.00  0.00    -0.302 A  
ENDBRANCH  12  15
ENDBRANCH   3  12
TORSDOF 3
ENDMDL
MODEL      115
REMARK 921   NORMALIZED FREE ENERGY PREDICTED BY IDOCK:   -5.27 KCAL/MOL
REMARK 922        TOTAL FREE ENERGY PREDICTED BY IDOCK:   -7.17 KCAL/MOL
REMARK 923 INTER-LIGAND FREE ENERGY PREDICTED BY IDOCK:   -5.68 KCAL/MOL
REMARK 924 INTRA-LIGAND FREE ENERGY PREDICTED BY IDOCK:   -1.49 KCAL/MOL
REMARK 927      BINDING AFFINITY PREDICTED BY RF-SCORE:    0.00 PKD
ROOT
HETATM    1  C   UNL     1      -8.963   9.652  64.074  1.00  0.00    -0.261 C  
HETATM    2  C   UNL     1      -8.035   8.484  63.951  1.00  0.00    -0.160 C  
HETATM    3  C   UNL     1      -9.663  10.027  65.171  1.00  0.00    -0.380 C  
ENDROOT
BRANCH   3   4
HETATM    4  C   UNL     1      -9.527   9.217  66.401  1.00  0.00    -0.277 A  
HETATM    5  O   UNL     1      -8.904   6.702  69.652  1.00  0.00    -0.141 OA 
HETATM    6  H   UNL     1      -9.479   5.959  69.795  1.00  0.00     0.000 HD 
HETATM    7  C   UNL     1      -8.477   9.479  67.295  1.00  0.00    -0.128 A  
HETATM    8  C   UNL     1      -9.101   7.560  68.609  1.00  0.00    -0.134 A  
HETATM    9  C   UNL     1     -10.382   8.135  66.649  1.00  0.00    -0.284 A  
HETATM   10  C   UNL     1     -10.165   7.305  67.752  1.00  0.00    -0.247 A  
HETATM   11  C   UNL     1      -8.260   8.647  68.399  1.00  0.00    -0.122 A  
ENDBRANCH   3   4
BRANCH   3  12
HETATM   12  C   UNL     1     -10.490  11.247  65.109  1.00  0.00    -0.351 C  
HETATM   13  C   UNL     1     -11.182  11.507  63.977  1.00  0.00    -0.414 C  
HETATM   14  C   UNL     1     -12.132  12.631  63.703  1.00  0.00    -0.632 C  
BRANCH  12  15
HETATM   15  C   UNL     1     -10.649  12.144  66.277  1.00  0.00    -0.285 A  
HETATM   16  C   UNL     1     -10.824  13.749  68.561  1.00  0.00    -0.263 A  
HETATM   17  C   UNL     1      -9.763  13.217  66.465  1.00  0.00    -0.273 A  
HETATM   18  C   UNL     1      -9.846  14.019  67.608  1.00  0.00    -0.233 A  
HETATM   19  O   UNL     1     -10.922  14.484  69.707  1.00  0.00    -0.352 OA 
HETATM   20  C   UNL     1     -11.731  12.712  68.376  1.00  0.00    -0.377 A  
HETATM   21  H   UNL     1     -11.589  14.300  70.358  1.00  0.00     0.000 HD 
HETATM   22  C   UNL     1     -11.644  11.908  67.235  1.00  0.00    -0.364 A  
ENDBRANCH  12  15
ENDBRANCH   3  12
TORSDOF 3
ENDMDL
MODEL      116
REMARK 921   NORMALIZED FREE ENERGY PREDICTED BY IDOCK:   -5.24 KCAL/MOL
REMARK 922        TOTAL FREE ENERGY PREDICTED BY IDOCK:   -7.14 KCAL/MOL
REMARK 923 INTER-LIGAND FREE ENERGY PREDICTED BY IDOCK:   -6.50 KCAL/MOL
REMARK 924 INTRA-LIGAND FREE ENERGY PREDICTED BY IDOCK:   -0.64 KCAL/MOL
REMARK 927      BINDING AFFINITY PREDICTED BY RF-SCORE:    0.00 PKD
ROOT
HETATM    1  C   UNL     1     -10.841  15.827  68.932  1.00  0.00    -0.260 C  
HETATM    2  C   UNL     1     -11.485  14.586  69.466  1.00  0.00    -0.330 C  
HETATM    3  C   UNL     1     -10.581  16.119  67.635  1.00  0.00    -0.315 C  
ENDROOT
BRANCH   3   4
HETATM    4  C   UNL     1     -10.954  15.126  66.604  1.00  0.00    -0.318 A  
HETATM    5  O   UNL     1     -12.094  12.645  63.470  1.00  0.00    -0.494 OA 
HETATM    6  H   UNL     1     -12.996  12.354  63.397  1.00  0.00     0.000 HD 
HETATM    7  C   UNL     1     -10.000  14.707  65.664  1.00  0.00    -0.381 A  
HETATM    8  C   UNL     1     -11.686  13.437  64.503  1.00  0.00    -0.384 A  
HETATM    9  C   UNL     1     -12.271  14.660  66.496  1.00  0.00    -0.154 A  
HETATM   10  C   UNL     1     -12.636  13.817  65.442  1.00  0.00    -0.534 A  
HETATM   11  C   UNL     1     -10.367  13.864  64.609  1.00  0.00    -0.366 A  
ENDBRANCH   3   4
BRANCH   3  12
HETATM   12  C   UNL     1      -9.982  17.425  67.302  1.00  0.00    -0.302 C  
HETATM   13  C   UNL     1     -10.657  18.258  66.477  1.00  0.00    -0.313 C  
HETATM   14  C   UNL     1     -10.291  19.647  66.053  1.00  0.00    -0.620 C  
BRANCH  12  15
HETATM   15  C   UNL     1      -8.711  17.881  67.911  1.00  0.00    -0.252 A  
HETATM   16  C   UNL     1      -6.342  18.636  69.192  1.00  0.00    -0.259 A  
HETATM   17  C   UNL     1      -7.553  17.096  67.791  1.00  0.00    -0.185 A  
HETATM   18  C   UNL     1      -6.368  17.470  68.434  1.00  0.00    -0.177 A  
HETATM   19  O   UNL     1      -5.219  19.023  69.864  1.00  0.00    -0.195 OA 
HETATM   20  C   UNL     1      -7.470  19.443  69.295  1.00  0.00    -0.278 A  
HETATM   21  H   UNL     1      -5.201  19.819  70.382  1.00  0.00     0.000 HD 
HETATM   22  C   UNL     1      -8.655  19.066  68.655  1.00  0.00    -0.389 A  
ENDBRANCH  12  15
ENDBRANCH   3  12
TORSDOF 3
ENDMDL
MODEL      117
REMARK 921   NORMALIZED FREE ENERGY PREDICTED BY IDOCK:   -5.24 KCAL/MOL
REMARK 922        TOTAL FREE ENERGY PREDICTED BY IDOCK:   -7.14 KCAL/MOL
REMARK 923 INTER-LIGAND FREE ENERGY PREDICTED BY IDOCK:   -5.56 KCAL/MOL
REMARK 924 INTRA-LIGAND FREE ENERGY PREDICTED BY IDOCK:   -1.58 KCAL/MOL
REMARK 927      BINDING AFFINITY PREDICTED BY RF-SCORE:    0.00 PKD
ROOT
HETATM    1  C   UNL     1      -9.459  19.476  66.857  1.00  0.00    -0.429 C  
HETATM    2  C   UNL     1     -10.666  19.695  65.998  1.00  0.00    -0.527 C  
HETATM    3  C   UNL     1      -9.117  18.340  67.510  1.00  0.00    -0.256 C  
ENDROOT
BRANCH   3   4
HETATM    4  C   UNL     1     -10.010  17.166  67.392  1.00  0.00    -0.280 A  
HETATM    5  O   UNL     1     -12.230  13.655  67.233  1.00  0.00    -0.366 OA 
HETATM    6  H   UNL     1     -12.165  13.085  66.475  1.00  0.00     0.000 HD 
HETATM    7  C   UNL     1     -10.868  16.835  68.452  1.00  0.00    -0.355 A  
HETATM    8  C   UNL     1     -11.534  14.827  67.300  1.00  0.00    -0.366 A  
HETATM    9  C   UNL     1      -9.953  16.327  66.270  1.00  0.00    -0.335 A  
HETATM   10  C   UNL     1     -10.713  15.155  66.228  1.00  0.00    -0.320 A  
HETATM   11  C   UNL     1     -11.629  15.661  68.409  1.00  0.00    -0.358 A  
ENDBRANCH   3   4
BRANCH   3  12
HETATM   12  C   UNL     1      -7.853  18.304  68.269  1.00  0.00    -0.310 C  
HETATM   13  C   UNL     1      -7.427  19.435  68.875  1.00  0.00    -0.399 C  
HETATM   14  C   UNL     1      -6.226  19.628  69.749  1.00  0.00    -0.364 C  
BRANCH  12  15
HETATM   15  C   UNL     1      -7.088  17.049  68.456  1.00  0.00    -0.202 A  
HETATM   16  C   UNL     1      -5.749  14.605  68.694  1.00  0.00    -0.092 A  
HETATM   17  C   UNL     1      -6.107  16.678  67.521  1.00  0.00    -0.180 A  
HETATM   18  C   UNL     1      -5.439  15.455  67.637  1.00  0.00    -0.064 A  
HETATM   19  O   UNL     1      -5.146  13.388  68.829  1.00  0.00    -0.069 OA 
HETATM   20  C   UNL     1      -6.693  14.970  69.647  1.00  0.00    -0.177 A  
HETATM   21  H   UNL     1      -5.357  12.808  69.550  1.00  0.00     0.000 HD 
HETATM   22  C   UNL     1      -7.363  16.192  69.529  1.00  0.00    -0.112 A  
ENDBRANCH  12  15
ENDBRANCH   3  12
TORSDOF 3
ENDMDL
MODEL      118
REMARK 921   NORMALIZED FREE ENERGY PREDICTED BY IDOCK:   -5.23 KCAL/MOL
REMARK 922        TOTAL FREE ENERGY PREDICTED BY IDOCK:   -7.12 KCAL/MOL
REMARK 923 INTER-LIGAND FREE ENERGY PREDICTED BY IDOCK:   -7.19 KCAL/MOL
REMARK 924 INTRA-LIGAND FREE ENERGY PREDICTED BY IDOCK:    0.06 KCAL/MOL
REMARK 927      BINDING AFFINITY PREDICTED BY RF-SCORE:    0.00 PKD
ROOT
HETATM    1  C   UNL     1     -10.205  14.616  67.855  1.00  0.00    -0.226 C  
HETATM    2  C   UNL     1      -9.585  15.214  66.631  1.00  0.00    -0.272 C  
HETATM    3  C   UNL     1     -11.071  13.576  67.907  1.00  0.00    -0.288 C  
ENDROOT
BRANCH   3   4
HETATM    4  C   UNL     1     -11.478  12.938  66.636  1.00  0.00    -0.393 A  
HETATM    5  O   UNL     1     -12.397  11.413  62.880  1.00  0.00    -0.954 OA 
HETATM    6  H   UNL     1     -13.147  11.746  62.401  1.00  0.00     0.000 HD 
HETATM    7  C   UNL     1     -10.687  11.918  66.085  1.00  0.00    -0.318 A  
HETATM    8  C   UNL     1     -12.088  11.875  64.126  1.00  0.00    -0.298 A  
HETATM    9  C   UNL     1     -12.599  13.392  65.928  1.00  0.00    -0.412 A  
HETATM   10  C   UNL     1     -12.900  12.862  64.670  1.00  0.00    -0.323 A  
HETATM   11  C   UNL     1     -10.990  11.388  64.825  1.00  0.00    -0.303 A  
ENDBRANCH   3   4
BRANCH   3  12
HETATM   12  C   UNL     1     -11.534  13.095  69.222  1.00  0.00    -0.348 C  
HETATM   13  C   UNL     1     -12.194  13.953  70.033  1.00  0.00    -0.408 C  
HETATM   14  C   UNL     1     -12.814  13.683  71.369  1.00  0.00    -0.442 C  
BRANCH  12  15
HETATM   15  C   UNL     1     -11.372  11.684  69.640  1.00  0.00    -0.308 A  
HETATM   16  C   UNL     1     -10.972   9.074  70.563  1.00  0.00    -0.252 A  
HETATM   17  C   UNL     1     -12.173  11.159  70.668  1.00  0.00    -0.492 A  
HETATM   18  C   UNL     1     -11.972   9.855  71.133  1.00  0.00    -0.473 A  
HETATM   19  O   UNL     1     -10.718   7.808  71.006  1.00  0.00    -0.223 OA 
HETATM   20  C   UNL     1     -10.191   9.565  69.522  1.00  0.00    -0.225 A  
HETATM   21  H   UNL     1     -10.035   7.274  70.617  1.00  0.00     0.000 HD 
HETATM   22  C   UNL     1     -10.391  10.870  69.060  1.00  0.00    -0.230 A  
ENDBRANCH  12  15
ENDBRANCH   3  12
TORSDOF 3
ENDMDL
MODEL      119
REMARK 921   NORMALIZED FREE ENERGY PREDICTED BY IDOCK:   -5.21 KCAL/MOL
REMARK 922        TOTAL FREE ENERGY PREDICTED BY IDOCK:   -7.10 KCAL/MOL
REMARK 923 INTER-LIGAND FREE ENERGY PREDICTED BY IDOCK:   -5.82 KCAL/MOL
REMARK 924 INTRA-LIGAND FREE ENERGY PREDICTED BY IDOCK:   -1.29 KCAL/MOL
REMARK 927      BINDING AFFINITY PREDICTED BY RF-SCORE:    0.00 PKD
ROOT
HETATM    1  C   UNL     1      -6.620  18.463  66.024  1.00  0.00    -0.287 C  
HETATM    2  C   UNL     1      -5.138  18.656  65.935  1.00  0.00    -0.175 C  
HETATM    3  C   UNL     1      -7.378  18.463  67.147  1.00  0.00    -0.217 C  
ENDROOT
BRANCH   3   4
HETATM    4  C   UNL     1      -6.705  18.669  68.448  1.00  0.00    -0.255 A  
HETATM    5  O   UNL     1      -5.162  19.163  72.276  1.00  0.00    -0.682 OA 
HETATM    6  H   UNL     1      -5.186  20.017  72.693  1.00  0.00     0.000 HD 
HETATM    7  C   UNL     1      -6.132  17.575  69.116  1.00  0.00    -0.218 A  
HETATM    8  C   UNL     1      -5.636  18.977  71.011  1.00  0.00    -0.161 A  
HETATM    9  C   UNL     1      -6.702  19.926  69.067  1.00  0.00    -0.355 A  
HETATM   10  C   UNL     1      -6.170  20.078  70.351  1.00  0.00    -0.368 A  
HETATM   11  C   UNL     1      -5.600  17.728  70.402  1.00  0.00    -0.220 A  
ENDBRANCH   3   4
BRANCH   3  12
HETATM   12  C   UNL     1      -8.839  18.307  67.024  1.00  0.00    -0.267 C  
HETATM   13  C   UNL     1      -9.610  19.417  66.973  1.00  0.00    -0.412 C  
HETATM   14  C   UNL     1     -11.092  19.514  66.783  1.00  0.00    -0.224 C  
BRANCH  12  15
HETATM   15  C   UNL     1      -9.473  16.977  66.868  1.00  0.00    -0.266 A  
HETATM   16  C   UNL     1     -10.819  14.547  66.546  1.00  0.00    -0.314 A  
HETATM   17  C   UNL     1      -9.715  16.460  65.585  1.00  0.00    -0.165 A  
HETATM   18  C   UNL     1     -10.391  15.246  65.422  1.00  0.00    -0.421 A  
HETATM   19  O   UNL     1     -11.511  13.376  66.434  1.00  0.00    -0.308 OA 
HETATM   20  C   UNL     1     -10.560  15.028  67.824  1.00  0.00    -0.264 A  
HETATM   21  H   UNL     1     -11.804  12.898  67.201  1.00  0.00     0.000 HD 
HETATM   22  C   UNL     1      -9.887  16.243  67.987  1.00  0.00    -0.236 A  
ENDBRANCH  12  15
ENDBRANCH   3  12
TORSDOF 3
ENDMDL
MODEL      120
REMARK 921   NORMALIZED FREE ENERGY PREDICTED BY IDOCK:   -5.21 KCAL/MOL
REMARK 922        TOTAL FREE ENERGY PREDICTED BY IDOCK:   -7.10 KCAL/MOL
REMARK 923 INTER-LIGAND FREE ENERGY PREDICTED BY IDOCK:   -6.68 KCAL/MOL
REMARK 924 INTRA-LIGAND FREE ENERGY PREDICTED BY IDOCK:   -0.42 KCAL/MOL
REMARK 927      BINDING AFFINITY PREDICTED BY RF-SCORE:    0.00 PKD
ROOT
HETATM    1  C   UNL     1     -12.454  10.764  71.559  1.00  0.00    -0.447 C  
HETATM    2  C   UNL     1     -13.521  11.802  71.721  1.00  0.00    -0.192 C  
HETATM    3  C   UNL     1     -11.557  10.665  70.549  1.00  0.00    -0.444 C  
ENDROOT
BRANCH   3   4
HETATM    4  C   UNL     1     -11.606  11.670  69.465  1.00  0.00    -0.397 A  
HETATM    5  O   UNL     1     -12.141  14.471  66.440  1.00  0.00    -0.385 OA 
HETATM    6  H   UNL     1     -12.196  14.188  65.534  1.00  0.00     0.000 HD 
HETATM    7  C   UNL     1     -11.689  13.034  69.784  1.00  0.00    -0.346 A  
HETATM    8  C   UNL     1     -11.939  13.577  67.451  1.00  0.00    -0.357 A  
HETATM    9  C   UNL     1     -11.657  11.278  68.121  1.00  0.00    -0.359 A  
HETATM   10  C   UNL     1     -11.827  12.233  67.115  1.00  0.00    -0.328 A  
HETATM   11  C   UNL     1     -11.860  13.990  68.776  1.00  0.00    -0.396 A  
ENDBRANCH   3   4
BRANCH   3  12
HETATM   12  C   UNL     1     -10.544   9.594  70.595  1.00  0.00    -0.386 C  
HETATM   13  C   UNL     1      -9.380   9.771  69.930  1.00  0.00    -0.262 C  
HETATM   14  C   UNL     1      -8.186   8.868  69.885  1.00  0.00    -0.118 C  
BRANCH  12  15
HETATM   15  C   UNL     1     -10.732   8.374  71.414  1.00  0.00    -0.298 A  
HETATM   16  C   UNL     1     -11.249   6.122  72.990  1.00  0.00    -0.172 A  
HETATM   17  C   UNL     1     -11.375   7.252  70.866  1.00  0.00    -0.308 A  
HETATM   18  C   UNL     1     -11.637   6.126  71.654  1.00  0.00    -0.317 A  
HETATM   19  O   UNL     1     -11.513   5.059  73.805  1.00  0.00    -0.418 OA 
HETATM   20  C   UNL     1     -10.582   7.211  73.541  1.00  0.00    -0.416 A  
HETATM   21  H   UNL     1     -11.249   5.056  74.717  1.00  0.00     0.000 HD 
HETATM   22  C   UNL     1     -10.324   8.337  72.754  1.00  0.00    -0.330 A  
ENDBRANCH  12  15
ENDBRANCH   3  12
TORSDOF 3
ENDMDL
MODEL      121
REMARK 921   NORMALIZED FREE ENERGY PREDICTED BY IDOCK:   -5.20 KCAL/MOL
REMARK 922        TOTAL FREE ENERGY PREDICTED BY IDOCK:   -7.09 KCAL/MOL
REMARK 923 INTER-LIGAND FREE ENERGY PREDICTED BY IDOCK:   -6.37 KCAL/MOL
REMARK 924 INTRA-LIGAND FREE ENERGY PREDICTED BY IDOCK:   -0.72 KCAL/MOL
REMARK 927      BINDING AFFINITY PREDICTED BY RF-SCORE:    0.00 PKD
ROOT
HETATM    1  C   UNL     1     -11.936  13.865  69.949  1.00  0.00    -0.405 C  
HETATM    2  C   UNL     1     -12.483  14.172  71.308  1.00  0.00    -0.446 C  
HETATM    3  C   UNL     1     -11.601  12.647  69.460  1.00  0.00    -0.348 C  
ENDROOT
BRANCH   3   4
HETATM    4  C   UNL     1     -11.775  11.467  70.334  1.00  0.00    -0.362 A  
HETATM    5  O   UNL     1     -12.437   7.969  72.481  1.00  0.00    -0.538 OA 
HETATM    6  H   UNL     1     -13.247   7.854  72.965  1.00  0.00     0.000 HD 
HETATM    7  C   UNL     1     -10.792  10.466  70.357  1.00  0.00    -0.257 A  
HETATM    8  C   UNL     1     -12.181   9.118  71.790  1.00  0.00    -0.372 A  
HETATM    9  C   UNL     1     -12.949  11.290  71.080  1.00  0.00    -0.304 A  
HETATM   10  C   UNL     1     -13.152  10.112  71.805  1.00  0.00    -0.568 A  
HETATM   11  C   UNL     1     -10.996   9.287  71.083  1.00  0.00    -0.409 A  
ENDBRANCH   3   4
BRANCH   3  12
HETATM   12  C   UNL     1     -11.123  12.542  68.068  1.00  0.00    -0.285 C  
HETATM   13  C   UNL     1     -12.033  12.425  67.075  1.00  0.00    -0.257 C  
HETATM   14  C   UNL     1     -11.797  12.373  65.597  1.00  0.00    -0.468 C  
BRANCH  12  15
HETATM   15  C   UNL     1      -9.685  12.647  67.725  1.00  0.00    -0.206 A  
HETATM   16  C   UNL     1      -6.935  12.814  67.243  1.00  0.00    -0.080 A  
HETATM   17  C   UNL     1      -8.920  11.483  67.542  1.00  0.00    -0.159 A  
HETATM   18  C   UNL     1      -7.544  11.565  67.303  1.00  0.00    -0.143 A  
HETATM   19  O   UNL     1      -5.590  12.942  67.046  1.00  0.00    -0.390 OA 
HETATM   20  C   UNL     1      -7.682  13.978  67.390  1.00  0.00    -0.177 A  
HETATM   21  H   UNL     1      -5.174  13.794  67.005  1.00  0.00     0.000 HD 
HETATM   22  C   UNL     1      -9.057  13.895  67.631  1.00  0.00    -0.197 A  
ENDBRANCH  12  15
ENDBRANCH   3  12
TORSDOF 3
ENDMDL
MODEL      122
REMARK 921   NORMALIZED FREE ENERGY PREDICTED BY IDOCK:   -5.19 KCAL/MOL
REMARK 922        TOTAL FREE ENERGY PREDICTED BY IDOCK:   -7.08 KCAL/MOL
REMARK 923 INTER-LIGAND FREE ENERGY PREDICTED BY IDOCK:   -6.11 KCAL/MOL
REMARK 924 INTRA-LIGAND FREE ENERGY PREDICTED BY IDOCK:   -0.97 KCAL/MOL
REMARK 927      BINDING AFFINITY PREDICTED BY RF-SCORE:    0.00 PKD
ROOT
HETATM    1  C   UNL     1     -10.452   8.481  68.235  1.00  0.00    -0.222 C  
HETATM    2  C   UNL     1     -10.027   7.046  68.268  1.00  0.00    -0.165 C  
HETATM    3  C   UNL     1     -10.782   9.260  69.293  1.00  0.00    -0.211 C  
ENDROOT
BRANCH   3   4
HETATM    4  C   UNL     1     -10.733   8.663  70.646  1.00  0.00    -0.259 A  
HETATM    5  O   UNL     1     -10.416   6.674  74.282  1.00  0.00    -0.410 OA 
HETATM    6  H   UNL     1     -11.110   6.091  74.568  1.00  0.00     0.000 HD 
HETATM    7  C   UNL     1      -9.607   8.868  71.457  1.00  0.00    -0.362 A  
HETATM    8  C   UNL     1     -10.506   7.361  73.107  1.00  0.00    -0.356 A  
HETATM    9  C   UNL     1     -11.760   7.825  71.101  1.00  0.00    -0.304 A  
HETATM   10  C   UNL     1     -11.642   7.171  72.331  1.00  0.00    -0.292 A  
HETATM   11  C   UNL     1      -9.490   8.213  72.688  1.00  0.00    -0.346 A  
ENDBRANCH   3   4
BRANCH   3  12
HETATM   12  C   UNL     1     -11.127  10.675  69.060  1.00  0.00    -0.307 C  
HETATM   13  C   UNL     1     -11.643  11.395  70.082  1.00  0.00    -0.368 C  
HETATM   14  C   UNL     1     -12.004  12.848  70.109  1.00  0.00    -0.373 C  
BRANCH  12  15
HETATM   15  C   UNL     1     -10.846  11.346  67.770  1.00  0.00    -0.281 A  
HETATM   16  C   UNL     1     -10.303  12.763  65.421  1.00  0.00    -0.293 A  
HETATM   17  C   UNL     1      -9.524  11.667  67.419  1.00  0.00    -0.171 A  
HETATM   18  C   UNL     1      -9.251  12.378  66.246  1.00  0.00    -0.150 A  
HETATM   19  O   UNL     1     -10.088  13.487  64.283  1.00  0.00    -0.705 OA 
HETATM   20  C   UNL     1     -11.615  12.426  65.736  1.00  0.00    -0.449 A  
HETATM   21  H   UNL     1     -10.806  13.750  63.720  1.00  0.00     0.000 HD 
HETATM   22  C   UNL     1     -11.887  11.718  66.911  1.00  0.00    -0.090 A  
ENDBRANCH  12  15
ENDBRANCH   3  12
TORSDOF 3
ENDMDL
MODEL      123
REMARK 921   NORMALIZED FREE ENERGY PREDICTED BY IDOCK:   -5.16 KCAL/MOL
REMARK 922        TOTAL FREE ENERGY PREDICTED BY IDOCK:   -7.04 KCAL/MOL
REMARK 923 INTER-LIGAND FREE ENERGY PREDICTED BY IDOCK:   -6.39 KCAL/MOL
REMARK 924 INTRA-LIGAND FREE ENERGY PREDICTED BY IDOCK:   -0.66 KCAL/MOL
REMARK 927      BINDING AFFINITY PREDICTED BY RF-SCORE:    0.00 PKD
ROOT
HETATM    1  C   UNL     1      -7.565  14.830  67.328  1.00  0.00    -0.195 C  
HETATM    2  C   UNL     1      -6.201  15.131  67.868  1.00  0.00    -0.172 C  
HETATM    3  C   UNL     1      -8.461  15.717  66.835  1.00  0.00    -0.286 C  
ENDROOT
BRANCH   3   4
HETATM    4  C   UNL     1      -8.093  17.149  66.814  1.00  0.00    -0.278 A  
HETATM    5  O   UNL     1      -7.265  21.204  66.417  1.00  0.00    -0.521 OA 
HETATM    6  H   UNL     1      -6.493  21.487  65.942  1.00  0.00     0.000 HD 
HETATM    7  C   UNL     1      -8.949  18.096  67.398  1.00  0.00    -0.256 A  
HETATM    8  C   UNL     1      -7.547  19.880  66.587  1.00  0.00    -0.269 A  
HETATM    9  C   UNL     1      -6.942  17.588  66.146  1.00  0.00    -0.323 A  
HETATM   10  C   UNL     1      -6.673  18.955  66.030  1.00  0.00    -0.273 A  
HETATM   11  C   UNL     1      -8.678  19.465  67.281  1.00  0.00    -0.336 A  
ENDBRANCH   3   4
BRANCH   3  12
HETATM   12  C   UNL     1      -9.741  15.217  66.299  1.00  0.00    -0.315 C  
HETATM   13  C   UNL     1     -10.305  15.864  65.254  1.00  0.00    -0.354 C  
HETATM   14  C   UNL     1     -11.551  15.510  64.501  1.00  0.00    -0.283 C  
BRANCH  12  15
HETATM   15  C   UNL     1     -10.377  13.983  66.815  1.00  0.00    -0.271 A  
HETATM   16  C   UNL     1     -11.434  11.624  67.884  1.00  0.00    -0.311 A  
HETATM   17  C   UNL     1     -10.986  13.983  68.081  1.00  0.00    -0.268 A  
HETATM   18  C   UNL     1     -11.513  12.804  68.618  1.00  0.00    -0.341 A  
HETATM   19  O   UNL     1     -11.905  10.444  68.382  1.00  0.00    -0.723 OA 
HETATM   20  C   UNL     1     -10.865  11.612  66.616  1.00  0.00    -0.327 A  
HETATM   21  H   UNL     1     -11.852   9.638  67.881  1.00  0.00     0.000 HD 
HETATM   22  C   UNL     1     -10.335  12.791  66.081  1.00  0.00    -0.283 A  
ENDBRANCH  12  15
ENDBRANCH   3  12
TORSDOF 3
ENDMDL
MODEL      124
REMARK 921   NORMALIZED FREE ENERGY PREDICTED BY IDOCK:   -5.15 KCAL/MOL
REMARK 922        TOTAL FREE ENERGY PREDICTED BY IDOCK:   -7.03 KCAL/MOL
REMARK 923 INTER-LIGAND FREE ENERGY PREDICTED BY IDOCK:   -5.93 KCAL/MOL
REMARK 924 INTRA-LIGAND FREE ENERGY PREDICTED BY IDOCK:   -1.10 KCAL/MOL
REMARK 927      BINDING AFFINITY PREDICTED BY RF-SCORE:    0.00 PKD
ROOT
HETATM    1  C   UNL     1     -11.990  12.787  66.198  1.00  0.00    -0.476 C  
HETATM    2  C   UNL     1     -12.458  14.154  65.807  1.00  0.00    -0.490 C  
HETATM    3  C   UNL     1     -10.952  12.481  67.012  1.00  0.00    -0.306 C  
ENDROOT
BRANCH   3   4
HETATM    4  C   UNL     1     -10.167  13.591  67.596  1.00  0.00    -0.239 A  
HETATM    5  O   UNL     1      -7.757  16.435  69.436  1.00  0.00    -0.221 OA 
HETATM    6  H   UNL     1      -8.016  16.811  70.269  1.00  0.00     0.000 HD 
HETATM    7  C   UNL     1      -8.979  14.005  66.975  1.00  0.00    -0.248 A  
HETATM    8  C   UNL     1      -8.541  15.520  68.796  1.00  0.00    -0.188 A  
HETATM    9  C   UNL     1     -10.547  14.183  68.808  1.00  0.00    -0.258 A  
HETATM   10  C   UNL     1      -9.730  15.145  69.409  1.00  0.00    -0.206 A  
HETATM   11  C   UNL     1      -8.161  14.969  67.577  1.00  0.00    -0.199 A  
ENDBRANCH   3   4
BRANCH   3  12
HETATM   12  C   UNL     1     -10.677  11.066  67.320  1.00  0.00    -0.312 C  
HETATM   13  C   UNL     1     -10.310  10.240  66.313  1.00  0.00    -0.256 C  
HETATM   14  C   UNL     1      -9.917   8.797  66.388  1.00  0.00    -0.346 C  
BRANCH  12  15
HETATM   15  C   UNL     1     -10.707  10.547  68.707  1.00  0.00    -0.249 A  
HETATM   16  C   UNL     1     -10.792   9.409  71.261  1.00  0.00    -0.361 A  
HETATM   17  C   UNL     1      -9.572   9.920  69.248  1.00  0.00    -0.215 A  
HETATM   18  C   UNL     1      -9.614   9.348  70.524  1.00  0.00    -0.330 A  
HETATM   19  O   UNL     1     -10.890   8.837  72.497  1.00  0.00    -0.257 OA 
HETATM   20  C   UNL     1     -11.915  10.055  70.755  1.00  0.00    -0.426 A  
HETATM   21  H   UNL     1     -11.694   8.879  73.000  1.00  0.00     0.000 HD 
HETATM   22  C   UNL     1     -11.874  10.623  69.478  1.00  0.00    -0.345 A  
ENDBRANCH  12  15
ENDBRANCH   3  12
TORSDOF 3
ENDMDL
MODEL      125
REMARK 921   NORMALIZED FREE ENERGY PREDICTED BY IDOCK:   -5.14 KCAL/MOL
REMARK 922        TOTAL FREE ENERGY PREDICTED BY IDOCK:   -7.02 KCAL/MOL
REMARK 923 INTER-LIGAND FREE ENERGY PREDICTED BY IDOCK:   -5.45 KCAL/MOL
REMARK 924 INTRA-LIGAND FREE ENERGY PREDICTED BY IDOCK:   -1.57 KCAL/MOL
REMARK 927      BINDING AFFINITY PREDICTED BY RF-SCORE:    0.00 PKD
ROOT
HETATM    1  C   UNL     1      -9.628   8.599  65.969  1.00  0.00    -0.265 C  
HETATM    2  C   UNL     1      -9.202   7.259  66.484  1.00  0.00    -0.195 C  
HETATM    3  C   UNL     1      -9.879   9.711  66.700  1.00  0.00    -0.285 C  
ENDROOT
BRANCH   3   4
HETATM    4  C   UNL     1      -9.735   9.634  68.170  1.00  0.00    -0.164 A  
HETATM    5  O   UNL     1      -9.200   9.042  72.250  1.00  0.00    -0.344 OA 
HETATM    6  H   UNL     1      -9.912   8.701  72.779  1.00  0.00     0.000 HD 
HETATM    7  C   UNL     1      -8.506   9.955  68.766  1.00  0.00    -0.122 A  
HETATM    8  C   UNL     1      -9.356   9.272  70.914  1.00  0.00    -0.245 A  
HETATM    9  C   UNL     1     -10.782   9.162  68.973  1.00  0.00    -0.176 A  
HETATM   10  C   UNL     1     -10.589   8.978  70.345  1.00  0.00    -0.258 A  
HETATM   11  C   UNL     1      -8.313   9.771  70.140  1.00  0.00    -0.201 A  
ENDBRANCH   3   4
BRANCH   3  12
HETATM   12  C   UNL     1     -10.240  10.959  66.001  1.00  0.00    -0.311 C  
HETATM   13  C   UNL     1     -10.471  10.916  64.670  1.00  0.00    -0.384 C  
HETATM   14  C   UNL     1     -10.913  12.023  63.764  1.00  0.00    -0.492 C  
BRANCH  12  15
HETATM   15  C   UNL     1     -10.438  12.234  66.729  1.00  0.00    -0.242 A  
HETATM   16  C   UNL     1     -10.740  14.567  68.242  1.00  0.00    -0.240 A  
HETATM   17  C   UNL     1      -9.371  13.135  66.873  1.00  0.00    -0.246 A  
HETATM   18  C   UNL     1      -9.518  14.301  67.631  1.00  0.00    -0.211 A  
HETATM   19  O   UNL     1     -10.921  15.675  69.019  1.00  0.00    -0.233 OA 
HETATM   20  C   UNL     1     -11.818  13.703  68.084  1.00  0.00    -0.407 A  
HETATM   21  H   UNL     1     -11.754  15.857  69.436  1.00  0.00     0.000 HD 
HETATM   22  C   UNL     1     -11.668  12.536  67.328  1.00  0.00    -0.431 A  
ENDBRANCH  12  15
ENDBRANCH   3  12
TORSDOF 3
ENDMDL
MODEL      126
REMARK 921   NORMALIZED FREE ENERGY PREDICTED BY IDOCK:   -5.12 KCAL/MOL
REMARK 922        TOTAL FREE ENERGY PREDICTED BY IDOCK:   -7.00 KCAL/MOL
REMARK 923 INTER-LIGAND FREE ENERGY PREDICTED BY IDOCK:   -5.55 KCAL/MOL
REMARK 924 INTRA-LIGAND FREE ENERGY PREDICTED BY IDOCK:   -1.45 KCAL/MOL
REMARK 927      BINDING AFFINITY PREDICTED BY RF-SCORE:    0.00 PKD
ROOT
HETATM    1  C   UNL     1     -10.931  10.131  69.662  1.00  0.00    -0.305 C  
HETATM    2  C   UNL     1     -11.608   9.171  70.591  1.00  0.00    -0.282 C  
HETATM    3  C   UNL     1     -10.218   9.828  68.552  1.00  0.00    -0.209 C  
ENDROOT
BRANCH   3   4
HETATM    4  C   UNL     1     -10.062   8.403  68.185  1.00  0.00    -0.239 A  
HETATM    5  O   UNL     1      -9.449   4.525  66.820  1.00  0.00    -0.148 OA 
HETATM    6  H   UNL     1     -10.108   4.099  66.284  1.00  0.00     0.000 HD 
HETATM    7  C   UNL     1      -8.887   7.719  68.532  1.00  0.00    -0.130 A  
HETATM    8  C   UNL     1      -9.635   5.786  67.304  1.00  0.00    -0.117 A  
HETATM    9  C   UNL     1     -11.035   7.746  67.420  1.00  0.00    -0.060 A  
HETATM   10  C   UNL     1     -10.819   6.438  66.977  1.00  0.00    -0.464 A  
HETATM   11  C   UNL     1      -8.671   6.409  68.088  1.00  0.00    -0.116 A  
ENDBRANCH   3   4
BRANCH   3  12
HETATM   12  C   UNL     1      -9.668  10.924  67.733  1.00  0.00    -0.183 C  
HETATM   13  C   UNL     1      -8.481  11.468  68.086  1.00  0.00    -0.154 C  
HETATM   14  C   UNL     1      -7.697  12.531  67.382  1.00  0.00    -0.167 C  
BRANCH  12  15
HETATM   15  C   UNL     1     -10.334  11.384  66.493  1.00  0.00    -0.277 A  
HETATM   16  C   UNL     1     -11.724  12.146  64.188  1.00  0.00    -0.396 A  
HETATM   17  C   UNL     1     -11.349  12.353  66.558  1.00  0.00    -0.392 A  
HETATM   18  C   UNL     1     -12.048  12.733  65.407  1.00  0.00    -0.512 A  
HETATM   19  O   UNL     1     -12.400  12.462  63.045  1.00  0.00    -0.637 OA 
HETATM   20  C   UNL     1     -10.700  11.210  64.098  1.00  0.00    -0.415 A  
HETATM   21  H   UNL     1     -12.179  12.062  62.212  1.00  0.00     0.000 HD 
HETATM   22  C   UNL     1     -10.005  10.828  65.250  1.00  0.00    -0.342 A  
ENDBRANCH  12  15
ENDBRANCH   3  12
TORSDOF 3
ENDMDL
MODEL      127
REMARK 921   NORMALIZED FREE ENERGY PREDICTED BY IDOCK:   -5.11 KCAL/MOL
REMARK 922        TOTAL FREE ENERGY PREDICTED BY IDOCK:   -6.99 KCAL/MOL
REMARK 923 INTER-LIGAND FREE ENERGY PREDICTED BY IDOCK:   -5.83 KCAL/MOL
REMARK 924 INTRA-LIGAND FREE ENERGY PREDICTED BY IDOCK:   -1.16 KCAL/MOL
REMARK 927      BINDING AFFINITY PREDICTED BY RF-SCORE:    0.00 PKD
ROOT
HETATM    1  C   UNL     1     -11.544  13.060  65.603  1.00  0.00    -0.391 C  
HETATM    2  C   UNL     1     -12.715  13.802  65.038  1.00  0.00    -0.379 C  
HETATM    3  C   UNL     1     -10.611  13.538  66.461  1.00  0.00    -0.281 C  
ENDROOT
BRANCH   3   4
HETATM    4  C   UNL     1     -10.723  14.944  66.908  1.00  0.00    -0.308 A  
HETATM    5  O   UNL     1     -10.681  18.847  68.335  1.00  0.00    -0.342 OA 
HETATM    6  H   UNL     1     -11.040  19.045  69.193  1.00  0.00     0.000 HD 
HETATM    7  C   UNL     1     -10.192  15.971  66.113  1.00  0.00    -0.340 A  
HETATM    8  C   UNL     1     -10.706  17.580  67.830  1.00  0.00    -0.332 A  
HETATM    9  C   UNL     1     -11.277  15.261  68.155  1.00  0.00    -0.328 A  
HETATM   10  C   UNL     1     -11.264  16.580  68.617  1.00  0.00    -0.297 A  
HETATM   11  C   UNL     1     -10.179  17.292  66.576  1.00  0.00    -0.325 A  
ENDBRANCH   3   4
BRANCH   3  12
HETATM   12  C   UNL     1      -9.555  12.630  66.947  1.00  0.00    -0.232 C  
HETATM   13  C   UNL     1      -8.489  13.158  67.591  1.00  0.00    -0.194 C  
HETATM   14  C   UNL     1      -7.338  12.444  68.228  1.00  0.00    -0.113 C  
BRANCH  12  15
HETATM   15  C   UNL     1      -9.672  11.159  66.827  1.00  0.00    -0.220 A  
HETATM   16  C   UNL     1     -10.020   8.405  66.486  1.00  0.00    -0.265 A  
HETATM   17  C   UNL     1      -9.087  10.494  65.736  1.00  0.00    -0.204 A  
HETATM   18  C   UNL     1      -9.262   9.118  65.562  1.00  0.00    -0.287 A  
HETATM   19  O   UNL     1     -10.246   7.066  66.339  1.00  0.00    -0.449 OA 
HETATM   20  C   UNL     1     -10.579   9.039  67.589  1.00  0.00    -0.298 A  
HETATM   21  H   UNL     1     -10.764   6.579  66.969  1.00  0.00     0.000 HD 
HETATM   22  C   UNL     1     -10.406  10.416  67.760  1.00  0.00    -0.245 A  
ENDBRANCH  12  15
ENDBRANCH   3  12
TORSDOF 3
ENDMDL
MODEL      128
REMARK 921   NORMALIZED FREE ENERGY PREDICTED BY IDOCK:   -5.11 KCAL/MOL
REMARK 922        TOTAL FREE ENERGY PREDICTED BY IDOCK:   -6.98 KCAL/MOL
REMARK 923 INTER-LIGAND FREE ENERGY PREDICTED BY IDOCK:   -5.84 KCAL/MOL
REMARK 924 INTRA-LIGAND FREE ENERGY PREDICTED BY IDOCK:   -1.14 KCAL/MOL
REMARK 927      BINDING AFFINITY PREDICTED BY RF-SCORE:    0.00 PKD
ROOT
HETATM    1  C   UNL     1      -8.342  10.020  67.556  1.00  0.00    -0.118 C  
HETATM    2  C   UNL     1      -7.612   9.124  68.507  1.00  0.00    -0.085 C  
HETATM    3  C   UNL     1      -9.260   9.653  66.630  1.00  0.00    -0.187 C  
ENDROOT
BRANCH   3   4
HETATM    4  C   UNL     1      -9.602   8.219  66.511  1.00  0.00    -0.312 A  
HETATM    5  O   UNL     1     -10.351   4.130  66.506  1.00  0.00    -0.352 OA 
HETATM    6  H   UNL     1      -9.762   3.539  66.051  1.00  0.00     0.000 HD 
HETATM    7  C   UNL     1     -10.735   7.716  67.169  1.00  0.00    -0.361 A  
HETATM    8  C   UNL     1     -10.145   5.478  66.501  1.00  0.00    -0.204 A  
HETATM    9  C   UNL     1      -8.765   7.333  65.819  1.00  0.00    -0.129 A  
HETATM   10  C   UNL     1      -9.036   5.962  65.818  1.00  0.00    -0.131 A  
HETATM   11  C   UNL     1     -11.006   6.343  67.168  1.00  0.00    -0.476 A  
ENDBRANCH   3   4
BRANCH   3  12
HETATM   12  C   UNL     1      -9.912  10.696  65.816  1.00  0.00    -0.315 C  
HETATM   13  C   UNL     1     -10.068  10.483  64.490  1.00  0.00    -0.402 C  
HETATM   14  C   UNL     1     -10.752  11.353  63.481  1.00  0.00    -0.453 C  
BRANCH  12  15
HETATM   15  C   UNL     1     -10.472  11.925  66.423  1.00  0.00    -0.258 A  
HETATM   16  C   UNL     1     -11.403  14.242  67.685  1.00  0.00    -0.324 A  
HETATM   17  C   UNL     1      -9.909  13.177  66.124  1.00  0.00    -0.284 A  
HETATM   18  C   UNL     1     -10.371  14.336  66.756  1.00  0.00    -0.274 A  
HETATM   19  O   UNL     1     -11.864  15.341  68.350  1.00  0.00    -0.445 OA 
HETATM   20  C   UNL     1     -11.995  13.016  67.968  1.00  0.00    -0.335 A  
HETATM   21  H   UNL     1     -12.569  15.277  68.984  1.00  0.00     0.000 HD 
HETATM   22  C   UNL     1     -11.530  11.857  67.338  1.00  0.00    -0.393 A  
ENDBRANCH  12  15
ENDBRANCH   3  12
TORSDOF 3
ENDMDL
MODEL      129
REMARK 921   NORMALIZED FREE ENERGY PREDICTED BY IDOCK:   -5.10 KCAL/MOL
REMARK 922        TOTAL FREE ENERGY PREDICTED BY IDOCK:   -6.98 KCAL/MOL
REMARK 923 INTER-LIGAND FREE ENERGY PREDICTED BY IDOCK:   -6.15 KCAL/MOL
REMARK 924 INTRA-LIGAND FREE ENERGY PREDICTED BY IDOCK:   -0.82 KCAL/MOL
REMARK 927      BINDING AFFINITY PREDICTED BY RF-SCORE:    0.00 PKD
ROOT
HETATM    1  C   UNL     1     -12.993   7.565  71.543  1.00  0.00    -0.400 C  
HETATM    2  C   UNL     1     -14.382   8.028  71.231  1.00  0.00    -0.397 C  
HETATM    3  C   UNL     1     -11.867   8.317  71.563  1.00  0.00    -0.335 C  
ENDROOT
BRANCH   3   4
HETATM    4  C   UNL     1     -11.979   9.757  71.243  1.00  0.00    -0.471 A  
HETATM    5  O   UNL     1     -12.611  13.711  70.124  1.00  0.00    -0.262 OA 
HETATM    6  H   UNL     1     -12.200  14.055  69.339  1.00  0.00     0.000 HD 
HETATM    7  C   UNL     1     -12.787  10.586  72.037  1.00  0.00    -0.419 A  
HETATM    8  C   UNL     1     -12.399  12.425  70.530  1.00  0.00    -0.262 A  
HETATM    9  C   UNL     1     -11.357  10.293  70.107  1.00  0.00    -0.388 A  
HETATM   10  C   UNL     1     -11.571  11.627  69.750  1.00  0.00    -0.389 A  
HETATM   11  C   UNL     1     -13.001  11.922  71.678  1.00  0.00    -0.447 A  
ENDBRANCH   3   4
BRANCH   3  12
HETATM   12  C   UNL     1     -10.591   7.685  71.947  1.00  0.00    -0.257 C  
HETATM   13  C   UNL     1      -9.654   8.436  72.568  1.00  0.00    -0.358 C  
HETATM   14  C   UNL     1      -8.325   8.008  73.108  1.00  0.00    -0.253 C  
BRANCH  12  15
HETATM   15  C   UNL     1     -10.346   6.238  71.750  1.00  0.00    -0.240 A  
HETATM   16  C   UNL     1      -9.725   3.527  71.445  1.00  0.00    -0.166 A  
HETATM   17  C   UNL     1     -10.479   5.348  72.830  1.00  0.00    -0.255 A  
HETATM   18  C   UNL     1     -10.166   3.993  72.680  1.00  0.00    -0.232 A  
HETATM   19  O   UNL     1      -9.376   2.220  71.261  1.00  0.00    -0.104 OA 
HETATM   20  C   UNL     1      -9.619   4.386  70.357  1.00  0.00    -0.266 A  
HETATM   21  H   UNL     1      -9.075   1.902  70.418  1.00  0.00     0.000 HD 
HETATM   22  C   UNL     1      -9.928   5.741  70.508  1.00  0.00    -0.252 A  
ENDBRANCH  12  15
ENDBRANCH   3  12
TORSDOF 3
ENDMDL
MODEL      130
REMARK 921   NORMALIZED FREE ENERGY PREDICTED BY IDOCK:   -5.09 KCAL/MOL
REMARK 922        TOTAL FREE ENERGY PREDICTED BY IDOCK:   -6.96 KCAL/MOL
REMARK 923 INTER-LIGAND FREE ENERGY PREDICTED BY IDOCK:   -5.81 KCAL/MOL
REMARK 924 INTRA-LIGAND FREE ENERGY PREDICTED BY IDOCK:   -1.15 KCAL/MOL
REMARK 927      BINDING AFFINITY PREDICTED BY RF-SCORE:    0.00 PKD
ROOT
HETATM    1  C   UNL     1     -10.792  10.806  69.396  1.00  0.00    -0.289 C  
HETATM    2  C   UNL     1     -10.266   9.501  69.908  1.00  0.00    -0.261 C  
HETATM    3  C   UNL     1     -10.512  11.389  68.207  1.00  0.00    -0.221 C  
ENDROOT
BRANCH   3   4
HETATM    4  C   UNL     1      -9.586  10.694  67.285  1.00  0.00    -0.186 A  
HETATM    5  O   UNL     1      -7.078   9.019  64.425  1.00  0.00    -0.088 OA 
HETATM    6  H   UNL     1      -7.409   8.353  63.833  1.00  0.00     0.000 HD 
HETATM    7  C   UNL     1      -8.245  11.102  67.208  1.00  0.00    -0.136 A  
HETATM    8  C   UNL     1      -7.870   9.566  65.391  1.00  0.00    -0.109 A  
HETATM    9  C   UNL     1     -10.045   9.689  66.424  1.00  0.00    -0.317 A  
HETATM   10  C   UNL     1      -9.187   9.128  65.474  1.00  0.00    -0.287 A  
HETATM   11  C   UNL     1      -7.386  10.540  66.257  1.00  0.00    -0.133 A  
ENDBRANCH   3   4
BRANCH   3  12
HETATM   12  C   UNL     1     -11.174  12.660  67.860  1.00  0.00    -0.310 C  
HETATM   13  C   UNL     1     -11.703  12.802  66.623  1.00  0.00    -0.459 C  
HETATM   14  C   UNL     1     -12.474  13.959  66.067  1.00  0.00    -0.501 C  
BRANCH  12  15
HETATM   15  C   UNL     1     -11.349  13.747  68.851  1.00  0.00    -0.328 A  
HETATM   16  C   UNL     1     -11.579  15.708  70.832  1.00  0.00    -0.389 A  
HETATM   17  C   UNL     1     -10.348  14.719  69.013  1.00  0.00    -0.243 A  
HETATM   18  C   UNL     1     -10.460  15.699  70.005  1.00  0.00    -0.333 A  
HETATM   19  O   UNL     1     -11.715  16.625  71.834  1.00  0.00    -0.633 OA 
HETATM   20  C   UNL     1     -12.595  14.775  70.665  1.00  0.00    -0.414 A  
HETATM   21  H   UNL     1     -12.479  16.632  72.398  1.00  0.00     0.000 HD 
HETATM   22  C   UNL     1     -12.481  13.793  69.675  1.00  0.00    -0.176 A  
ENDBRANCH  12  15
ENDBRANCH   3  12
TORSDOF 3
ENDMDL
MODEL      131
REMARK 921   NORMALIZED FREE ENERGY PREDICTED BY IDOCK:   -5.08 KCAL/MOL
REMARK 922        TOTAL FREE ENERGY PREDICTED BY IDOCK:   -6.95 KCAL/MOL
REMARK 923 INTER-LIGAND FREE ENERGY PREDICTED BY IDOCK:   -5.77 KCAL/MOL
REMARK 924 INTRA-LIGAND FREE ENERGY PREDICTED BY IDOCK:   -1.18 KCAL/MOL
REMARK 927      BINDING AFFINITY PREDICTED BY RF-SCORE:    0.00 PKD
ROOT
HETATM    1  C   UNL     1     -12.016  12.708  65.822  1.00  0.00    -0.503 C  
HETATM    2  C   UNL     1     -12.374  13.656  64.720  1.00  0.00    -0.429 C  
HETATM    3  C   UNL     1     -11.237  12.965  66.900  1.00  0.00    -0.331 C  
ENDROOT
BRANCH   3   4
HETATM    4  C   UNL     1     -10.652  14.317  67.037  1.00  0.00    -0.280 A  
HETATM    5  O   UNL     1      -9.244  18.227  67.121  1.00  0.00    -0.257 OA 
HETATM    6  H   UNL     1      -8.492  18.474  66.594  1.00  0.00     0.000 HD 
HETATM    7  C   UNL     1     -11.278  15.266  67.859  1.00  0.00    -0.333 A  
HETATM    8  C   UNL     1      -9.711  16.945  67.134  1.00  0.00    -0.253 A  
HETATM    9  C   UNL     1      -9.527  14.694  66.291  1.00  0.00    -0.322 A  
HETATM   10  C   UNL     1      -9.059  16.010  66.339  1.00  0.00    -0.354 A  
HETATM   11  C   UNL     1     -10.810  16.584  67.906  1.00  0.00    -0.326 A  
ENDBRANCH   3   4
BRANCH   3  12
HETATM   12  C   UNL     1     -11.043  11.909  67.910  1.00  0.00    -0.297 C  
HETATM   13  C   UNL     1     -11.775  11.952  69.046  1.00  0.00    -0.391 C  
HETATM   14  C   UNL     1     -11.805  10.968  70.174  1.00  0.00    -0.441 C  
BRANCH  12  15
HETATM   15  C   UNL     1     -10.134  10.762  67.677  1.00  0.00    -0.205 A  
HETATM   16  C   UNL     1      -8.479   8.527  67.385  1.00  0.00    -0.127 A  
HETATM   17  C   UNL     1     -10.635   9.570  67.128  1.00  0.00    -0.295 A  
HETATM   18  C   UNL     1      -9.809   8.450  66.983  1.00  0.00    -0.296 A  
HETATM   19  O   UNL     1      -7.645   7.450  67.293  1.00  0.00    -0.103 OA 
HETATM   20  C   UNL     1      -7.958   9.708  67.900  1.00  0.00    -0.098 A  
HETATM   21  H   UNL     1      -6.737   7.502  67.567  1.00  0.00     0.000 HD 
HETATM   22  C   UNL     1      -8.785  10.826  68.047  1.00  0.00    -0.132 A  
ENDBRANCH  12  15
ENDBRANCH   3  12
TORSDOF 3
ENDMDL
MODEL      132
REMARK 921   NORMALIZED FREE ENERGY PREDICTED BY IDOCK:   -5.08 KCAL/MOL
REMARK 922        TOTAL FREE ENERGY PREDICTED BY IDOCK:   -6.95 KCAL/MOL
REMARK 923 INTER-LIGAND FREE ENERGY PREDICTED BY IDOCK:   -5.58 KCAL/MOL
REMARK 924 INTRA-LIGAND FREE ENERGY PREDICTED BY IDOCK:   -1.36 KCAL/MOL
REMARK 927      BINDING AFFINITY PREDICTED BY RF-SCORE:    0.00 PKD
ROOT
HETATM    1  C   UNL     1      -9.301   9.316  66.267  1.00  0.00    -0.257 C  
HETATM    2  C   UNL     1      -9.551   9.735  64.851  1.00  0.00    -0.316 C  
HETATM    3  C   UNL     1      -9.472  10.065  67.382  1.00  0.00    -0.176 C  
ENDROOT
BRANCH   3   4
HETATM    4  C   UNL     1      -9.953  11.456  67.227  1.00  0.00    -0.217 A  
HETATM    5  O   UNL     1     -11.328  15.378  67.188  1.00  0.00    -0.305 OA 
HETATM    6  H   UNL     1     -12.261  15.555  67.149  1.00  0.00     0.000 HD 
HETATM    7  C   UNL     1      -9.035  12.517  67.255  1.00  0.00    -0.192 A  
HETATM    8  C   UNL     1     -10.847  14.102  67.175  1.00  0.00    -0.290 A  
HETATM    9  C   UNL     1     -11.322  11.739  67.137  1.00  0.00    -0.387 A  
HETATM   10  C   UNL     1     -11.768  13.063  67.114  1.00  0.00    -0.439 A  
HETATM   11  C   UNL     1      -9.482  13.843  67.233  1.00  0.00    -0.239 A  
ENDBRANCH   3   4
BRANCH   3  12
HETATM   12  C   UNL     1      -9.218   9.454  68.700  1.00  0.00    -0.131 C  
HETATM   13  C   UNL     1      -7.940   9.227  69.077  1.00  0.00    -0.097 C  
HETATM   14  C   UNL     1      -7.433   8.688  70.379  1.00  0.00    -0.069 C  
BRANCH  12  15
HETATM   15  C   UNL     1     -10.316   9.163  69.652  1.00  0.00    -0.226 A  
HETATM   16  C   UNL     1     -12.271   8.616  71.575  1.00  0.00    -0.318 A  
HETATM   17  C   UNL     1     -10.879  10.201  70.413  1.00  0.00    -0.365 A  
HETATM   18  C   UNL     1     -11.855   9.928  71.377  1.00  0.00    -0.476 A  
HETATM   19  O   UNL     1     -13.197   8.298  72.527  1.00  0.00    -0.560 OA 
HETATM   20  C   UNL     1     -11.749   7.580  70.808  1.00  0.00    -0.281 A  
HETATM   21  H   UNL     1     -13.481   7.402  72.662  1.00  0.00     0.000 HD 
HETATM   22  C   UNL     1     -10.771   7.853  69.846  1.00  0.00    -0.244 A  
ENDBRANCH  12  15
ENDBRANCH   3  12
TORSDOF 3
ENDMDL
MODEL      133
REMARK 921   NORMALIZED FREE ENERGY PREDICTED BY IDOCK:   -5.07 KCAL/MOL
REMARK 922        TOTAL FREE ENERGY PREDICTED BY IDOCK:   -6.93 KCAL/MOL
REMARK 923 INTER-LIGAND FREE ENERGY PREDICTED BY IDOCK:   -6.20 KCAL/MOL
REMARK 924 INTRA-LIGAND FREE ENERGY PREDICTED BY IDOCK:   -0.73 KCAL/MOL
REMARK 927      BINDING AFFINITY PREDICTED BY RF-SCORE:    0.00 PKD
ROOT
HETATM    1  C   UNL     1      -8.893   9.294  70.181  1.00  0.00    -0.235 C  
HETATM    2  C   UNL     1      -8.584   8.728  71.532  1.00  0.00    -0.253 C  
HETATM    3  C   UNL     1     -10.113   9.611  69.687  1.00  0.00    -0.242 C  
ENDROOT
BRANCH   3   4
HETATM    4  C   UNL     1     -11.298   9.383  70.544  1.00  0.00    -0.328 A  
HETATM    5  O   UNL     1     -14.376   8.731  73.260  1.00  0.00    -1.125 OA 
HETATM    6  H   UNL     1     -14.643   7.844  73.473  1.00  0.00     0.000 HD 
HETATM    7  C   UNL     1     -11.952  10.476  71.133  1.00  0.00    -0.435 A  
HETATM    8  C   UNL     1     -13.388   8.976  72.352  1.00  0.00    -0.460 A  
HETATM    9  C   UNL     1     -11.729   8.084  70.847  1.00  0.00    -0.265 A  
HETATM   10  C   UNL     1     -12.772   7.882  71.754  1.00  0.00    -0.353 A  
HETATM   11  C   UNL     1     -12.996  10.273  72.042  1.00  0.00    -0.503 A  
ENDBRANCH   3   4
BRANCH   3  12
HETATM   12  C   UNL     1     -10.208  10.210  68.343  1.00  0.00    -0.192 C  
HETATM   13  C   UNL     1     -11.148  11.156  68.117  1.00  0.00    -0.324 C  
HETATM   14  C   UNL     1     -11.391  11.949  66.870  1.00  0.00    -0.392 C  
BRANCH  12  15
HETATM   15  C   UNL     1      -9.251   9.868  67.265  1.00  0.00    -0.156 A  
HETATM   16  C   UNL     1      -7.522   9.340  65.131  1.00  0.00    -0.105 A  
HETATM   17  C   UNL     1      -8.130  10.683  67.037  1.00  0.00    -0.120 A  
HETATM   18  C   UNL     1      -7.265  10.422  65.968  1.00  0.00    -0.134 A  
HETATM   19  O   UNL     1      -6.725   9.067  64.057  1.00  0.00    -0.086 OA 
HETATM   20  C   UNL     1      -8.608   8.504  65.362  1.00  0.00    -0.202 A  
HETATM   21  H   UNL     1      -6.900   8.329  63.486  1.00  0.00     0.000 HD 
HETATM   22  C   UNL     1      -9.474   8.767  66.428  1.00  0.00    -0.291 A  
ENDBRANCH  12  15
ENDBRANCH   3  12
TORSDOF 3
ENDMDL
MODEL      134
REMARK 921   NORMALIZED FREE ENERGY PREDICTED BY IDOCK:   -5.06 KCAL/MOL
REMARK 922        TOTAL FREE ENERGY PREDICTED BY IDOCK:   -6.93 KCAL/MOL
REMARK 923 INTER-LIGAND FREE ENERGY PREDICTED BY IDOCK:   -5.67 KCAL/MOL
REMARK 924 INTRA-LIGAND FREE ENERGY PREDICTED BY IDOCK:   -1.26 KCAL/MOL
REMARK 927      BINDING AFFINITY PREDICTED BY RF-SCORE:    0.00 PKD
ROOT
HETATM    1  C   UNL     1     -12.155  14.150  66.120  1.00  0.00    -0.454 C  
HETATM    2  C   UNL     1     -12.278  13.331  64.873  1.00  0.00    -0.466 C  
HETATM    3  C   UNL     1     -11.576  13.780  67.287  1.00  0.00    -0.391 C  
ENDROOT
BRANCH   3   4
HETATM    4  C   UNL     1     -10.993  12.424  67.381  1.00  0.00    -0.296 A  
HETATM    5  O   UNL     1      -9.493   8.548  67.281  1.00  0.00    -0.146 OA 
HETATM    6  H   UNL     1     -10.026   7.823  67.586  1.00  0.00     0.000 HD 
HETATM    7  C   UNL     1      -9.691  12.192  66.912  1.00  0.00    -0.213 A  
HETATM    8  C   UNL     1      -9.949   9.833  67.328  1.00  0.00    -0.191 A  
HETATM    9  C   UNL     1     -11.751  11.345  67.856  1.00  0.00    -0.300 A  
HETATM   10  C   UNL     1     -11.228  10.049  67.825  1.00  0.00    -0.137 A  
HETATM   11  C   UNL     1      -9.168  10.894  66.881  1.00  0.00    -0.175 A  
ENDBRANCH   3   4
BRANCH   3  12
HETATM   12  C   UNL     1     -11.509  14.753  68.393  1.00  0.00    -0.336 C  
HETATM   13  C   UNL     1     -12.407  14.658  69.399  1.00  0.00    -0.199 C  
HETATM   14  C   UNL     1     -12.496  15.477  70.649  1.00  0.00    -0.483 C  
BRANCH  12  15
HETATM   15  C   UNL     1     -10.437  15.772  68.473  1.00  0.00    -0.236 A  
HETATM   16  C   UNL     1      -8.433  17.697  68.796  1.00  0.00    -0.213 A  
HETATM   17  C   UNL     1      -9.129  15.392  68.819  1.00  0.00    -0.207 A  
HETATM   18  C   UNL     1      -8.127  16.353  68.984  1.00  0.00    -0.223 A  
HETATM   19  O   UNL     1      -7.496  18.673  68.979  1.00  0.00    -0.287 OA 
HETATM   20  C   UNL     1      -9.713  18.090  68.421  1.00  0.00    -0.348 A  
HETATM   21  H   UNL     1      -7.704  19.590  68.850  1.00  0.00     0.000 HD 
HETATM   22  C   UNL     1     -10.715  17.128  68.260  1.00  0.00    -0.363 A  
ENDBRANCH  12  15
ENDBRANCH   3  12
TORSDOF 3
ENDMDL
MODEL      135
REMARK 921   NORMALIZED FREE ENERGY PREDICTED BY IDOCK:   -5.05 KCAL/MOL
REMARK 922        TOTAL FREE ENERGY PREDICTED BY IDOCK:   -6.92 KCAL/MOL
REMARK 923 INTER-LIGAND FREE ENERGY PREDICTED BY IDOCK:   -5.61 KCAL/MOL
REMARK 924 INTRA-LIGAND FREE ENERGY PREDICTED BY IDOCK:   -1.31 KCAL/MOL
REMARK 927      BINDING AFFINITY PREDICTED BY RF-SCORE:    0.00 PKD
ROOT
HETATM    1  C   UNL     1      -9.792   5.719  68.046  1.00  0.00    -0.155 C  
HETATM    2  C   UNL     1      -9.656   5.586  66.561  1.00  0.00    -0.169 C  
HETATM    3  C   UNL     1      -9.697   6.856  68.776  1.00  0.00    -0.137 C  
ENDROOT
BRANCH   3   4
HETATM    4  C   UNL     1      -9.423   8.125  68.066  1.00  0.00    -0.155 A  
HETATM    5  O   UNL     1      -8.595  11.473  65.745  1.00  0.00    -0.368 OA 
HETATM    6  H   UNL     1      -7.703  11.792  65.671  1.00  0.00     0.000 HD 
HETATM    7  C   UNL     1     -10.467   8.793  67.407  1.00  0.00    -0.349 A  
HETATM    8  C   UNL     1      -8.900  10.393  66.521  1.00  0.00    -0.138 A  
HETATM    9  C   UNL     1      -8.120   8.630  67.969  1.00  0.00    -0.111 A  
HETATM   10  C   UNL     1      -7.859   9.763  67.193  1.00  0.00    -0.099 A  
HETATM   11  C   UNL     1     -10.206   9.927  66.630  1.00  0.00    -0.293 A  
ENDBRANCH   3   4
BRANCH   3  12
HETATM   12  C   UNL     1      -9.914   6.791  70.233  1.00  0.00    -0.192 C  
HETATM   13  C   UNL     1      -8.959   6.229  71.008  1.00  0.00    -0.143 C  
HETATM   14  C   UNL     1      -8.921   6.111  72.500  1.00  0.00    -0.134 C  
BRANCH  12  15
HETATM   15  C   UNL     1     -11.103   7.398  70.874  1.00  0.00    -0.283 A  
HETATM   16  C   UNL     1     -13.289   8.488  72.237  1.00  0.00    -0.323 A  
HETATM   17  C   UNL     1     -10.998   8.646  71.510  1.00  0.00    -0.360 A  
HETATM   18  C   UNL     1     -12.089   9.192  72.195  1.00  0.00    -0.389 A  
HETATM   19  O   UNL     1     -14.370   8.965  72.921  1.00  0.00    -1.050 OA 
HETATM   20  C   UNL     1     -13.421   7.267  71.586  1.00  0.00    -0.428 A  
HETATM   21  H   UNL     1     -15.189   8.485  72.950  1.00  0.00     0.000 HD 
HETATM   22  C   UNL     1     -12.328   6.721  70.905  1.00  0.00    -0.336 A  
ENDBRANCH  12  15
ENDBRANCH   3  12
TORSDOF 3
ENDMDL
MODEL      136
REMARK 921   NORMALIZED FREE ENERGY PREDICTED BY IDOCK:   -5.05 KCAL/MOL
REMARK 922        TOTAL FREE ENERGY PREDICTED BY IDOCK:   -6.92 KCAL/MOL
REMARK 923 INTER-LIGAND FREE ENERGY PREDICTED BY IDOCK:   -5.63 KCAL/MOL
REMARK 924 INTRA-LIGAND FREE ENERGY PREDICTED BY IDOCK:   -1.29 KCAL/MOL
REMARK 927      BINDING AFFINITY PREDICTED BY RF-SCORE:    0.00 PKD
ROOT
HETATM    1  C   UNL     1     -11.646  11.282  68.840  1.00  0.00    -0.386 C  
HETATM    2  C   UNL     1     -11.916  11.572  70.284  1.00  0.00    -0.455 C  
HETATM    3  C   UNL     1     -11.195  12.150  67.903  1.00  0.00    -0.329 C  
ENDROOT
BRANCH   3   4
HETATM    4  C   UNL     1     -10.932  13.548  68.310  1.00  0.00    -0.280 A  
HETATM    5  O   UNL     1     -10.175  17.565  69.065  1.00  0.00    -0.345 OA 
HETATM    6  H   UNL     1      -9.280  17.872  69.153  1.00  0.00     0.000 HD 
HETATM    7  C   UNL     1     -12.002  14.444  68.452  1.00  0.00    -0.328 A  
HETATM    8  C   UNL     1     -10.454  16.248  68.845  1.00  0.00    -0.273 A  
HETATM    9  C   UNL     1      -9.621  14.016  68.474  1.00  0.00    -0.201 A  
HETATM   10  C   UNL     1      -9.384  15.368  68.738  1.00  0.00    -0.209 A  
HETATM   11  C   UNL     1     -11.764  15.798  68.716  1.00  0.00    -0.387 A  
ENDBRANCH   3   4
BRANCH   3  12
HETATM   12  C   UNL     1     -10.941  11.658  66.536  1.00  0.00    -0.349 C  
HETATM   13  C   UNL     1     -11.677  12.158  65.518  1.00  0.00    -0.384 C  
HETATM   14  C   UNL     1     -11.559  11.869  64.054  1.00  0.00    -0.476 C  
BRANCH  12  15
HETATM   15  C   UNL     1      -9.849  10.702  66.239  1.00  0.00    -0.263 A  
HETATM   16  C   UNL     1      -7.813   8.928  65.511  1.00  0.00    -0.100 A  
HETATM   17  C   UNL     1      -8.561  11.177  65.942  1.00  0.00    -0.135 A  
HETATM   18  C   UNL     1      -7.542  10.291  65.574  1.00  0.00    -0.149 A  
HETATM   19  O   UNL     1      -6.860   8.030  65.125  1.00  0.00    -0.057 OA 
HETATM   20  C   UNL     1      -9.073   8.437  65.834  1.00  0.00    -0.225 A  
HETATM   21  H   UNL     1      -7.044   7.100  65.082  1.00  0.00     0.000 HD 
HETATM   22  C   UNL     1     -10.092   9.324  66.198  1.00  0.00    -0.304 A  
ENDBRANCH  12  15
ENDBRANCH   3  12
TORSDOF 3
ENDMDL
MODEL      137
REMARK 921   NORMALIZED FREE ENERGY PREDICTED BY IDOCK:   -5.05 KCAL/MOL
REMARK 922        TOTAL FREE ENERGY PREDICTED BY IDOCK:   -6.91 KCAL/MOL
REMARK 923 INTER-LIGAND FREE ENERGY PREDICTED BY IDOCK:   -5.58 KCAL/MOL
REMARK 924 INTRA-LIGAND FREE ENERGY PREDICTED BY IDOCK:   -1.33 KCAL/MOL
REMARK 927      BINDING AFFINITY PREDICTED BY RF-SCORE:    0.00 PKD
ROOT
HETATM    1  C   UNL     1     -11.767  12.000  69.212  1.00  0.00    -0.389 C  
HETATM    2  C   UNL     1     -11.792  10.928  70.257  1.00  0.00    -0.450 C  
HETATM    3  C   UNL     1     -11.059  11.999  68.058  1.00  0.00    -0.292 C  
ENDROOT
BRANCH   3   4
HETATM    4  C   UNL     1     -10.200  10.832  67.762  1.00  0.00    -0.212 A  
HETATM    5  O   UNL     1      -7.723   7.712  66.573  1.00  0.00    -0.093 OA 
HETATM    6  H   UNL     1      -8.091   6.950  66.142  1.00  0.00     0.000 HD 
HETATM    7  C   UNL     1      -8.821  10.901  68.015  1.00  0.00    -0.135 A  
HETATM    8  C   UNL     1      -8.515   8.738  66.999  1.00  0.00    -0.109 A  
HETATM    9  C   UNL     1     -10.727   9.685  67.153  1.00  0.00    -0.258 A  
HETATM   10  C   UNL     1      -9.882   8.640  66.769  1.00  0.00    -0.322 A  
HETATM   11  C   UNL     1      -7.976   9.854  67.629  1.00  0.00    -0.109 A  
ENDBRANCH   3   4
BRANCH   3  12
HETATM   12  C   UNL     1     -11.208  13.133  67.126  1.00  0.00    -0.326 C  
HETATM   13  C   UNL     1     -12.003  12.984  66.043  1.00  0.00    -0.498 C  
HETATM   14  C   UNL     1     -12.362  14.001  65.004  1.00  0.00    -0.458 C  
BRANCH  12  15
HETATM   15  C   UNL     1     -10.582  14.449  67.390  1.00  0.00    -0.270 A  
HETATM   16  C   UNL     1      -9.309  16.860  68.014  1.00  0.00    -0.238 A  
HETATM   17  C   UNL     1      -9.302  14.732  66.885  1.00  0.00    -0.256 A  
HETATM   18  C   UNL     1      -8.662  15.936  67.199  1.00  0.00    -0.223 A  
HETATM   19  O   UNL     1      -8.710  18.033  68.373  1.00  0.00    -0.282 OA 
HETATM   20  C   UNL     1     -10.589  16.611  68.495  1.00  0.00    -0.338 A  
HETATM   21  H   UNL     1      -9.151  18.664  68.929  1.00  0.00     0.000 HD 
HETATM   22  C   UNL     1     -11.226  15.406  68.184  1.00  0.00    -0.326 A  
ENDBRANCH  12  15
ENDBRANCH   3  12
TORSDOF 3
ENDMDL
MODEL      138
REMARK 921   NORMALIZED FREE ENERGY PREDICTED BY IDOCK:   -5.04 KCAL/MOL
REMARK 922        TOTAL FREE ENERGY PREDICTED BY IDOCK:   -6.90 KCAL/MOL
REMARK 923 INTER-LIGAND FREE ENERGY PREDICTED BY IDOCK:   -5.31 KCAL/MOL
REMARK 924 INTRA-LIGAND FREE ENERGY PREDICTED BY IDOCK:   -1.59 KCAL/MOL
REMARK 927      BINDING AFFINITY PREDICTED BY RF-SCORE:    0.00 PKD
ROOT
HETATM    1  C   UNL     1     -11.160   8.591  72.131  1.00  0.00    -0.436 C  
HETATM    2  C   UNL     1     -11.077   7.374  72.999  1.00  0.00    -0.390 C  
HETATM    3  C   UNL     1     -10.794   8.694  70.831  1.00  0.00    -0.288 C  
ENDROOT
BRANCH   3   4
HETATM    4  C   UNL     1     -10.243   7.496  70.160  1.00  0.00    -0.206 A  
HETATM    5  O   UNL     1      -8.665   4.352  67.945  1.00  0.00    -0.101 OA 
HETATM    6  H   UNL     1      -9.244   3.767  67.471  1.00  0.00     0.000 HD 
HETATM    7  C   UNL     1      -8.855   7.292  70.130  1.00  0.00    -0.145 A  
HETATM    8  C   UNL     1      -9.157   5.376  68.702  1.00  0.00    -0.115 A  
HETATM    9  C   UNL     1     -11.081   6.603  69.479  1.00  0.00    -0.378 A  
HETATM   10  C   UNL     1     -10.535   5.544  68.747  1.00  0.00    -0.261 A  
HETATM   11  C   UNL     1      -8.310   6.232  69.396  1.00  0.00    -0.121 A  
ENDBRANCH   3   4
BRANCH   3  12
HETATM   12  C   UNL     1     -11.002   9.974  70.129  1.00  0.00    -0.368 C  
HETATM   13  C   UNL     1     -11.810  10.901  70.691  1.00  0.00    -0.453 C  
HETATM   14  C   UNL     1     -12.118  12.284  70.208  1.00  0.00    -0.376 C  
BRANCH  12  15
HETATM   15  C   UNL     1     -10.286  10.303  68.874  1.00  0.00    -0.221 A  
HETATM   16  C   UNL     1      -8.976  11.089  66.531  1.00  0.00    -0.173 A  
HETATM   17  C   UNL     1      -8.981  10.821  68.925  1.00  0.00    -0.158 A  
HETATM   18  C   UNL     1      -8.326  11.217  67.755  1.00  0.00    -0.125 A  
HETATM   19  O   UNL     1      -8.388  11.493  65.367  1.00  0.00    -0.358 OA 
HETATM   20  C   UNL     1     -10.255  10.548  66.458  1.00  0.00    -0.288 A  
HETATM   21  H   UNL     1      -8.832  11.406  64.532  1.00  0.00     0.000 HD 
HETATM   22  C   UNL     1     -10.911  10.155  67.629  1.00  0.00    -0.346 A  
ENDBRANCH  12  15
ENDBRANCH   3  12
TORSDOF 3
ENDMDL
MODEL      139
REMARK 921   NORMALIZED FREE ENERGY PREDICTED BY IDOCK:   -5.01 KCAL/MOL
REMARK 922        TOTAL FREE ENERGY PREDICTED BY IDOCK:   -6.87 KCAL/MOL
REMARK 923 INTER-LIGAND FREE ENERGY PREDICTED BY IDOCK:   -5.48 KCAL/MOL
REMARK 924 INTRA-LIGAND FREE ENERGY PREDICTED BY IDOCK:   -1.38 KCAL/MOL
REMARK 927      BINDING AFFINITY PREDICTED BY RF-SCORE:    0.00 PKD
ROOT
HETATM    1  C   UNL     1      -7.135  17.343  66.016  1.00  0.00    -0.259 C  
HETATM    2  C   UNL     1      -6.653  18.645  65.457  1.00  0.00    -0.307 C  
HETATM    3  C   UNL     1      -7.221  16.997  67.322  1.00  0.00    -0.190 C  
ENDROOT
BRANCH   3   4
HETATM    4  C   UNL     1      -6.797  17.984  68.339  1.00  0.00    -0.225 A  
HETATM    5  O   UNL     1      -5.809  20.543  71.463  1.00  0.00    -0.594 OA 
HETATM    6  H   UNL     1      -6.371  21.280  71.670  1.00  0.00     0.000 HD 
HETATM    7  C   UNL     1      -5.623  17.765  69.075  1.00  0.00    -0.184 A  
HETATM    8  C   UNL     1      -6.094  19.703  70.426  1.00  0.00    -0.237 A  
HETATM    9  C   UNL     1      -7.596  19.096  68.641  1.00  0.00    -0.381 A  
HETATM   10  C   UNL     1      -7.244  19.953  69.688  1.00  0.00    -0.081 A  
HETATM   11  C   UNL     1      -5.271  18.623  70.123  1.00  0.00    -0.213 A  
ENDBRANCH   3   4
BRANCH   3  12
HETATM   12  C   UNL     1      -7.774  15.677  67.678  1.00  0.00    -0.176 C  
HETATM   13  C   UNL     1      -6.993  14.583  67.529  1.00  0.00    -0.188 C  
HETATM   14  C   UNL     1      -7.303  13.161  67.882  1.00  0.00    -0.131 C  
BRANCH  12  15
HETATM   15  C   UNL     1      -9.123  15.528  68.272  1.00  0.00    -0.186 A  
HETATM   16  C   UNL     1     -11.699  15.412  69.355  1.00  0.00    -0.351 A  
HETATM   17  C   UNL     1     -10.238  15.330  67.441  1.00  0.00    -0.243 A  
HETATM   18  C   UNL     1     -11.528  15.275  67.981  1.00  0.00    -0.351 A  
HETATM   19  O   UNL     1     -12.941  15.398  69.922  1.00  0.00    -0.635 OA 
HETATM   20  C   UNL     1     -10.604  15.575  70.196  1.00  0.00    -0.336 A  
HETATM   21  H   UNL     1     -13.058  15.491  70.860  1.00  0.00     0.000 HD 
HETATM   22  C   UNL     1      -9.315  15.633  69.655  1.00  0.00    -0.217 A  
ENDBRANCH  12  15
ENDBRANCH   3  12
TORSDOF 3
ENDMDL
MODEL      140
REMARK 921   NORMALIZED FREE ENERGY PREDICTED BY IDOCK:   -5.00 KCAL/MOL
REMARK 922        TOTAL FREE ENERGY PREDICTED BY IDOCK:   -6.85 KCAL/MOL
REMARK 923 INTER-LIGAND FREE ENERGY PREDICTED BY IDOCK:   -6.89 KCAL/MOL
REMARK 924 INTRA-LIGAND FREE ENERGY PREDICTED BY IDOCK:    0.04 KCAL/MOL
REMARK 927      BINDING AFFINITY PREDICTED BY RF-SCORE:    0.00 PKD
ROOT
HETATM    1  C   UNL     1      -8.107  15.125  69.313  1.00  0.00    -0.217 C  
HETATM    2  C   UNL     1      -6.772  15.768  69.102  1.00  0.00    -0.154 C  
HETATM    3  C   UNL     1      -9.315  15.609  68.939  1.00  0.00    -0.223 C  
ENDROOT
BRANCH   3   4
HETATM    4  C   UNL     1      -9.364  16.916  68.249  1.00  0.00    -0.248 A  
HETATM    5  O   UNL     1      -9.142  20.662  66.459  1.00  0.00    -0.575 OA 
HETATM    6  H   UNL     1      -9.464  21.429  66.919  1.00  0.00     0.000 HD 
HETATM    7  C   UNL     1      -8.828  17.042  66.958  1.00  0.00    -0.242 A  
HETATM    8  C   UNL     1      -9.227  19.417  67.010  1.00  0.00    -0.318 A  
HETATM    9  C   UNL     1      -9.862  18.055  68.896  1.00  0.00    -0.321 A  
HETATM   10  C   UNL     1      -9.790  19.306  68.276  1.00  0.00    -0.482 A  
HETATM   11  C   UNL     1      -8.755  18.295  66.338  1.00  0.00    -0.260 A  
ENDBRANCH   3   4
BRANCH   3  12
HETATM   12  C   UNL     1     -10.520  14.798  69.192  1.00  0.00    -0.243 C  
HETATM   13  C   UNL     1     -10.755  13.721  68.410  1.00  0.00    -0.266 C  
HETATM   14  C   UNL     1     -11.861  12.716  68.515  1.00  0.00    -0.342 C  
BRANCH  12  15
HETATM   15  C   UNL     1     -11.429  15.080  70.328  1.00  0.00    -0.308 A  
HETATM   16  C   UNL     1     -13.235  15.715  72.367  1.00  0.00    -0.474 A  
HETATM   17  C   UNL     1     -12.656  14.404  70.431  1.00  0.00    -0.405 A  
HETATM   18  C   UNL     1     -13.562  14.722  71.448  1.00  0.00    -0.493 A  
HETATM   19  O   UNL     1     -14.101  16.082  73.356  1.00  0.00    -0.676 OA 
HETATM   20  C   UNL     1     -12.011  16.372  72.300  1.00  0.00    -0.521 A  
HETATM   21  H   UNL     1     -13.879  16.760  73.984  1.00  0.00     0.000 HD 
HETATM   22  C   UNL     1     -11.108  16.055  71.281  1.00  0.00    -0.126 A  
ENDBRANCH  12  15
ENDBRANCH   3  12
TORSDOF 3
ENDMDL
MODEL      141
REMARK 921   NORMALIZED FREE ENERGY PREDICTED BY IDOCK:   -4.98 KCAL/MOL
REMARK 922        TOTAL FREE ENERGY PREDICTED BY IDOCK:   -6.84 KCAL/MOL
REMARK 923 INTER-LIGAND FREE ENERGY PREDICTED BY IDOCK:   -5.56 KCAL/MOL
REMARK 924 INTRA-LIGAND FREE ENERGY PREDICTED BY IDOCK:   -1.28 KCAL/MOL
REMARK 927      BINDING AFFINITY PREDICTED BY RF-SCORE:    0.00 PKD
ROOT
HETATM    1  C   UNL     1      -8.553   9.326  69.399  1.00  0.00    -0.142 C  
HETATM    2  C   UNL     1      -7.694  10.510  69.078  1.00  0.00    -0.125 C  
HETATM    3  C   UNL     1      -9.848   9.139  69.051  1.00  0.00    -0.176 C  
ENDROOT
BRANCH   3   4
HETATM    4  C   UNL     1     -10.526  10.198  68.272  1.00  0.00    -0.244 A  
HETATM    5  O   UNL     1     -12.095  13.383  66.109  1.00  0.00    -0.399 OA 
HETATM    6  H   UNL     1     -12.543  14.089  66.560  1.00  0.00     0.000 HD 
HETATM    7  C   UNL     1     -10.406  10.218  66.874  1.00  0.00    -0.298 A  
HETATM    8  C   UNL     1     -11.594  12.312  66.790  1.00  0.00    -0.369 A  
HETATM    9  C   UNL     1     -11.219  11.233  68.913  1.00  0.00    -0.315 A  
HETATM   10  C   UNL     1     -11.750  12.292  68.171  1.00  0.00    -0.408 A  
HETATM   11  C   UNL     1     -10.937  11.279  66.131  1.00  0.00    -0.252 A  
ENDBRANCH   3   4
BRANCH   3  12
HETATM   12  C   UNL     1     -10.512   7.874  69.420  1.00  0.00    -0.222 C  
HETATM   13  C   UNL     1     -11.368   7.870  70.466  1.00  0.00    -0.242 C  
HETATM   14  C   UNL     1     -12.204   6.740  70.982  1.00  0.00    -0.405 C  
BRANCH  12  15
HETATM   15  C   UNL     1     -10.333   6.637  68.626  1.00  0.00    -0.208 A  
HETATM   16  C   UNL     1      -9.841   4.360  67.078  1.00  0.00    -0.194 A  
HETATM   17  C   UNL     1      -9.558   5.581  69.134  1.00  0.00    -0.189 A  
HETATM   18  C   UNL     1      -9.309   4.443  68.361  1.00  0.00    -0.203 A  
HETATM   19  O   UNL     1      -9.597   3.283  66.275  1.00  0.00    -0.363 OA 
HETATM   20  C   UNL     1     -10.638   5.380  66.570  1.00  0.00    -0.353 A  
HETATM   21  H   UNL     1      -9.961   3.226  65.399  1.00  0.00     0.000 HD 
HETATM   22  C   UNL     1     -10.884   6.519  67.343  1.00  0.00    -0.449 A  
ENDBRANCH  12  15
ENDBRANCH   3  12
TORSDOF 3
ENDMDL
MODEL      142
REMARK 921   NORMALIZED FREE ENERGY PREDICTED BY IDOCK:   -4.94 KCAL/MOL
REMARK 922        TOTAL FREE ENERGY PREDICTED BY IDOCK:   -6.79 KCAL/MOL
REMARK 923 INTER-LIGAND FREE ENERGY PREDICTED BY IDOCK:   -5.42 KCAL/MOL
REMARK 924 INTRA-LIGAND FREE ENERGY PREDICTED BY IDOCK:   -1.37 KCAL/MOL
REMARK 927      BINDING AFFINITY PREDICTED BY RF-SCORE:    0.00 PKD
ROOT
HETATM    1  C   UNL     1      -9.693  16.724  66.758  1.00  0.00    -0.273 C  
HETATM    2  C   UNL     1      -8.568  17.711  66.808  1.00  0.00    -0.276 C  
HETATM    3  C   UNL     1      -9.704  15.472  67.275  1.00  0.00    -0.218 C  
ENDROOT
BRANCH   3   4
HETATM    4  C   UNL     1      -8.489  14.988  67.968  1.00  0.00    -0.149 A  
HETATM    5  O   UNL     1      -5.303  13.335  70.064  1.00  0.00    -0.087 OA 
HETATM    6  H   UNL     1      -5.118  13.620  70.952  1.00  0.00     0.000 HD 
HETATM    7  C   UNL     1      -7.678  14.021  67.355  1.00  0.00    -0.177 A  
HETATM    8  C   UNL     1      -6.325  13.880  69.343  1.00  0.00    -0.110 A  
HETATM    9  C   UNL     1      -8.180  15.417  69.266  1.00  0.00    -0.252 A  
HETATM   10  C   UNL     1      -7.099  14.859  69.953  1.00  0.00    -0.109 A  
HETATM   11  C   UNL     1      -6.596  13.462  68.044  1.00  0.00    -0.133 A  
ENDBRANCH   3   4
BRANCH   3  12
HETATM   12  C   UNL     1     -10.934  14.665  67.169  1.00  0.00    -0.316 C  
HETATM   13  C   UNL     1     -11.521  14.532  65.958  1.00  0.00    -0.348 C  
HETATM   14  C   UNL     1     -12.722  13.717  65.590  1.00  0.00    -0.523 C  
BRANCH  12  15
HETATM   15  C   UNL     1     -11.490  13.931  68.329  1.00  0.00    -0.346 A  
HETATM   16  C   UNL     1     -12.396  12.581  70.605  1.00  0.00    -0.282 A  
HETATM   17  C   UNL     1     -12.075  14.638  69.393  1.00  0.00    -0.317 A  
HETATM   18  C   UNL     1     -12.526  13.965  70.533  1.00  0.00    -0.422 A  
HETATM   19  O   UNL     1     -12.791  11.886  71.711  1.00  0.00    -0.358 OA 
HETATM   20  C   UNL     1     -11.850  11.862  69.548  1.00  0.00    -0.395 A  
HETATM   21  H   UNL     1     -12.703  10.942  71.761  1.00  0.00     0.000 HD 
HETATM   22  C   UNL     1     -11.396  12.536  68.410  1.00  0.00    -0.333 A  
ENDBRANCH  12  15
ENDBRANCH   3  12
TORSDOF 3
ENDMDL
MODEL      143
REMARK 921   NORMALIZED FREE ENERGY PREDICTED BY IDOCK:   -4.93 KCAL/MOL
REMARK 922        TOTAL FREE ENERGY PREDICTED BY IDOCK:   -6.77 KCAL/MOL
REMARK 923 INTER-LIGAND FREE ENERGY PREDICTED BY IDOCK:   -5.36 KCAL/MOL
REMARK 924 INTRA-LIGAND FREE ENERGY PREDICTED BY IDOCK:   -1.41 KCAL/MOL
REMARK 927      BINDING AFFINITY PREDICTED BY RF-SCORE:    0.00 PKD
ROOT
HETATM    1  C   UNL     1      -8.286   5.837  71.978  1.00  0.00    -0.122 C  
HETATM    2  C   UNL     1      -8.588   5.711  73.439  1.00  0.00    -0.115 C  
HETATM    3  C   UNL     1      -9.058   6.425  71.033  1.00  0.00    -0.154 C  
ENDROOT
BRANCH   3   4
HETATM    4  C   UNL     1     -10.349   7.016  71.448  1.00  0.00    -0.211 A  
HETATM    5  O   UNL     1     -14.053   8.734  72.229  1.00  0.00    -0.439 OA 
HETATM    6  H   UNL     1     -14.123   9.672  72.363  1.00  0.00     0.000 HD 
HETATM    7  C   UNL     1     -11.491   6.204  71.531  1.00  0.00    -0.325 A  
HETATM    8  C   UNL     1     -12.847   8.139  71.999  1.00  0.00    -0.318 A  
HETATM    9  C   UNL     1     -10.470   8.393  71.680  1.00  0.00    -0.321 A  
HETATM   10  C   UNL     1     -11.721   8.953  71.952  1.00  0.00    -0.439 A  
HETATM   11  C   UNL     1     -12.743   6.767  71.802  1.00  0.00    -0.342 A  
ENDBRANCH   3   4
BRANCH   3  12
HETATM   12  C   UNL     1      -8.561   6.495  69.646  1.00  0.00    -0.132 C  
HETATM   13  C   UNL     1      -7.323   6.990  69.423  1.00  0.00    -0.091 C  
HETATM   14  C   UNL     1      -6.582   7.097  68.126  1.00  0.00    -0.049 C  
BRANCH  12  15
HETATM   15  C   UNL     1      -9.344   5.960  68.508  1.00  0.00    -0.127 A  
HETATM   16  C   UNL     1     -10.691   4.996  66.254  1.00  0.00    -0.199 A  
HETATM   17  C   UNL     1      -9.058   4.683  67.997  1.00  0.00    -0.144 A  
HETATM   18  C   UNL     1      -9.729   4.200  66.868  1.00  0.00    -0.232 A  
HETATM   19  O   UNL     1     -11.348   4.580  65.132  1.00  0.00    -1.034 OA 
HETATM   20  C   UNL     1     -11.011   6.249  66.766  1.00  0.00    -0.328 A  
HETATM   21  H   UNL     1     -12.005   5.123  64.713  1.00  0.00     0.000 HD 
HETATM   22  C   UNL     1     -10.337   6.732  67.892  1.00  0.00    -0.236 A  
ENDBRANCH  12  15
ENDBRANCH   3  12
TORSDOF 3
ENDMDL
MODEL      144
REMARK 921   NORMALIZED FREE ENERGY PREDICTED BY IDOCK:   -4.90 KCAL/MOL
REMARK 922        TOTAL FREE ENERGY PREDICTED BY IDOCK:   -6.74 KCAL/MOL
REMARK 923 INTER-LIGAND FREE ENERGY PREDICTED BY IDOCK:   -5.16 KCAL/MOL
REMARK 924 INTRA-LIGAND FREE ENERGY PREDICTED BY IDOCK:   -1.58 KCAL/MOL
REMARK 927      BINDING AFFINITY PREDICTED BY RF-SCORE:    0.00 PKD
ROOT
HETATM    1  C   UNL     1      -9.366  18.754  66.585  1.00  0.00    -0.339 C  
HETATM    2  C   UNL     1     -10.770  19.269  66.525  1.00  0.00    -0.487 C  
HETATM    3  C   UNL     1      -8.933  17.633  67.210  1.00  0.00    -0.242 C  
ENDROOT
BRANCH   3   4
HETATM    4  C   UNL     1      -9.925  16.802  67.927  1.00  0.00    -0.268 A  
HETATM    5  O   UNL     1     -12.987  14.731  69.830  1.00  0.00    -0.573 OA 
HETATM    6  H   UNL     1     -13.201  14.924  70.735  1.00  0.00     0.000 HD 
HETATM    7  C   UNL     1     -10.630  15.806  67.233  1.00  0.00    -0.313 A  
HETATM    8  C   UNL     1     -11.969  15.375  69.188  1.00  0.00    -0.299 A  
HETATM    9  C   UNL     1     -10.235  17.048  69.271  1.00  0.00    -0.246 A  
HETATM   10  C   UNL     1     -11.261  16.336  69.900  1.00  0.00    -0.319 A  
HETATM   11  C   UNL     1     -11.657  15.094  67.863  1.00  0.00    -0.326 A  
ENDBRANCH   3   4
BRANCH   3  12
HETATM   12  C   UNL     1      -7.509  17.264  67.113  1.00  0.00    -0.208 C  
HETATM   13  C   UNL     1      -6.708  17.974  66.286  1.00  0.00    -0.282 C  
HETATM   14  C   UNL     1      -5.233  17.835  66.072  1.00  0.00    -0.227 C  
BRANCH  12  15
HETATM   15  C   UNL     1      -6.918  16.198  67.955  1.00  0.00    -0.150 A  
HETATM   16  C   UNL     1      -5.961  14.145  69.596  1.00  0.00    -0.114 A  
HETATM   17  C   UNL     1      -6.919  14.867  67.507  1.00  0.00    -0.203 A  
HETATM   18  C   UNL     1      -6.444  13.838  68.327  1.00  0.00    -0.110 A  
HETATM   19  O   UNL     1      -5.518  13.171  70.443  1.00  0.00    -0.117 OA 
HETATM   20  C   UNL     1      -5.921  15.461  70.043  1.00  0.00    -0.146 A  
HETATM   21  H   UNL     1      -5.188  13.380  71.309  1.00  0.00     0.000 HD 
HETATM   22  C   UNL     1      -6.400  16.488  69.223  1.00  0.00    -0.194 A  
ENDBRANCH  12  15
ENDBRANCH   3  12
TORSDOF 3
ENDMDL
MODEL      145
REMARK 921   NORMALIZED FREE ENERGY PREDICTED BY IDOCK:   -4.87 KCAL/MOL
REMARK 922        TOTAL FREE ENERGY PREDICTED BY IDOCK:   -6.71 KCAL/MOL
REMARK 923 INTER-LIGAND FREE ENERGY PREDICTED BY IDOCK:   -5.22 KCAL/MOL
REMARK 924 INTRA-LIGAND FREE ENERGY PREDICTED BY IDOCK:   -1.48 KCAL/MOL
REMARK 927      BINDING AFFINITY PREDICTED BY RF-SCORE:    0.00 PKD
ROOT
HETATM    1  C   UNL     1     -12.480   6.644  71.819  1.00  0.00    -0.360 C  
HETATM    2  C   UNL     1     -13.693   7.286  71.222  1.00  0.00    -0.328 C  
HETATM    3  C   UNL     1     -11.264   6.499  71.240  1.00  0.00    -0.338 C  
ENDROOT
BRANCH   3   4
HETATM    4  C   UNL     1     -11.074   7.014  69.867  1.00  0.00    -0.301 A  
HETATM    5  O   UNL     1     -10.159   8.355  66.040  1.00  0.00    -0.470 OA 
HETATM    6  H   UNL     1      -9.873   9.251  65.905  1.00  0.00     0.000 HD 
HETATM    7  C   UNL     1     -11.207   6.145  68.773  1.00  0.00    -0.307 A  
HETATM    8  C   UNL     1     -10.492   7.896  67.281  1.00  0.00    -0.320 A  
HETATM    9  C   UNL     1     -10.680   8.340  69.643  1.00  0.00    -0.196 A  
HETATM   10  C   UNL     1     -10.386   8.779  68.348  1.00  0.00    -0.242 A  
HETATM   11  C   UNL     1     -10.911   6.585  67.477  1.00  0.00    -0.444 A  
ENDBRANCH   3   4
BRANCH   3  12
HETATM   12  C   UNL     1     -10.172   5.880  72.015  1.00  0.00    -0.237 C  
HETATM   13  C   UNL     1     -10.154   4.535  72.152  1.00  0.00    -0.260 C  
HETATM   14  C   UNL     1      -9.124   3.681  72.826  1.00  0.00    -0.119 C  
BRANCH  12  15
HETATM   15  C   UNL     1      -9.056   6.680  72.570  1.00  0.00    -0.140 A  
HETATM   16  C   UNL     1      -7.035   8.332  73.574  1.00  0.00    -0.118 A  
HETATM   17  C   UNL     1      -9.166   7.245  73.852  1.00  0.00    -0.290 A  
HETATM   18  C   UNL     1      -8.158   8.074  74.354  1.00  0.00    -0.300 A  
HETATM   19  O   UNL     1      -6.042   9.161  74.009  1.00  0.00    -0.291 OA 
HETATM   20  C   UNL     1      -6.894   7.755  72.317  1.00  0.00    -0.062 A  
HETATM   21  H   UNL     1      -5.275   9.338  73.477  1.00  0.00     0.000 HD 
HETATM   22  C   UNL     1      -7.904   6.929  71.814  1.00  0.00    -0.099 A  
ENDBRANCH  12  15
ENDBRANCH   3  12
TORSDOF 3
ENDMDL
MODEL      146
REMARK 921   NORMALIZED FREE ENERGY PREDICTED BY IDOCK:   -4.87 KCAL/MOL
REMARK 922        TOTAL FREE ENERGY PREDICTED BY IDOCK:   -6.71 KCAL/MOL
REMARK 923 INTER-LIGAND FREE ENERGY PREDICTED BY IDOCK:   -5.27 KCAL/MOL
REMARK 924 INTRA-LIGAND FREE ENERGY PREDICTED BY IDOCK:   -1.44 KCAL/MOL
REMARK 927      BINDING AFFINITY PREDICTED BY RF-SCORE:    0.00 PKD
ROOT
HETATM    1  C   UNL     1     -10.749  13.472  68.966  1.00  0.00    -0.180 C  
HETATM    2  C   UNL     1     -11.682  14.640  68.892  1.00  0.00    -0.343 C  
HETATM    3  C   UNL     1     -10.352  12.678  67.942  1.00  0.00    -0.221 C  
ENDROOT
BRANCH   3   4
HETATM    4  C   UNL     1     -10.879  12.961  66.589  1.00  0.00    -0.288 A  
HETATM    5  O   UNL     1     -12.604  14.018  62.958  1.00  0.00    -1.027 OA 
HETATM    6  H   UNL     1     -13.370  13.553  62.642  1.00  0.00     0.000 HD 
HETATM    7  C   UNL     1     -10.317  13.994  65.825  1.00  0.00    -0.330 A  
HETATM    8  C   UNL     1     -12.001  13.675  64.133  1.00  0.00    -0.443 A  
HETATM    9  C   UNL     1     -11.990  12.267  66.090  1.00  0.00    -0.323 A  
HETATM   10  C   UNL     1     -12.552  12.628  64.862  1.00  0.00    -0.525 A  
HETATM   11  C   UNL     1     -10.880  14.356  64.596  1.00  0.00    -0.363 A  
ENDBRANCH   3   4
BRANCH   3  12
HETATM   12  C   UNL     1      -9.380  11.601  68.208  1.00  0.00    -0.191 C  
HETATM   13  C   UNL     1      -9.486  10.899  69.359  1.00  0.00     0.036 C  
HETATM   14  C   UNL     1      -8.671   9.729  69.815  1.00  0.00    -0.228 C  
BRANCH  12  15
HETATM   15  C   UNL     1      -8.352  11.213  67.215  1.00  0.00    -0.135 A  
HETATM   16  C   UNL     1      -6.379  10.340  65.435  1.00  0.00    -0.124 A  
HETATM   17  C   UNL     1      -8.654  10.266  66.223  1.00  0.00    -0.144 A  
HETATM   18  C   UNL     1      -7.668   9.826  65.334  1.00  0.00    -0.123 A  
HETATM   19  O   UNL     1      -5.377   9.916  64.610  1.00  0.00    -0.060 OA 
HETATM   20  C   UNL     1      -6.070  11.303  66.389  1.00  0.00    -0.117 A  
HETATM   21  H   UNL     1      -4.497  10.267  64.679  1.00  0.00     0.000 HD 
HETATM   22  C   UNL     1      -7.055  11.740  67.280  1.00  0.00    -0.140 A  
ENDBRANCH  12  15
ENDBRANCH   3  12
TORSDOF 3
ENDMDL
MODEL      147
REMARK 921   NORMALIZED FREE ENERGY PREDICTED BY IDOCK:   -4.85 KCAL/MOL
REMARK 922        TOTAL FREE ENERGY PREDICTED BY IDOCK:   -6.68 KCAL/MOL
REMARK 923 INTER-LIGAND FREE ENERGY PREDICTED BY IDOCK:   -5.46 KCAL/MOL
REMARK 924 INTRA-LIGAND FREE ENERGY PREDICTED BY IDOCK:   -1.22 KCAL/MOL
REMARK 927      BINDING AFFINITY PREDICTED BY RF-SCORE:    0.00 PKD
ROOT
HETATM    1  C   UNL     1      -7.946  14.415  67.519  1.00  0.00    -0.208 C  
HETATM    2  C   UNL     1      -8.673  13.124  67.312  1.00  0.00    -0.210 C  
HETATM    3  C   UNL     1      -8.388  15.502  68.196  1.00  0.00    -0.145 C  
ENDROOT
BRANCH   3   4
HETATM    4  C   UNL     1      -9.734  15.448  68.808  1.00  0.00    -0.210 A  
HETATM    5  O   UNL     1     -13.491  15.692  70.570  1.00  0.00    -0.821 OA 
HETATM    6  H   UNL     1     -13.579  15.618  71.514  1.00  0.00     0.000 HD 
HETATM    7  C   UNL     1     -10.871  15.623  68.005  1.00  0.00    -0.308 A  
HETATM    8  C   UNL     1     -12.274  15.589  69.962  1.00  0.00    -0.355 A  
HETATM    9  C   UNL     1      -9.890  15.310  70.194  1.00  0.00     0.030 A  
HETATM   10  C   UNL     1     -11.161  15.384  70.770  1.00  0.00    -0.378 A  
HETATM   11  C   UNL     1     -12.143  15.698  68.582  1.00  0.00    -0.067 A  
ENDBRANCH   3   4
BRANCH   3  12
HETATM   12  C   UNL     1      -7.497  16.670  68.335  1.00  0.00    -0.194 C  
HETATM   13  C   UNL     1      -6.689  16.746  69.417  1.00  0.00    -0.226 C  
HETATM   14  C   UNL     1      -5.661  17.786  69.740  1.00  0.00    -0.241 C  
BRANCH  12  15
HETATM   15  C   UNL     1      -7.403  17.710  67.285  1.00  0.00    -0.203 A  
HETATM   16  C   UNL     1      -7.092  19.744  65.390  1.00  0.00    -0.234 A  
HETATM   17  C   UNL     1      -6.440  17.598  66.269  1.00  0.00    -0.288 A  
HETATM   18  C   UNL     1      -6.281  18.615  65.322  1.00  0.00    -0.312 A  
HETATM   19  O   UNL     1      -6.951  20.776  64.508  1.00  0.00    -0.453 OA 
HETATM   20  C   UNL     1      -8.073  19.857  66.369  1.00  0.00    -0.357 A  
HETATM   21  H   UNL     1      -7.504  21.546  64.554  1.00  0.00     0.000 HD 
HETATM   22  C   UNL     1      -8.229  18.841  67.318  1.00  0.00    -0.276 A  
ENDBRANCH  12  15
ENDBRANCH   3  12
TORSDOF 3
ENDMDL
MODEL      148
REMARK 921   NORMALIZED FREE ENERGY PREDICTED BY IDOCK:   -4.85 KCAL/MOL
REMARK 922        TOTAL FREE ENERGY PREDICTED BY IDOCK:   -6.68 KCAL/MOL
REMARK 923 INTER-LIGAND FREE ENERGY PREDICTED BY IDOCK:   -5.50 KCAL/MOL
REMARK 924 INTRA-LIGAND FREE ENERGY PREDICTED BY IDOCK:   -1.18 KCAL/MOL
REMARK 927      BINDING AFFINITY PREDICTED BY RF-SCORE:    0.00 PKD
ROOT
HETATM    1  C   UNL     1     -11.855  10.881  69.888  1.00  0.00    -0.427 C  
HETATM    2  C   UNL     1     -12.263  12.264  70.292  1.00  0.00    -0.342 C  
HETATM    3  C   UNL     1     -11.086  10.534  68.828  1.00  0.00    -0.315 C  
ENDROOT
BRANCH   3   4
HETATM    4  C   UNL     1     -10.578  11.608  67.947  1.00  0.00    -0.225 A  
HETATM    5  O   UNL     1      -9.271  14.885  65.748  1.00  0.00    -0.498 OA 
HETATM    6  H   UNL     1      -9.858  15.311  65.133  1.00  0.00     0.000 HD 
HETATM    7  C   UNL     1      -9.263  12.073  68.103  1.00  0.00    -0.195 A  
HETATM    8  C   UNL     1      -9.664  13.791  66.463  1.00  0.00    -0.293 A  
HETATM    9  C   UNL     1     -11.417  12.230  67.012  1.00  0.00    -0.419 A  
HETATM   10  C   UNL     1     -10.959  13.324  66.273  1.00  0.00    -0.296 A  
HETATM   11  C   UNL     1      -8.806  13.169  67.363  1.00  0.00    -0.204 A  
ENDBRANCH   3   4
BRANCH   3  12
HETATM   12  C   UNL     1     -10.749   9.113  68.624  1.00  0.00    -0.156 C  
HETATM   13  C   UNL     1     -10.532   8.670  67.365  1.00  0.00    -0.351 C  
HETATM   14  C   UNL     1     -10.114   7.304  66.917  1.00  0.00    -0.317 C  
BRANCH  12  15
HETATM   15  C   UNL     1     -10.560   8.183  69.761  1.00  0.00    -0.231 A  
HETATM   16  C   UNL     1     -10.107   6.328  71.805  1.00  0.00    -0.186 A  
HETATM   17  C   UNL     1      -9.377   8.228  70.517  1.00  0.00    -0.169 A  
HETATM   18  C   UNL     1      -9.147   7.300  71.538  1.00  0.00    -0.145 A  
HETATM   19  O   UNL     1      -9.911   5.382  72.769  1.00  0.00    -0.166 OA 
HETATM   20  C   UNL     1     -11.298   6.288  71.090  1.00  0.00    -0.364 A  
HETATM   21  H   UNL     1     -10.566   4.718  72.952  1.00  0.00     0.000 HD 
HETATM   22  C   UNL     1     -11.526   7.215  70.067  1.00  0.00    -0.200 A  
ENDBRANCH  12  15
ENDBRANCH   3  12
TORSDOF 3
ENDMDL
MODEL      149
REMARK 921   NORMALIZED FREE ENERGY PREDICTED BY IDOCK:   -4.85 KCAL/MOL
REMARK 922        TOTAL FREE ENERGY PREDICTED BY IDOCK:   -6.68 KCAL/MOL
REMARK 923 INTER-LIGAND FREE ENERGY PREDICTED BY IDOCK:   -5.41 KCAL/MOL
REMARK 924 INTRA-LIGAND FREE ENERGY PREDICTED BY IDOCK:   -1.26 KCAL/MOL
REMARK 927      BINDING AFFINITY PREDICTED BY RF-SCORE:    0.00 PKD
ROOT
HETATM    1  C   UNL     1     -11.842  10.600  70.258  1.00  0.00    -0.430 C  
HETATM    2  C   UNL     1     -12.835  10.694  71.375  1.00  0.00    -0.556 C  
HETATM    3  C   UNL     1     -10.947   9.608  70.043  1.00  0.00    -0.297 C  
ENDROOT
BRANCH   3   4
HETATM    4  C   UNL     1     -10.910   8.476  70.996  1.00  0.00    -0.290 A  
HETATM    5  O   UNL     1     -11.087   5.489  73.881  1.00  0.00    -0.401 OA 
HETATM    6  H   UNL     1     -10.520   5.530  74.643  1.00  0.00     0.000 HD 
HETATM    7  C   UNL     1     -11.795   7.400  70.832  1.00  0.00    -0.320 A  
HETATM    8  C   UNL     1     -11.031   6.441  72.905  1.00  0.00    -0.250 A  
HETATM    9  C   UNL     1     -10.062   8.500  72.111  1.00  0.00    -0.393 A  
HETATM   10  C   UNL     1     -10.126   7.483  73.067  1.00  0.00    -0.342 A  
HETATM   11  C   UNL     1     -11.860   6.382  71.790  1.00  0.00    -0.374 A  
ENDBRANCH   3   4
BRANCH   3  12
HETATM   12  C   UNL     1     -10.082   9.671  68.850  1.00  0.00    -0.198 C  
HETATM   13  C   UNL     1     -10.401   8.916  67.775  1.00  0.00    -0.301 C  
HETATM   14  C   UNL     1      -9.724   8.862  66.440  1.00  0.00    -0.332 C  
BRANCH  12  15
HETATM   15  C   UNL     1      -8.929  10.597  68.768  1.00  0.00    -0.172 A  
HETATM   16  C   UNL     1      -6.793  12.403  68.772  1.00  0.00    -0.092 A  
HETATM   17  C   UNL     1      -7.713  10.264  69.388  1.00  0.00    -0.146 A  
HETATM   18  C   UNL     1      -6.645  11.167  69.394  1.00  0.00    -0.109 A  
HETATM   19  O   UNL     1      -5.789  13.328  68.780  1.00  0.00    -0.070 OA 
HETATM   20  C   UNL     1      -7.977  12.737  68.124  1.00  0.00    -0.156 A  
HETATM   21  H   UNL     1      -5.889  14.172  68.356  1.00  0.00     0.000 HD 
HETATM   22  C   UNL     1      -9.046  11.835  68.122  1.00  0.00    -0.185 A  
ENDBRANCH  12  15
ENDBRANCH   3  12
TORSDOF 3
ENDMDL
MODEL      150
REMARK 921   NORMALIZED FREE ENERGY PREDICTED BY IDOCK:   -4.84 KCAL/MOL
REMARK 922        TOTAL FREE ENERGY PREDICTED BY IDOCK:   -6.66 KCAL/MOL
REMARK 923 INTER-LIGAND FREE ENERGY PREDICTED BY IDOCK:   -5.53 KCAL/MOL
REMARK 924 INTRA-LIGAND FREE ENERGY PREDICTED BY IDOCK:   -1.14 KCAL/MOL
REMARK 927      BINDING AFFINITY PREDICTED BY RF-SCORE:    0.00 PKD
ROOT
HETATM    1  C   UNL     1     -12.507   8.971  71.568  1.00  0.00    -0.395 C  
HETATM    2  C   UNL     1     -13.953   9.325  71.721  1.00  0.00    -0.324 C  
HETATM    3  C   UNL     1     -11.537   9.727  70.999  1.00  0.00    -0.455 C  
ENDROOT
BRANCH   3   4
HETATM    4  C   UNL     1     -11.909  11.051  70.454  1.00  0.00    -0.460 A  
HETATM    5  O   UNL     1     -12.571  14.877  68.970  1.00  0.00    -0.566 OA 
HETATM    6  H   UNL     1     -12.813  15.581  69.560  1.00  0.00     0.000 HD 
HETATM    7  C   UNL     1     -11.790  11.295  69.078  1.00  0.00    -0.421 A  
HETATM    8  C   UNL     1     -12.374  13.606  69.425  1.00  0.00    -0.153 A  
HETATM    9  C   UNL     1     -12.298  12.096  71.303  1.00  0.00    -0.176 A  
HETATM   10  C   UNL     1     -12.527  13.375  70.787  1.00  0.00    -0.418 A  
HETATM   11  C   UNL     1     -12.019  12.576  68.561  1.00  0.00    -0.266 A  
ENDBRANCH   3   4
BRANCH   3  12
HETATM   12  C   UNL     1     -10.151   9.223  70.989  1.00  0.00    -0.373 C  
HETATM   13  C   UNL     1      -9.639   8.705  72.128  1.00  0.00    -0.378 C  
HETATM   14  C   UNL     1      -8.297   8.076  72.344  1.00  0.00    -0.205 C  
BRANCH  12  15
HETATM   15  C   UNL     1      -9.340   9.191  69.750  1.00  0.00    -0.190 A  
HETATM   16  C   UNL     1      -7.918   9.245  67.342  1.00  0.00    -0.106 A  
HETATM   17  C   UNL     1      -8.402  10.205  69.497  1.00  0.00    -0.178 A  
HETATM   18  C   UNL     1      -7.692  10.235  68.292  1.00  0.00    -0.092 A  
HETATM   19  O   UNL     1      -7.273   9.252  66.139  1.00  0.00    -0.089 OA 
HETATM   20  C   UNL     1      -8.819   8.215  67.588  1.00  0.00    -0.136 A  
HETATM   21  H   UNL     1      -7.427   8.576  65.490  1.00  0.00     0.000 HD 
HETATM   22  C   UNL     1      -9.531   8.187  68.791  1.00  0.00    -0.148 A  
ENDBRANCH  12  15
ENDBRANCH   3  12
TORSDOF 3
ENDMDL
MODEL      151
REMARK 921   NORMALIZED FREE ENERGY PREDICTED BY IDOCK:   -4.83 KCAL/MOL
REMARK 922        TOTAL FREE ENERGY PREDICTED BY IDOCK:   -6.66 KCAL/MOL
REMARK 923 INTER-LIGAND FREE ENERGY PREDICTED BY IDOCK:   -5.84 KCAL/MOL
REMARK 924 INTRA-LIGAND FREE ENERGY PREDICTED BY IDOCK:   -0.82 KCAL/MOL
REMARK 927      BINDING AFFINITY PREDICTED BY RF-SCORE:    0.00 PKD
ROOT
HETATM    1  C   UNL     1      -9.845   8.224  72.692  1.00  0.00    -0.357 C  
HETATM    2  C   UNL     1      -8.545   7.530  72.958  1.00  0.00    -0.185 C  
HETATM    3  C   UNL     1     -10.575   8.180  71.553  1.00  0.00    -0.282 C  
ENDROOT
BRANCH   3   4
HETATM    4  C   UNL     1     -10.066   7.373  70.423  1.00  0.00    -0.193 A  
HETATM    5  O   UNL     1      -8.957   5.218  67.045  1.00  0.00    -0.113 OA 
HETATM    6  H   UNL     1      -9.239   4.317  66.942  1.00  0.00     0.000 HD 
HETATM    7  C   UNL     1      -9.260   7.975  69.444  1.00  0.00    -0.152 A  
HETATM    8  C   UNL     1      -9.283   5.941  68.155  1.00  0.00    -0.116 A  
HETATM    9  C   UNL     1     -10.444   6.032  70.266  1.00  0.00    -0.305 A  
HETATM   10  C   UNL     1     -10.054   5.319  69.130  1.00  0.00    -0.289 A  
HETATM   11  C   UNL     1      -8.871   7.260  68.306  1.00  0.00    -0.127 A  
ENDBRANCH   3   4
BRANCH   3  12
HETATM   12  C   UNL     1     -11.864   8.896  71.501  1.00  0.00    -0.402 C  
HETATM   13  C   UNL     1     -12.988   8.239  71.868  1.00  0.00    -0.371 C  
HETATM   14  C   UNL     1     -14.386   8.767  71.965  1.00  0.00    -0.466 C  
BRANCH  12  15
HETATM   15  C   UNL     1     -11.948  10.330  71.142  1.00  0.00    -0.472 A  
HETATM   16  C   UNL     1     -12.262  13.008  70.398  1.00  0.00    -0.310 A  
HETATM   17  C   UNL     1     -12.683  11.215  71.949  1.00  0.00    -0.293 A  
HETATM   18  C   UNL     1     -12.844  12.553  71.577  1.00  0.00    -0.367 A  
HETATM   19  O   UNL     1     -12.419  14.297  69.977  1.00  0.00    -0.338 OA 
HETATM   20  C   UNL     1     -11.503  12.156  69.604  1.00  0.00    -0.308 A  
HETATM   21  H   UNL     1     -12.022  14.608  69.173  1.00  0.00     0.000 HD 
HETATM   22  C   UNL     1     -11.346  10.816  69.975  1.00  0.00    -0.397 A  
ENDBRANCH  12  15
ENDBRANCH   3  12
TORSDOF 3
ENDMDL
MODEL      152
REMARK 921   NORMALIZED FREE ENERGY PREDICTED BY IDOCK:   -4.81 KCAL/MOL
REMARK 922        TOTAL FREE ENERGY PREDICTED BY IDOCK:   -6.64 KCAL/MOL
REMARK 923 INTER-LIGAND FREE ENERGY PREDICTED BY IDOCK:   -5.39 KCAL/MOL
REMARK 924 INTRA-LIGAND FREE ENERGY PREDICTED BY IDOCK:   -1.25 KCAL/MOL
REMARK 927      BINDING AFFINITY PREDICTED BY RF-SCORE:    0.00 PKD
ROOT
HETATM    1  C   UNL     1     -10.286   6.723  67.430  1.00  0.00    -0.254 C  
HETATM    2  C   UNL     1     -10.778   5.320  67.257  1.00  0.00    -0.111 C  
HETATM    3  C   UNL     1     -10.156   7.405  68.592  1.00  0.00    -0.186 C  
ENDROOT
BRANCH   3   4
HETATM    4  C   UNL     1     -10.536   6.727  69.851  1.00  0.00    -0.242 A  
HETATM    5  O   UNL     1     -11.431   5.124  73.580  1.00  0.00    -0.440 OA 
HETATM    6  H   UNL     1     -10.818   4.534  74.004  1.00  0.00     0.000 HD 
HETATM    7  C   UNL     1     -11.752   7.047  70.473  1.00  0.00    -0.359 A  
HETATM    8  C   UNL     1     -11.176   5.644  72.345  1.00  0.00    -0.280 A  
HETATM    9  C   UNL     1      -9.661   5.831  70.479  1.00  0.00    -0.225 A  
HETATM   10  C   UNL     1      -9.981   5.292  71.728  1.00  0.00    -0.245 A  
HETATM   11  C   UNL     1     -12.072   6.508  71.725  1.00  0.00    -0.393 A  
ENDBRANCH   3   4
BRANCH   3  12
HETATM   12  C   UNL     1      -9.600   8.771  68.561  1.00  0.00    -0.158 C  
HETATM   13  C   UNL     1      -8.351   8.976  69.036  1.00  0.00    -0.124 C  
HETATM   14  C   UNL     1      -7.555  10.244  69.047  1.00  0.00    -0.102 C  
BRANCH  12  15
HETATM   15  C   UNL     1     -10.337   9.902  67.949  1.00  0.00    -0.256 A  
HETATM   16  C   UNL     1     -11.586  12.132  66.815  1.00  0.00    -0.345 A  
HETATM   17  C   UNL     1     -10.127  10.228  66.599  1.00  0.00    -0.281 A  
HETATM   18  C   UNL     1     -10.749  11.345  66.031  1.00  0.00    -0.318 A  
HETATM   19  O   UNL     1     -12.188  13.250  66.313  1.00  0.00    -0.409 OA 
HETATM   20  C   UNL     1     -11.832  11.805  68.144  1.00  0.00    -0.324 A  
HETATM   21  H   UNL     1     -12.760  13.787  66.848  1.00  0.00     0.000 HD 
HETATM   22  C   UNL     1     -11.207  10.690  68.712  1.00  0.00    -0.337 A  
ENDBRANCH  12  15
ENDBRANCH   3  12
TORSDOF 3
ENDMDL
MODEL      153
REMARK 921   NORMALIZED FREE ENERGY PREDICTED BY IDOCK:   -4.81 KCAL/MOL
REMARK 922        TOTAL FREE ENERGY PREDICTED BY IDOCK:   -6.64 KCAL/MOL
REMARK 923 INTER-LIGAND FREE ENERGY PREDICTED BY IDOCK:   -5.24 KCAL/MOL
REMARK 924 INTRA-LIGAND FREE ENERGY PREDICTED BY IDOCK:   -1.39 KCAL/MOL
REMARK 927      BINDING AFFINITY PREDICTED BY RF-SCORE:    0.00 PKD
ROOT
HETATM    1  C   UNL     1      -9.569  14.612  66.385  1.00  0.00    -0.323 C  
HETATM    2  C   UNL     1      -9.370  16.096  66.350  1.00  0.00    -0.329 C  
HETATM    3  C   UNL     1     -10.228  13.899  67.329  1.00  0.00    -0.249 C  
ENDROOT
BRANCH   3   4
HETATM    4  C   UNL     1     -10.828  14.628  68.468  1.00  0.00    -0.256 A  
HETATM    5  O   UNL     1     -12.600  16.320  71.826  1.00  0.00    -0.548 OA 
HETATM    6  H   UNL     1     -13.529  16.523  71.822  1.00  0.00     0.000 HD 
HETATM    7  C   UNL     1     -10.048  14.914  69.599  1.00  0.00    -0.070 A  
HETATM    8  C   UNL     1     -11.987  15.790  70.729  1.00  0.00    -0.407 A  
HETATM    9  C   UNL     1     -12.188  14.964  68.473  1.00  0.00    -0.084 A  
HETATM   10  C   UNL     1     -12.767  15.542  69.606  1.00  0.00     0.092 A  
HETATM   11  C   UNL     1     -10.628  15.493  70.733  1.00  0.00    -0.091 A  
ENDBRANCH   3   4
BRANCH   3  12
HETATM   12  C   UNL     1     -10.362  12.440  67.159  1.00  0.00    -0.232 C  
HETATM   13  C   UNL     1     -10.208  11.912  65.924  1.00  0.00    -0.270 C  
HETATM   14  C   UNL     1     -10.229  10.471  65.518  1.00  0.00    -0.325 C  
BRANCH  12  15
HETATM   15  C   UNL     1     -10.572  11.535  68.313  1.00  0.00    -0.228 A  
HETATM   16  C   UNL     1     -10.956   9.964  70.595  1.00  0.00    -0.337 A  
HETATM   17  C   UNL     1     -11.840  11.442  68.911  1.00  0.00    -0.413 A  
HETATM   18  C   UNL     1     -12.033  10.659  70.054  1.00  0.00    -0.408 A  
HETATM   19  O   UNL     1     -11.090   9.214  71.728  1.00  0.00    -0.351 OA 
HETATM   20  C   UNL     1      -9.702  10.017  69.997  1.00  0.00    -0.224 A  
HETATM   21  H   UNL     1     -10.355   8.739  72.097  1.00  0.00     0.000 HD 
HETATM   22  C   UNL     1      -9.509  10.803  68.856  1.00  0.00    -0.190 A  
ENDBRANCH  12  15
ENDBRANCH   3  12
TORSDOF 3
ENDMDL
MODEL      154
REMARK 921   NORMALIZED FREE ENERGY PREDICTED BY IDOCK:   -4.81 KCAL/MOL
REMARK 922        TOTAL FREE ENERGY PREDICTED BY IDOCK:   -6.64 KCAL/MOL
REMARK 923 INTER-LIGAND FREE ENERGY PREDICTED BY IDOCK:   -5.45 KCAL/MOL
REMARK 924 INTRA-LIGAND FREE ENERGY PREDICTED BY IDOCK:   -1.19 KCAL/MOL
REMARK 927      BINDING AFFINITY PREDICTED BY RF-SCORE:    0.00 PKD
ROOT
HETATM    1  C   UNL     1      -9.993  10.275  65.853  1.00  0.00    -0.321 C  
HETATM    2  C   UNL     1      -9.286   9.473  64.805  1.00  0.00    -0.267 C  
HETATM    3  C   UNL     1     -10.332   9.871  67.100  1.00  0.00    -0.304 C  
ENDROOT
BRANCH   3   4
HETATM    4  C   UNL     1      -9.987   8.492  67.509  1.00  0.00    -0.258 A  
HETATM    5  O   UNL     1      -9.214   4.688  68.997  1.00  0.00    -0.111 OA 
HETATM    6  H   UNL     1      -8.431   4.529  69.513  1.00  0.00     0.000 HD 
HETATM    7  C   UNL     1     -10.875   7.442  67.234  1.00  0.00    -0.326 A  
HETATM    8  C   UNL     1      -9.479   5.920  68.473  1.00  0.00    -0.121 A  
HETATM    9  C   UNL     1      -8.823   8.228  68.244  1.00  0.00    -0.140 A  
HETATM   10  C   UNL     1      -8.572   6.942  68.729  1.00  0.00    -0.124 A  
HETATM   11  C   UNL     1     -10.624   6.153  67.720  1.00  0.00    -0.338 A  
ENDBRANCH   3   4
BRANCH   3  12
HETATM   12  C   UNL     1     -10.984  10.831  68.010  1.00  0.00    -0.336 C  
HETATM   13  C   UNL     1     -11.588  10.362  69.126  1.00  0.00    -0.234 C  
HETATM   14  C   UNL     1     -12.249  11.137  70.223  1.00  0.00    -0.436 C  
BRANCH  12  15
HETATM   15  C   UNL     1     -10.922  12.293  67.781  1.00  0.00    -0.274 A  
HETATM   16  C   UNL     1     -10.858  15.076  67.510  1.00  0.00    -0.297 A  
HETATM   17  C   UNL     1      -9.818  13.030  68.241  1.00  0.00    -0.225 A  
HETATM   18  C   UNL     1      -9.786  14.422  68.109  1.00  0.00    -0.223 A  
HETATM   19  O   UNL     1     -10.885  16.436  67.389  1.00  0.00    -0.302 OA 
HETATM   20  C   UNL     1     -11.944  14.360  67.019  1.00  0.00    -0.424 A  
HETATM   21  H   UNL     1     -11.617  16.882  66.980  1.00  0.00     0.000 HD 
HETATM   22  C   UNL     1     -11.977  12.968  67.154  1.00  0.00    -0.389 A  
ENDBRANCH  12  15
ENDBRANCH   3  12
TORSDOF 3
ENDMDL
MODEL      155
REMARK 921   NORMALIZED FREE ENERGY PREDICTED BY IDOCK:   -4.79 KCAL/MOL
REMARK 922        TOTAL FREE ENERGY PREDICTED BY IDOCK:   -6.61 KCAL/MOL
REMARK 923 INTER-LIGAND FREE ENERGY PREDICTED BY IDOCK:   -5.47 KCAL/MOL
REMARK 924 INTRA-LIGAND FREE ENERGY PREDICTED BY IDOCK:   -1.14 KCAL/MOL
REMARK 927      BINDING AFFINITY PREDICTED BY RF-SCORE:    0.00 PKD
ROOT
HETATM    1  C   UNL     1      -9.929   9.085  67.169  1.00  0.00    -0.286 C  
HETATM    2  C   UNL     1      -9.551   9.418  65.759  1.00  0.00    -0.340 C  
HETATM    3  C   UNL     1     -10.379   9.940  68.117  1.00  0.00    -0.232 C  
ENDROOT
BRANCH   3   4
HETATM    4  C   UNL     1     -10.523  11.369  67.763  1.00  0.00    -0.215 A  
HETATM    5  O   UNL     1     -11.086  15.439  67.127  1.00  0.00    -0.327 OA 
HETATM    6  H   UNL     1     -11.899  15.753  66.748  1.00  0.00     0.000 HD 
HETATM    7  C   UNL     1      -9.503  12.275  68.095  1.00  0.00    -0.213 A  
HETATM    8  C   UNL     1     -10.863  14.107  67.322  1.00  0.00    -0.285 A  
HETATM    9  C   UNL     1     -11.700  11.851  67.175  1.00  0.00    -0.311 A  
HETATM   10  C   UNL     1     -11.870  13.221  66.958  1.00  0.00    -0.442 A  
HETATM   11  C   UNL     1      -9.674  13.647  67.878  1.00  0.00    -0.234 A  
ENDBRANCH   3   4
BRANCH   3  12
HETATM   12  C   UNL     1     -10.750   9.409  69.442  1.00  0.00    -0.234 C  
HETATM   13  C   UNL     1     -11.556  10.148  70.237  1.00  0.00    -0.379 C  
HETATM   14  C   UNL     1     -12.119   9.795  71.579  1.00  0.00    -0.493 C  
BRANCH  12  15
HETATM   15  C   UNL     1     -10.335   8.058  69.887  1.00  0.00    -0.221 A  
HETATM   16  C   UNL     1      -9.455   5.496  70.584  1.00  0.00    -0.165 A  
HETATM   17  C   UNL     1      -9.099   7.878  70.529  1.00  0.00    -0.154 A  
HETATM   18  C   UNL     1      -8.656   6.597  70.876  1.00  0.00    -0.134 A  
HETATM   19  O   UNL     1      -9.049   4.225  70.874  1.00  0.00    -0.112 OA 
HETATM   20  C   UNL     1     -10.696   5.658  69.979  1.00  0.00    -0.390 A  
HETATM   21  H   UNL     1      -9.594   3.474  70.675  1.00  0.00     0.000 HD 
HETATM   22  C   UNL     1     -11.137   6.938  69.629  1.00  0.00    -0.302 A  
ENDBRANCH  12  15
ENDBRANCH   3  12
TORSDOF 3
ENDMDL
MODEL      156
REMARK 921   NORMALIZED FREE ENERGY PREDICTED BY IDOCK:   -4.75 KCAL/MOL
REMARK 922        TOTAL FREE ENERGY PREDICTED BY IDOCK:   -6.57 KCAL/MOL
REMARK 923 INTER-LIGAND FREE ENERGY PREDICTED BY IDOCK:   -5.19 KCAL/MOL
REMARK 924 INTRA-LIGAND FREE ENERGY PREDICTED BY IDOCK:   -1.38 KCAL/MOL
REMARK 927      BINDING AFFINITY PREDICTED BY RF-SCORE:    0.00 PKD
ROOT
HETATM    1  C   UNL     1     -10.538  11.792  68.613  1.00  0.00    -0.250 C  
HETATM    2  C   UNL     1     -11.759  12.617  68.877  1.00  0.00    -0.370 C  
HETATM    3  C   UNL     1      -9.935  11.586  67.418  1.00  0.00    -0.209 C  
ENDROOT
BRANCH   3   4
HETATM    4  C   UNL     1     -10.518  12.225  66.218  1.00  0.00    -0.266 A  
HETATM    5  O   UNL     1     -12.435  14.170  63.084  1.00  0.00    -1.126 OA 
HETATM    6  H   UNL     1     -13.121  13.727  62.597  1.00  0.00     0.000 HD 
HETATM    7  C   UNL     1     -10.138  13.531  65.871  1.00  0.00    -0.311 A  
HETATM    8  C   UNL     1     -11.770  13.547  64.099  1.00  0.00    -0.411 A  
HETATM    9  C   UNL     1     -11.508  11.579  65.467  1.00  0.00    -0.074 A  
HETATM   10  C   UNL     1     -12.136  12.243  64.409  1.00  0.00    -0.481 A  
HETATM   11  C   UNL     1     -10.768  14.195  64.812  1.00  0.00    -0.436 A  
ENDBRANCH   3   4
BRANCH   3  12
HETATM   12  C   UNL     1      -8.702  10.778  67.369  1.00  0.00    -0.126 C  
HETATM   13  C   UNL     1      -7.592  11.247  67.981  1.00  0.00    -0.105 C  
HETATM   14  C   UNL     1      -6.257  10.584  68.126  1.00  0.00    -0.050 C  
BRANCH  12  15
HETATM   15  C   UNL     1      -8.673   9.435  66.745  1.00  0.00    -0.138 A  
HETATM   16  C   UNL     1      -8.469   6.869  65.649  1.00  0.00    -0.136 A  
HETATM   17  C   UNL     1      -9.094   8.311  67.475  1.00  0.00    -0.148 A  
HETATM   18  C   UNL     1      -8.990   7.027  66.930  1.00  0.00    -0.135 A  
HETATM   19  O   UNL     1      -8.318   5.633  65.090  1.00  0.00    -0.137 OA 
HETATM   20  C   UNL     1      -8.078   7.972  64.899  1.00  0.00    -0.147 A  
HETATM   21  H   UNL     1      -7.962   5.525  64.215  1.00  0.00     0.000 HD 
HETATM   22  C   UNL     1      -8.179   9.256  65.446  1.00  0.00    -0.129 A  
ENDBRANCH  12  15
ENDBRANCH   3  12
TORSDOF 3
ENDMDL
MODEL      157
REMARK 921   NORMALIZED FREE ENERGY PREDICTED BY IDOCK:   -4.75 KCAL/MOL
REMARK 922        TOTAL FREE ENERGY PREDICTED BY IDOCK:   -6.56 KCAL/MOL
REMARK 923 INTER-LIGAND FREE ENERGY PREDICTED BY IDOCK:   -5.37 KCAL/MOL
REMARK 924 INTRA-LIGAND FREE ENERGY PREDICTED BY IDOCK:   -1.19 KCAL/MOL
REMARK 927      BINDING AFFINITY PREDICTED BY RF-SCORE:    0.00 PKD
ROOT
HETATM    1  C   UNL     1     -12.050   8.603  72.043  1.00  0.00    -0.442 C  
HETATM    2  C   UNL     1     -12.983   9.478  71.265  1.00  0.00    -0.407 C  
HETATM    3  C   UNL     1     -10.983   7.919  71.566  1.00  0.00    -0.269 C  
ENDROOT
BRANCH   3   4
HETATM    4  C   UNL     1     -10.675   8.015  70.123  1.00  0.00    -0.244 A  
HETATM    5  O   UNL     1     -10.181   8.420  66.015  1.00  0.00    -0.417 OA 
HETATM    6  H   UNL     1     -10.388   7.695  65.437  1.00  0.00     0.000 HD 
HETATM    7  C   UNL     1     -10.186   9.220  69.594  1.00  0.00    -0.219 A  
HETATM    8  C   UNL     1     -10.308   8.307  67.369  1.00  0.00    -0.280 A  
HETATM    9  C   UNL     1     -10.944   6.948  69.256  1.00  0.00    -0.260 A  
HETATM   10  C   UNL     1     -10.763   7.096  67.878  1.00  0.00    -0.258 A  
HETATM   11  C   UNL     1     -10.005   9.368  68.214  1.00  0.00    -0.197 A  
ENDBRANCH   3   4
BRANCH   3  12
HETATM   12  C   UNL     1     -10.149   7.148  72.507  1.00  0.00    -0.211 C  
HETATM   13  C   UNL     1      -9.398   7.817  73.410  1.00  0.00    -0.346 C  
HETATM   14  C   UNL     1      -8.535   7.261  74.500  1.00  0.00    -0.234 C  
BRANCH  12  15
HETATM   15  C   UNL     1     -10.179   5.667  72.545  1.00  0.00    -0.225 A  
HETATM   16  C   UNL     1     -10.334   2.875  72.477  1.00  0.00    -0.114 A  
HETATM   17  C   UNL     1      -9.337   4.926  71.700  1.00  0.00    -0.192 A  
HETATM   18  C   UNL     1      -9.415   3.529  71.662  1.00  0.00    -0.217 A  
HETATM   19  O   UNL     1     -10.468   1.517  72.449  1.00  0.00    -0.145 OA 
HETATM   20  C   UNL     1     -11.152   3.590  73.344  1.00  0.00    -0.291 A  
HETATM   21  H   UNL     1     -11.095   1.070  73.006  1.00  0.00     0.000 HD 
HETATM   22  C   UNL     1     -11.075   4.986  73.379  1.00  0.00    -0.404 A  
ENDBRANCH  12  15
ENDBRANCH   3  12
TORSDOF 3
ENDMDL
MODEL      158
REMARK 921   NORMALIZED FREE ENERGY PREDICTED BY IDOCK:   -4.72 KCAL/MOL
REMARK 922        TOTAL FREE ENERGY PREDICTED BY IDOCK:   -6.53 KCAL/MOL
REMARK 923 INTER-LIGAND FREE ENERGY PREDICTED BY IDOCK:   -5.42 KCAL/MOL
REMARK 924 INTRA-LIGAND FREE ENERGY PREDICTED BY IDOCK:   -1.12 KCAL/MOL
REMARK 927      BINDING AFFINITY PREDICTED BY RF-SCORE:    0.00 PKD
ROOT
HETATM    1  C   UNL     1      -8.366  11.593  67.924  1.00  0.00    -0.143 C  
HETATM    2  C   UNL     1      -7.169  10.695  67.891  1.00  0.00    -0.087 C  
HETATM    3  C   UNL     1      -9.593  11.301  68.417  1.00  0.00    -0.195 C  
ENDROOT
BRANCH   3   4
HETATM    4  C   UNL     1      -9.817   9.956  68.991  1.00  0.00    -0.193 A  
HETATM    5  O   UNL     1     -10.106   6.067  70.429  1.00  0.00    -0.180 OA 
HETATM    6  H   UNL     1     -10.555   5.402  69.918  1.00  0.00     0.000 HD 
HETATM    7  C   UNL     1      -9.266   9.631  70.240  1.00  0.00    -0.285 A  
HETATM    8  C   UNL     1     -10.020   7.357  69.995  1.00  0.00    -0.185 A  
HETATM    9  C   UNL     1     -10.502   8.969  68.269  1.00  0.00    -0.247 A  
HETATM   10  C   UNL     1     -10.599   7.669  68.771  1.00  0.00    -0.169 A  
HETATM   11  C   UNL     1      -9.363   8.329  70.742  1.00  0.00    -0.183 A  
ENDBRANCH   3   4
BRANCH   3  12
HETATM   12  C   UNL     1     -10.636  12.344  68.406  1.00  0.00    -0.251 C  
HETATM   13  C   UNL     1     -11.201  12.712  69.578  1.00  0.00    -0.152 C  
HETATM   14  C   UNL     1     -12.218  13.783  69.826  1.00  0.00    -0.368 C  
BRANCH  12  15
HETATM   15  C   UNL     1     -11.016  13.055  67.163  1.00  0.00    -0.293 A  
HETATM   16  C   UNL     1     -11.606  14.317  64.737  1.00  0.00    -0.401 A  
HETATM   17  C   UNL     1     -11.788  12.402  66.188  1.00  0.00    -0.442 A  
HETATM   18  C   UNL     1     -12.081  13.030  64.973  1.00  0.00    -0.470 A  
HETATM   19  O   UNL     1     -11.839  14.956  63.554  1.00  0.00    -0.538 OA 
HETATM   20  C   UNL     1     -10.869  14.991  65.704  1.00  0.00    -0.356 A  
HETATM   21  H   UNL     1     -11.515  15.834  63.393  1.00  0.00     0.000 HD 
HETATM   22  C   UNL     1     -10.574  14.361  66.918  1.00  0.00    -0.278 A  
ENDBRANCH  12  15
ENDBRANCH   3  12
TORSDOF 3
ENDMDL
MODEL      159
REMARK 921   NORMALIZED FREE ENERGY PREDICTED BY IDOCK:   -4.70 KCAL/MOL
REMARK 922        TOTAL FREE ENERGY PREDICTED BY IDOCK:   -6.51 KCAL/MOL
REMARK 923 INTER-LIGAND FREE ENERGY PREDICTED BY IDOCK:   -7.45 KCAL/MOL
REMARK 924 INTRA-LIGAND FREE ENERGY PREDICTED BY IDOCK:    0.94 KCAL/MOL
REMARK 927      BINDING AFFINITY PREDICTED BY RF-SCORE:    0.00 PKD
ROOT
HETATM    1  C   UNL     1      -9.262  10.658  69.442  1.00  0.00    -0.073 C  
HETATM    2  C   UNL     1      -8.716   9.646  70.401  1.00  0.00    -0.213 C  
HETATM    3  C   UNL     1     -10.543  11.090  69.352  1.00  0.00    -0.212 C  
ENDROOT
BRANCH   3   4
HETATM    4  C   UNL     1     -11.543  10.520  70.282  1.00  0.00    -0.417 A  
HETATM    5  O   UNL     1     -14.076   8.946  73.177  1.00  0.00    -1.125 OA 
HETATM    6  H   UNL     1     -14.104   8.007  73.325  1.00  0.00     0.000 HD 
HETATM    7  C   UNL     1     -12.367  11.377  71.027  1.00  0.00    -0.448 A  
HETATM    8  C   UNL     1     -13.274   9.488  72.215  1.00  0.00    -0.421 A  
HETATM    9  C   UNL     1     -11.623   9.137  70.494  1.00  0.00    -0.238 A  
HETATM   10  C   UNL     1     -12.488   8.623  71.464  1.00  0.00    -0.364 A  
HETATM   11  C   UNL     1     -13.232  10.861  71.999  1.00  0.00    -0.456 A  
ENDBRANCH   3   4
BRANCH   3  12
HETATM   12  C   UNL     1     -10.877  12.138  68.369  1.00  0.00    -0.255 C  
HETATM   13  C   UNL     1     -11.221  13.365  68.819  1.00  0.00    -0.315 C  
HETATM   14  C   UNL     1     -11.532  14.596  68.024  1.00  0.00    -0.346 C  
BRANCH  12  15
HETATM   15  C   UNL     1     -10.763  11.907  66.911  1.00  0.00    -0.285 A  
HETATM   16  C   UNL     1     -10.381  11.515  64.168  1.00  0.00    -0.334 A  
HETATM   17  C   UNL     1     -10.218  10.704  66.430  1.00  0.00    -0.291 A  
HETATM   18  C   UNL     1     -10.024  10.508  65.059  1.00  0.00    -0.388 A  
HETATM   19  O   UNL     1     -10.180  11.380  62.824  1.00  0.00    -0.614 OA 
HETATM   20  C   UNL     1     -10.953  12.698  64.623  1.00  0.00    -0.346 A  
HETATM   21  H   UNL     1     -10.424  12.067  62.216  1.00  0.00     0.000 HD 
HETATM   22  C   UNL     1     -11.144  12.895  65.994  1.00  0.00    -0.308 A  
ENDBRANCH  12  15
ENDBRANCH   3  12
TORSDOF 3
ENDMDL
MODEL      160
REMARK 921   NORMALIZED FREE ENERGY PREDICTED BY IDOCK:   -4.70 KCAL/MOL
REMARK 922        TOTAL FREE ENERGY PREDICTED BY IDOCK:   -6.50 KCAL/MOL
REMARK 923 INTER-LIGAND FREE ENERGY PREDICTED BY IDOCK:   -5.87 KCAL/MOL
REMARK 924 INTRA-LIGAND FREE ENERGY PREDICTED BY IDOCK:   -0.64 KCAL/MOL
REMARK 927      BINDING AFFINITY PREDICTED BY RF-SCORE:    0.00 PKD
ROOT
HETATM    1  C   UNL     1     -13.032   6.884  71.585  1.00  0.00    -0.359 C  
HETATM    2  C   UNL     1     -14.388   7.495  71.410  1.00  0.00    -0.540 C  
HETATM    3  C   UNL     1     -11.835   7.498  71.435  1.00  0.00    -0.321 C  
ENDROOT
BRANCH   3   4
HETATM    4  C   UNL     1     -11.821   8.927  71.052  1.00  0.00    -0.324 A  
HETATM    5  O   UNL     1     -12.062  12.853  69.708  1.00  0.00    -0.299 OA 
HETATM    6  H   UNL     1     -11.504  13.148  68.998  1.00  0.00     0.000 HD 
HETATM    7  C   UNL     1     -12.717   9.819  71.661  1.00  0.00    -0.517 A  
HETATM    8  C   UNL     1     -11.985  11.578  70.188  1.00  0.00    -0.369 A  
HETATM    9  C   UNL     1     -10.985   9.391  70.028  1.00  0.00    -0.267 A  
HETATM   10  C   UNL     1     -11.071  10.717  69.594  1.00  0.00    -0.342 A  
HETATM   11  C   UNL     1     -12.803  11.147  71.226  1.00  0.00    -0.515 A  
ENDBRANCH   3   4
BRANCH   3  12
HETATM   12  C   UNL     1     -10.601   6.735  71.702  1.00  0.00    -0.239 C  
HETATM   13  C   UNL     1     -10.499   5.475  71.223  1.00  0.00    -0.306 C  
HETATM   14  C   UNL     1      -9.333   4.538  71.306  1.00  0.00    -0.209 C  
BRANCH  12  15
HETATM   15  C   UNL     1      -9.445   7.339  72.404  1.00  0.00    -0.178 A  
HETATM   16  C   UNL     1      -7.183   8.326  73.721  1.00  0.00    -0.131 A  
HETATM   17  C   UNL     1      -8.309   7.732  71.676  1.00  0.00    -0.125 A  
HETATM   18  C   UNL     1      -7.176   8.223  72.333  1.00  0.00    -0.127 A  
HETATM   19  O   UNL     1      -6.089   8.768  74.408  1.00  0.00    -0.126 OA 
HETATM   20  C   UNL     1      -8.310   7.973  74.455  1.00  0.00    -0.244 A  
HETATM   21  H   UNL     1      -6.094   8.839  75.355  1.00  0.00     0.000 HD 
HETATM   22  C   UNL     1      -9.441   7.479  73.797  1.00  0.00    -0.330 A  
ENDBRANCH  12  15
ENDBRANCH   3  12
TORSDOF 3
ENDMDL
MODEL      161
REMARK 921   NORMALIZED FREE ENERGY PREDICTED BY IDOCK:   -4.67 KCAL/MOL
REMARK 922        TOTAL FREE ENERGY PREDICTED BY IDOCK:   -6.47 KCAL/MOL
REMARK 923 INTER-LIGAND FREE ENERGY PREDICTED BY IDOCK:   -5.22 KCAL/MOL
REMARK 924 INTRA-LIGAND FREE ENERGY PREDICTED BY IDOCK:   -1.25 KCAL/MOL
REMARK 927      BINDING AFFINITY PREDICTED BY RF-SCORE:    0.00 PKD
ROOT
HETATM    1  C   UNL     1     -10.839   7.185  68.224  1.00  0.00    -0.156 C  
HETATM    2  C   UNL     1     -10.875   5.817  68.830  1.00  0.00    -0.305 C  
HETATM    3  C   UNL     1     -10.533   8.347  68.849  1.00  0.00    -0.208 C  
ENDROOT
BRANCH   3   4
HETATM    4  C   UNL     1     -10.197   8.303  70.289  1.00  0.00    -0.199 A  
HETATM    5  O   UNL     1      -9.218   7.784  74.296  1.00  0.00    -0.422 OA 
HETATM    6  H   UNL     1      -9.903   7.634  74.937  1.00  0.00     0.000 HD 
HETATM    7  C   UNL     1      -8.855   8.368  70.693  1.00  0.00    -0.161 A  
HETATM    8  C   UNL     1      -9.512   7.985  72.979  1.00  0.00    -0.275 A  
HETATM    9  C   UNL     1     -11.194   8.112  71.256  1.00  0.00    -0.297 A  
HETATM   10  C   UNL     1     -10.849   7.949  72.600  1.00  0.00    -0.428 A  
HETATM   11  C   UNL     1      -8.510   8.204  72.040  1.00  0.00    -0.206 A  
ENDBRANCH   3   4
BRANCH   3  12
HETATM   12  C   UNL     1     -10.501   9.595  68.063  1.00  0.00    -0.276 C  
HETATM   13  C   UNL     1     -11.284  10.627  68.451  1.00  0.00    -0.347 C  
HETATM   14  C   UNL     1     -11.372  12.002  67.862  1.00  0.00    -0.369 C  
BRANCH  12  15
HETATM   15  C   UNL     1      -9.578   9.776  66.920  1.00  0.00    -0.228 A  
HETATM   16  C   UNL     1      -7.859  10.287  64.773  1.00  0.00    -0.130 A  
HETATM   17  C   UNL     1      -8.241  10.144  67.147  1.00  0.00    -0.121 A  
HETATM   18  C   UNL     1      -7.381  10.403  66.075  1.00  0.00    -0.134 A  
HETATM   19  O   UNL     1      -7.065  10.562  63.697  1.00  0.00    -0.323 OA 
HETATM   20  C   UNL     1      -9.169   9.892  64.529  1.00  0.00    -0.315 A  
HETATM   21  H   UNL     1      -7.391  10.483  62.808  1.00  0.00     0.000 HD 
HETATM   22  C   UNL     1     -10.029   9.636  65.601  1.00  0.00    -0.321 A  
ENDBRANCH  12  15
ENDBRANCH   3  12
TORSDOF 3
ENDMDL
MODEL      162
REMARK 921   NORMALIZED FREE ENERGY PREDICTED BY IDOCK:   -4.62 KCAL/MOL
REMARK 922        TOTAL FREE ENERGY PREDICTED BY IDOCK:   -6.41 KCAL/MOL
REMARK 923 INTER-LIGAND FREE ENERGY PREDICTED BY IDOCK:   -5.34 KCAL/MOL
REMARK 924 INTRA-LIGAND FREE ENERGY PREDICTED BY IDOCK:   -1.07 KCAL/MOL
REMARK 927      BINDING AFFINITY PREDICTED BY RF-SCORE:    0.00 PKD
ROOT
HETATM    1  C   UNL     1      -9.697   4.985  69.566  1.00  0.00    -0.259 C  
HETATM    2  C   UNL     1      -9.703   4.242  70.866  1.00  0.00    -0.266 C  
HETATM    3  C   UNL     1     -10.304   6.166  69.298  1.00  0.00    -0.276 C  
ENDROOT
BRANCH   3   4
HETATM    4  C   UNL     1     -11.069   6.824  70.379  1.00  0.00    -0.357 A  
HETATM    5  O   UNL     1     -13.294   8.967  73.161  1.00  0.00    -0.926 OA 
HETATM    6  H   UNL     1     -12.867   9.600  73.726  1.00  0.00     0.000 HD 
HETATM    7  C   UNL     1     -12.449   6.597  70.492  1.00  0.00     0.048 A  
HETATM    8  C   UNL     1     -12.585   8.230  72.258  1.00  0.00    -0.311 A  
HETATM    9  C   UNL     1     -10.454   7.738  71.244  1.00  0.00    -0.230 A  
HETATM   10  C   UNL     1     -11.214   8.443  72.181  1.00  0.00    -0.431 A  
HETATM   11  C   UNL     1     -13.211   7.304  71.430  1.00  0.00    -0.404 A  
ENDBRANCH   3   4
BRANCH   3  12
HETATM   12  C   UNL     1     -10.139   6.767  67.961  1.00  0.00    -0.183 C  
HETATM   13  C   UNL     1     -10.229   8.110  67.837  1.00  0.00    -0.274 C  
HETATM   14  C   UNL     1     -10.032   8.948  66.611  1.00  0.00    -0.346 C  
BRANCH  12  15
HETATM   15  C   UNL     1      -9.793   5.951  66.774  1.00  0.00    -0.191 A  
HETATM   16  C   UNL     1      -9.127   4.275  64.637  1.00  0.00    -0.150 A  
HETATM   17  C   UNL     1     -10.772   5.148  66.165  1.00  0.00    -0.247 A  
HETATM   18  C   UNL     1     -10.440   4.307  65.098  1.00  0.00    -0.195 A  
HETATM   19  O   UNL     1      -8.750   3.445  63.620  1.00  0.00    -0.093 OA 
HETATM   20  C   UNL     1      -8.153   5.087  65.206  1.00  0.00    -0.117 A  
HETATM   21  H   UNL     1      -7.854   3.423  63.305  1.00  0.00     0.000 HD 
HETATM   22  C   UNL     1      -8.485   5.925  66.275  1.00  0.00    -0.128 A  
ENDBRANCH  12  15
ENDBRANCH   3  12
TORSDOF 3
ENDMDL
MODEL      163
REMARK 921   NORMALIZED FREE ENERGY PREDICTED BY IDOCK:   -4.60 KCAL/MOL
REMARK 922        TOTAL FREE ENERGY PREDICTED BY IDOCK:   -6.39 KCAL/MOL
REMARK 923 INTER-LIGAND FREE ENERGY PREDICTED BY IDOCK:   -5.38 KCAL/MOL
REMARK 924 INTRA-LIGAND FREE ENERGY PREDICTED BY IDOCK:   -1.01 KCAL/MOL
REMARK 927      BINDING AFFINITY PREDICTED BY RF-SCORE:    0.00 PKD
ROOT
HETATM    1  C   UNL     1     -11.336  10.280  70.075  1.00  0.00    -0.370 C  
HETATM    2  C   UNL     1     -11.803   9.887  71.442  1.00  0.00    -0.476 C  
HETATM    3  C   UNL     1     -10.638   9.517  69.200  1.00  0.00    -0.237 C  
ENDROOT
BRANCH   3   4
HETATM    4  C   UNL     1     -10.274   8.141  69.603  1.00  0.00    -0.205 A  
HETATM    5  O   UNL     1      -9.061   4.244  70.387  1.00  0.00    -0.091 OA 
HETATM    6  H   UNL     1      -9.607   3.512  70.122  1.00  0.00     0.000 HD 
HETATM    7  C   UNL     1      -9.065   7.909  70.276  1.00  0.00    -0.152 A  
HETATM    8  C   UNL     1      -9.447   5.534  70.168  1.00  0.00    -0.163 A  
HETATM    9  C   UNL     1     -11.080   7.050  69.248  1.00  0.00    -0.166 A  
HETATM   10  C   UNL     1     -10.662   5.746  69.529  1.00  0.00    -0.408 A  
HETATM   11  C   UNL     1      -8.647   6.603  70.555  1.00  0.00    -0.143 A  
ENDBRANCH   3   4
BRANCH   3  12
HETATM   12  C   UNL     1     -10.312  10.069  67.872  1.00  0.00    -0.249 C  
HETATM   13  C   UNL     1      -9.955   9.218  66.884  1.00  0.00    -0.298 C  
HETATM   14  C   UNL     1      -9.649   9.530  65.451  1.00  0.00    -0.342 C  
BRANCH  12  15
HETATM   15  C   UNL     1     -10.447  11.513  67.570  1.00  0.00    -0.229 A  
HETATM   16  C   UNL     1     -10.768  14.261  67.160  1.00  0.00    -0.282 A  
HETATM   17  C   UNL     1      -9.488  12.423  68.046  1.00  0.00    -0.208 A  
HETATM   18  C   UNL     1      -9.648  13.798  67.844  1.00  0.00    -0.222 A  
HETATM   19  O   UNL     1     -10.983  15.596  66.968  1.00  0.00    -0.322 OA 
HETATM   20  C   UNL     1     -11.710  13.374  66.653  1.00  0.00    -0.428 A  
HETATM   21  H   UNL     1     -11.747  15.912  66.501  1.00  0.00     0.000 HD 
HETATM   22  C   UNL     1     -11.551  12.000  66.859  1.00  0.00    -0.389 A  
ENDBRANCH  12  15
ENDBRANCH   3  12
TORSDOF 3
ENDMDL
MODEL      164
REMARK 921   NORMALIZED FREE ENERGY PREDICTED BY IDOCK:   -4.57 KCAL/MOL
REMARK 922        TOTAL FREE ENERGY PREDICTED BY IDOCK:   -6.35 KCAL/MOL
REMARK 923 INTER-LIGAND FREE ENERGY PREDICTED BY IDOCK:   -5.27 KCAL/MOL
REMARK 924 INTRA-LIGAND FREE ENERGY PREDICTED BY IDOCK:   -1.08 KCAL/MOL
REMARK 927      BINDING AFFINITY PREDICTED BY RF-SCORE:    0.00 PKD
ROOT
HETATM    1  C   UNL     1      -7.406   8.854  68.260  1.00  0.00    -0.083 C  
HETATM    2  C   UNL     1      -6.970   7.558  68.868  1.00  0.00    -0.077 C  
HETATM    3  C   UNL     1      -8.481   9.600  68.611  1.00  0.00    -0.119 C  
ENDROOT
BRANCH   3   4
HETATM    4  C   UNL     1      -9.346   9.112  69.708  1.00  0.00    -0.190 A  
HETATM    5  O   UNL     1     -11.573   7.399  72.772  1.00  0.00    -0.492 OA 
HETATM    6  H   UNL     1     -12.363   6.912  72.570  1.00  0.00     0.000 HD 
HETATM    7  C   UNL     1      -8.937   9.271  71.041  1.00  0.00    -0.225 A  
HETATM    8  C   UNL     1     -10.838   7.995  71.789  1.00  0.00    -0.242 A  
HETATM    9  C   UNL     1     -10.531   8.416  69.435  1.00  0.00    -0.222 A  
HETATM   10  C   UNL     1     -11.274   7.855  70.477  1.00  0.00    -0.259 A  
HETATM   11  C   UNL     1      -9.681   8.709  72.084  1.00  0.00    -0.383 A  
ENDBRANCH   3   4
BRANCH   3  12
HETATM   12  C   UNL     1      -8.717  10.883  67.923  1.00  0.00    -0.131 C  
HETATM   13  C   UNL     1      -8.102  11.993  68.389  1.00  0.00    -0.154 C  
HETATM   14  C   UNL     1      -8.131  13.380  67.825  1.00  0.00    -0.173 C  
BRANCH  12  15
HETATM   15  C   UNL     1      -9.537  10.971  66.693  1.00  0.00    -0.216 A  
HETATM   16  C   UNL     1     -10.984  11.267  64.318  1.00  0.00    -0.288 A  
HETATM   17  C   UNL     1      -9.079  10.387  65.500  1.00  0.00    -0.208 A  
HETATM   18  C   UNL     1      -9.800  10.537  64.311  1.00  0.00    -0.402 A  
HETATM   19  O   UNL     1     -11.704  11.467  63.175  1.00  0.00    -0.854 OA 
HETATM   20  C   UNL     1     -11.470  11.824  65.495  1.00  0.00    -0.241 A  
HETATM   21  H   UNL     1     -12.512  11.966  63.179  1.00  0.00     0.000 HD 
HETATM   22  C   UNL     1     -10.747  11.677  66.683  1.00  0.00    -0.310 A  
ENDBRANCH  12  15
ENDBRANCH   3  12
TORSDOF 3
ENDMDL
MODEL      165
REMARK 921   NORMALIZED FREE ENERGY PREDICTED BY IDOCK:   -4.56 KCAL/MOL
REMARK 922        TOTAL FREE ENERGY PREDICTED BY IDOCK:   -6.34 KCAL/MOL
REMARK 923 INTER-LIGAND FREE ENERGY PREDICTED BY IDOCK:   -5.52 KCAL/MOL
REMARK 924 INTRA-LIGAND FREE ENERGY PREDICTED BY IDOCK:   -0.82 KCAL/MOL
REMARK 927      BINDING AFFINITY PREDICTED BY RF-SCORE:    0.00 PKD
ROOT
HETATM    1  C   UNL     1     -11.433  12.637  66.077  1.00  0.00    -0.414 C  
HETATM    2  C   UNL     1     -12.468  13.381  65.293  1.00  0.00    -0.532 C  
HETATM    3  C   UNL     1     -10.482  13.166  66.882  1.00  0.00    -0.256 C  
ENDROOT
BRANCH   3   4
HETATM    4  C   UNL     1     -10.424  14.637  67.027  1.00  0.00    -0.269 A  
HETATM    5  O   UNL     1     -10.655  18.772  67.385  1.00  0.00    -0.411 OA 
HETATM    6  H   UNL     1     -10.581  19.322  66.613  1.00  0.00     0.000 HD 
HETATM    7  C   UNL     1     -10.593  15.219  68.292  1.00  0.00    -0.244 A  
HETATM    8  C   UNL     1     -10.555  17.414  67.301  1.00  0.00    -0.284 A  
HETATM    9  C   UNL     1     -10.286  15.467  65.906  1.00  0.00    -0.365 A  
HETATM   10  C   UNL     1     -10.355  16.855  66.044  1.00  0.00    -0.335 A  
HETATM   11  C   UNL     1     -10.663  16.610  68.430  1.00  0.00    -0.353 A  
ENDBRANCH   3   4
BRANCH   3  12
HETATM   12  C   UNL     1      -9.579  12.259  67.615  1.00  0.00    -0.191 C  
HETATM   13  C   UNL     1      -8.259  12.549  67.657  1.00  0.00    -0.172 C  
HETATM   14  C   UNL     1      -7.169  11.827  68.387  1.00  0.00    -0.089 C  
BRANCH  12  15
HETATM   15  C   UNL     1     -10.088  11.093  68.373  1.00  0.00    -0.193 A  
HETATM   16  C   UNL     1     -10.923   8.916  69.919  1.00  0.00    -0.182 A  
HETATM   17  C   UNL     1     -10.894  11.289  69.507  1.00  0.00    -0.207 A  
HETATM   18  C   UNL     1     -11.310  10.202  70.283  1.00  0.00    -0.387 A  
HETATM   19  O   UNL     1     -11.278   7.829  70.664  1.00  0.00    -0.265 OA 
HETATM   20  C   UNL     1     -10.154   8.700  68.781  1.00  0.00    -0.210 A  
HETATM   21  H   UNL     1     -11.014   6.951  70.415  1.00  0.00     0.000 HD 
HETATM   22  C   UNL     1      -9.736   9.787  68.008  1.00  0.00    -0.165 A  
ENDBRANCH  12  15
ENDBRANCH   3  12
TORSDOF 3
ENDMDL
MODEL      166
REMARK 921   NORMALIZED FREE ENERGY PREDICTED BY IDOCK:   -4.55 KCAL/MOL
REMARK 922        TOTAL FREE ENERGY PREDICTED BY IDOCK:   -6.33 KCAL/MOL
REMARK 923 INTER-LIGAND FREE ENERGY PREDICTED BY IDOCK:   -6.21 KCAL/MOL
REMARK 924 INTRA-LIGAND FREE ENERGY PREDICTED BY IDOCK:   -0.12 KCAL/MOL
REMARK 927      BINDING AFFINITY PREDICTED BY RF-SCORE:    0.00 PKD
ROOT
HETATM    1  C   UNL     1     -10.487   9.123  67.675  1.00  0.00    -0.323 C  
HETATM    2  C   UNL     1     -10.726   7.645  67.679  1.00  0.00    -0.246 C  
HETATM    3  C   UNL     1     -10.443   9.945  68.750  1.00  0.00    -0.234 C  
ENDROOT
BRANCH   3   4
HETATM    4  C   UNL     1     -10.655   9.359  70.092  1.00  0.00    -0.279 A  
HETATM    5  O   UNL     1     -11.251   7.355  73.685  1.00  0.00    -0.588 OA 
HETATM    6  H   UNL     1     -12.134   7.181  73.992  1.00  0.00     0.000 HD 
HETATM    7  C   UNL     1      -9.550   8.956  70.858  1.00  0.00    -0.298 A  
HETATM    8  C   UNL     1     -11.026   8.035  72.524  1.00  0.00    -0.364 A  
HETATM    9  C   UNL     1     -11.948   9.120  70.578  1.00  0.00    -0.081 A  
HETATM   10  C   UNL     1     -12.131   8.454  71.793  1.00  0.00    -0.379 A  
HETATM   11  C   UNL     1      -9.735   8.289  72.074  1.00  0.00    -0.322 A  
ENDBRANCH   3   4
BRANCH   3  12
HETATM   12  C   UNL     1     -10.142  11.375  68.546  1.00  0.00    -0.211 C  
HETATM   13  C   UNL     1      -9.048  11.712  67.827  1.00  0.00    -0.175 C  
HETATM   14  C   UNL     1      -8.579  13.078  67.431  1.00  0.00    -0.199 C  
BRANCH  12  15
HETATM   15  C   UNL     1     -11.048  12.442  69.030  1.00  0.00    -0.288 A  
HETATM   16  C   UNL     1     -12.620  14.543  69.998  1.00  0.00    -0.232 A  
HETATM   17  C   UNL     1     -11.246  13.599  68.259  1.00  0.00    -0.302 A  
HETATM   18  C   UNL     1     -12.029  14.653  68.743  1.00  0.00    -0.301 A  
HETATM   19  O   UNL     1     -13.365  15.559  70.525  1.00  0.00    -0.750 OA 
HETATM   20  C   UNL     1     -12.462  13.392  70.761  1.00  0.00    -0.418 A  
HETATM   21  H   UNL     1     -13.768  15.484  71.382  1.00  0.00     0.000 HD 
HETATM   22  C   UNL     1     -11.677  12.340  70.278  1.00  0.00    -0.223 A  
ENDBRANCH  12  15
ENDBRANCH   3  12
TORSDOF 3
ENDMDL
MODEL      167
REMARK 921   NORMALIZED FREE ENERGY PREDICTED BY IDOCK:   -4.55 KCAL/MOL
REMARK 922        TOTAL FREE ENERGY PREDICTED BY IDOCK:   -6.32 KCAL/MOL
REMARK 923 INTER-LIGAND FREE ENERGY PREDICTED BY IDOCK:   -4.67 KCAL/MOL
REMARK 924 INTRA-LIGAND FREE ENERGY PREDICTED BY IDOCK:   -1.65 KCAL/MOL
REMARK 927      BINDING AFFINITY PREDICTED BY RF-SCORE:    0.00 PKD
ROOT
HETATM    1  C   UNL     1     -11.350  10.395  68.942  1.00  0.00    -0.278 C  
HETATM    2  C   UNL     1     -11.499  11.836  68.562  1.00  0.00    -0.353 C  
HETATM    3  C   UNL     1     -10.551   9.474  68.353  1.00  0.00    -0.261 C  
ENDROOT
BRANCH   3   4
HETATM    4  C   UNL     1      -9.724   9.895  67.201  1.00  0.00    -0.224 A  
HETATM    5  O   UNL     1      -7.280  10.701  63.937  1.00  0.00    -0.342 OA 
HETATM    6  H   UNL     1      -6.373  10.951  64.071  1.00  0.00     0.000 HD 
HETATM    7  C   UNL     1     -10.247   9.814  65.902  1.00  0.00    -0.245 A  
HETATM    8  C   UNL     1      -8.112  10.458  64.990  1.00  0.00    -0.136 A  
HETATM    9  C   UNL     1      -8.392  10.296  67.379  1.00  0.00    -0.118 A  
HETATM   10  C   UNL     1      -7.587  10.574  66.271  1.00  0.00    -0.133 A  
HETATM   11  C   UNL     1      -9.439  10.092  64.793  1.00  0.00    -0.366 A  
ENDBRANCH   3   4
BRANCH   3  12
HETATM   12  C   UNL     1     -10.504   8.108  68.908  1.00  0.00    -0.202 C  
HETATM   13  C   UNL     1     -10.966   7.900  70.162  1.00  0.00    -0.235 C  
HETATM   14  C   UNL     1     -11.084   6.607  70.908  1.00  0.00    -0.335 C  
BRANCH  12  15
HETATM   15  C   UNL     1     -10.046   6.952  68.104  1.00  0.00    -0.187 A  
HETATM   16  C   UNL     1      -9.113   4.881  66.472  1.00  0.00    -0.124 A  
HETATM   17  C   UNL     1      -8.712   6.518  68.192  1.00  0.00    -0.117 A  
HETATM   18  C   UNL     1      -8.244   5.485  67.374  1.00  0.00    -0.101 A  
HETATM   19  O   UNL     1      -8.692   3.891  65.631  1.00  0.00    -0.112 OA 
HETATM   20  C   UNL     1     -10.444   5.274  66.394  1.00  0.00    -0.347 A  
HETATM   21  H   UNL     1      -9.286   3.479  65.015  1.00  0.00     0.000 HD 
HETATM   22  C   UNL     1     -10.911   6.310  67.209  1.00  0.00    -0.455 A  
ENDBRANCH  12  15
ENDBRANCH   3  12
TORSDOF 3
ENDMDL
MODEL      168
REMARK 921   NORMALIZED FREE ENERGY PREDICTED BY IDOCK:   -4.48 KCAL/MOL
REMARK 922        TOTAL FREE ENERGY PREDICTED BY IDOCK:   -6.24 KCAL/MOL
REMARK 923 INTER-LIGAND FREE ENERGY PREDICTED BY IDOCK:   -5.03 KCAL/MOL
REMARK 924 INTRA-LIGAND FREE ENERGY PREDICTED BY IDOCK:   -1.22 KCAL/MOL
REMARK 927      BINDING AFFINITY PREDICTED BY RF-SCORE:    0.00 PKD
ROOT
HETATM    1  C   UNL     1     -11.053  12.494  65.803  1.00  0.00    -0.343 C  
HETATM    2  C   UNL     1     -12.454  13.015  65.716  1.00  0.00    -0.394 C  
HETATM    3  C   UNL     1     -10.345  12.239  66.930  1.00  0.00    -0.236 C  
ENDROOT
BRANCH   3   4
HETATM    4  C   UNL     1     -10.989  12.496  68.236  1.00  0.00    -0.270 A  
HETATM    5  O   UNL     1     -13.147  13.214  71.716  1.00  0.00    -0.396 OA 
HETATM    6  H   UNL     1     -13.329  14.106  71.988  1.00  0.00     0.000 HD 
HETATM    7  C   UNL     1     -11.433  11.417  69.017  1.00  0.00    -0.366 A  
HETATM    8  C   UNL     1     -12.418  12.949  70.594  1.00  0.00    -0.252 A  
HETATM    9  C   UNL     1     -11.241  13.804  68.671  1.00  0.00    -0.308 A  
HETATM   10  C   UNL     1     -11.959  14.029  69.849  1.00  0.00    -0.399 A  
HETATM   11  C   UNL     1     -12.152  11.643  70.196  1.00  0.00    -0.414 A  
ENDBRANCH   3   4
BRANCH   3  12
HETATM   12  C   UNL     1      -8.988  11.676  66.809  1.00  0.00    -0.189 C  
HETATM   13  C   UNL     1      -7.957  12.336  67.384  1.00  0.00    -0.171 C  
HETATM   14  C   UNL     1      -6.516  11.933  67.455  1.00  0.00    -0.111 C  
BRANCH  12  15
HETATM   15  C   UNL     1      -8.737  10.372  66.154  1.00  0.00    -0.163 A  
HETATM   16  C   UNL     1      -8.422   7.920  64.846  1.00  0.00    -0.028 A  
HETATM   17  C   UNL     1      -8.335  10.326  64.809  1.00  0.00    -0.173 A  
HETATM   18  C   UNL     1      -8.179   9.101  64.152  1.00  0.00    -0.162 A  
HETATM   19  O   UNL     1      -8.314   6.702  64.237  1.00  0.00    -0.315 OA 
HETATM   20  C   UNL     1      -8.788   7.944  66.186  1.00  0.00    -0.197 A  
HETATM   21  H   UNL     1      -8.480   5.896  64.710  1.00  0.00     0.000 HD 
HETATM   22  C   UNL     1      -8.947   9.169  66.841  1.00  0.00    -0.143 A  
ENDBRANCH  12  15
ENDBRANCH   3  12
TORSDOF 3
ENDMDL
MODEL      169
REMARK 921   NORMALIZED FREE ENERGY PREDICTED BY IDOCK:   -4.48 KCAL/MOL
REMARK 922        TOTAL FREE ENERGY PREDICTED BY IDOCK:   -6.24 KCAL/MOL
REMARK 923 INTER-LIGAND FREE ENERGY PREDICTED BY IDOCK:   -4.73 KCAL/MOL
REMARK 924 INTRA-LIGAND FREE ENERGY PREDICTED BY IDOCK:   -1.51 KCAL/MOL
REMARK 927      BINDING AFFINITY PREDICTED BY RF-SCORE:    0.00 PKD
ROOT
HETATM    1  C   UNL     1     -11.774  11.113  70.000  1.00  0.00    -0.438 C  
HETATM    2  C   UNL     1     -11.935  12.380  69.219  1.00  0.00    -0.308 C  
HETATM    3  C   UNL     1     -10.956  10.074  69.709  1.00  0.00    -0.317 C  
ENDROOT
BRANCH   3   4
HETATM    4  C   UNL     1     -10.118  10.158  68.493  1.00  0.00    -0.186 A  
HETATM    5  O   UNL     1      -7.886  10.772  65.040  1.00  0.00    -0.336 OA 
HETATM    6  H   UNL     1      -8.269  10.595  64.188  1.00  0.00     0.000 HD 
HETATM    7  C   UNL     1      -8.794  10.611  68.590  1.00  0.00    -0.151 A  
HETATM    8  C   UNL     1      -8.586  10.554  66.191  1.00  0.00    -0.150 A  
HETATM    9  C   UNL     1     -10.652   9.873  67.229  1.00  0.00    -0.316 A  
HETATM   10  C   UNL     1      -9.885  10.074  66.078  1.00  0.00    -0.321 A  
HETATM   11  C   UNL     1      -8.026  10.814  67.437  1.00  0.00    -0.112 A  
ENDBRANCH   3   4
BRANCH   3  12
HETATM   12  C   UNL     1     -10.899   8.928  70.635  1.00  0.00    -0.286 C  
HETATM   13  C   UNL     1     -11.346   9.092  71.901  1.00  0.00    -0.438 C  
HETATM   14  C   UNL     1     -11.452   8.070  72.991  1.00  0.00    -0.177 C  
BRANCH  12  15
HETATM   15  C   UNL     1     -10.449   7.587  70.194  1.00  0.00    -0.226 A  
HETATM   16  C   UNL     1      -9.511   5.133  69.234  1.00  0.00    -0.140 A  
HETATM   17  C   UNL     1      -9.167   7.128  70.539  1.00  0.00    -0.158 A  
HETATM   18  C   UNL     1      -8.695   5.902  70.058  1.00  0.00    -0.133 A  
HETATM   19  O   UNL     1      -9.081   3.947  68.714  1.00  0.00    -0.114 OA 
HETATM   20  C   UNL     1     -10.795   5.556  68.909  1.00  0.00    -0.132 A  
HETATM   21  H   UNL     1      -9.638   3.421  68.151  1.00  0.00     0.000 HD 
HETATM   22  C   UNL     1     -11.264   6.783  69.388  1.00  0.00    -0.288 A  
ENDBRANCH  12  15
ENDBRANCH   3  12
TORSDOF 3
ENDMDL
MODEL      170
REMARK 921   NORMALIZED FREE ENERGY PREDICTED BY IDOCK:   -4.46 KCAL/MOL
REMARK 922        TOTAL FREE ENERGY PREDICTED BY IDOCK:   -6.22 KCAL/MOL
REMARK 923 INTER-LIGAND FREE ENERGY PREDICTED BY IDOCK:   -5.33 KCAL/MOL
REMARK 924 INTRA-LIGAND FREE ENERGY PREDICTED BY IDOCK:   -0.89 KCAL/MOL
REMARK 927      BINDING AFFINITY PREDICTED BY RF-SCORE:    0.00 PKD
ROOT
HETATM    1  C   UNL     1     -11.111  10.274  70.413  1.00  0.00    -0.391 C  
HETATM    2  C   UNL     1     -10.846   9.064  71.253  1.00  0.00    -0.385 C  
HETATM    3  C   UNL     1     -10.782  10.451  69.111  1.00  0.00    -0.266 C  
ENDROOT
BRANCH   3   4
HETATM    4  C   UNL     1     -10.081   9.355  68.408  1.00  0.00    -0.208 A  
HETATM    5  O   UNL     1      -8.143   6.063  66.768  1.00  0.00    -0.104 OA 
HETATM    6  H   UNL     1      -7.199   5.983  66.838  1.00  0.00     0.000 HD 
HETATM    7  C   UNL     1     -10.823   8.372  67.736  1.00  0.00    -0.061 A  
HETATM    8  C   UNL     1      -8.803   7.146  67.272  1.00  0.00    -0.120 A  
HETATM    9  C   UNL     1      -8.686   9.233  68.472  1.00  0.00    -0.128 A  
HETATM   10  C   UNL     1      -8.049   8.126  67.907  1.00  0.00    -0.128 A  
HETATM   11  C   UNL     1     -10.184   7.263  67.170  1.00  0.00    -0.339 A  
ENDBRANCH   3   4
BRANCH   3  12
HETATM   12  C   UNL     1     -11.176  11.704  68.438  1.00  0.00    -0.307 C  
HETATM   13  C   UNL     1     -11.514  11.660  67.129  1.00  0.00    -0.344 C  
HETATM   14  C   UNL     1     -12.008  12.773  66.257  1.00  0.00    -0.460 C  
BRANCH  12  15
HETATM   15  C   UNL     1     -11.293  12.984  69.174  1.00  0.00    -0.328 A  
HETATM   16  C   UNL     1     -11.614  15.459  70.436  1.00  0.00    -0.324 A  
HETATM   17  C   UNL     1     -12.439  13.251  69.941  1.00  0.00    -0.117 A  
HETATM   18  C   UNL     1     -12.603  14.489  70.571  1.00  0.00    -0.413 A  
HETATM   19  O   UNL     1     -11.746  16.693  71.005  1.00  0.00    -0.553 OA 
HETATM   20  C   UNL     1     -10.458  15.200  69.709  1.00  0.00    -0.248 A  
HETATM   21  H   UNL     1     -11.071  17.355  70.914  1.00  0.00     0.000 HD 
HETATM   22  C   UNL     1     -10.297  13.963  69.077  1.00  0.00    -0.108 A  
ENDBRANCH  12  15
ENDBRANCH   3  12
TORSDOF 3
ENDMDL
MODEL      171
REMARK 921   NORMALIZED FREE ENERGY PREDICTED BY IDOCK:   -4.41 KCAL/MOL
REMARK 922        TOTAL FREE ENERGY PREDICTED BY IDOCK:   -6.17 KCAL/MOL
REMARK 923 INTER-LIGAND FREE ENERGY PREDICTED BY IDOCK:   -4.88 KCAL/MOL
REMARK 924 INTRA-LIGAND FREE ENERGY PREDICTED BY IDOCK:   -1.29 KCAL/MOL
REMARK 927      BINDING AFFINITY PREDICTED BY RF-SCORE:    0.00 PKD
ROOT
HETATM    1  C   UNL     1      -7.432  11.536  67.938  1.00  0.00    -0.103 C  
HETATM    2  C   UNL     1      -6.953  11.602  69.355  1.00  0.00    -0.051 C  
HETATM    3  C   UNL     1      -8.541  10.908  67.480  1.00  0.00    -0.127 C  
ENDROOT
BRANCH   3   4
HETATM    4  C   UNL     1      -9.397  10.194  68.453  1.00  0.00    -0.137 A  
HETATM    5  O   UNL     1     -12.048   8.113  70.886  1.00  0.00    -0.438 OA 
HETATM    6  H   UNL     1     -12.757   8.573  71.320  1.00  0.00     0.000 HD 
HETATM    7  C   UNL     1      -9.231   8.814  68.644  1.00  0.00    -0.141 A  
HETATM    8  C   UNL     1     -11.147   8.774  70.104  1.00  0.00    -0.202 A  
HETATM    9  C   UNL     1     -10.430  10.859  69.128  1.00  0.00    -0.248 A  
HETATM   10  C   UNL     1     -11.307  10.146  69.950  1.00  0.00    -0.335 A  
HETATM   11  C   UNL     1     -10.110   8.101  69.468  1.00  0.00    -0.193 A  
ENDBRANCH   3   4
BRANCH   3  12
HETATM   12  C   UNL     1      -8.874  11.000  66.046  1.00  0.00    -0.199 C  
HETATM   13  C   UNL     1      -8.295  10.131  65.187  1.00  0.00    -0.163 C  
HETATM   14  C   UNL     1      -8.524   9.984  63.715  1.00  0.00    -0.181 C  
BRANCH  12  15
HETATM   15  C   UNL     1      -9.885  11.956  65.538  1.00  0.00    -0.257 A  
HETATM   16  C   UNL     1     -11.838  13.792  64.742  1.00  0.00    -0.391 A  
HETATM   17  C   UNL     1      -9.615  13.334  65.546  1.00  0.00     0.036 A  
HETATM   18  C   UNL     1     -10.591  14.255  65.151  1.00  0.00    -0.423 A  
HETATM   19  O   UNL     1     -12.832  14.655  64.379  1.00  0.00    -0.578 OA 
HETATM   20  C   UNL     1     -12.112  12.430  64.695  1.00  0.00    -0.487 A  
HETATM   21  H   UNL     1     -13.684  14.340  64.099  1.00  0.00     0.000 HD 
HETATM   22  C   UNL     1     -11.137  11.511  65.094  1.00  0.00    -0.260 A  
ENDBRANCH  12  15
ENDBRANCH   3  12
TORSDOF 3
ENDMDL
MODEL      172
REMARK 921   NORMALIZED FREE ENERGY PREDICTED BY IDOCK:   -4.41 KCAL/MOL
REMARK 922        TOTAL FREE ENERGY PREDICTED BY IDOCK:   -6.16 KCAL/MOL
REMARK 923 INTER-LIGAND FREE ENERGY PREDICTED BY IDOCK:   -4.98 KCAL/MOL
REMARK 924 INTRA-LIGAND FREE ENERGY PREDICTED BY IDOCK:   -1.17 KCAL/MOL
REMARK 927      BINDING AFFINITY PREDICTED BY RF-SCORE:    0.00 PKD
ROOT
HETATM    1  C   UNL     1      -8.031   7.600  70.980  1.00  0.00    -0.094 C  
HETATM    2  C   UNL     1      -7.691   8.938  71.558  1.00  0.00    -0.097 C  
HETATM    3  C   UNL     1      -9.268   7.107  70.734  1.00  0.00    -0.157 C  
ENDROOT
BRANCH   3   4
HETATM    4  C   UNL     1     -10.438   7.950  71.063  1.00  0.00    -0.223 A  
HETATM    5  O   UNL     1     -13.479  10.544  72.207  1.00  0.00    -0.588 OA 
HETATM    6  H   UNL     1     -13.980  10.371  72.996  1.00  0.00     0.000 HD 
HETATM    7  C   UNL     1     -10.732   9.072  70.273  1.00  0.00    -0.262 A  
HETATM    8  C   UNL     1     -12.494   9.696  71.793  1.00  0.00    -0.402 A  
HETATM    9  C   UNL     1     -11.210   7.697  72.205  1.00  0.00    -0.331 A  
HETATM   10  C   UNL     1     -12.236   8.573  72.570  1.00  0.00    -0.383 A  
HETATM   11  C   UNL     1     -11.759   9.949  70.640  1.00  0.00    -0.404 A  
ENDBRANCH   3   4
BRANCH   3  12
HETATM   12  C   UNL     1      -9.397   5.778  70.108  1.00  0.00    -0.184 C  
HETATM   13  C   UNL     1      -9.505   4.691  70.906  1.00  0.00    -0.233 C  
HETATM   14  C   UNL     1      -9.713   3.262  70.510  1.00  0.00    -0.138 C  
BRANCH  12  15
HETATM   15  C   UNL     1      -9.498   5.611  68.640  1.00  0.00    -0.152 A  
HETATM   16  C   UNL     1      -9.774   5.149  65.895  1.00  0.00    -0.140 A  
HETATM   17  C   UNL     1     -10.687   5.952  67.974  1.00  0.00    -0.332 A  
HETATM   18  C   UNL     1     -10.828   5.719  66.602  1.00  0.00    -0.290 A  
HETATM   19  O   UNL     1      -9.878   4.872  64.562  1.00  0.00    -0.360 OA 
HETATM   20  C   UNL     1      -8.578   4.835  66.531  1.00  0.00    -0.109 A  
HETATM   21  H   UNL     1      -9.158   4.483  64.079  1.00  0.00     0.000 HD 
HETATM   22  C   UNL     1      -8.439   5.066  67.903  1.00  0.00    -0.104 A  
ENDBRANCH  12  15
ENDBRANCH   3  12
TORSDOF 3
ENDMDL
MODEL      173
REMARK 921   NORMALIZED FREE ENERGY PREDICTED BY IDOCK:   -4.38 KCAL/MOL
REMARK 922        TOTAL FREE ENERGY PREDICTED BY IDOCK:   -6.13 KCAL/MOL
REMARK 923 INTER-LIGAND FREE ENERGY PREDICTED BY IDOCK:   -5.07 KCAL/MOL
REMARK 924 INTRA-LIGAND FREE ENERGY PREDICTED BY IDOCK:   -1.06 KCAL/MOL
REMARK 927      BINDING AFFINITY PREDICTED BY RF-SCORE:    0.00 PKD
ROOT
HETATM    1  C   UNL     1     -10.310   9.343  66.421  1.00  0.00    -0.237 C  
HETATM    2  C   UNL     1     -10.530   7.951  66.926  1.00  0.00    -0.388 C  
HETATM    3  C   UNL     1     -10.482  10.498  67.108  1.00  0.00    -0.302 C  
ENDROOT
BRANCH   3   4
HETATM    4  C   UNL     1     -10.942  10.417  68.512  1.00  0.00    -0.302 A  
HETATM    5  O   UNL     1     -12.437   9.866  72.351  1.00  0.00    -0.162 OA 
HETATM    6  H   UNL     1     -13.260  10.268  72.604  1.00  0.00     0.000 HD 
HETATM    7  C   UNL     1     -10.219   9.650  69.438  1.00  0.00    -0.220 A  
HETATM    8  C   UNL     1     -11.909  10.052  71.107  1.00  0.00    -0.393 A  
HETATM    9  C   UNL     1     -12.138  11.028  68.915  1.00  0.00    -0.239 A  
HETATM   10  C   UNL     1     -12.621  10.841  70.212  1.00  0.00    -0.350 A  
HETATM   11  C   UNL     1     -10.704   9.463  70.738  1.00  0.00    -0.373 A  
ENDBRANCH   3   4
BRANCH   3  12
HETATM   12  C   UNL     1     -10.161  11.777  66.449  1.00  0.00    -0.248 C  
HETATM   13  C   UNL     1     -10.770  12.077  65.279  1.00  0.00    -0.331 C  
HETATM   14  C   UNL     1     -10.661  13.329  64.466  1.00  0.00    -0.437 C  
BRANCH  12  15
HETATM   15  C   UNL     1      -9.262  12.775  67.073  1.00  0.00    -0.221 A  
HETATM   16  C   UNL     1      -7.546  14.551  68.386  1.00  0.00    -0.122 A  
HETATM   17  C   UNL     1      -7.869  12.605  67.005  1.00  0.00    -0.043 A  
HETATM   18  C   UNL     1      -7.009  13.491  67.663  1.00  0.00    -0.176 A  
HETATM   19  O   UNL     1      -6.748  15.421  69.072  1.00  0.00    -0.114 OA 
HETATM   20  C   UNL     1      -8.921  14.755  68.438  1.00  0.00    -0.187 A  
HETATM   21  H   UNL     1      -7.114  16.146  69.565  1.00  0.00     0.000 HD 
HETATM   22  C   UNL     1      -9.779  13.867  67.782  1.00  0.00    -0.225 A  
ENDBRANCH  12  15
ENDBRANCH   3  12
TORSDOF 3
ENDMDL
MODEL      174
REMARK 921   NORMALIZED FREE ENERGY PREDICTED BY IDOCK:   -4.37 KCAL/MOL
REMARK 922        TOTAL FREE ENERGY PREDICTED BY IDOCK:   -6.12 KCAL/MOL
REMARK 923 INTER-LIGAND FREE ENERGY PREDICTED BY IDOCK:   -5.78 KCAL/MOL
REMARK 924 INTRA-LIGAND FREE ENERGY PREDICTED BY IDOCK:   -0.33 KCAL/MOL
REMARK 927      BINDING AFFINITY PREDICTED BY RF-SCORE:    0.00 PKD
ROOT
HETATM    1  C   UNL     1      -7.925  10.311  69.420  1.00  0.00    -0.162 C  
HETATM    2  C   UNL     1      -6.623   9.631  69.129  1.00  0.00    -0.049 C  
HETATM    3  C   UNL     1      -9.139  10.004  68.905  1.00  0.00    -0.159 C  
ENDROOT
BRANCH   3   4
HETATM    4  C   UNL     1      -9.231   8.884  67.942  1.00  0.00    -0.148 A  
HETATM    5  O   UNL     1      -9.098   5.683  65.294  1.00  0.00    -0.321 OA 
HETATM    6  H   UNL     1      -8.921   5.835  64.372  1.00  0.00     0.000 HD 
HETATM    7  C   UNL     1      -9.466   7.582  68.410  1.00  0.00    -0.148 A  
HETATM    8  C   UNL     1      -9.175   6.717  66.181  1.00  0.00    -0.087 A  
HETATM    9  C   UNL     1      -9.002   9.089  66.575  1.00  0.00    -0.177 A  
HETATM   10  C   UNL     1      -8.971   8.003  65.696  1.00  0.00    -0.102 A  
HETATM   11  C   UNL     1      -9.434   6.495  67.528  1.00  0.00    -0.131 A  
ENDBRANCH   3   4
BRANCH   3  12
HETATM   12  C   UNL     1     -10.321  10.762  69.357  1.00  0.00    -0.207 C  
HETATM   13  C   UNL     1     -10.645  11.906  68.713  1.00  0.00    -0.234 C  
HETATM   14  C   UNL     1     -11.823  12.802  68.941  1.00  0.00    -0.351 C  
BRANCH  12  15
HETATM   15  C   UNL     1     -11.205  10.262  70.435  1.00  0.00    -0.407 A  
HETATM   16  C   UNL     1     -12.914   9.184  72.370  1.00  0.00    -0.398 A  
HETATM   17  C   UNL     1     -10.760   9.243  71.294  1.00  0.00    -0.422 A  
HETATM   18  C   UNL     1     -11.614   8.701  72.260  1.00  0.00    -0.424 A  
HETATM   19  O   UNL     1     -13.793   8.663  73.275  1.00  0.00    -0.963 OA 
HETATM   20  C   UNL     1     -13.362  10.215  71.551  1.00  0.00    -0.434 A  
HETATM   21  H   UNL     1     -14.680   8.993  73.350  1.00  0.00     0.000 HD 
HETATM   22  C   UNL     1     -12.508  10.754  70.583  1.00  0.00    -0.461 A  
ENDBRANCH  12  15
ENDBRANCH   3  12
TORSDOF 3
ENDMDL
MODEL      175
REMARK 921   NORMALIZED FREE ENERGY PREDICTED BY IDOCK:   -4.36 KCAL/MOL
REMARK 922        TOTAL FREE ENERGY PREDICTED BY IDOCK:   -6.10 KCAL/MOL
REMARK 923 INTER-LIGAND FREE ENERGY PREDICTED BY IDOCK:   -4.50 KCAL/MOL
REMARK 924 INTRA-LIGAND FREE ENERGY PREDICTED BY IDOCK:   -1.60 KCAL/MOL
REMARK 927      BINDING AFFINITY PREDICTED BY RF-SCORE:    0.00 PKD
ROOT
HETATM    1  C   UNL     1     -11.250  11.158  68.472  1.00  0.00    -0.318 C  
HETATM    2  C   UNL     1     -11.060  12.136  67.354  1.00  0.00    -0.330 C  
HETATM    3  C   UNL     1     -10.602   9.983  68.647  1.00  0.00    -0.239 C  
ENDROOT
BRANCH   3   4
HETATM    4  C   UNL     1      -9.591   9.581  67.645  1.00  0.00    -0.163 A  
HETATM    5  O   UNL     1      -6.713   8.114  65.028  1.00  0.00    -0.051 OA 
HETATM    6  H   UNL     1      -5.792   8.282  65.191  1.00  0.00     0.000 HD 
HETATM    7  C   UNL     1      -9.985   8.852  66.512  1.00  0.00    -0.358 A  
HETATM    8  C   UNL     1      -7.681   8.606  65.855  1.00  0.00    -0.101 A  
HETATM    9  C   UNL     1      -8.229   9.845  67.849  1.00  0.00    -0.113 A  
HETATM   10  C   UNL     1      -7.275   9.353  66.954  1.00  0.00    -0.087 A  
HETATM   11  C   UNL     1      -9.028   8.360  65.617  1.00  0.00    -0.183 A  
ENDBRANCH   3   4
BRANCH   3  12
HETATM   12  C   UNL     1     -10.894   9.177  69.848  1.00  0.00    -0.242 C  
HETATM   13  C   UNL     1     -11.758   9.667  70.765  1.00  0.00    -0.390 C  
HETATM   14  C   UNL     1     -12.259   9.013  72.016  1.00  0.00    -0.446 C  
BRANCH  12  15
HETATM   15  C   UNL     1     -10.336   7.817  70.032  1.00  0.00    -0.221 A  
HETATM   16  C   UNL     1      -9.385   5.232  70.517  1.00  0.00    -0.157 A  
HETATM   17  C   UNL     1     -11.053   6.696  69.582  1.00  0.00    -0.390 A  
HETATM   18  C   UNL     1     -10.581   5.402  69.826  1.00  0.00    -0.347 A  
HETATM   19  O   UNL     1      -8.903   3.988  70.806  1.00  0.00    -0.078 OA 
HETATM   20  C   UNL     1      -8.645   6.329  70.941  1.00  0.00    -0.135 A  
HETATM   21  H   UNL     1      -8.086   3.871  71.278  1.00  0.00     0.000 HD 
HETATM   22  C   UNL     1      -9.120   7.622  70.699  1.00  0.00    -0.158 A  
ENDBRANCH  12  15
ENDBRANCH   3  12
TORSDOF 3
ENDMDL
MODEL      176
REMARK 921   NORMALIZED FREE ENERGY PREDICTED BY IDOCK:   -4.30 KCAL/MOL
REMARK 922        TOTAL FREE ENERGY PREDICTED BY IDOCK:   -6.03 KCAL/MOL
REMARK 923 INTER-LIGAND FREE ENERGY PREDICTED BY IDOCK:   -5.38 KCAL/MOL
REMARK 924 INTRA-LIGAND FREE ENERGY PREDICTED BY IDOCK:   -0.65 KCAL/MOL
REMARK 927      BINDING AFFINITY PREDICTED BY RF-SCORE:    0.00 PKD
ROOT
HETATM    1  C   UNL     1      -8.179  11.238  66.421  1.00  0.00    -0.150 C  
HETATM    2  C   UNL     1      -7.161  10.430  67.163  1.00  0.00    -0.090 C  
HETATM    3  C   UNL     1      -9.525  11.190  66.568  1.00  0.00    -0.215 C  
ENDROOT
BRANCH   3   4
HETATM    4  C   UNL     1     -10.089  10.246  67.557  1.00  0.00    -0.239 A  
HETATM    5  O   UNL     1     -11.304   7.525  70.456  1.00  0.00    -0.275 OA 
HETATM    6  H   UNL     1     -11.379   6.602  70.241  1.00  0.00     0.000 HD 
HETATM    7  C   UNL     1     -10.405  10.696  68.848  1.00  0.00    -0.225 A  
HETATM    8  C   UNL     1     -10.934   8.444  69.518  1.00  0.00    -0.040 A  
HETATM    9  C   UNL     1     -10.237   8.886  67.253  1.00  0.00    -0.326 A  
HETATM   10  C   UNL     1     -10.656   7.985  68.236  1.00  0.00    -0.155 A  
HETATM   11  C   UNL     1     -10.824   9.794  69.832  1.00  0.00    -0.306 A  
ENDBRANCH   3   4
BRANCH   3  12
HETATM   12  C   UNL     1     -10.364  12.108  65.776  1.00  0.00    -0.289 C  
HETATM   13  C   UNL     1     -11.217  11.588  64.865  1.00  0.00    -0.242 C  
HETATM   14  C   UNL     1     -12.208  12.304  64.001  1.00  0.00    -0.569 C  
BRANCH  12  15
HETATM   15  C   UNL     1     -10.360  13.571  66.011  1.00  0.00    -0.303 A  
HETATM   16  C   UNL     1     -10.186  16.334  66.406  1.00  0.00    -0.313 A  
HETATM   17  C   UNL     1     -10.501  14.457  64.930  1.00  0.00    -0.448 A  
HETATM   18  C   UNL     1     -10.411  15.839  65.125  1.00  0.00    -0.394 A  
HETATM   19  O   UNL     1     -10.059  17.674  66.638  1.00  0.00    -0.306 OA 
HETATM   20  C   UNL     1     -10.078  15.474  67.492  1.00  0.00    -0.241 A  
HETATM   21  H   UNL     1      -9.906  18.012  67.512  1.00  0.00     0.000 HD 
HETATM   22  C   UNL     1     -10.164  14.092  67.296  1.00  0.00    -0.256 A  
ENDBRANCH  12  15
ENDBRANCH   3  12
TORSDOF 3
ENDMDL
MODEL      177
REMARK 921   NORMALIZED FREE ENERGY PREDICTED BY IDOCK:   -4.29 KCAL/MOL
REMARK 922        TOTAL FREE ENERGY PREDICTED BY IDOCK:   -6.02 KCAL/MOL
REMARK 923 INTER-LIGAND FREE ENERGY PREDICTED BY IDOCK:   -4.78 KCAL/MOL
REMARK 924 INTRA-LIGAND FREE ENERGY PREDICTED BY IDOCK:   -1.25 KCAL/MOL
REMARK 927      BINDING AFFINITY PREDICTED BY RF-SCORE:    0.00 PKD
ROOT
HETATM    1  C   UNL     1     -10.752   7.255  67.812  1.00  0.00    -0.267 C  
HETATM    2  C   UNL     1     -10.420   5.912  67.239  1.00  0.00    -0.325 C  
HETATM    3  C   UNL     1     -10.553   7.671  69.085  1.00  0.00    -0.195 C  
ENDROOT
BRANCH   3   4
HETATM    4  C   UNL     1      -9.949   6.723  70.047  1.00  0.00    -0.189 A  
HETATM    5  O   UNL     1      -8.227   3.801  72.450  1.00  0.00    -0.085 OA 
HETATM    6  H   UNL     1      -8.777   3.180  72.914  1.00  0.00     0.000 HD 
HETATM    7  C   UNL     1      -8.553   6.667  70.185  1.00  0.00    -0.140 A  
HETATM    8  C   UNL     1      -8.765   4.787  71.677  1.00  0.00    -0.122 A  
HETATM    9  C   UNL     1     -10.744   5.819  70.765  1.00  0.00    -0.342 A  
HETATM   10  C   UNL     1     -10.150   4.849  71.576  1.00  0.00    -0.266 A  
HETATM   11  C   UNL     1      -7.959   5.695  70.998  1.00  0.00    -0.111 A  
ENDBRANCH   3   4
BRANCH   3  12
HETATM   12  C   UNL     1     -10.902   9.057  69.448  1.00  0.00    -0.152 C  
HETATM   13  C   UNL     1     -11.575   9.279  70.599  1.00  0.00    -0.305 C  
HETATM   14  C   UNL     1     -11.975  10.588  71.207  1.00  0.00    -0.386 C  
BRANCH  12  15
HETATM   15  C   UNL     1     -10.462  10.213  68.632  1.00  0.00    -0.225 A  
HETATM   16  C   UNL     1      -9.598  12.284  66.963  1.00  0.00    -0.208 A  
HETATM   17  C   UNL     1     -11.330  10.773  67.681  1.00  0.00    -0.328 A  
HETATM   18  C   UNL     1     -10.899  11.807  66.843  1.00  0.00    -0.312 A  
HETATM   19  O   UNL     1      -9.123  13.269  66.145  1.00  0.00    -0.462 OA 
HETATM   20  C   UNL     1      -8.734  11.764  67.921  1.00  0.00    -0.164 A  
HETATM   21  H   UNL     1      -8.235  13.595  66.227  1.00  0.00     0.000 HD 
HETATM   22  C   UNL     1      -9.165  10.728  68.755  1.00  0.00    -0.192 A  
ENDBRANCH  12  15
ENDBRANCH   3  12
TORSDOF 3
ENDMDL
MODEL      178
REMARK 921   NORMALIZED FREE ENERGY PREDICTED BY IDOCK:   -4.28 KCAL/MOL
REMARK 922        TOTAL FREE ENERGY PREDICTED BY IDOCK:   -6.02 KCAL/MOL
REMARK 923 INTER-LIGAND FREE ENERGY PREDICTED BY IDOCK:   -4.55 KCAL/MOL
REMARK 924 INTRA-LIGAND FREE ENERGY PREDICTED BY IDOCK:   -1.47 KCAL/MOL
REMARK 927      BINDING AFFINITY PREDICTED BY RF-SCORE:    0.00 PKD
ROOT
HETATM    1  C   UNL     1     -10.208   7.821  72.900  1.00  0.00    -0.377 C  
HETATM    2  C   UNL     1      -9.874   6.857  73.996  1.00  0.00    -0.354 C  
HETATM    3  C   UNL     1     -10.026   7.639  71.570  1.00  0.00    -0.200 C  
ENDROOT
BRANCH   3   4
HETATM    4  C   UNL     1      -9.432   6.365  71.110  1.00  0.00    -0.177 A  
HETATM    5  O   UNL     1      -7.857   2.896  69.447  1.00  0.00    -0.046 OA 
HETATM    6  H   UNL     1      -8.407   2.130  69.335  1.00  0.00     0.000 HD 
HETATM    7  C   UNL     1      -8.081   6.324  70.731  1.00  0.00    -0.120 A  
HETATM    8  C   UNL     1      -8.339   4.039  70.015  1.00  0.00    -0.056 A  
HETATM    9  C   UNL     1     -10.218   5.214  70.965  1.00  0.00    -0.295 A  
HETATM   10  C   UNL     1      -9.670   4.052  70.414  1.00  0.00    -0.263 A  
HETATM   11  C   UNL     1      -7.534   5.161  70.179  1.00  0.00    -0.063 A  
ENDBRANCH   3   4
BRANCH   3  12
HETATM   12  C   UNL     1     -10.469   8.692  70.638  1.00  0.00    -0.243 C  
HETATM   13  C   UNL     1     -11.187   9.731  71.123  1.00  0.00    -0.444 C  
HETATM   14  C   UNL     1     -11.684  10.941  70.394  1.00  0.00    -0.444 C  
BRANCH  12  15
HETATM   15  C   UNL     1     -10.078   8.687  69.209  1.00  0.00    -0.203 A  
HETATM   16  C   UNL     1      -9.254   8.529  66.541  1.00  0.00    -0.190 A  
HETATM   17  C   UNL     1     -10.777   7.884  68.292  1.00  0.00    -0.088 A  
HETATM   18  C   UNL     1     -10.365   7.802  66.958  1.00  0.00    -0.405 A  
HETATM   19  O   UNL     1      -8.796   8.454  65.257  1.00  0.00    -0.321 OA 
HETATM   20  C   UNL     1      -8.570   9.354  67.426  1.00  0.00    -0.125 A  
HETATM   21  H   UNL     1      -8.038   8.950  64.972  1.00  0.00     0.000 HD 
HETATM   22  C   UNL     1      -8.981   9.433  68.761  1.00  0.00    -0.132 A  
ENDBRANCH  12  15
ENDBRANCH   3  12
TORSDOF 3
ENDMDL
MODEL      179
REMARK 921   NORMALIZED FREE ENERGY PREDICTED BY IDOCK:   -4.25 KCAL/MOL
REMARK 922        TOTAL FREE ENERGY PREDICTED BY IDOCK:   -5.98 KCAL/MOL
REMARK 923 INTER-LIGAND FREE ENERGY PREDICTED BY IDOCK:   -5.06 KCAL/MOL
REMARK 924 INTRA-LIGAND FREE ENERGY PREDICTED BY IDOCK:   -0.91 KCAL/MOL
REMARK 927      BINDING AFFINITY PREDICTED BY RF-SCORE:    0.00 PKD
ROOT
HETATM    1  C   UNL     1     -10.652   7.369  68.194  1.00  0.00    -0.216 C  
HETATM    2  C   UNL     1     -10.222   7.628  66.784  1.00  0.00    -0.333 C  
HETATM    3  C   UNL     1     -10.236   6.365  69.003  1.00  0.00    -0.216 C  
ENDROOT
BRANCH   3   4
HETATM    4  C   UNL     1      -9.254   5.395  68.470  1.00  0.00    -0.130 A  
HETATM    5  O   UNL     1      -6.577   2.442  67.289  1.00  0.00    -0.034 OA 
HETATM    6  H   UNL     1      -5.673   2.476  67.579  1.00  0.00     0.000 HD 
HETATM    7  C   UNL     1      -9.685   4.359  67.628  1.00  0.00    -0.198 A  
HETATM    8  C   UNL     1      -7.471   3.412  67.638  1.00  0.00    -0.058 A  
HETATM    9  C   UNL     1      -7.909   5.443  68.861  1.00  0.00    -0.083 A  
HETATM   10  C   UNL     1      -7.019   4.448  68.447  1.00  0.00    -0.052 A  
HETATM   11  C   UNL     1      -8.794   3.363  67.213  1.00  0.00    -0.152 A  
ENDBRANCH   3   4
BRANCH   3  12
HETATM   12  C   UNL     1     -10.740   6.307  70.388  1.00  0.00    -0.329 C  
HETATM   13  C   UNL     1     -10.435   5.229  71.146  1.00  0.00    -0.275 C  
HETATM   14  C   UNL     1     -10.770   4.977  72.583  1.00  0.00    -0.279 C  
BRANCH  12  15
HETATM   15  C   UNL     1     -11.493   7.429  70.993  1.00  0.00    -0.307 A  
HETATM   16  C   UNL     1     -12.968   9.592  71.979  1.00  0.00    -0.428 A  
HETATM   17  C   UNL     1     -12.877   7.312  71.207  1.00  0.00    -0.391 A  
HETATM   18  C   UNL     1     -13.616   8.394  71.697  1.00  0.00    -0.380 A  
HETATM   19  O   UNL     1     -13.653  10.684  72.427  1.00  0.00    -0.565 OA 
HETATM   20  C   UNL     1     -11.594   9.715  71.805  1.00  0.00    -0.309 A  
HETATM   21  H   UNL     1     -13.211  11.502  72.620  1.00  0.00     0.000 HD 
HETATM   22  C   UNL     1     -10.856   8.635  71.312  1.00  0.00    -0.327 A  
ENDBRANCH  12  15
ENDBRANCH   3  12
TORSDOF 3
ENDMDL
MODEL      180
REMARK 921   NORMALIZED FREE ENERGY PREDICTED BY IDOCK:   -4.23 KCAL/MOL
REMARK 922        TOTAL FREE ENERGY PREDICTED BY IDOCK:   -5.95 KCAL/MOL
REMARK 923 INTER-LIGAND FREE ENERGY PREDICTED BY IDOCK:   -4.52 KCAL/MOL
REMARK 924 INTRA-LIGAND FREE ENERGY PREDICTED BY IDOCK:   -1.43 KCAL/MOL
REMARK 927      BINDING AFFINITY PREDICTED BY RF-SCORE:    0.00 PKD
ROOT
HETATM    1  C   UNL     1     -10.392  16.172  66.020  1.00  0.00    -0.372 C  
HETATM    2  C   UNL     1     -10.897  16.878  64.800  1.00  0.00     0.114 C  
HETATM    3  C   UNL     1     -10.429  14.841  66.266  1.00  0.00    -0.300 C  
ENDROOT
BRANCH   3   4
HETATM    4  C   UNL     1     -11.030  13.954  65.245  1.00  0.00    -0.331 A  
HETATM    5  O   UNL     1     -12.685  11.169  62.642  1.00  0.00    -0.614 OA 
HETATM    6  H   UNL     1     -12.125  10.673  62.055  1.00  0.00     0.000 HD 
HETATM    7  C   UNL     1     -12.419  13.760  65.223  1.00  0.00    -0.512 A  
HETATM    8  C   UNL     1     -12.173  12.108  63.487  1.00  0.00    -0.567 A  
HETATM    9  C   UNL     1     -10.225  13.237  64.350  1.00  0.00    -0.300 A  
HETATM   10  C   UNL     1     -10.798  12.311  63.474  1.00  0.00    -0.508 A  
HETATM   11  C   UNL     1     -12.993  12.832  64.346  1.00  0.00    -0.178 A  
ENDBRANCH   3   4
BRANCH   3  12
HETATM   12  C   UNL     1      -9.831  14.327  67.512  1.00  0.00    -0.231 C  
HETATM   13  C   UNL     1      -9.928  15.072  68.636  1.00  0.00    -0.220 C  
HETATM   14  C   UNL     1      -9.466  14.736  70.020  1.00  0.00     0.501 C  
BRANCH  12  15
HETATM   15  C   UNL     1      -9.206  12.986  67.585  1.00  0.00    -0.200 A  
HETATM   16  C   UNL     1      -8.026  10.468  67.893  1.00  0.00    -0.106 A  
HETATM   17  C   UNL     1      -9.994  11.857  67.866  1.00  0.00    -0.195 A  
HETATM   18  C   UNL     1      -9.405  10.598  68.023  1.00  0.00    -0.151 A  
HETATM   19  O   UNL     1      -7.404   9.266  68.071  1.00  0.00    -0.079 OA 
HETATM   20  C   UNL     1      -7.234  11.568  67.583  1.00  0.00    -0.103 A  
HETATM   21  H   UNL     1      -6.463   9.177  67.982  1.00  0.00     0.000 HD 
HETATM   22  C   UNL     1      -7.823  12.827  67.429  1.00  0.00    -0.172 A  
ENDBRANCH  12  15
ENDBRANCH   3  12
TORSDOF 3
ENDMDL
MODEL      181
REMARK 921   NORMALIZED FREE ENERGY PREDICTED BY IDOCK:   -4.22 KCAL/MOL
REMARK 922        TOTAL FREE ENERGY PREDICTED BY IDOCK:   -5.94 KCAL/MOL
REMARK 923 INTER-LIGAND FREE ENERGY PREDICTED BY IDOCK:   -5.04 KCAL/MOL
REMARK 924 INTRA-LIGAND FREE ENERGY PREDICTED BY IDOCK:   -0.91 KCAL/MOL
REMARK 927      BINDING AFFINITY PREDICTED BY RF-SCORE:    0.00 PKD
ROOT
HETATM    1  C   UNL     1     -12.357  11.415  70.540  1.00  0.00    -0.439 C  
HETATM    2  C   UNL     1     -12.823  10.867  71.853  1.00  0.00    -0.432 C  
HETATM    3  C   UNL     1     -11.400  10.898  69.733  1.00  0.00    -0.374 C  
ENDROOT
BRANCH   3   4
HETATM    4  C   UNL     1     -10.714   9.659  70.161  1.00  0.00    -0.321 A  
HETATM    5  O   UNL     1      -8.876   6.281  71.738  1.00  0.00    -0.137 OA 
HETATM    6  H   UNL     1      -7.956   6.307  71.977  1.00  0.00     0.000 HD 
HETATM    7  C   UNL     1     -11.450   8.476  70.323  1.00  0.00    -0.064 A  
HETATM    8  C   UNL     1      -9.498   7.366  71.193  1.00  0.00    -0.155 A  
HETATM    9  C   UNL     1      -9.352   9.667  70.490  1.00  0.00    -0.227 A  
HETATM   10  C   UNL     1      -8.746   8.520  71.010  1.00  0.00    -0.209 A  
HETATM   11  C   UNL     1     -10.843   7.327  70.843  1.00  0.00    -0.262 A  
ENDBRANCH   3   4
BRANCH   3  12
HETATM   12  C   UNL     1     -11.116  11.560  68.446  1.00  0.00    -0.288 C  
HETATM   13  C   UNL     1     -11.023  10.801  67.331  1.00  0.00    -0.361 C  
HETATM   14  C   UNL     1     -10.813  11.245  65.916  1.00  0.00    -0.264 C  
BRANCH  12  15
HETATM   15  C   UNL     1     -11.017  13.033  68.329  1.00  0.00    -0.285 A  
HETATM   16  C   UNL     1     -10.835  15.797  67.938  1.00  0.00    -0.314 A  
HETATM   17  C   UNL     1     -12.171  13.799  68.091  1.00  0.00    -0.178 A  
HETATM   18  C   UNL     1     -12.081  15.180  67.892  1.00  0.00     0.067 A  
HETATM   19  O   UNL     1     -10.695  17.137  67.717  1.00  0.00    -0.361 OA 
HETATM   20  C   UNL     1      -9.686  15.060  68.205  1.00  0.00    -0.215 A  
HETATM   21  H   UNL     1      -9.844  17.558  67.748  1.00  0.00     0.000 HD 
HETATM   22  C   UNL     1      -9.776  13.679  68.400  1.00  0.00    -0.217 A  
ENDBRANCH  12  15
ENDBRANCH   3  12
TORSDOF 3
ENDMDL
MODEL      182
REMARK 921   NORMALIZED FREE ENERGY PREDICTED BY IDOCK:   -4.21 KCAL/MOL
REMARK 922        TOTAL FREE ENERGY PREDICTED BY IDOCK:   -5.93 KCAL/MOL
REMARK 923 INTER-LIGAND FREE ENERGY PREDICTED BY IDOCK:   -4.58 KCAL/MOL
REMARK 924 INTRA-LIGAND FREE ENERGY PREDICTED BY IDOCK:   -1.34 KCAL/MOL
REMARK 927      BINDING AFFINITY PREDICTED BY RF-SCORE:    0.00 PKD
ROOT
HETATM    1  C   UNL     1     -10.760   8.113  67.189  1.00  0.00    -0.264 C  
HETATM    2  C   UNL     1     -10.960   6.668  67.526  1.00  0.00    -0.416 C  
HETATM    3  C   UNL     1     -10.337   9.095  68.020  1.00  0.00    -0.272 C  
ENDROOT
BRANCH   3   4
HETATM    4  C   UNL     1     -10.033   8.743  69.425  1.00  0.00    -0.196 A  
HETATM    5  O   UNL     1      -9.046   8.127  73.415  1.00  0.00    -0.266 OA 
HETATM    6  H   UNL     1      -8.179   7.814  73.649  1.00  0.00     0.000 HD 
HETATM    7  C   UNL     1     -10.988   8.981  70.424  1.00  0.00    -0.283 A  
HETATM    8  C   UNL     1      -9.406   8.312  72.113  1.00  0.00    -0.234 A  
HETATM    9  C   UNL     1      -8.771   8.252  69.788  1.00  0.00    -0.134 A  
HETATM   10  C   UNL     1      -8.459   8.040  71.133  1.00  0.00    -0.134 A  
HETATM   11  C   UNL     1     -10.674   8.770  71.772  1.00  0.00    -0.413 A  
ENDBRANCH   3   4
BRANCH   3  12
HETATM   12  C   UNL     1     -10.152  10.456  67.484  1.00  0.00    -0.231 C  
HETATM   13  C   UNL     1     -11.228  11.114  66.995  1.00  0.00    -0.291 C  
HETATM   14  C   UNL     1     -11.303  12.513  66.467  1.00  0.00    -0.387 C  
BRANCH  12  15
HETATM   15  C   UNL     1      -8.845  11.150  67.545  1.00  0.00    -0.139 A  
HETATM   16  C   UNL     1      -6.444  12.585  67.562  1.00  0.00    -0.153 A  
HETATM   17  C   UNL     1      -8.655  12.214  68.443  1.00  0.00    -0.141 A  
HETATM   18  C   UNL     1      -7.456  12.934  68.451  1.00  0.00    -0.124 A  
HETATM   19  O   UNL     1      -5.271  13.281  67.511  1.00  0.00    -0.285 OA 
HETATM   20  C   UNL     1      -6.602  11.515  66.689  1.00  0.00    -0.081 A  
HETATM   21  H   UNL     1      -4.580  13.043  66.905  1.00  0.00     0.000 HD 
HETATM   22  C   UNL     1      -7.802  10.797  66.679  1.00  0.00    -0.140 A  
ENDBRANCH  12  15
ENDBRANCH   3  12
TORSDOF 3
ENDMDL
MODEL      183
REMARK 921   NORMALIZED FREE ENERGY PREDICTED BY IDOCK:   -4.16 KCAL/MOL
REMARK 922        TOTAL FREE ENERGY PREDICTED BY IDOCK:   -5.87 KCAL/MOL
REMARK 923 INTER-LIGAND FREE ENERGY PREDICTED BY IDOCK:   -4.41 KCAL/MOL
REMARK 924 INTRA-LIGAND FREE ENERGY PREDICTED BY IDOCK:   -1.46 KCAL/MOL
REMARK 927      BINDING AFFINITY PREDICTED BY RF-SCORE:    0.00 PKD
ROOT
HETATM    1  C   UNL     1      -8.400   9.268  67.742  1.00  0.00    -0.116 C  
HETATM    2  C   UNL     1      -7.366   8.824  66.754  1.00  0.00    -0.082 C  
HETATM    3  C   UNL     1      -9.304   8.490  68.383  1.00  0.00    -0.137 C  
ENDROOT
BRANCH   3   4
HETATM    4  C   UNL     1      -9.307   7.038  68.099  1.00  0.00    -0.125 A  
HETATM    5  O   UNL     1      -9.031   3.029  67.034  1.00  0.00    -0.133 OA 
HETATM    6  H   UNL     1      -9.575   2.684  66.336  1.00  0.00     0.000 HD 
HETATM    7  C   UNL     1      -8.421   6.193  68.785  1.00  0.00    -0.118 A  
HETATM    8  C   UNL     1      -9.120   4.334  67.423  1.00  0.00    -0.138 A  
HETATM    9  C   UNL     1     -10.123   6.501  67.094  1.00  0.00    -0.223 A  
HETATM   10  C   UNL     1     -10.025   5.149  66.755  1.00  0.00    -0.231 A  
HETATM   11  C   UNL     1      -8.323   4.839  68.445  1.00  0.00    -0.090 A  
ENDBRANCH   3   4
BRANCH   3  12
HETATM   12  C   UNL     1     -10.213   9.110  69.365  1.00  0.00    -0.212 C  
HETATM   13  C   UNL     1     -10.904  10.215  69.005  1.00  0.00    -0.257 C  
HETATM   14  C   UNL     1     -11.925  10.973  69.795  1.00  0.00    -0.428 C  
BRANCH  12  15
HETATM   15  C   UNL     1     -10.452   8.508  70.697  1.00  0.00    -0.234 A  
HETATM   16  C   UNL     1     -10.792   7.248  73.171  1.00  0.00    -0.357 A  
HETATM   17  C   UNL     1      -9.532   8.718  71.738  1.00  0.00    -0.363 A  
HETATM   18  C   UNL     1      -9.699   8.086  72.975  1.00  0.00    -0.348 A  
HETATM   19  O   UNL     1     -10.978   6.584  74.350  1.00  0.00    -0.195 OA 
HETATM   20  C   UNL     1     -11.730   7.054  72.163  1.00  0.00    -0.321 A  
HETATM   21  H   UNL     1     -11.724   6.012  74.484  1.00  0.00     0.000 HD 
HETATM   22  C   UNL     1     -11.561   7.684  70.926  1.00  0.00    -0.299 A  
ENDBRANCH  12  15
ENDBRANCH   3  12
TORSDOF 3
ENDMDL
MODEL      184
REMARK 921   NORMALIZED FREE ENERGY PREDICTED BY IDOCK:   -4.15 KCAL/MOL
REMARK 922        TOTAL FREE ENERGY PREDICTED BY IDOCK:   -5.86 KCAL/MOL
REMARK 923 INTER-LIGAND FREE ENERGY PREDICTED BY IDOCK:   -4.38 KCAL/MOL
REMARK 924 INTRA-LIGAND FREE ENERGY PREDICTED BY IDOCK:   -1.48 KCAL/MOL
REMARK 927      BINDING AFFINITY PREDICTED BY RF-SCORE:    0.00 PKD
ROOT
HETATM    1  C   UNL     1     -10.672  13.624  69.215  1.00  0.00    -0.060 C  
HETATM    2  C   UNL     1     -10.196  14.826  68.459  1.00  0.00    -0.232 C  
HETATM    3  C   UNL     1     -10.682  12.340  68.785  1.00  0.00    -0.247 C  
ENDROOT
BRANCH   3   4
HETATM    4  C   UNL     1     -10.181  12.052  67.423  1.00  0.00    -0.216 A  
HETATM    5  O   UNL     1      -8.849  10.858  63.671  1.00  0.00    -0.286 OA 
HETATM    6  H   UNL     1      -7.937  10.627  63.541  1.00  0.00     0.000 HD 
HETATM    7  C   UNL     1     -11.079  12.008  66.346  1.00  0.00    -0.365 A  
HETATM    8  C   UNL     1      -9.308  11.280  64.884  1.00  0.00    -0.159 A  
HETATM    9  C   UNL     1      -8.833  11.737  67.203  1.00  0.00    -0.173 A  
HETATM   10  C   UNL     1      -8.399  11.348  65.933  1.00  0.00     0.040 A  
HETATM   11  C   UNL     1     -10.644  11.617  65.074  1.00  0.00    -0.342 A  
ENDBRANCH   3   4
BRANCH   3  12
HETATM   12  C   UNL     1     -11.145  11.282  69.702  1.00  0.00    -0.273 C  
HETATM   13  C   UNL     1     -12.260  11.499  70.435  1.00  0.00    -0.442 C  
HETATM   14  C   UNL     1     -12.956  10.561  71.373  1.00  0.00    -0.542 C  
BRANCH  12  15
HETATM   15  C   UNL     1     -10.474   9.963  69.777  1.00  0.00    -0.292 A  
HETATM   16  C   UNL     1      -9.321   7.429  70.042  1.00  0.00    -0.151 A  
HETATM   17  C   UNL     1     -11.032   8.853  69.122  1.00  0.00     0.000 A  
HETATM   18  C   UNL     1     -10.458   7.584  69.255  1.00  0.00    -0.216 A  
HETATM   19  O   UNL     1      -8.746   6.205  70.227  1.00  0.00    -0.140 OA 
HETATM   20  C   UNL     1      -8.736   8.522  70.671  1.00  0.00    -0.171 A  
HETATM   21  H   UNL     1      -7.969   6.099  70.764  1.00  0.00     0.000 HD 
HETATM   22  C   UNL     1      -9.312   9.790  70.539  1.00  0.00    -0.117 A  
ENDBRANCH  12  15
ENDBRANCH   3  12
TORSDOF 3
ENDMDL
MODEL      185
REMARK 921   NORMALIZED FREE ENERGY PREDICTED BY IDOCK:   -4.15 KCAL/MOL
REMARK 922        TOTAL FREE ENERGY PREDICTED BY IDOCK:   -5.86 KCAL/MOL
REMARK 923 INTER-LIGAND FREE ENERGY PREDICTED BY IDOCK:   -4.66 KCAL/MOL
REMARK 924 INTRA-LIGAND FREE ENERGY PREDICTED BY IDOCK:   -1.20 KCAL/MOL
REMARK 927      BINDING AFFINITY PREDICTED BY RF-SCORE:    0.00 PKD
ROOT
HETATM    1  C   UNL     1     -10.746  11.122  66.818  1.00  0.00    -0.326 C  
HETATM    2  C   UNL     1     -10.412  11.888  65.575  1.00  0.00    -0.309 C  
HETATM    3  C   UNL     1     -10.623  11.549  68.097  1.00  0.00    -0.226 C  
ENDROOT
BRANCH   3   4
HETATM    4  C   UNL     1     -10.101  12.913  68.336  1.00  0.00    -0.227 A  
HETATM    5  O   UNL     1      -8.608  16.782  68.611  1.00  0.00    -0.243 OA 
HETATM    6  H   UNL     1      -7.671  16.928  68.666  1.00  0.00     0.000 HD 
HETATM    7  C   UNL     1     -10.986  14.001  68.363  1.00  0.00    -0.269 A  
HETATM    8  C   UNL     1      -9.128  15.522  68.547  1.00  0.00    -0.196 A  
HETATM    9  C   UNL     1      -8.724  13.148  68.451  1.00  0.00    -0.120 A  
HETATM   10  C   UNL     1      -8.239  14.454  68.553  1.00  0.00    -0.151 A  
HETATM   11  C   UNL     1     -10.499  15.309  68.465  1.00  0.00    -0.235 A  
ENDBRANCH   3   4
BRANCH   3  12
HETATM   12  C   UNL     1     -11.055  10.660  69.192  1.00  0.00    -0.309 C  
HETATM   13  C   UNL     1     -12.153  10.995  69.906  1.00  0.00    -0.435 C  
HETATM   14  C   UNL     1     -12.818  10.227  71.007  1.00  0.00    -0.490 C  
BRANCH  12  15
HETATM   15  C   UNL     1     -10.372   9.376  69.472  1.00  0.00    -0.223 A  
HETATM   16  C   UNL     1      -9.206   6.917  70.118  1.00  0.00    -0.155 A  
HETATM   17  C   UNL     1     -10.851   8.186  68.899  1.00  0.00     0.004 A  
HETATM   18  C   UNL     1     -10.271   6.955  69.223  1.00  0.00    -0.197 A  
HETATM   19  O   UNL     1      -8.630   5.736  70.489  1.00  0.00    -0.133 OA 
HETATM   20  C   UNL     1      -8.697   8.087  70.669  1.00  0.00    -0.131 A  
HETATM   21  H   UNL     1      -7.903   5.710  71.100  1.00  0.00     0.000 HD 
HETATM   22  C   UNL     1      -9.280   9.317  70.348  1.00  0.00    -0.291 A  
ENDBRANCH  12  15
ENDBRANCH   3  12
TORSDOF 3
ENDMDL
MODEL      186
REMARK 921   NORMALIZED FREE ENERGY PREDICTED BY IDOCK:   -4.14 KCAL/MOL
REMARK 922        TOTAL FREE ENERGY PREDICTED BY IDOCK:   -5.85 KCAL/MOL
REMARK 923 INTER-LIGAND FREE ENERGY PREDICTED BY IDOCK:   -5.73 KCAL/MOL
REMARK 924 INTRA-LIGAND FREE ENERGY PREDICTED BY IDOCK:   -0.12 KCAL/MOL
REMARK 927      BINDING AFFINITY PREDICTED BY RF-SCORE:    0.00 PKD
ROOT
HETATM    1  C   UNL     1     -10.043   9.858  69.231  1.00  0.00    -0.214 C  
HETATM    2  C   UNL     1      -9.201   8.623  69.319  1.00  0.00    -0.150 C  
HETATM    3  C   UNL     1     -10.073  10.756  68.217  1.00  0.00    -0.187 C  
ENDROOT
BRANCH   3   4
HETATM    4  C   UNL     1      -9.187  10.530  67.054  1.00  0.00    -0.167 A  
HETATM    5  O   UNL     1      -6.565   9.574  63.973  1.00  0.00    -0.093 OA 
HETATM    6  H   UNL     1      -5.679   9.916  63.979  1.00  0.00     0.000 HD 
HETATM    7  C   UNL     1      -9.621   9.715  65.997  1.00  0.00    -0.305 A  
HETATM    8  C   UNL     1      -7.456   9.893  64.956  1.00  0.00    -0.134 A  
HETATM    9  C   UNL     1      -7.886  11.050  67.027  1.00  0.00    -0.137 A  
HETATM   10  C   UNL     1      -7.020  10.728  65.979  1.00  0.00    -0.104 A  
HETATM   11  C   UNL     1      -8.753   9.392  64.948  1.00  0.00    -0.220 A  
ENDBRANCH   3   4
BRANCH   3  12
HETATM   12  C   UNL     1     -11.014  11.889  68.292  1.00  0.00    -0.273 C  
HETATM   13  C   UNL     1     -11.306  12.568  67.160  1.00  0.00    -0.381 C  
HETATM   14  C   UNL     1     -12.272  13.697  66.974  1.00  0.00    -0.373 C  
BRANCH  12  15
HETATM   15  C   UNL     1     -11.709  12.246  69.551  1.00  0.00    -0.398 A  
HETATM   16  C   UNL     1     -13.170  12.921  71.838  1.00  0.00    -0.423 A  
HETATM   17  C   UNL     1     -12.372  11.254  70.293  1.00  0.00    -0.389 A  
HETATM   18  C   UNL     1     -13.106  11.590  71.435  1.00  0.00    -0.359 A  
HETATM   19  O   UNL     1     -13.901  13.300  72.928  1.00  0.00    -0.661 OA 
HETATM   20  C   UNL     1     -12.493  13.911  71.136  1.00  0.00    -0.450 A  
HETATM   21  H   UNL     1     -13.944  14.208  73.203  1.00  0.00     0.000 HD 
HETATM   22  C   UNL     1     -11.762  13.574  69.991  1.00  0.00    -0.311 A  
ENDBRANCH  12  15
ENDBRANCH   3  12
TORSDOF 3
ENDMDL
MODEL      187
REMARK 921   NORMALIZED FREE ENERGY PREDICTED BY IDOCK:   -4.13 KCAL/MOL
REMARK 922        TOTAL FREE ENERGY PREDICTED BY IDOCK:   -5.83 KCAL/MOL
REMARK 923 INTER-LIGAND FREE ENERGY PREDICTED BY IDOCK:   -4.65 KCAL/MOL
REMARK 924 INTRA-LIGAND FREE ENERGY PREDICTED BY IDOCK:   -1.18 KCAL/MOL
REMARK 927      BINDING AFFINITY PREDICTED BY RF-SCORE:    0.00 PKD
ROOT
HETATM    1  C   UNL     1     -10.856  10.999  69.403  1.00  0.00    -0.278 C  
HETATM    2  C   UNL     1     -12.306  11.157  69.739  1.00  0.00    -0.315 C  
HETATM    3  C   UNL     1     -10.046   9.970  69.748  1.00  0.00    -0.284 C  
ENDROOT
BRANCH   3   4
HETATM    4  C   UNL     1     -10.617   8.864  70.548  1.00  0.00    -0.262 A  
HETATM    5  O   UNL     1     -12.579   5.875  72.669  1.00  0.00    -0.530 OA 
HETATM    6  H   UNL     1     -12.871   6.036  73.559  1.00  0.00     0.000 HD 
HETATM    7  C   UNL     1     -10.831   7.612  69.952  1.00  0.00    -0.241 A  
HETATM    8  C   UNL     1     -11.909   6.828  71.959  1.00  0.00    -0.314 A  
HETATM    9  C   UNL     1     -11.027   9.070  71.873  1.00  0.00    -0.423 A  
HETATM   10  C   UNL     1     -11.676   8.052  72.576  1.00  0.00    -0.446 A  
HETATM   11  C   UNL     1     -11.482   6.593  70.657  1.00  0.00    -0.420 A  
ENDBRANCH   3   4
BRANCH   3  12
HETATM   12  C   UNL     1      -8.649   9.970  69.276  1.00  0.00    -0.172 C  
HETATM   13  C   UNL     1      -7.659  10.178  70.173  1.00  0.00    -0.119 C  
HETATM   14  C   UNL     1      -6.178  10.155  69.948  1.00  0.00    -0.063 C  
BRANCH  12  15
HETATM   15  C   UNL     1      -8.299   9.664  67.869  1.00  0.00    -0.117 A  
HETATM   16  C   UNL     1      -7.477   9.058  65.265  1.00  0.00    -0.093 A  
HETATM   17  C   UNL     1      -8.204   8.329  67.442  1.00  0.00    -0.121 A  
HETATM   18  C   UNL     1      -7.790   8.024  66.142  1.00  0.00    -0.093 A  
HETATM   19  O   UNL     1      -7.037   8.808  63.997  1.00  0.00    -0.092 OA 
HETATM   20  C   UNL     1      -7.597  10.386  65.659  1.00  0.00    -0.150 A  
HETATM   21  H   UNL     1      -6.823   9.513  63.399  1.00  0.00     0.000 HD 
HETATM   22  C   UNL     1      -8.007  10.690  66.961  1.00  0.00    -0.121 A  
ENDBRANCH  12  15
ENDBRANCH   3  12
TORSDOF 3
ENDMDL
MODEL      188
REMARK 921   NORMALIZED FREE ENERGY PREDICTED BY IDOCK:   -4.09 KCAL/MOL
REMARK 922        TOTAL FREE ENERGY PREDICTED BY IDOCK:   -5.79 KCAL/MOL
REMARK 923 INTER-LIGAND FREE ENERGY PREDICTED BY IDOCK:   -4.87 KCAL/MOL
REMARK 924 INTRA-LIGAND FREE ENERGY PREDICTED BY IDOCK:   -0.92 KCAL/MOL
REMARK 927      BINDING AFFINITY PREDICTED BY RF-SCORE:    0.00 PKD
ROOT
HETATM    1  C   UNL     1     -12.304  10.610  70.654  1.00  0.00    -0.462 C  
HETATM    2  C   UNL     1     -12.873  10.236  71.987  1.00  0.00    -0.457 C  
HETATM    3  C   UNL     1     -12.150  11.859  70.153  1.00  0.00    -0.382 C  
ENDROOT
BRANCH   3   4
HETATM    4  C   UNL     1     -12.584  13.006  70.981  1.00  0.00    -0.386 A  
HETATM    5  O   UNL     1     -13.866  16.425  72.969  1.00  0.00    -0.223 OA 
HETATM    6  H   UNL     1     -13.239  17.095  73.216  1.00  0.00     0.000 HD 
HETATM    7  C   UNL     1     -13.942  13.159  71.301  1.00  0.00     0.819 A  
HETATM    8  C   UNL     1     -13.470  15.280  72.340  1.00  0.00    -0.463 A  
HETATM    9  C   UNL     1     -11.672  13.991  71.383  1.00  0.00     0.253 A  
HETATM   10  C   UNL     1     -12.117  15.130  72.059  1.00  0.00    -0.453 A  
HETATM   11  C   UNL     1     -14.387  14.300  71.978  1.00  0.00    -0.629 A  
ENDBRANCH   3   4
BRANCH   3  12
HETATM   12  C   UNL     1     -11.518  12.028  68.832  1.00  0.00    -0.356 C  
HETATM   13  C   UNL     1     -11.559  10.999  67.955  1.00  0.00    -0.326 C  
HETATM   14  C   UNL     1     -11.055  10.955  66.546  1.00  0.00    -0.119 C  
BRANCH  12  15
HETATM   15  C   UNL     1     -10.917  13.314  68.410  1.00  0.00    -0.289 A  
HETATM   16  C   UNL     1      -9.767  15.679  67.456  1.00  0.00    -0.222 A  
HETATM   17  C   UNL     1     -11.698  14.267  67.736  1.00  0.00    -0.408 A  
HETATM   18  C   UNL     1     -11.124  15.449  67.255  1.00  0.00    -0.302 A  
HETATM   19  O   UNL     1      -9.157  16.802  66.976  1.00  0.00    -0.213 OA 
HETATM   20  C   UNL     1      -8.985  14.763  68.151  1.00  0.00    -0.179 A  
HETATM   21  H   UNL     1      -8.230  16.959  67.113  1.00  0.00     0.000 HD 
HETATM   22  C   UNL     1      -9.559  13.580  68.628  1.00  0.00    -0.077 A  
ENDBRANCH  12  15
ENDBRANCH   3  12
TORSDOF 3
ENDMDL
MODEL      189
REMARK 921   NORMALIZED FREE ENERGY PREDICTED BY IDOCK:   -4.03 KCAL/MOL
REMARK 922        TOTAL FREE ENERGY PREDICTED BY IDOCK:   -5.72 KCAL/MOL
REMARK 923 INTER-LIGAND FREE ENERGY PREDICTED BY IDOCK:   -4.65 KCAL/MOL
REMARK 924 INTRA-LIGAND FREE ENERGY PREDICTED BY IDOCK:   -1.07 KCAL/MOL
REMARK 927      BINDING AFFINITY PREDICTED BY RF-SCORE:    0.00 PKD
ROOT
HETATM    1  C   UNL     1      -8.156  11.954  68.502  1.00  0.00    -0.130 C  
HETATM    2  C   UNL     1      -6.659  11.930  68.489  1.00  0.00    -0.061 C  
HETATM    3  C   UNL     1      -8.987  10.915  68.753  1.00  0.00    -0.166 C  
ENDROOT
BRANCH   3   4
HETATM    4  C   UNL     1      -8.391   9.594  69.047  1.00  0.00    -0.122 A  
HETATM    5  O   UNL     1      -7.086   5.740  69.898  1.00  0.00    -0.063 OA 
HETATM    6  H   UNL     1      -6.946   5.473  70.799  1.00  0.00     0.000 HD 
HETATM    7  C   UNL     1      -8.141   8.694  67.999  1.00  0.00    -0.111 A  
HETATM    8  C   UNL     1      -7.487   7.006  69.588  1.00  0.00    -0.098 A  
HETATM    9  C   UNL     1      -8.148   9.190  70.367  1.00  0.00    -0.166 A  
HETATM   10  C   UNL     1      -7.699   7.894  70.635  1.00  0.00    -0.090 A  
HETATM   11  C   UNL     1      -7.693   7.397  68.269  1.00  0.00    -0.120 A  
ENDBRANCH   3   4
BRANCH   3  12
HETATM   12  C   UNL     1     -10.443  11.152  68.770  1.00  0.00    -0.227 C  
HETATM   13  C   UNL     1     -11.154  10.755  69.850  1.00  0.00    -0.339 C  
HETATM   14  C   UNL     1     -12.613  10.945  70.126  1.00  0.00    -0.304 C  
BRANCH  12  15
HETATM   15  C   UNL     1     -11.129  11.884  67.681  1.00  0.00    -0.314 A  
HETATM   16  C   UNL     1     -12.269  13.315  65.565  1.00  0.00    -0.457 A  
HETATM   17  C   UNL     1     -11.228  11.311  66.402  1.00  0.00    -0.190 A  
HETATM   18  C   UNL     1     -11.795  12.026  65.342  1.00  0.00    -0.258 A  
HETATM   19  O   UNL     1     -12.800  14.063  64.553  1.00  0.00    -0.644 OA 
HETATM   20  C   UNL     1     -12.210  13.886  66.831  1.00  0.00    -0.415 A  
HETATM   21  H   UNL     1     -13.124  14.943  64.705  1.00  0.00     0.000 HD 
HETATM   22  C   UNL     1     -11.640  13.172  67.889  1.00  0.00    -0.375 A  
ENDBRANCH  12  15
ENDBRANCH   3  12
TORSDOF 3
ENDMDL
MODEL      190
REMARK 921   NORMALIZED FREE ENERGY PREDICTED BY IDOCK:   -4.02 KCAL/MOL
REMARK 922        TOTAL FREE ENERGY PREDICTED BY IDOCK:   -5.70 KCAL/MOL
REMARK 923 INTER-LIGAND FREE ENERGY PREDICTED BY IDOCK:   -4.85 KCAL/MOL
REMARK 924 INTRA-LIGAND FREE ENERGY PREDICTED BY IDOCK:   -0.85 KCAL/MOL
REMARK 927      BINDING AFFINITY PREDICTED BY RF-SCORE:    0.00 PKD
ROOT
HETATM    1  C   UNL     1     -12.634   9.412  72.042  1.00  0.00    -0.462 C  
HETATM    2  C   UNL     1     -13.906  10.182  71.868  1.00  0.00    -0.066 C  
HETATM    3  C   UNL     1     -11.491   9.553  71.329  1.00  0.00    -0.447 C  
ENDROOT
BRANCH   3   4
HETATM    4  C   UNL     1     -11.457  10.563  70.249  1.00  0.00    -0.416 A  
HETATM    5  O   UNL     1     -11.750  13.338  67.168  1.00  0.00    -0.335 OA 
HETATM    6  H   UNL     1     -11.621  13.064  66.267  1.00  0.00     0.000 HD 
HETATM    7  C   UNL     1     -11.728  11.908  70.545  1.00  0.00    -0.103 A  
HETATM    8  C   UNL     1     -11.633  12.455  68.201  1.00  0.00    -0.341 A  
HETATM    9  C   UNL     1     -11.239  10.187  68.916  1.00  0.00    -0.220 A  
HETATM   10  C   UNL     1     -11.331  11.134  67.893  1.00  0.00    -0.378 A  
HETATM   11  C   UNL     1     -11.821  12.856  69.519  1.00  0.00    -0.383 A  
ENDBRANCH   3   4
BRANCH   3  12
HETATM   12  C   UNL     1     -10.319   8.731  71.686  1.00  0.00    -0.391 C  
HETATM   13  C   UNL     1     -10.305   8.105  72.885  1.00  0.00    -0.333 C  
HETATM   14  C   UNL     1      -9.272   7.173  73.437  1.00  0.00    -0.206 C  
BRANCH  12  15
HETATM   15  C   UNL     1      -9.204   8.506  70.738  1.00  0.00    -0.204 A  
HETATM   16  C   UNL     1      -7.035   7.962  69.058  1.00  0.00    -0.058 A  
HETATM   17  C   UNL     1      -9.235   7.406  69.865  1.00  0.00    -0.144 A  
HETATM   18  C   UNL     1      -8.150   7.130  69.026  1.00  0.00    -0.121 A  
HETATM   19  O   UNL     1      -5.940   7.713  68.282  1.00  0.00    -0.033 OA 
HETATM   20  C   UNL     1      -7.000   9.074  69.892  1.00  0.00    -0.052 A  
HETATM   21  H   UNL     1      -5.179   8.281  68.303  1.00  0.00     0.000 HD 
HETATM   22  C   UNL     1      -8.083   9.346  70.733  1.00  0.00    -0.157 A  
ENDBRANCH  12  15
ENDBRANCH   3  12
TORSDOF 3
ENDMDL
MODEL      191
REMARK 921   NORMALIZED FREE ENERGY PREDICTED BY IDOCK:   -3.97 KCAL/MOL
REMARK 922        TOTAL FREE ENERGY PREDICTED BY IDOCK:   -5.64 KCAL/MOL
REMARK 923 INTER-LIGAND FREE ENERGY PREDICTED BY IDOCK:   -4.42 KCAL/MOL
REMARK 924 INTRA-LIGAND FREE ENERGY PREDICTED BY IDOCK:   -1.22 KCAL/MOL
REMARK 927      BINDING AFFINITY PREDICTED BY RF-SCORE:    0.00 PKD
ROOT
HETATM    1  C   UNL     1     -10.391  15.201  67.246  1.00  0.00    -0.261 C  
HETATM    2  C   UNL     1     -11.282  16.404  67.274  1.00  0.00     0.093 C  
HETATM    3  C   UNL     1     -10.250  14.267  68.217  1.00  0.00    -0.244 C  
ENDROOT
BRANCH   3   4
HETATM    4  C   UNL     1     -11.040  14.420  69.458  1.00  0.00    -0.267 A  
HETATM    5  O   UNL     1     -13.447  15.152  72.768  1.00  0.00    -0.441 OA 
HETATM    6  H   UNL     1     -13.159  15.758  73.440  1.00  0.00     0.000 HD 
HETATM    7  C   UNL     1     -12.269  13.756  69.587  1.00  0.00    -0.359 A  
HETATM    8  C   UNL     1     -12.666  14.872  71.685  1.00  0.00    -0.330 A  
HETATM    9  C   UNL     1     -10.621  15.287  70.477  1.00  0.00    -0.190 A  
HETATM   10  C   UNL     1     -11.437  15.514  71.589  1.00  0.00    -0.496 A  
HETATM   11  C   UNL     1     -13.086  13.984  70.700  1.00  0.00    -0.178 A  
ENDBRANCH   3   4
BRANCH   3  12
HETATM   12  C   UNL     1      -9.355  13.119  67.980  1.00  0.00    -0.219 C  
HETATM   13  C   UNL     1      -8.089  13.355  67.569  1.00  0.00    -0.183 C  
HETATM   14  C   UNL     1      -6.987  12.369  67.332  1.00  0.00    -0.149 C  
BRANCH  12  15
HETATM   15  C   UNL     1      -9.778  11.727  68.262  1.00  0.00    -0.199 A  
HETATM   16  C   UNL     1     -10.409   9.056  68.798  1.00  0.00    -0.215 A  
HETATM   17  C   UNL     1      -9.748  11.237  69.578  1.00  0.00     0.404 A  
HETATM   18  C   UNL     1     -10.060   9.900  69.847  1.00  0.00    -0.297 A  
HETATM   19  O   UNL     1     -10.689   7.737  69.009  1.00  0.00    -0.330 OA 
HETATM   20  C   UNL     1     -10.476   9.532  67.493  1.00  0.00    -0.336 A  
HETATM   21  H   UNL     1     -10.927   7.160  68.293  1.00  0.00     0.000 HD 
HETATM   22  C   UNL     1     -10.160  10.868  67.224  1.00  0.00    -0.225 A  
ENDBRANCH  12  15
ENDBRANCH   3  12
TORSDOF 3
ENDMDL
MODEL      192
REMARK 921   NORMALIZED FREE ENERGY PREDICTED BY IDOCK:   -3.95 KCAL/MOL
REMARK 922        TOTAL FREE ENERGY PREDICTED BY IDOCK:   -5.62 KCAL/MOL
REMARK 923 INTER-LIGAND FREE ENERGY PREDICTED BY IDOCK:   -4.14 KCAL/MOL
REMARK 924 INTRA-LIGAND FREE ENERGY PREDICTED BY IDOCK:   -1.49 KCAL/MOL
REMARK 927      BINDING AFFINITY PREDICTED BY RF-SCORE:    0.00 PKD
ROOT
HETATM    1  C   UNL     1      -9.999   7.697  67.142  1.00  0.00    -0.297 C  
HETATM    2  C   UNL     1     -11.042   6.799  67.731  1.00  0.00    -0.285 C  
HETATM    3  C   UNL     1      -9.687   8.955  67.536  1.00  0.00    -0.216 C  
ENDROOT
BRANCH   3   4
HETATM    4  C   UNL     1     -10.439   9.543  68.666  1.00  0.00    -0.237 A  
HETATM    5  O   UNL     1     -12.805  10.891  71.807  1.00  0.00    -0.431 OA 
HETATM    6  H   UNL     1     -13.531  11.481  71.637  1.00  0.00     0.000 HD 
HETATM    7  C   UNL     1     -10.153   9.137  69.979  1.00  0.00    -0.230 A  
HETATM    8  C   UNL     1     -11.995  10.454  70.799  1.00  0.00    -0.363 A  
HETATM    9  C   UNL     1     -11.493  10.439  68.441  1.00  0.00    -0.227 A  
HETATM   10  C   UNL     1     -12.273  10.891  69.509  1.00  0.00    -0.331 A  
HETATM   11  C   UNL     1     -10.935   9.590  71.048  1.00  0.00    -0.424 A  
ENDBRANCH   3   4
BRANCH   3  12
HETATM   12  C   UNL     1      -8.585   9.664  66.859  1.00  0.00    -0.132 C  
HETATM   13  C   UNL     1      -8.361   9.417  65.549  1.00  0.00    -0.139 C  
HETATM   14  C   UNL     1      -7.359  10.057  64.638  1.00  0.00    -0.143 C  
BRANCH  12  15
HETATM   15  C   UNL     1      -7.779  10.698  67.550  1.00  0.00    -0.101 A  
HETATM   16  C   UNL     1      -6.350  12.618  68.996  1.00  0.00    -0.092 A  
HETATM   17  C   UNL     1      -6.714  10.317  68.382  1.00  0.00    -0.057 A  
HETATM   18  C   UNL     1      -6.000  11.276  69.109  1.00  0.00    -0.049 A  
HETATM   19  O   UNL     1      -5.703  13.584  69.711  1.00  0.00    -0.096 OA 
HETATM   20  C   UNL     1      -7.380  13.016  68.151  1.00  0.00    -0.118 A  
HETATM   21  H   UNL     1      -5.941  14.501  69.634  1.00  0.00     0.000 HD 
HETATM   22  C   UNL     1      -8.095  12.057  67.428  1.00  0.00    -0.168 A  
ENDBRANCH  12  15
ENDBRANCH   3  12
TORSDOF 3
ENDMDL
MODEL      193
REMARK 921   NORMALIZED FREE ENERGY PREDICTED BY IDOCK:   -3.95 KCAL/MOL
REMARK 922        TOTAL FREE ENERGY PREDICTED BY IDOCK:   -5.62 KCAL/MOL
REMARK 923 INTER-LIGAND FREE ENERGY PREDICTED BY IDOCK:   -4.19 KCAL/MOL
REMARK 924 INTRA-LIGAND FREE ENERGY PREDICTED BY IDOCK:   -1.43 KCAL/MOL
REMARK 927      BINDING AFFINITY PREDICTED BY RF-SCORE:    0.00 PKD
ROOT
HETATM    1  C   UNL     1      -7.144   7.976  69.081  1.00  0.00    -0.068 C  
HETATM    2  C   UNL     1      -6.979   7.155  70.322  1.00  0.00    -0.061 C  
HETATM    3  C   UNL     1      -8.301   8.461  68.570  1.00  0.00    -0.131 C  
ENDROOT
BRANCH   3   4
HETATM    4  C   UNL     1      -9.562   8.166  69.285  1.00  0.00    -0.164 A  
HETATM    5  O   UNL     1     -12.887   7.135  71.556  1.00  0.00    -0.369 OA 
HETATM    6  H   UNL     1     -13.358   6.330  71.373  1.00  0.00     0.000 HD 
HETATM    7  C   UNL     1      -9.997   9.018  70.311  1.00  0.00    -0.229 A  
HETATM    8  C   UNL     1     -11.809   7.512  70.810  1.00  0.00    -0.228 A  
HETATM    9  C   UNL     1     -10.289   6.999  69.010  1.00  0.00    -0.208 A  
HETATM   10  C   UNL     1     -11.411   6.672  69.777  1.00  0.00    -0.412 A  
HETATM   11  C   UNL     1     -11.120   8.690  71.078  1.00  0.00    -0.316 A  
ENDBRANCH   3   4
BRANCH   3  12
HETATM   12  C   UNL     1      -8.251   9.299  67.357  1.00  0.00    -0.117 C  
HETATM   13  C   UNL     1      -7.454   8.916  66.335  1.00  0.00    -0.088 C  
HETATM   14  C   UNL     1      -7.290   9.556  64.991  1.00  0.00    -0.110 C  
BRANCH  12  15
HETATM   15  C   UNL     1      -9.112  10.494  67.196  1.00  0.00    -0.154 A  
HETATM   16  C   UNL     1     -10.668  12.772  66.736  1.00  0.00    -0.260 A  
HETATM   17  C   UNL     1     -10.304  10.407  66.458  1.00  0.00    -0.287 A  
HETATM   18  C   UNL     1     -11.082  11.546  66.224  1.00  0.00    -0.321 A  
HETATM   19  O   UNL     1     -11.377  13.915  66.505  1.00  0.00    -0.314 OA 
HETATM   20  C   UNL     1      -9.509  12.870  67.497  1.00  0.00    -0.198 A  
HETATM   21  H   UNL     1     -11.095  14.752  66.855  1.00  0.00     0.000 HD 
HETATM   22  C   UNL     1      -8.730  11.732  67.727  1.00  0.00    -0.155 A  
ENDBRANCH  12  15
ENDBRANCH   3  12
TORSDOF 3
ENDMDL
MODEL      194
REMARK 921   NORMALIZED FREE ENERGY PREDICTED BY IDOCK:   -3.86 KCAL/MOL
REMARK 922        TOTAL FREE ENERGY PREDICTED BY IDOCK:   -5.51 KCAL/MOL
REMARK 923 INTER-LIGAND FREE ENERGY PREDICTED BY IDOCK:   -5.91 KCAL/MOL
REMARK 924 INTRA-LIGAND FREE ENERGY PREDICTED BY IDOCK:    0.39 KCAL/MOL
REMARK 927      BINDING AFFINITY PREDICTED BY RF-SCORE:    0.00 PKD
ROOT
HETATM    1  C   UNL     1      -8.809  10.972  68.680  1.00  0.00    -0.164 C  
HETATM    2  C   UNL     1      -8.059  10.692  69.945  1.00  0.00     0.262 C  
HETATM    3  C   UNL     1     -10.149  10.903  68.493  1.00  0.00    -0.193 C  
ENDROOT
BRANCH   3   4
HETATM    4  C   UNL     1     -10.998  10.507  69.637  1.00  0.00    -0.333 A  
HETATM    5  O   UNL     1     -13.667   9.299  72.587  1.00  0.00    -0.667 OA 
HETATM    6  H   UNL     1     -14.269   9.926  72.970  1.00  0.00     0.000 HD 
HETATM    7  C   UNL     1     -10.995   9.174  70.078  1.00  0.00    -0.240 A  
HETATM    8  C   UNL     1     -12.762   9.673  71.637  1.00  0.00    -0.407 A  
HETATM    9  C   UNL     1     -11.873  11.423  70.237  1.00  0.00    -0.438 A  
HETATM   10  C   UNL     1     -12.757  11.003  71.235  1.00  0.00    -0.537 A  
HETATM   11  C   UNL     1     -11.881   8.755  71.077  1.00  0.00    -0.315 A  
ENDBRANCH   3   4
BRANCH   3  12
HETATM   12  C   UNL     1     -10.707  11.269  67.178  1.00  0.00    -0.297 C  
HETATM   13  C   UNL     1     -11.705  12.180  67.125  1.00  0.00    -0.372 C  
HETATM   14  C   UNL     1     -12.378  12.756  65.918  1.00  0.00    -0.319 C  
BRANCH  12  15
HETATM   15  C   UNL     1     -10.148  10.733  65.915  1.00  0.00    -0.314 A  
HETATM   16  C   UNL     1      -9.250   9.658  63.494  1.00  0.00    -0.098 A  
HETATM   17  C   UNL     1     -10.354  11.422  64.708  1.00  0.00    -0.349 A  
HETATM   18  C   UNL     1      -9.908  10.884  63.496  1.00  0.00    -0.407 A  
HETATM   19  O   UNL     1      -8.826   9.079  62.332  1.00  0.00    -0.300 OA 
HETATM   20  C   UNL     1      -9.008   8.978  64.682  1.00  0.00    -0.112 A  
HETATM   21  H   UNL     1      -8.377   8.243  62.331  1.00  0.00     0.000 HD 
HETATM   22  C   UNL     1      -9.458   9.515  65.893  1.00  0.00    -0.307 A  
ENDBRANCH  12  15
ENDBRANCH   3  12
TORSDOF 3
ENDMDL
MODEL      195
REMARK 921   NORMALIZED FREE ENERGY PREDICTED BY IDOCK:   -3.86 KCAL/MOL
REMARK 922        TOTAL FREE ENERGY PREDICTED BY IDOCK:   -5.51 KCAL/MOL
REMARK 923 INTER-LIGAND FREE ENERGY PREDICTED BY IDOCK:   -4.35 KCAL/MOL
REMARK 924 INTRA-LIGAND FREE ENERGY PREDICTED BY IDOCK:   -1.16 KCAL/MOL
REMARK 927      BINDING AFFINITY PREDICTED BY RF-SCORE:    0.00 PKD
ROOT
HETATM    1  C   UNL     1      -9.899   7.820  66.475  1.00  0.00    -0.255 C  
HETATM    2  C   UNL     1      -9.716   9.168  65.849  1.00  0.00    -0.336 C  
HETATM    3  C   UNL     1      -9.400   7.396  67.661  1.00  0.00    -0.145 C  
ENDROOT
BRANCH   3   4
HETATM    4  C   UNL     1      -8.576   8.336  68.452  1.00  0.00    -0.133 A  
HETATM    5  O   UNL     1      -6.263  10.705  70.966  1.00  0.00    -0.341 OA 
HETATM    6  H   UNL     1      -6.681  11.312  71.566  1.00  0.00     0.000 HD 
HETATM    7  C   UNL     1      -7.177   8.249  68.400  1.00  0.00    -0.092 A  
HETATM    8  C   UNL     1      -6.996   9.935  70.111  1.00  0.00    -0.138 A  
HETATM    9  C   UNL     1      -9.172   9.260  69.321  1.00  0.00    -0.152 A  
HETATM   10  C   UNL     1      -8.380  10.057  70.153  1.00  0.00    -0.072 A  
HETATM   11  C   UNL     1      -6.384   9.046  69.233  1.00  0.00    -0.042 A  
ENDBRANCH   3   4
BRANCH   3  12
HETATM   12  C   UNL     1      -9.735   6.040  68.134  1.00  0.00    -0.137 C  
HETATM   13  C   UNL     1      -9.460   4.985  67.333  1.00  0.00    -0.151 C  
HETATM   14  C   UNL     1      -9.642   3.527  67.618  1.00  0.00    -0.180 C  
BRANCH  12  15
HETATM   15  C   UNL     1     -10.281   5.797  69.489  1.00  0.00    -0.306 A  
HETATM   16  C   UNL     1     -11.240   5.487  72.098  1.00  0.00    -0.183 A  
HETATM   17  C   UNL     1     -11.454   6.451  69.902  1.00  0.00    -0.483 A  
HETATM   18  C   UNL     1     -11.933   6.300  71.207  1.00  0.00    -0.178 A  
HETATM   19  O   UNL     1     -11.652   5.335  73.391  1.00  0.00    -0.504 OA 
HETATM   20  C   UNL     1     -10.096   4.805  71.698  1.00  0.00    -0.264 A  
HETATM   21  H   UNL     1     -11.179   4.780  74.000  1.00  0.00     0.000 HD 
HETATM   22  C   UNL     1      -9.616   4.960  70.394  1.00  0.00    -0.259 A  
ENDBRANCH  12  15
ENDBRANCH   3  12
TORSDOF 3
ENDMDL
MODEL      196
REMARK 921   NORMALIZED FREE ENERGY PREDICTED BY IDOCK:   -3.83 KCAL/MOL
REMARK 922        TOTAL FREE ENERGY PREDICTED BY IDOCK:   -5.48 KCAL/MOL
REMARK 923 INTER-LIGAND FREE ENERGY PREDICTED BY IDOCK:   -4.35 KCAL/MOL
REMARK 924 INTRA-LIGAND FREE ENERGY PREDICTED BY IDOCK:   -1.13 KCAL/MOL
REMARK 927      BINDING AFFINITY PREDICTED BY RF-SCORE:    0.00 PKD
ROOT
HETATM    1  C   UNL     1      -7.692  11.390  66.837  1.00  0.00    -0.155 C  
HETATM    2  C   UNL     1      -6.593  10.402  66.596  1.00  0.00    -0.082 C  
HETATM    3  C   UNL     1      -8.718  11.271  67.713  1.00  0.00    -0.134 C  
ENDROOT
BRANCH   3   4
HETATM    4  C   UNL     1      -8.801  10.045  68.537  1.00  0.00    -0.120 A  
HETATM    5  O   UNL     1      -8.676   6.502  70.706  1.00  0.00    -0.141 OA 
HETATM    6  H   UNL     1      -9.023   5.701  70.329  1.00  0.00     0.000 HD 
HETATM    7  C   UNL     1      -8.262  10.039  69.832  1.00  0.00    -0.175 A  
HETATM    8  C   UNL     1      -8.729   7.684  70.028  1.00  0.00    -0.142 A  
HETATM    9  C   UNL     1      -9.335   8.860  68.013  1.00  0.00    -0.153 A  
HETATM   10  C   UNL     1      -9.295   7.679  68.759  1.00  0.00    -0.148 A  
HETATM   11  C   UNL     1      -8.221   8.856  70.579  1.00  0.00    -0.160 A  
ENDBRANCH   3   4
BRANCH   3  12
HETATM   12  C   UNL     1      -9.679  12.383  67.843  1.00  0.00    -0.204 C  
HETATM   13  C   UNL     1     -10.814  12.182  68.551  1.00  0.00    -0.267 C  
HETATM   14  C   UNL     1     -11.895  13.166  68.877  1.00  0.00    -0.361 C  
BRANCH  12  15
HETATM   15  C   UNL     1      -9.396  13.730  67.296  1.00  0.00    -0.239 A  
HETATM   16  C   UNL     1      -8.984  16.335  66.365  1.00  0.00    -0.308 A  
HETATM   17  C   UNL     1      -8.599  14.630  68.022  1.00  0.00    -0.162 A  
HETATM   18  C   UNL     1      -8.395  15.935  67.560  1.00  0.00    -0.180 A  
HETATM   19  O   UNL     1      -8.840  17.607  65.892  1.00  0.00    -0.521 OA 
HETATM   20  C   UNL     1      -9.749  15.448  65.616  1.00  0.00    -0.366 A  
HETATM   21  H   UNL     1      -9.242  17.881  65.076  1.00  0.00     0.000 HD 
HETATM   22  C   UNL     1      -9.955  14.145  66.081  1.00  0.00    -0.328 A  
ENDBRANCH  12  15
ENDBRANCH   3  12
TORSDOF 3
ENDMDL
MODEL      197
REMARK 921   NORMALIZED FREE ENERGY PREDICTED BY IDOCK:   -3.79 KCAL/MOL
REMARK 922        TOTAL FREE ENERGY PREDICTED BY IDOCK:   -5.43 KCAL/MOL
REMARK 923 INTER-LIGAND FREE ENERGY PREDICTED BY IDOCK:   -3.85 KCAL/MOL
REMARK 924 INTRA-LIGAND FREE ENERGY PREDICTED BY IDOCK:   -1.58 KCAL/MOL
REMARK 927      BINDING AFFINITY PREDICTED BY RF-SCORE:    0.00 PKD
ROOT
HETATM    1  C   UNL     1      -6.121  15.208  69.455  1.00  0.00    -0.119 C  
HETATM    2  C   UNL     1      -5.672  16.620  69.664  1.00  0.00    -0.190 C  
HETATM    3  C   UNL     1      -7.173  14.787  68.713  1.00  0.00    -0.125 C  
ENDROOT
BRANCH   3   4
HETATM    4  C   UNL     1      -7.995  15.804  68.020  1.00  0.00    -0.141 A  
HETATM    5  O   UNL     1     -10.544  18.363  65.963  1.00  0.00    -0.427 OA 
HETATM    6  H   UNL     1     -10.389  18.553  65.045  1.00  0.00     0.000 HD 
HETATM    7  C   UNL     1      -9.075  16.400  68.690  1.00  0.00    -0.233 A  
HETATM    8  C   UNL     1      -9.709  17.549  66.671  1.00  0.00    -0.299 A  
HETATM    9  C   UNL     1      -7.766  16.122  66.675  1.00  0.00    -0.265 A  
HETATM   10  C   UNL     1      -8.626  16.993  66.000  1.00  0.00    -0.164 A  
HETATM   11  C   UNL     1      -9.936  17.271  68.014  1.00  0.00    -0.304 A  
ENDBRANCH   3   4
BRANCH   3  12
HETATM   12  C   UNL     1      -7.427  13.340  68.587  1.00  0.00    -0.099 C  
HETATM   13  C   UNL     1      -6.525  12.474  69.103  1.00  0.00    -0.099 C  
HETATM   14  C   UNL     1      -6.595  10.980  69.159  1.00  0.00    -0.077 C  
BRANCH  12  15
HETATM   15  C   UNL     1      -8.676  12.814  67.990  1.00  0.00    -0.194 A  
HETATM   16  C   UNL     1     -11.055  11.972  66.784  1.00  0.00    -0.305 A  
HETATM   17  C   UNL     1      -8.677  12.333  66.670  1.00  0.00    -0.132 A  
HETATM   18  C   UNL     1      -9.866  11.914  66.065  1.00  0.00    -0.258 A  
HETATM   19  O   UNL     1     -12.245  11.606  66.223  1.00  0.00    -0.150 OA 
HETATM   20  C   UNL     1     -11.069  12.414  68.102  1.00  0.00    -0.288 A  
HETATM   21  H   UNL     1     -13.057  11.645  66.714  1.00  0.00     0.000 HD 
HETATM   22  C   UNL     1      -9.880  12.836  68.706  1.00  0.00     0.020 A  
ENDBRANCH  12  15
ENDBRANCH   3  12
TORSDOF 3
ENDMDL
MODEL      198
REMARK 921   NORMALIZED FREE ENERGY PREDICTED BY IDOCK:   -3.77 KCAL/MOL
REMARK 922        TOTAL FREE ENERGY PREDICTED BY IDOCK:   -5.41 KCAL/MOL
REMARK 923 INTER-LIGAND FREE ENERGY PREDICTED BY IDOCK:   -5.32 KCAL/MOL
REMARK 924 INTRA-LIGAND FREE ENERGY PREDICTED BY IDOCK:   -0.09 KCAL/MOL
REMARK 927      BINDING AFFINITY PREDICTED BY RF-SCORE:    0.00 PKD
ROOT
HETATM    1  C   UNL     1     -10.391   8.272  68.372  1.00  0.00    -0.237 C  
HETATM    2  C   UNL     1      -9.453   7.266  67.782  1.00  0.00    -0.143 C  
HETATM    3  C   UNL     1     -10.432   8.694  69.658  1.00  0.00    -0.220 C  
ENDROOT
BRANCH   3   4
HETATM    4  C   UNL     1      -9.464   8.118  70.617  1.00  0.00    -0.174 A  
HETATM    5  O   UNL     1      -6.566   6.328  73.000  1.00  0.00    -0.067 OA 
HETATM    6  H   UNL     1      -6.717   5.463  73.364  1.00  0.00     0.000 HD 
HETATM    7  C   UNL     1      -8.271   8.802  70.897  1.00  0.00    -0.189 A  
HETATM    8  C   UNL     1      -7.510   6.951  72.238  1.00  0.00    -0.087 A  
HETATM    9  C   UNL     1      -9.679   6.857  71.190  1.00  0.00    -0.177 A  
HETATM   10  C   UNL     1      -8.699   6.273  71.997  1.00  0.00    -0.134 A  
HETATM   11  C   UNL     1      -7.290   8.216  71.705  1.00  0.00    -0.088 A  
ENDBRANCH   3   4
BRANCH   3  12
HETATM   12  C   UNL     1     -11.403   9.737  70.039  1.00  0.00    -0.269 C  
HETATM   13  C   UNL     1     -12.174   9.540  71.131  1.00  0.00    -0.421 C  
HETATM   14  C   UNL     1     -13.171  10.473  71.748  1.00  0.00    -0.522 C  
BRANCH  12  15
HETATM   15  C   UNL     1     -11.493  11.023  69.310  1.00  0.00    -0.370 A  
HETATM   16  C   UNL     1     -11.836  13.445  67.953  1.00  0.00    -0.357 A  
HETATM   17  C   UNL     1     -11.649  12.225  70.021  1.00  0.00    -0.236 A  
HETATM   18  C   UNL     1     -11.824  13.436  69.345  1.00  0.00    -0.390 A  
HETATM   19  O   UNL     1     -12.036  14.599  67.251  1.00  0.00    -0.448 OA 
HETATM   20  C   UNL     1     -11.650  12.271  67.232  1.00  0.00    -0.427 A  
HETATM   21  H   UNL     1     -12.044  14.605  66.301  1.00  0.00     0.000 HD 
HETATM   22  C   UNL     1     -11.479  11.060  67.910  1.00  0.00    -0.358 A  
ENDBRANCH  12  15
ENDBRANCH   3  12
TORSDOF 3
ENDMDL
MODEL      199
REMARK 921   NORMALIZED FREE ENERGY PREDICTED BY IDOCK:   -3.76 KCAL/MOL
REMARK 922        TOTAL FREE ENERGY PREDICTED BY IDOCK:   -5.40 KCAL/MOL
REMARK 923 INTER-LIGAND FREE ENERGY PREDICTED BY IDOCK:   -4.57 KCAL/MOL
REMARK 924 INTRA-LIGAND FREE ENERGY PREDICTED BY IDOCK:   -0.83 KCAL/MOL
REMARK 927      BINDING AFFINITY PREDICTED BY RF-SCORE:    0.00 PKD
ROOT
HETATM    1  C   UNL     1      -7.297   4.534  69.929  1.00  0.00    -0.050 C  
HETATM    2  C   UNL     1      -6.236   4.721  68.890  1.00  0.00    -0.031 C  
HETATM    3  C   UNL     1      -8.508   5.139  69.977  1.00  0.00    -0.098 C  
ENDROOT
BRANCH   3   4
HETATM    4  C   UNL     1      -8.856   6.101  68.908  1.00  0.00    -0.122 A  
HETATM    5  O   UNL     1      -9.635   8.566  65.653  1.00  0.00    -0.447 OA 
HETATM    6  H   UNL     1      -9.032   9.266  65.431  1.00  0.00     0.000 HD 
HETATM    7  C   UNL     1     -10.020   5.907  68.149  1.00  0.00    -0.173 A  
HETATM    8  C   UNL     1      -9.419   7.759  66.732  1.00  0.00    -0.197 A  
HETATM    9  C   UNL     1      -7.996   7.159  68.583  1.00  0.00    -0.123 A  
HETATM   10  C   UNL     1      -8.277   7.985  67.492  1.00  0.00    -0.123 A  
HETATM   11  C   UNL     1     -10.301   6.735  67.056  1.00  0.00    -0.338 A  
ENDBRANCH   3   4
BRANCH   3  12
HETATM   12  C   UNL     1      -9.443   4.783  71.061  1.00  0.00    -0.227 C  
HETATM   13  C   UNL     1      -9.391   3.535  71.580  1.00  0.00    -0.209 C  
HETATM   14  C   UNL     1     -10.181   2.966  72.718  1.00  0.00    -0.237 C  
BRANCH  12  15
HETATM   15  C   UNL     1     -10.372   5.774  71.649  1.00  0.00    -0.266 A  
HETATM   16  C   UNL     1     -12.080   7.758  72.638  1.00  0.00    -0.141 A  
HETATM   17  C   UNL     1     -11.641   5.973  71.080  1.00  0.00    -0.167 A  
HETATM   18  C   UNL     1     -12.495   6.966  71.571  1.00  0.00    -0.420 A  
HETATM   19  O   UNL     1     -12.865   8.760  73.128  1.00  0.00    -0.609 OA 
HETATM   20  C   UNL     1     -10.841   7.553  73.235  1.00  0.00    -0.409 A  
HETATM   21  H   UNL     1     -12.582   9.300  73.856  1.00  0.00     0.000 HD 
HETATM   22  C   UNL     1      -9.986   6.563  72.741  1.00  0.00    -0.186 A  
ENDBRANCH  12  15
ENDBRANCH   3  12
TORSDOF 3
ENDMDL
MODEL      200
REMARK 921   NORMALIZED FREE ENERGY PREDICTED BY IDOCK:   -3.74 KCAL/MOL
REMARK 922        TOTAL FREE ENERGY PREDICTED BY IDOCK:   -5.37 KCAL/MOL
REMARK 923 INTER-LIGAND FREE ENERGY PREDICTED BY IDOCK:   -4.61 KCAL/MOL
REMARK 924 INTRA-LIGAND FREE ENERGY PREDICTED BY IDOCK:   -0.76 KCAL/MOL
REMARK 927      BINDING AFFINITY PREDICTED BY RF-SCORE:    0.00 PKD
ROOT
HETATM    1  C   UNL     1     -11.938   6.445  71.349  1.00  0.00    -0.307 C  
HETATM    2  C   UNL     1     -13.303   7.045  71.479  1.00  0.00    -0.370 C  
HETATM    3  C   UNL     1     -10.848   7.012  70.778  1.00  0.00    -0.272 C  
ENDROOT
BRANCH   3   4
HETATM    4  C   UNL     1     -10.981   8.369  70.205  1.00  0.00    -0.216 A  
HETATM    5  O   UNL     1     -11.723  12.079  68.483  1.00  0.00    -0.295 OA 
HETATM    6  H   UNL     1     -11.513  12.230  67.569  1.00  0.00     0.000 HD 
HETATM    7  C   UNL     1     -11.526   9.402  70.982  1.00  0.00    -0.403 A  
HETATM    8  C   UNL     1     -11.465  10.881  69.082  1.00  0.00    -0.303 A  
HETATM    9  C   UNL     1     -10.650   8.622  68.867  1.00  0.00    -0.166 A  
HETATM   10  C   UNL     1     -10.896   9.878  68.306  1.00  0.00    -0.275 A  
HETATM   11  C   UNL     1     -11.772  10.660  70.420  1.00  0.00    -0.446 A  
ENDBRANCH   3   4
BRANCH   3  12
HETATM   12  C   UNL     1      -9.570   6.276  70.792  1.00  0.00    -0.193 C  
HETATM   13  C   UNL     1      -8.643   6.601  71.722  1.00  0.00    -0.126 C  
HETATM   14  C   UNL     1      -7.315   5.959  71.977  1.00  0.00    -0.094 C  
BRANCH  12  15
HETATM   15  C   UNL     1      -9.310   5.142  69.876  1.00  0.00    -0.196 A  
HETATM   16  C   UNL     1      -8.983   3.010  68.094  1.00  0.00    -0.145 A  
HETATM   17  C   UNL     1      -9.069   5.381  68.512  1.00  0.00    -0.121 A  
HETATM   18  C   UNL     1      -8.908   4.316  67.620  1.00  0.00    -0.124 A  
HETATM   19  O   UNL     1      -8.865   1.940  67.255  1.00  0.00    -0.113 OA 
HETATM   20  C   UNL     1      -9.188   2.755  69.446  1.00  0.00    -0.208 A  
HETATM   21  H   UNL     1      -8.916   1.049  67.579  1.00  0.00     0.000 HD 
HETATM   22  C   UNL     1      -9.351   3.820  70.337  1.00  0.00    -0.235 A  
ENDBRANCH  12  15
ENDBRANCH   3  12
TORSDOF 3
ENDMDL
MODEL      201
REMARK 921   NORMALIZED FREE ENERGY PREDICTED BY IDOCK:   -3.69 KCAL/MOL
REMARK 922        TOTAL FREE ENERGY PREDICTED BY IDOCK:   -5.32 KCAL/MOL
REMARK 923 INTER-LIGAND FREE ENERGY PREDICTED BY IDOCK:   -4.03 KCAL/MOL
REMARK 924 INTRA-LIGAND FREE ENERGY PREDICTED BY IDOCK:   -1.29 KCAL/MOL
REMARK 927      BINDING AFFINITY PREDICTED BY RF-SCORE:    0.00 PKD
ROOT
HETATM    1  C   UNL     1     -10.850   6.008  69.096  1.00  0.00    -0.422 C  
HETATM    2  C   UNL     1     -11.128   6.535  67.722  1.00  0.00    -0.366 C  
HETATM    3  C   UNL     1      -9.932   5.076  69.443  1.00  0.00    -0.290 C  
ENDROOT
BRANCH   3   4
HETATM    4  C   UNL     1      -9.094   4.485  68.376  1.00  0.00    -0.161 A  
HETATM    5  O   UNL     1      -6.629   2.550  65.646  1.00  0.00    -0.030 OA 
HETATM    6  H   UNL     1      -5.717   2.807  65.561  1.00  0.00     0.000 HD 
HETATM    7  C   UNL     1      -9.615   3.463  67.568  1.00  0.00    -0.152 A  
HETATM    8  C   UNL     1      -7.468   3.185  66.514  1.00  0.00    -0.076 A  
HETATM    9  C   UNL     1      -7.757   4.870  68.214  1.00  0.00    -0.082 A  
HETATM   10  C   UNL     1      -6.943   4.216  67.284  1.00  0.00    -0.059 A  
HETATM   11  C   UNL     1      -8.800   2.808  66.637  1.00  0.00    -0.154 A  
ENDBRANCH   3   4
BRANCH   3  12
HETATM   12  C   UNL     1      -9.772   4.724  70.866  1.00  0.00    -0.260 C  
HETATM   13  C   UNL     1      -9.895   3.428  71.233  1.00  0.00    -0.194 C  
HETATM   14  C   UNL     1      -9.710   2.823  72.590  1.00  0.00    -0.190 C  
BRANCH  12  15
HETATM   15  C   UNL     1      -9.398   5.732  71.884  1.00  0.00    -0.165 A  
HETATM   16  C   UNL     1      -8.752   7.759  73.700  1.00  0.00    -0.252 A  
HETATM   17  C   UNL     1     -10.375   6.256  72.747  1.00  0.00    -0.216 A  
HETATM   18  C   UNL     1     -10.055   7.272  73.654  1.00  0.00    -0.387 A  
HETATM   19  O   UNL     1      -8.402   8.772  74.546  1.00  0.00    -0.359 OA 
HETATM   20  C   UNL     1      -7.765   7.230  72.877  1.00  0.00    -0.102 A  
HETATM   21  H   UNL     1      -7.513   9.105  74.578  1.00  0.00     0.000 HD 
HETATM   22  C   UNL     1      -8.087   6.217  71.969  1.00  0.00    -0.109 A  
ENDBRANCH  12  15
ENDBRANCH   3  12
TORSDOF 3
ENDMDL
MODEL      202
REMARK 921   NORMALIZED FREE ENERGY PREDICTED BY IDOCK:   -3.58 KCAL/MOL
REMARK 922        TOTAL FREE ENERGY PREDICTED BY IDOCK:   -5.18 KCAL/MOL
REMARK 923 INTER-LIGAND FREE ENERGY PREDICTED BY IDOCK:   -3.84 KCAL/MOL
REMARK 924 INTRA-LIGAND FREE ENERGY PREDICTED BY IDOCK:   -1.34 KCAL/MOL
REMARK 927      BINDING AFFINITY PREDICTED BY RF-SCORE:    0.00 PKD
ROOT
HETATM    1  C   UNL     1      -9.946   7.444  66.841  1.00  0.00    -0.307 C  
HETATM    2  C   UNL     1      -9.611   6.157  66.154  1.00  0.00    -0.071 C  
HETATM    3  C   UNL     1      -9.416   8.665  66.593  1.00  0.00    -0.267 C  
ENDROOT
BRANCH   3   4
HETATM    4  C   UNL     1      -8.385   8.781  65.538  1.00  0.00    -0.153 A  
HETATM    5  O   UNL     1      -5.591   8.740  62.460  1.00  0.00    -0.078 OA 
HETATM    6  H   UNL     1      -4.711   8.420  62.621  1.00  0.00     0.000 HD 
HETATM    7  C   UNL     1      -8.741   9.257  64.267  1.00  0.00    -0.204 A  
HETATM    8  C   UNL     1      -6.520   8.791  63.458  1.00  0.00    -0.089 A  
HETATM    9  C   UNL     1      -7.072   8.344  65.762  1.00  0.00    -0.071 A  
HETATM   10  C   UNL     1      -6.142   8.346  64.719  1.00  0.00    -0.063 A  
HETATM   11  C   UNL     1      -7.809   9.258  63.223  1.00  0.00    -0.133 A  
ENDBRANCH   3   4
BRANCH   3  12
HETATM   12  C   UNL     1      -9.917   9.830  67.346  1.00  0.00    -0.239 C  
HETATM   13  C   UNL     1     -10.564   9.619  68.515  1.00  0.00    -0.253 C  
HETATM   14  C   UNL     1     -11.097  10.632  69.480  1.00  0.00    -0.328 C  
BRANCH  12  15
HETATM   15  C   UNL     1      -9.656  11.219  66.903  1.00  0.00    -0.210 A  
HETATM   16  C   UNL     1      -9.236  13.897  66.213  1.00  0.00    -0.088 A  
HETATM   17  C   UNL     1      -8.544  11.918  67.399  1.00  0.00    -0.164 A  
HETATM   18  C   UNL     1      -8.333  13.258  67.058  1.00  0.00    -0.092 A  
HETATM   19  O   UNL     1      -9.089  15.212  65.879  1.00  0.00    -0.458 OA 
HETATM   20  C   UNL     1     -10.324  13.211  65.685  1.00  0.00    -0.291 A  
HETATM   21  H   UNL     1      -9.705  15.648  65.302  1.00  0.00     0.000 HD 
HETATM   22  C   UNL     1     -10.535  11.873  66.030  1.00  0.00    -0.282 A  
ENDBRANCH  12  15
ENDBRANCH   3  12
TORSDOF 3
ENDMDL
MODEL      203
REMARK 921   NORMALIZED FREE ENERGY PREDICTED BY IDOCK:   -3.47 KCAL/MOL
REMARK 922        TOTAL FREE ENERGY PREDICTED BY IDOCK:   -5.06 KCAL/MOL
REMARK 923 INTER-LIGAND FREE ENERGY PREDICTED BY IDOCK:   -3.60 KCAL/MOL
REMARK 924 INTRA-LIGAND FREE ENERGY PREDICTED BY IDOCK:   -1.46 KCAL/MOL
REMARK 927      BINDING AFFINITY PREDICTED BY RF-SCORE:    0.00 PKD
ROOT
HETATM    1  C   UNL     1      -8.405   2.720  69.894  1.00  0.00    -0.077 C  
HETATM    2  C   UNL     1      -8.511   1.905  71.145  1.00  0.00    -0.077 C  
HETATM    3  C   UNL     1      -8.765   4.015  69.730  1.00  0.00    -0.120 C  
ENDROOT
BRANCH   3   4
HETATM    4  C   UNL     1      -9.334   4.738  70.888  1.00  0.00    -0.209 A  
HETATM    5  O   UNL     1     -10.890   7.103  73.932  1.00  0.00    -0.510 OA 
HETATM    6  H   UNL     1     -10.313   7.472  74.591  1.00  0.00     0.000 HD 
HETATM    7  C   UNL     1     -10.716   4.975  70.950  1.00  0.00    -0.053 A  
HETATM    8  C   UNL     1     -10.411   6.301  72.938  1.00  0.00    -0.218 A  
HETATM    9  C   UNL     1      -8.504   5.265  71.887  1.00  0.00    -0.126 A  
HETATM   10  C   UNL     1      -9.045   6.050  72.910  1.00  0.00    -0.131 A  
HETATM   11  C   UNL     1     -11.256   5.761  71.974  1.00  0.00    -0.307 A  
ENDBRANCH   3   4
BRANCH   3  12
HETATM   12  C   UNL     1      -8.534   4.662  68.425  1.00  0.00    -0.094 C  
HETATM   13  C   UNL     1      -7.845   3.987  67.477  1.00  0.00    -0.090 C  
HETATM   14  C   UNL     1      -7.547   4.401  66.069  1.00  0.00    -0.086 C  
BRANCH  12  15
HETATM   15  C   UNL     1      -9.105   5.989  68.097  1.00  0.00    -0.118 A  
HETATM   16  C   UNL     1     -10.135   8.469  67.316  1.00  0.00    -0.251 A  
HETATM   17  C   UNL     1     -10.375   6.080  67.504  1.00  0.00    -0.262 A  
HETATM   18  C   UNL     1     -10.891   7.319  67.110  1.00  0.00    -0.378 A  
HETATM   19  O   UNL     1     -10.583   9.696  66.918  1.00  0.00    -0.228 OA 
HETATM   20  C   UNL     1      -8.890   8.402  67.931  1.00  0.00    -0.138 A  
HETATM   21  H   UNL     1     -10.068  10.481  67.058  1.00  0.00     0.000 HD 
HETATM   22  C   UNL     1      -8.374   7.163  68.322  1.00  0.00    -0.124 A  
ENDBRANCH  12  15
ENDBRANCH   3  12
TORSDOF 3
ENDMDL
MODEL      204
REMARK 921   NORMALIZED FREE ENERGY PREDICTED BY IDOCK:   -3.45 KCAL/MOL
REMARK 922        TOTAL FREE ENERGY PREDICTED BY IDOCK:   -5.03 KCAL/MOL
REMARK 923 INTER-LIGAND FREE ENERGY PREDICTED BY IDOCK:   -4.01 KCAL/MOL
REMARK 924 INTRA-LIGAND FREE ENERGY PREDICTED BY IDOCK:   -1.02 KCAL/MOL
REMARK 927      BINDING AFFINITY PREDICTED BY RF-SCORE:    0.00 PKD
ROOT
HETATM    1  C   UNL     1      -9.046   3.590  69.158  1.00  0.00    -0.203 C  
HETATM    2  C   UNL     1      -9.410   2.711  70.314  1.00  0.00    -0.201 C  
HETATM    3  C   UNL     1      -9.280   4.918  69.036  1.00  0.00    -0.165 C  
ENDROOT
BRANCH   3   4
HETATM    4  C   UNL     1      -9.973   5.613  70.142  1.00  0.00    -0.270 A  
HETATM    5  O   UNL     1     -11.778   7.907  73.103  1.00  0.00    -0.630 OA 
HETATM    6  H   UNL     1     -11.313   8.093  73.910  1.00  0.00     0.000 HD 
HETATM    7  C   UNL     1     -11.277   6.096  69.953  1.00  0.00    -0.484 A  
HETATM    8  C   UNL     1     -11.221   7.134  72.126  1.00  0.00    -0.255 A  
HETATM    9  C   UNL     1      -9.317   5.873  71.353  1.00  0.00    -0.165 A  
HETATM   10  C   UNL     1      -9.942   6.637  72.343  1.00  0.00    -0.180 A  
HETATM   11  C   UNL     1     -11.902   6.862  70.944  1.00  0.00    -0.424 A  
ENDBRANCH   3   4
BRANCH   3  12
HETATM   12  C   UNL     1      -8.796   5.622  67.834  1.00  0.00    -0.105 C  
HETATM   13  C   UNL     1      -8.538   6.947  67.916  1.00  0.00    -0.122 C  
HETATM   14  C   UNL     1      -7.980   7.854  66.863  1.00  0.00    -0.108 C  
BRANCH  12  15
HETATM   15  C   UNL     1      -8.506   4.905  66.571  1.00  0.00    -0.110 A  
HETATM   16  C   UNL     1      -7.889   3.696  64.125  1.00  0.00    -0.085 A  
HETATM   17  C   UNL     1      -7.212   4.418  66.321  1.00  0.00    -0.076 A  
HETATM   18  C   UNL     1      -6.901   3.816  65.097  1.00  0.00    -0.053 A  
HETATM   19  O   UNL     1      -7.624   3.146  62.904  1.00  0.00    -0.053 OA 
HETATM   20  C   UNL     1      -9.184   4.142  64.367  1.00  0.00    -0.150 A  
HETATM   21  H   UNL     1      -8.298   3.064  62.240  1.00  0.00     0.000 HD 
HETATM   22  C   UNL     1      -9.493   4.747  65.590  1.00  0.00    -0.173 A  
ENDBRANCH  12  15
ENDBRANCH   3  12
TORSDOF 3
ENDMDL
MODEL      205
REMARK 921   NORMALIZED FREE ENERGY PREDICTED BY IDOCK:   -3.35 KCAL/MOL
REMARK 922        TOTAL FREE ENERGY PREDICTED BY IDOCK:   -4.92 KCAL/MOL
REMARK 923 INTER-LIGAND FREE ENERGY PREDICTED BY IDOCK:   -3.34 KCAL/MOL
REMARK 924 INTRA-LIGAND FREE ENERGY PREDICTED BY IDOCK:   -1.58 KCAL/MOL
REMARK 927      BINDING AFFINITY PREDICTED BY RF-SCORE:    0.00 PKD
ROOT
HETATM    1  C   UNL     1      -6.761   2.718  68.329  1.00  0.00    -0.040 C  
HETATM    2  C   UNL     1      -6.219   1.945  67.167  1.00  0.00    -0.020 C  
HETATM    3  C   UNL     1      -7.654   3.735  68.287  1.00  0.00    -0.061 C  
ENDROOT
BRANCH   3   4
HETATM    4  C   UNL     1      -8.171   4.162  66.969  1.00  0.00    -0.100 A  
HETATM    5  O   UNL     1      -9.400   5.076  63.104  1.00  0.00    -0.355 OA 
HETATM    6  H   UNL     1      -8.914   5.709  62.587  1.00  0.00     0.000 HD 
HETATM    7  C   UNL     1      -9.315   3.547  66.437  1.00  0.00    -0.184 A  
HETATM    8  C   UNL     1      -9.036   4.777  64.385  1.00  0.00    -0.117 A  
HETATM    9  C   UNL     1      -7.488   5.116  66.202  1.00  0.00    -0.086 A  
HETATM   10  C   UNL     1      -7.920   5.419  64.908  1.00  0.00    -0.108 A  
HETATM   11  C   UNL     1      -9.746   3.852  65.141  1.00  0.00    -0.191 A  
ENDBRANCH   3   4
BRANCH   3  12
HETATM   12  C   UNL     1      -8.108   4.340  69.554  1.00  0.00    -0.062 C  
HETATM   13  C   UNL     1      -7.677   3.809  70.720  1.00  0.00    -0.047 C  
HETATM   14  C   UNL     1      -7.941   4.285  72.115  1.00  0.00    -0.090 C  
BRANCH  12  15
HETATM   15  C   UNL     1      -8.949   5.559  69.580  1.00  0.00    -0.134 A  
HETATM   16  C   UNL     1     -10.571   7.835  69.463  1.00  0.00    -0.221 A  
HETATM   17  C   UNL     1     -10.345   5.448  69.688  1.00  0.00    -0.361 A  
HETATM   18  C   UNL     1     -11.158   6.584  69.627  1.00  0.00    -0.435 A  
HETATM   19  O   UNL     1     -11.326   8.968  69.365  1.00  0.00    -0.439 OA 
HETATM   20  C   UNL     1      -9.189   7.968  69.388  1.00  0.00    -0.152 A  
HETATM   21  H   UNL     1     -10.925   9.822  69.254  1.00  0.00     0.000 HD 
HETATM   22  C   UNL     1      -8.377   6.831  69.446  1.00  0.00    -0.132 A  
ENDBRANCH  12  15
ENDBRANCH   3  12
TORSDOF 3
ENDMDL
MODEL      206
REMARK 921   NORMALIZED FREE ENERGY PREDICTED BY IDOCK:   -3.34 KCAL/MOL
REMARK 922        TOTAL FREE ENERGY PREDICTED BY IDOCK:   -4.90 KCAL/MOL
REMARK 923 INTER-LIGAND FREE ENERGY PREDICTED BY IDOCK:   -3.88 KCAL/MOL
REMARK 924 INTRA-LIGAND FREE ENERGY PREDICTED BY IDOCK:   -1.03 KCAL/MOL
REMARK 927      BINDING AFFINITY PREDICTED BY RF-SCORE:    0.00 PKD
ROOT
HETATM    1  C   UNL     1      -9.952   7.776  66.967  1.00  0.00    -0.314 C  
HETATM    2  C   UNL     1     -11.145   6.981  67.399  1.00  0.00    -0.265 C  
HETATM    3  C   UNL     1      -9.515   8.944  67.496  1.00  0.00    -0.172 C  
ENDROOT
BRANCH   3   4
HETATM    4  C   UNL     1     -10.273   9.533  68.621  1.00  0.00    -0.215 A  
HETATM    5  O   UNL     1     -12.697  10.934  71.694  1.00  0.00    -0.405 OA 
HETATM    6  H   UNL     1     -13.304  11.648  71.534  1.00  0.00     0.000 HD 
HETATM    7  C   UNL     1     -10.180   8.961  69.899  1.00  0.00    -0.209 A  
HETATM    8  C   UNL     1     -11.870  10.472  70.712  1.00  0.00    -0.365 A  
HETATM    9  C   UNL     1     -11.152  10.605  68.414  1.00  0.00    -0.328 A  
HETATM   10  C   UNL     1     -11.953  11.071  69.461  1.00  0.00    -0.413 A  
HETATM   11  C   UNL     1     -10.982   9.428  70.946  1.00  0.00    -0.391 A  
ENDBRANCH   3   4
BRANCH   3  12
HETATM   12  C   UNL     1      -8.281   9.552  66.964  1.00  0.00    -0.113 C  
HETATM   13  C   UNL     1      -7.739  10.603  67.619  1.00  0.00    -0.097 C  
HETATM   14  C   UNL     1      -6.469  11.336  67.315  1.00  0.00    -0.085 C  
BRANCH  12  15
HETATM   15  C   UNL     1      -7.578   8.992  65.786  1.00  0.00    -0.090 A  
HETATM   16  C   UNL     1      -6.385   7.828  63.541  1.00  0.00    -0.062 A  
HETATM   17  C   UNL     1      -7.932   9.409  64.492  1.00  0.00    -0.126 A  
HETATM   18  C   UNL     1      -7.339   8.826  63.368  1.00  0.00    -0.100 A  
HETATM   19  O   UNL     1      -5.803   7.207  62.473  1.00  0.00    -0.043 OA 
HETATM   20  C   UNL     1      -5.998   7.425  64.814  1.00  0.00    -0.038 A  
HETATM   21  H   UNL     1      -5.152   6.526  62.590  1.00  0.00     0.000 HD 
HETATM   22  C   UNL     1      -6.594   8.007  65.937  1.00  0.00    -0.046 A  
ENDBRANCH  12  15
ENDBRANCH   3  12
TORSDOF 3
ENDMDL
MODEL      207
REMARK 921   NORMALIZED FREE ENERGY PREDICTED BY IDOCK:   -3.23 KCAL/MOL
REMARK 922        TOTAL FREE ENERGY PREDICTED BY IDOCK:   -4.78 KCAL/MOL
REMARK 923 INTER-LIGAND FREE ENERGY PREDICTED BY IDOCK:   -3.78 KCAL/MOL
REMARK 924 INTRA-LIGAND FREE ENERGY PREDICTED BY IDOCK:   -1.01 KCAL/MOL
REMARK 927      BINDING AFFINITY PREDICTED BY RF-SCORE:    0.00 PKD
ROOT
HETATM    1  C   UNL     1     -11.256  15.284  65.960  1.00  0.00    -0.231 C  
HETATM    2  C   UNL     1     -10.935  15.635  64.541  1.00  0.00    -0.220 C  
HETATM    3  C   UNL     1     -11.105  14.078  66.557  1.00  0.00    -0.315 C  
ENDROOT
BRANCH   3   4
HETATM    4  C   UNL     1     -10.572  12.958  65.752  1.00  0.00    -0.293 A  
HETATM    5  O   UNL     1      -9.160   9.572  63.796  1.00  0.00    -0.358 OA 
HETATM    6  H   UNL     1      -8.250   9.315  63.887  1.00  0.00     0.000 HD 
HETATM    7  C   UNL     1     -11.439  12.207  64.944  1.00  0.00    -0.379 A  
HETATM    8  C   UNL     1      -9.644  10.694  64.404  1.00  0.00    -0.295 A  
HETATM    9  C   UNL     1      -9.226  12.579  65.848  1.00  0.00     0.044 A  
HETATM   10  C   UNL     1      -8.764  11.444  65.175  1.00  0.00     0.185 A  
HETATM   11  C   UNL     1     -10.976  11.070  64.271  1.00  0.00    -0.148 A  
ENDBRANCH   3   4
BRANCH   3  12
HETATM   12  C   UNL     1     -11.432  13.943  67.989  1.00  0.00    -0.339 C  
HETATM   13  C   UNL     1     -11.841  15.038  68.669  1.00  0.00    -0.325 C  
HETATM   14  C   UNL     1     -12.289  15.136  70.095  1.00  0.00    -0.385 C  
BRANCH  12  15
HETATM   15  C   UNL     1     -11.405  12.632  68.677  1.00  0.00    -0.331 A  
HETATM   16  C   UNL     1     -11.369  10.239  70.126  1.00  0.00    -0.316 A  
HETATM   17  C   UNL     1     -12.603  12.046  69.119  1.00  0.00     0.584 A  
HETATM   18  C   UNL     1     -12.587  10.851  69.846  1.00  0.00    -0.211 A  
HETATM   19  O   UNL     1     -11.301   9.090  70.860  1.00  0.00    -0.267 OA 
HETATM   20  C   UNL     1     -10.176  10.787  69.668  1.00  0.00    -0.099 A  
HETATM   21  H   UNL     1     -10.470   8.672  71.051  1.00  0.00     0.000 HD 
HETATM   22  C   UNL     1     -10.193  11.983  68.944  1.00  0.00    -0.078 A  
ENDBRANCH  12  15
ENDBRANCH   3  12
TORSDOF 3
ENDMDL
MODEL      208
REMARK 921   NORMALIZED FREE ENERGY PREDICTED BY IDOCK:   -3.09 KCAL/MOL
REMARK 922        TOTAL FREE ENERGY PREDICTED BY IDOCK:   -4.61 KCAL/MOL
REMARK 923 INTER-LIGAND FREE ENERGY PREDICTED BY IDOCK:   -3.23 KCAL/MOL
REMARK 924 INTRA-LIGAND FREE ENERGY PREDICTED BY IDOCK:   -1.37 KCAL/MOL
REMARK 927      BINDING AFFINITY PREDICTED BY RF-SCORE:    0.00 PKD
ROOT
HETATM    1  C   UNL     1      -8.841   6.578  66.767  1.00  0.00    -0.130 C  
HETATM    2  C   UNL     1      -9.025   5.908  65.441  1.00  0.00    -0.015 C  
HETATM    3  C   UNL     1      -8.401   7.839  66.991  1.00  0.00    -0.117 C  
ENDROOT
BRANCH   3   4
HETATM    4  C   UNL     1      -8.050   8.677  65.824  1.00  0.00    -0.114 A  
HETATM    5  O   UNL     1      -6.918  11.299  62.803  1.00  0.00    -0.248 OA 
HETATM    6  H   UNL     1      -7.527  11.961  62.494  1.00  0.00     0.000 HD 
HETATM    7  C   UNL     1      -6.774   8.570  65.249  1.00  0.00    -0.063 A  
HETATM    8  C   UNL     1      -7.272  10.408  63.773  1.00  0.00     0.011 A  
HETATM    9  C   UNL     1      -8.942   9.640  65.333  1.00  0.00    -0.231 A  
HETATM   10  C   UNL     1      -8.550  10.507  64.309  1.00  0.00    -0.156 A  
HETATM   11  C   UNL     1      -6.382   9.440  64.224  1.00  0.00    -0.089 A  
ENDBRANCH   3   4
BRANCH   3  12
HETATM   12  C   UNL     1      -8.335   8.338  68.377  1.00  0.00    -0.132 C  
HETATM   13  C   UNL     1      -7.128   8.429  68.979  1.00  0.00    -0.069 C  
HETATM   14  C   UNL     1      -6.803   8.964  70.339  1.00  0.00    -0.049 C  
BRANCH  12  15
HETATM   15  C   UNL     1      -9.539   8.821  69.092  1.00  0.00    -0.162 A  
HETATM   16  C   UNL     1     -11.708   9.809  70.557  1.00  0.00    -0.268 A  
HETATM   17  C   UNL     1      -9.983  10.142  68.909  1.00  0.00    -0.207 A  
HETATM   18  C   UNL     1     -11.066  10.638  69.643  1.00  0.00    -0.342 A  
HETATM   19  O   UNL     1     -12.747  10.259  71.319  1.00  0.00    -0.349 OA 
HETATM   20  C   UNL     1     -11.304   8.489  70.727  1.00  0.00    -0.296 A  
HETATM   21  H   UNL     1     -13.186   9.693  71.943  1.00  0.00     0.000 HD 
HETATM   22  C   UNL     1     -10.219   7.995  69.996  1.00  0.00    -0.205 A  
ENDBRANCH  12  15
ENDBRANCH   3  12
TORSDOF 3
ENDMDL
MODEL      209
REMARK 921   NORMALIZED FREE ENERGY PREDICTED BY IDOCK:   -2.94 KCAL/MOL
REMARK 922        TOTAL FREE ENERGY PREDICTED BY IDOCK:   -4.44 KCAL/MOL
REMARK 923 INTER-LIGAND FREE ENERGY PREDICTED BY IDOCK:   -3.63 KCAL/MOL
REMARK 924 INTRA-LIGAND FREE ENERGY PREDICTED BY IDOCK:   -0.80 KCAL/MOL
REMARK 927      BINDING AFFINITY PREDICTED BY RF-SCORE:    0.00 PKD
ROOT
HETATM    1  C   UNL     1      -7.035   8.854  70.013  1.00  0.00    -0.044 C  
HETATM    2  C   UNL     1      -6.895   7.937  71.188  1.00  0.00    -0.045 C  
HETATM    3  C   UNL     1      -8.182   9.208  69.387  1.00  0.00    -0.118 C  
ENDROOT
BRANCH   3   4
HETATM    4  C   UNL     1      -9.457   8.645  69.884  1.00  0.00    -0.168 A  
HETATM    5  O   UNL     1     -12.823   6.866  71.552  1.00  0.00    -0.374 OA 
HETATM    6  H   UNL     1     -13.130   6.028  71.224  1.00  0.00     0.000 HD 
HETATM    7  C   UNL     1     -10.147   9.293  70.919  1.00  0.00    -0.373 A  
HETATM    8  C   UNL     1     -11.738   7.486  71.005  1.00  0.00    -0.292 A  
HETATM    9  C   UNL     1      -9.945   7.425  69.395  1.00  0.00    -0.176 A  
HETATM   10  C   UNL     1     -11.084   6.845  69.959  1.00  0.00    -0.344 A  
HETATM   11  C   UNL     1     -11.288   8.711  71.484  1.00  0.00    -0.358 A  
ENDBRANCH   3   4
BRANCH   3  12
HETATM   12  C   UNL     1      -8.120  10.171  68.271  1.00  0.00    -0.102 C  
HETATM   13  C   UNL     1      -8.101  11.493  68.554  1.00  0.00    -0.146 C  
HETATM   14  C   UNL     1      -7.972  12.646  67.607  1.00  0.00    -0.169 C  
BRANCH  12  15
HETATM   15  C   UNL     1      -7.992   9.730  66.863  1.00  0.00    -0.105 A  
HETATM   16  C   UNL     1      -7.889   8.795  64.229  1.00  0.00    -0.133 A  
HETATM   17  C   UNL     1      -8.810  10.297  65.871  1.00  0.00    -0.176 A  
HETATM   18  C   UNL     1      -8.762   9.829  64.554  1.00  0.00    -0.222 A  
HETATM   19  O   UNL     1      -7.832   8.285  62.964  1.00  0.00    -0.133 OA 
HETATM   20  C   UNL     1      -7.049   8.244  65.189  1.00  0.00    -0.075 A  
HETATM   21  H   UNL     1      -7.236   7.579  62.741  1.00  0.00     0.000 HD 
HETATM   22  C   UNL     1      -7.100   8.710  66.507  1.00  0.00    -0.080 A  
ENDBRANCH  12  15
ENDBRANCH   3  12
TORSDOF 3
ENDMDL
MODEL      210
REMARK 921   NORMALIZED FREE ENERGY PREDICTED BY IDOCK:   -2.91 KCAL/MOL
REMARK 922        TOTAL FREE ENERGY PREDICTED BY IDOCK:   -4.40 KCAL/MOL
REMARK 923 INTER-LIGAND FREE ENERGY PREDICTED BY IDOCK:   -3.28 KCAL/MOL
REMARK 924 INTRA-LIGAND FREE ENERGY PREDICTED BY IDOCK:   -1.12 KCAL/MOL
REMARK 927      BINDING AFFINITY PREDICTED BY RF-SCORE:    0.00 PKD
ROOT
HETATM    1  C   UNL     1     -10.229   7.062  67.820  1.00  0.00    -0.227 C  
HETATM    2  C   UNL     1     -10.632   8.093  66.813  1.00  0.00    -0.223 C  
HETATM    3  C   UNL     1      -9.843   5.788  67.574  1.00  0.00    -0.145 C  
ENDROOT
BRANCH   3   4
HETATM    4  C   UNL     1      -9.806   5.324  66.170  1.00  0.00    -0.186 A  
HETATM    5  O   UNL     1      -9.558   3.676  62.362  1.00  0.00    -0.097 OA 
HETATM    6  H   UNL     1      -8.764   3.779  61.849  1.00  0.00     0.000 HD 
HETATM    7  C   UNL     1     -10.903   4.631  65.637  1.00  0.00    -0.105 A  
HETATM    8  C   UNL     1      -9.677   4.229  63.603  1.00  0.00    -0.062 A  
HETATM    9  C   UNL     1      -8.656   5.491  65.386  1.00  0.00    -0.151 A  
HETATM   10  C   UNL     1      -8.592   4.939  64.103  1.00  0.00    -0.135 A  
HETATM   11  C   UNL     1     -10.839   4.079  64.352  1.00  0.00    -0.152 A  
ENDBRANCH   3   4
BRANCH   3  12
HETATM   12  C   UNL     1      -9.432   4.934  68.704  1.00  0.00    -0.198 C  
HETATM   13  C   UNL     1      -8.900   3.719  68.442  1.00  0.00    -0.150 C  
HETATM   14  C   UNL     1      -8.352   2.713  69.407  1.00  0.00    -0.084 C  
BRANCH  12  15
HETATM   15  C   UNL     1      -9.506   5.404  70.107  1.00  0.00    -0.213 A  
HETATM   16  C   UNL     1      -9.726   6.435  72.698  1.00  0.00    -0.161 A  
HETATM   17  C   UNL     1     -10.700   5.262  70.833  1.00  0.00    -0.189 A  
HETATM   18  C   UNL     1     -10.813   5.780  72.128  1.00  0.00    -0.296 A  
HETATM   19  O   UNL     1      -9.800   6.984  73.946  1.00  0.00    -0.258 OA 
HETATM   20  C   UNL     1      -8.525   6.555  72.007  1.00  0.00    -0.114 A  
HETATM   21  H   UNL     1      -9.058   7.431  74.335  1.00  0.00     0.000 HD 
HETATM   22  C   UNL     1      -8.415   6.041  70.711  1.00  0.00    -0.130 A  
ENDBRANCH  12  15
ENDBRANCH   3  12
TORSDOF 3
ENDMDL
MODEL      211
REMARK 921   NORMALIZED FREE ENERGY PREDICTED BY IDOCK:   -2.73 KCAL/MOL
REMARK 922        TOTAL FREE ENERGY PREDICTED BY IDOCK:   -4.19 KCAL/MOL
REMARK 923 INTER-LIGAND FREE ENERGY PREDICTED BY IDOCK:   -2.96 KCAL/MOL
REMARK 924 INTRA-LIGAND FREE ENERGY PREDICTED BY IDOCK:   -1.23 KCAL/MOL
REMARK 927      BINDING AFFINITY PREDICTED BY RF-SCORE:    0.00 PKD
ROOT
HETATM    1  C   UNL     1     -10.356   5.870  68.463  1.00  0.00    -0.268 C  
HETATM    2  C   UNL     1     -11.214   6.405  67.360  1.00  0.00    -0.283 C  
HETATM    3  C   UNL     1      -9.284   5.051  68.340  1.00  0.00    -0.150 C  
ENDROOT
BRANCH   3   4
HETATM    4  C   UNL     1      -8.889   4.611  66.984  1.00  0.00    -0.111 A  
HETATM    5  O   UNL     1      -7.468   3.195  63.343  1.00  0.00    -0.056 OA 
HETATM    6  H   UNL     1      -6.857   3.717  62.835  1.00  0.00     0.000 HD 
HETATM    7  C   UNL     1      -9.327   3.369  66.499  1.00  0.00    -0.173 A  
HETATM    8  C   UNL     1      -7.972   3.647  64.528  1.00  0.00    -0.086 A  
HETATM    9  C   UNL     1      -8.013   5.378  66.204  1.00  0.00    -0.105 A  
HETATM   10  C   UNL     1      -7.552   4.893  64.977  1.00  0.00    -0.077 A  
HETATM   11  C   UNL     1      -8.865   2.883  65.271  1.00  0.00    -0.131 A  
ENDBRANCH   3   4
BRANCH   3  12
HETATM   12  C   UNL     1      -8.531   4.671  69.550  1.00  0.00    -0.091 C  
HETATM   13  C   UNL     1      -7.233   5.036  69.649  1.00  0.00    -0.056 C  
HETATM   14  C   UNL     1      -6.292   4.828  70.795  1.00  0.00    -0.019 C  
BRANCH  12  15
HETATM   15  C   UNL     1      -9.178   3.979  70.689  1.00  0.00    -0.196 A  
HETATM   16  C   UNL     1     -10.541   2.655  72.741  1.00  0.00    -0.102 A  
HETATM   17  C   UNL     1      -9.239   2.576  70.716  1.00  0.00    -0.201 A  
HETATM   18  C   UNL     1      -9.922   1.912  71.740  1.00  0.00    -0.219 A  
HETATM   19  O   UNL     1     -11.247   2.051  73.742  1.00  0.00    -0.173 OA 
HETATM   20  C   UNL     1     -10.463   4.043  72.748  1.00  0.00    -0.234 A  
HETATM   21  H   UNL     1     -11.669   2.558  74.425  1.00  0.00     0.000 HD 
HETATM   22  C   UNL     1      -9.782   4.706  71.722  1.00  0.00    -0.230 A  
ENDBRANCH  12  15
ENDBRANCH   3  12
TORSDOF 3
ENDMDL
MODEL      212
REMARK 921   NORMALIZED FREE ENERGY PREDICTED BY IDOCK:   -2.66 KCAL/MOL
REMARK 922        TOTAL FREE ENERGY PREDICTED BY IDOCK:   -4.11 KCAL/MOL
REMARK 923 INTER-LIGAND FREE ENERGY PREDICTED BY IDOCK:   -2.97 KCAL/MOL
REMARK 924 INTRA-LIGAND FREE ENERGY PREDICTED BY IDOCK:   -1.13 KCAL/MOL
REMARK 927      BINDING AFFINITY PREDICTED BY RF-SCORE:    0.00 PKD
ROOT
HETATM    1  C   UNL     1     -10.659   6.687  70.672  1.00  0.00    -0.268 C  
HETATM    2  C   UNL     1     -11.318   7.807  69.928  1.00  0.00     0.008 C  
HETATM    3  C   UNL     1      -9.897   5.697  70.150  1.00  0.00    -0.250 C  
ENDROOT
BRANCH   3   4
HETATM    4  C   UNL     1      -9.671   5.682  68.688  1.00  0.00    -0.175 A  
HETATM    5  O   UNL     1      -8.989   5.246  64.610  1.00  0.00    -0.307 OA 
HETATM    6  H   UNL     1      -8.104   5.302  64.267  1.00  0.00     0.000 HD 
HETATM    7  C   UNL     1     -10.752   5.471  67.818  1.00  0.00    -0.186 A  
HETATM    8  C   UNL     1      -9.245   5.413  65.940  1.00  0.00    -0.156 A  
HETATM    9  C   UNL     1      -8.378   5.792  68.157  1.00  0.00    -0.107 A  
HETATM   10  C   UNL     1      -8.167   5.653  66.783  1.00  0.00    -0.105 A  
HETATM   11  C   UNL     1     -10.539   5.331  66.442  1.00  0.00    -0.338 A  
ENDBRANCH   3   4
BRANCH   3  12
HETATM   12  C   UNL     1      -9.288   4.708  71.058  1.00  0.00    -0.209 C  
HETATM   13  C   UNL     1      -9.701   3.422  70.990  1.00  0.00    -0.216 C  
HETATM   14  C   UNL     1      -9.191   2.238  71.751  1.00  0.00    -0.163 C  
BRANCH  12  15
HETATM   15  C   UNL     1      -8.183   5.066  71.978  1.00  0.00    -0.116 A  
HETATM   16  C   UNL     1      -6.147   5.906  73.701  1.00  0.00    -0.062 A  
HETATM   17  C   UNL     1      -8.446   5.284  73.340  1.00  0.00    -0.113 A  
HETATM   18  C   UNL     1      -7.430   5.707  74.203  1.00  0.00    -0.092 A  
HETATM   19  O   UNL     1      -5.132   6.351  74.499  1.00  0.00    -0.036 OA 
HETATM   20  C   UNL     1      -5.861   5.664  72.363  1.00  0.00    -0.027 A  
HETATM   21  H   UNL     1      -4.257   6.486  74.156  1.00  0.00     0.000 HD 
HETATM   22  C   UNL     1      -6.879   5.244  71.500  1.00  0.00    -0.053 A  
ENDBRANCH  12  15
ENDBRANCH   3  12
TORSDOF 3
ENDMDL
MODEL      213
REMARK 921   NORMALIZED FREE ENERGY PREDICTED BY IDOCK:   -2.41 KCAL/MOL
REMARK 922        TOTAL FREE ENERGY PREDICTED BY IDOCK:   -3.81 KCAL/MOL
REMARK 923 INTER-LIGAND FREE ENERGY PREDICTED BY IDOCK:   -2.52 KCAL/MOL
REMARK 924 INTRA-LIGAND FREE ENERGY PREDICTED BY IDOCK:   -1.29 KCAL/MOL
REMARK 927      BINDING AFFINITY PREDICTED BY RF-SCORE:    0.00 PKD
ROOT
HETATM    1  C   UNL     1      -8.187  14.538  66.801  1.00  0.00     0.045 C  
HETATM    2  C   UNL     1      -8.794  13.170  66.825  1.00  0.00    -0.140 C  
HETATM    3  C   UNL     1      -8.686  15.663  67.366  1.00  0.00    -0.194 C  
ENDROOT
BRANCH   3   4
HETATM    4  C   UNL     1      -9.973  15.573  68.092  1.00  0.00    -0.217 A  
HETATM    5  O   UNL     1     -13.517  15.689  70.260  1.00  0.00    -0.761 OA 
HETATM    6  H   UNL     1     -13.531  15.398  71.165  1.00  0.00     0.000 HD 
HETATM    7  C   UNL     1     -11.150  16.027  67.479  1.00  0.00    -0.207 A  
HETATM    8  C   UNL     1     -12.375  15.637  69.516  1.00  0.00    -0.113 A  
HETATM    9  C   UNL     1     -10.022  15.118  69.417  1.00  0.00    -0.232 A  
HETATM   10  C   UNL     1     -11.224  15.154  70.129  1.00  0.00    -0.299 A  
HETATM   11  C   UNL     1     -12.354  16.063  68.193  1.00  0.00     0.983 A  
ENDBRANCH   3   4
BRANCH   3  12
HETATM   12  C   UNL     1      -7.910  16.914  67.277  1.00  0.00    -0.204 C  
HETATM   13  C   UNL     1      -7.832  17.547  66.085  1.00  0.00    -0.281 C  
HETATM   14  C   UNL     1      -7.169  18.851  65.764  1.00  0.00    -0.246 C  
BRANCH  12  15
HETATM   15  C   UNL     1      -7.289  17.536  68.469  1.00  0.00    -0.243 A  
HETATM   16  C   UNL     1      -6.040  18.824  70.615  1.00  0.00     0.165 A  
HETATM   17  C   UNL     1      -7.839  18.706  69.018  1.00  0.00    -0.182 A  
HETATM   18  C   UNL     1      -7.215  19.353  70.089  1.00  0.00     0.374 A  
HETATM   19  O   UNL     1      -5.378  19.439  71.638  1.00  0.00    -0.345 OA 
HETATM   20  C   UNL     1      -5.499  17.648  70.106  1.00  0.00    -0.243 A  
HETATM   21  H   UNL     1      -4.577  19.077  71.998  1.00  0.00     0.000 HD 
HETATM   22  C   UNL     1      -6.123  17.004  69.033  1.00  0.00    -0.179 A  
ENDBRANCH  12  15
ENDBRANCH   3  12
TORSDOF 3
ENDMDL
MODEL      214
REMARK 921   NORMALIZED FREE ENERGY PREDICTED BY IDOCK:   -2.22 KCAL/MOL
REMARK 922        TOTAL FREE ENERGY PREDICTED BY IDOCK:   -3.59 KCAL/MOL
REMARK 923 INTER-LIGAND FREE ENERGY PREDICTED BY IDOCK:   -3.05 KCAL/MOL
REMARK 924 INTRA-LIGAND FREE ENERGY PREDICTED BY IDOCK:   -0.54 KCAL/MOL
REMARK 927      BINDING AFFINITY PREDICTED BY RF-SCORE:    0.00 PKD
ROOT
HETATM    1  C   UNL     1     -11.300  13.640  68.307  1.00  0.00    -0.322 C  
HETATM    2  C   UNL     1     -12.735  13.561  67.889  1.00  0.00     0.979 C  
HETATM    3  C   UNL     1     -10.225  13.176  67.626  1.00  0.00    -0.224 C  
ENDROOT
BRANCH   3   4
HETATM    4  C   UNL     1     -10.451  12.508  66.326  1.00  0.00    -0.268 A  
HETATM    5  O   UNL     1     -10.693  10.623  62.629  1.00  0.00    -0.602 OA 
HETATM    6  H   UNL     1     -10.748  11.140  61.834  1.00  0.00     0.000 HD 
HETATM    7  C   UNL     1     -10.468  11.106  66.258  1.00  0.00    -0.312 A  
HETATM    8  C   UNL     1     -10.640  11.214  63.857  1.00  0.00    -0.364 A  
HETATM    9  C   UNL     1     -10.565  13.252  65.144  1.00  0.00    -0.342 A  
HETATM   10  C   UNL     1     -10.656  12.603  63.909  1.00  0.00    -0.460 A  
HETATM   11  C   UNL     1     -10.559  10.457  65.021  1.00  0.00    -0.006 A  
ENDBRANCH   3   4
BRANCH   3  12
HETATM   12  C   UNL     1      -8.876  13.396  68.183  1.00  0.00    -0.180 C  
HETATM   13  C   UNL     1      -8.571  14.614  68.685  1.00  0.00    -0.172 C  
HETATM   14  C   UNL     1      -7.308  15.054  69.357  1.00  0.00    -0.194 C  
BRANCH  12  15
HETATM   15  C   UNL     1      -7.884  12.301  68.284  1.00  0.00    -0.153 A  
HETATM   16  C   UNL     1      -6.021  10.215  68.304  1.00  0.00    -0.041 A  
HETATM   17  C   UNL     1      -6.533  12.547  67.987  1.00  0.00    -0.087 A  
HETATM   18  C   UNL     1      -5.601  11.505  67.993  1.00  0.00    -0.043 A  
HETATM   19  O   UNL     1      -5.153   9.162  68.291  1.00  0.00    -0.031 OA 
HETATM   20  C   UNL     1      -7.347   9.959  68.634  1.00  0.00    -0.074 A  
HETATM   21  H   UNL     1      -5.439   8.281  68.503  1.00  0.00     0.000 HD 
HETATM   22  C   UNL     1      -8.279  11.001  68.623  1.00  0.00    -0.151 A  
ENDBRANCH  12  15
ENDBRANCH   3  12
TORSDOF 3
ENDMDL
MODEL      215
REMARK 921   NORMALIZED FREE ENERGY PREDICTED BY IDOCK:   -1.90 KCAL/MOL
REMARK 922        TOTAL FREE ENERGY PREDICTED BY IDOCK:   -3.21 KCAL/MOL
REMARK 923 INTER-LIGAND FREE ENERGY PREDICTED BY IDOCK:   -2.02 KCAL/MOL
REMARK 924 INTRA-LIGAND FREE ENERGY PREDICTED BY IDOCK:   -1.19 KCAL/MOL
REMARK 927      BINDING AFFINITY PREDICTED BY RF-SCORE:    0.00 PKD
ROOT
HETATM    1  C   UNL     1      -9.876   6.914  68.569  1.00  0.00    -0.144 C  
HETATM    2  C   UNL     1     -11.116   6.321  67.976  1.00  0.00    -0.365 C  
HETATM    3  C   UNL     1      -8.601   6.502  68.374  1.00  0.00    -0.119 C  
ENDROOT
BRANCH   3   4
HETATM    4  C   UNL     1      -8.365   5.341  67.490  1.00  0.00    -0.106 A  
HETATM    5  O   UNL     1      -7.322   2.188  64.989  1.00  0.00    -0.059 OA 
HETATM    6  H   UNL     1      -7.365   2.295  64.045  1.00  0.00     0.000 HD 
HETATM    7  C   UNL     1      -7.966   4.114  68.043  1.00  0.00    -0.085 A  
HETATM    8  C   UNL     1      -7.684   3.196  65.834  1.00  0.00    -0.081 A  
HETATM    9  C   UNL     1      -8.452   5.466  66.096  1.00  0.00    -0.120 A  
HETATM   10  C   UNL     1      -8.108   4.394  65.270  1.00  0.00    -0.102 A  
HETATM   11  C   UNL     1      -7.621   3.040  67.214  1.00  0.00    -0.070 A  
ENDBRANCH   3   4
BRANCH   3  12
HETATM   12  C   UNL     1      -7.502   7.253  69.011  1.00  0.00    -0.097 C  
HETATM   13  C   UNL     1      -6.695   8.009  68.232  1.00  0.00    -0.067 C  
HETATM   14  C   UNL     1      -5.569   8.903  68.650  1.00  0.00    -0.041 C  
BRANCH  12  15
HETATM   15  C   UNL     1      -7.313   7.269  70.480  1.00  0.00    -0.074 A  
HETATM   16  C   UNL     1      -6.819   7.398  73.230  1.00  0.00    -0.066 A  
HETATM   17  C   UNL     1      -7.749   8.372  71.232  1.00  0.00    -0.110 A  
HETATM   18  C   UNL     1      -7.500   8.440  72.607  1.00  0.00    -0.122 A  
HETATM   19  O   UNL     1      -6.525   7.436  74.562  1.00  0.00    -0.084 OA 
HETATM   20  C   UNL     1      -6.409   6.283  72.507  1.00  0.00    -0.058 A  
HETATM   21  H   UNL     1      -6.060   6.725  74.987  1.00  0.00     0.000 HD 
HETATM   22  C   UNL     1      -6.656   6.218  71.132  1.00  0.00    -0.050 A  
ENDBRANCH  12  15
ENDBRANCH   3  12
TORSDOF 3
ENDMDL
MODEL      216
REMARK 921   NORMALIZED FREE ENERGY PREDICTED BY IDOCK:   -1.69 KCAL/MOL
REMARK 922        TOTAL FREE ENERGY PREDICTED BY IDOCK:   -2.97 KCAL/MOL
REMARK 923 INTER-LIGAND FREE ENERGY PREDICTED BY IDOCK:   -2.13 KCAL/MOL
REMARK 924 INTRA-LIGAND FREE ENERGY PREDICTED BY IDOCK:   -0.84 KCAL/MOL
REMARK 927      BINDING AFFINITY PREDICTED BY RF-SCORE:    0.00 PKD
ROOT
HETATM    1  C   UNL     1     -10.799  11.403  67.472  1.00  0.00    -0.291 C  
HETATM    2  C   UNL     1     -11.168  11.828  68.860  1.00  0.00    -0.311 C  
HETATM    3  C   UNL     1      -9.973  10.389  67.121  1.00  0.00    -0.239 C  
ENDROOT
BRANCH   3   4
HETATM    4  C   UNL     1      -9.343   9.592  68.196  1.00  0.00    -0.140 A  
HETATM    5  O   UNL     1      -7.748   7.599  71.477  1.00  0.00    -0.081 OA 
HETATM    6  H   UNL     1      -6.907   7.863  71.831  1.00  0.00     0.000 HD 
HETATM    7  C   UNL     1     -10.043   8.518  68.768  1.00  0.00    -0.210 A  
HETATM    8  C   UNL     1      -8.283   8.217  70.385  1.00  0.00    -0.114 A  
HETATM    9  C   UNL     1      -8.090   9.944  68.714  1.00  0.00    -0.102 A  
HETATM   10  C   UNL     1      -7.562   9.257  69.811  1.00  0.00    -0.082 A  
HETATM   11  C   UNL     1      -9.514   7.831  69.867  1.00  0.00    -0.160 A  
ENDBRANCH   3   4
BRANCH   3  12
HETATM   12  C   UNL     1      -9.774  10.092  65.690  1.00  0.00    -0.336 C  
HETATM   13  C   UNL     1     -10.060  11.050  64.781  1.00  0.00    -0.367 C  
HETATM   14  C   UNL     1      -9.877  11.010  63.295  1.00  0.00    -0.406 C  
BRANCH  12  15
HETATM   15  C   UNL     1      -9.190   8.810  65.232  1.00  0.00    -0.099 A  
HETATM   16  C   UNL     1      -8.014   6.373  64.522  1.00  0.00    -0.117 A  
HETATM   17  C   UNL     1      -9.792   7.594  65.595  1.00  0.00     0.833 A  
HETATM   18  C   UNL     1      -9.204   6.374  65.243  1.00  0.00     0.389 A  
HETATM   19  O   UNL     1      -7.387   5.208  64.185  1.00  0.00    -0.053 OA 
HETATM   20  C   UNL     1      -7.422   7.567  64.125  1.00  0.00    -0.099 A  
HETATM   21  H   UNL     1      -6.575   5.207  63.692  1.00  0.00     0.000 HD 
HETATM   22  C   UNL     1      -8.008   8.785  64.480  1.00  0.00    -0.141 A  
ENDBRANCH  12  15
ENDBRANCH   3  12
TORSDOF 3
ENDMDL
MODEL      217
REMARK 921   NORMALIZED FREE ENERGY PREDICTED BY IDOCK:   -1.55 KCAL/MOL
REMARK 922        TOTAL FREE ENERGY PREDICTED BY IDOCK:   -2.80 KCAL/MOL
REMARK 923 INTER-LIGAND FREE ENERGY PREDICTED BY IDOCK:   -2.15 KCAL/MOL
REMARK 924 INTRA-LIGAND FREE ENERGY PREDICTED BY IDOCK:   -0.66 KCAL/MOL
REMARK 927      BINDING AFFINITY PREDICTED BY RF-SCORE:    0.00 PKD
ROOT
HETATM    1  C   UNL     1      -5.343  15.129  71.049  1.00  0.00    -0.109 C  
HETATM    2  C   UNL     1      -5.147  16.594  71.283  1.00  0.00    -0.048 C  
HETATM    3  C   UNL     1      -5.941  14.545  69.984  1.00  0.00    -0.141 C  
ENDROOT
BRANCH   3   4
HETATM    4  C   UNL     1      -6.477  15.415  68.915  1.00  0.00    -0.108 A  
HETATM    5  O   UNL     1      -7.802  18.166  66.094  1.00  0.00    -0.373 OA 
HETATM    6  H   UNL     1      -8.633  18.611  66.217  1.00  0.00     0.000 HD 
HETATM    7  C   UNL     1      -5.702  15.672  67.773  1.00  0.00    -0.156 A  
HETATM    8  C   UNL     1      -7.355  17.239  66.989  1.00  0.00    -0.185 A  
HETATM    9  C   UNL     1      -7.713  16.059  69.061  1.00  0.00    -0.216 A  
HETATM   10  C   UNL     1      -8.149  16.973  68.098  1.00  0.00    -0.212 A  
HETATM   11  C   UNL     1      -6.139  16.588  66.810  1.00  0.00    -0.025 A  
ENDBRANCH   3   4
BRANCH   3  12
HETATM   12  C   UNL     1      -5.993  13.072  69.910  1.00  0.00    -0.136 C  
HETATM   13  C   UNL     1      -5.730  12.356  71.027  1.00  0.00     0.041 C  
HETATM   14  C   UNL     1      -5.787  10.872  71.216  1.00  0.00     0.219 C  
BRANCH  12  15
HETATM   15  C   UNL     1      -6.406  12.365  68.676  1.00  0.00    -0.073 A  
HETATM   16  C   UNL     1      -7.082  11.135  66.257  1.00  0.00    -0.049 A  
HETATM   17  C   UNL     1      -5.572  11.382  68.117  1.00  0.00    -0.042 A  
HETATM   18  C   UNL     1      -5.907  10.768  66.906  1.00  0.00    -0.068 A  
HETATM   19  O   UNL     1      -7.433  10.587  65.057  1.00  0.00    -0.274 OA 
HETATM   20  C   UNL     1      -7.936  12.081  66.812  1.00  0.00    -0.060 A  
HETATM   21  H   UNL     1      -8.235  10.837  64.614  1.00  0.00     0.000 HD 
HETATM   22  C   UNL     1      -7.598  12.697  68.021  1.00  0.00    -0.132 A  
ENDBRANCH  12  15
ENDBRANCH   3  12
TORSDOF 3
ENDMDL
MODEL      218
REMARK 921   NORMALIZED FREE ENERGY PREDICTED BY IDOCK:   -0.63 KCAL/MOL
REMARK 922        TOTAL FREE ENERGY PREDICTED BY IDOCK:   -1.72 KCAL/MOL
REMARK 923 INTER-LIGAND FREE ENERGY PREDICTED BY IDOCK:   -2.14 KCAL/MOL
REMARK 924 INTRA-LIGAND FREE ENERGY PREDICTED BY IDOCK:    0.42 KCAL/MOL
REMARK 927      BINDING AFFINITY PREDICTED BY RF-SCORE:    0.00 PKD
ROOT
HETATM    1  C   UNL     1     -11.263  15.884  66.136  1.00  0.00     0.091 C  
HETATM    2  C   UNL     1     -12.151  16.338  65.019  1.00  0.00     1.105 C  
HETATM    3  C   UNL     1     -10.781  14.635  66.340  1.00  0.00    -0.309 C  
ENDROOT
BRANCH   3   4
HETATM    4  C   UNL     1     -11.153  13.573  65.380  1.00  0.00    -0.302 A  
HETATM    5  O   UNL     1     -12.295  10.879  62.428  1.00  0.00     0.163 OA 
HETATM    6  H   UNL     1     -13.194  10.574  62.384  1.00  0.00     0.000 HD 
HETATM    7  C   UNL     1     -10.204  13.102  64.461  1.00  0.00    -0.333 A  
HETATM    8  C   UNL     1     -11.886  11.741  63.402  1.00  0.00    -0.333 A  
HETATM    9  C   UNL     1     -12.466  13.087  65.317  1.00  0.00    -0.555 A  
HETATM   10  C   UNL     1     -12.832  12.173  64.325  1.00  0.00    -0.292 A  
HETATM   11  C   UNL     1     -10.571  12.188  63.467  1.00  0.00    -0.501 A  
ENDBRANCH   3   4
BRANCH   3  12
HETATM   12  C   UNL     1      -9.873  14.396  67.477  1.00  0.00    -0.220 C  
HETATM   13  C   UNL     1      -9.928  13.205  68.114  1.00  0.00    -0.234 C  
HETATM   14  C   UNL     1      -9.071  12.709  69.237  1.00  0.00     0.953 C  
BRANCH  12  15
HETATM   15  C   UNL     1      -8.850  15.388  67.883  1.00  0.00    -0.168 A  
HETATM   16  C   UNL     1      -6.972  17.241  68.811  1.00  0.00    -0.230 A  
HETATM   17  C   UNL     1      -7.631  14.956  68.430  1.00  0.00    -0.113 A  
HETATM   18  C   UNL     1      -6.691  15.881  68.898  1.00  0.00    -0.134 A  
HETATM   19  O   UNL     1      -6.100  18.179  69.285  1.00  0.00    -0.225 OA 
HETATM   20  C   UNL     1      -8.159  17.688  68.242  1.00  0.00    -0.278 A  
HETATM   21  H   UNL     1      -6.291  19.107  69.225  1.00  0.00     0.000 HD 
HETATM   22  C   UNL     1      -9.099  16.762  67.778  1.00  0.00    -0.221 A  
ENDBRANCH  12  15
ENDBRANCH   3  12
TORSDOF 3
ENDMDL
MODEL      219
REMARK 921   NORMALIZED FREE ENERGY PREDICTED BY IDOCK:    0.65 KCAL/MOL
REMARK 922        TOTAL FREE ENERGY PREDICTED BY IDOCK:   -0.21 KCAL/MOL
REMARK 923 INTER-LIGAND FREE ENERGY PREDICTED BY IDOCK:    1.14 KCAL/MOL
REMARK 924 INTRA-LIGAND FREE ENERGY PREDICTED BY IDOCK:   -1.35 KCAL/MOL
REMARK 927      BINDING AFFINITY PREDICTED BY RF-SCORE:    0.00 PKD
ROOT
HETATM    1  C   UNL     1     -11.401  13.195  68.673  1.00  0.00    -0.327 C  
HETATM    2  C   UNL     1     -12.461  12.183  68.367  1.00  0.00     0.793 C  
HETATM    3  C   UNL     1     -10.089  13.129  68.342  1.00  0.00    -0.231 C  
ENDROOT
BRANCH   3   4
HETATM    4  C   UNL     1      -9.611  11.942  67.600  1.00  0.00    -0.185 A  
HETATM    5  O   UNL     1      -7.900   8.751  65.557  1.00  0.00    -0.092 OA 
HETATM    6  H   UNL     1      -7.785   8.796  64.614  1.00  0.00     0.000 HD 
HETATM    7  C   UNL     1      -9.220  10.792  68.303  1.00  0.00    -0.157 A  
HETATM    8  C   UNL     1      -8.484   9.772  66.249  1.00  0.00    -0.123 A  
HETATM    9  C   UNL     1      -9.461  11.975  66.206  1.00  0.00    -0.237 A  
HETATM   10  C   UNL     1      -8.894  10.890  65.533  1.00  0.00    -0.199 A  
HETATM   11  C   UNL     1      -8.652   9.706  67.628  1.00  0.00    -0.126 A  
ENDBRANCH   3   4
BRANCH   3  12
HETATM   12  C   UNL     1      -9.206  14.257  68.690  1.00  0.00    -0.167 C  
HETATM   13  C   UNL     1      -8.712  14.332  69.947  1.00  0.00     1.111 C  
HETATM   14  C   UNL     1      -7.752  15.333  70.512  1.00  0.00     1.053 C  
BRANCH  12  15
HETATM   15  C   UNL     1      -8.779  15.257  67.683  1.00  0.00    -0.179 A  
HETATM   16  C   UNL     1      -7.888  17.225  65.908  1.00  0.00    -0.019 A  
HETATM   17  C   UNL     1      -7.498  15.176  67.112  1.00  0.00    -0.176 A  
HETATM   18  C   UNL     1      -7.050  16.161  66.226  1.00  0.00     0.653 A  
HETATM   19  O   UNL     1      -7.481  18.227  65.074  1.00  0.00     0.259 OA 
HETATM   20  C   UNL     1      -9.171  17.304  66.437  1.00  0.00    -0.278 A  
HETATM   21  H   UNL     1      -8.053  18.953  64.856  1.00  0.00     0.000 HD 
HETATM   22  C   UNL     1      -9.617  16.320  67.326  1.00  0.00    -0.231 A  
ENDBRANCH  12  15
ENDBRANCH   3  12
TORSDOF 3
ENDMDL
MODEL      220
REMARK 921   NORMALIZED FREE ENERGY PREDICTED BY IDOCK:   23.63 KCAL/MOL
REMARK 922        TOTAL FREE ENERGY PREDICTED BY IDOCK:   26.79 KCAL/MOL
REMARK 923 INTER-LIGAND FREE ENERGY PREDICTED BY IDOCK:   26.32 KCAL/MOL
REMARK 924 INTRA-LIGAND FREE ENERGY PREDICTED BY IDOCK:    0.48 KCAL/MOL
REMARK 927      BINDING AFFINITY PREDICTED BY RF-SCORE:    0.00 PKD
ROOT
HETATM    1  C   UNL     1     -11.857  13.796  65.350  1.00  0.00    -0.371 C  
HETATM    2  C   UNL     1     -12.382  12.417  65.601  1.00  0.00    -0.182 C  
HETATM    3  C   UNL     1     -10.786  14.137  64.595  1.00  0.00    -0.408 C  
ENDROOT
BRANCH   3   4
HETATM    4  C   UNL     1     -10.021  13.058  63.933  1.00  0.00     0.312 A  
HETATM    5  O   UNL     1      -7.824   9.864  62.434  1.00  0.00    -0.114 OA 
HETATM    6  H   UNL     1      -6.878   9.929  62.361  1.00  0.00     0.000 HD 
HETATM    7  C   UNL     1     -10.681  11.891  63.519  1.00  0.00    -0.504 A  
HETATM    8  C   UNL     1      -8.573  10.906  62.896  1.00  0.00    -0.163 A  
HETATM    9  C   UNL     1      -8.630  13.145  63.787  1.00  0.00     5.845 A  
HETATM   10  C   UNL     1      -7.907  12.066  63.272  1.00  0.00     2.771 A  
HETATM   11  C   UNL     1      -9.956  10.810  63.003  1.00  0.00    -0.291 A  
ENDBRANCH   3   4
BRANCH   3  12
HETATM   12  C   UNL     1     -10.455  15.565  64.426  1.00  0.00     0.640 C  
HETATM   13  C   UNL     1     -10.696  16.151  63.232  1.00  0.00     5.804 C  
HETATM   14  C   UNL     1     -10.511  17.586  62.844  1.00  0.00    14.548 C  
BRANCH  12  15
HETATM   15  C   UNL     1      -9.949  16.388  65.548  1.00  0.00    -0.175 A  
HETATM   16  C   UNL     1      -9.134  17.898  67.757  1.00  0.00    -0.258 A  
HETATM   17  C   UNL     1      -9.286  15.777  66.625  1.00  0.00    -0.283 A  
HETATM   18  C   UNL     1      -8.880  16.530  67.732  1.00  0.00    -0.197 A  
HETATM   19  O   UNL     1      -8.785  18.666  68.830  1.00  0.00    -0.281 OA 
HETATM   20  C   UNL     1      -9.759  18.525  66.686  1.00  0.00    -0.353 A  
HETATM   21  H   UNL     1      -8.958  19.600  68.848  1.00  0.00     0.000 HD 
HETATM   22  C   UNL     1     -10.167  17.771  65.581  1.00  0.00    -0.020 A  
ENDBRANCH  12  15
ENDBRANCH   3  12
TORSDOF 3
ENDMDL
