MODEL        1
REMARK 921   NORMALIZED FREE ENERGY PREDICTED BY IDOCK:   -6.28 KCAL/MOL
REMARK 922        TOTAL FREE ENERGY PREDICTED BY IDOCK:   -8.71 KCAL/MOL
REMARK 923 INTER-LIGAND FREE ENERGY PREDICTED BY IDOCK:   -7.75 KCAL/MOL
REMARK 924 INTRA-LIGAND FREE ENERGY PREDICTED BY IDOCK:   -0.96 KCAL/MOL
REMARK 927      BINDING AFFINITY PREDICTED BY RF-SCORE:    0.00 PKD
ROOT
HETATM    1  C   UNL     1     -11.298  10.961  70.212  1.00  0.00    -0.342 C  
HETATM    2  C   UNL     1     -12.282  11.771  69.380  1.00  0.00    -0.219 C  
ENDROOT
BRANCH   2   3
HETATM    3  C   UNL     1     -12.020  13.266  69.372  1.00  0.00    -0.356 C  
HETATM    4  C   UNL     1     -11.682  14.003  68.286  1.00  0.00    -0.392 C  
BRANCH   3   5
HETATM    5  C   UNL     1     -12.245  13.939  70.668  1.00  0.00    -0.443 A  
HETATM    6  H   UNL     1     -12.387  16.839  74.361  1.00  0.00     0.000 HD 
HETATM    7  C   UNL     1     -13.438  13.740  71.375  1.00  0.00    -0.296 A  
HETATM    8  C   UNL     1     -11.299  14.850  71.158  1.00  0.00    -0.256 A  
HETATM    9  C   UNL     1     -11.563  15.584  72.314  1.00  0.00    -0.554 A  
HETATM   10  O   UNL     1     -13.024  16.204  74.056  1.00  0.00    -0.668 OA 
HETATM   11  C   UNL     1     -13.707  14.483  72.528  1.00  0.00    -0.580 A  
HETATM   12  C   UNL     1     -12.774  15.414  72.974  1.00  0.00    -0.451 A  
ENDBRANCH   3   5
BRANCH   4  13
HETATM   13  C   UNL     1     -11.407  13.370  66.979  1.00  0.00    -0.346 A  
HETATM   14  C   UNL     1     -12.392  13.359  65.984  1.00  0.00    -0.471 A  
HETATM   15  C   UNL     1     -10.187  12.719  66.751  1.00  0.00    -0.245 A  
HETATM   16  C   UNL     1     -10.963  12.024  64.580  1.00  0.00    -0.318 A  
HETATM   17  H   UNL     1     -11.479  11.338  62.745  1.00  0.00     0.000 HD 
HETATM   18  C   UNL     1      -9.964  12.045  65.547  1.00  0.00    -0.267 A  
HETATM   19  O   UNL     1     -10.797  11.352  63.406  1.00  0.00    -0.385 OA 
HETATM   20  C   UNL     1     -12.170  12.682  64.784  1.00  0.00    -0.528 A  
ENDBRANCH   4  13
BRANCH   4  21
HETATM   21  C   UNL     1     -11.637  15.527  68.221  1.00  0.00    -0.344 C  
HETATM   22  C   UNL     1     -10.343  16.103  67.661  1.00  0.00    -0.288 C  
ENDBRANCH   4  21
ENDBRANCH   2   3
TORSDOF 4
ENDMDL
MODEL        2
REMARK 921   NORMALIZED FREE ENERGY PREDICTED BY IDOCK:   -6.28 KCAL/MOL
REMARK 922        TOTAL FREE ENERGY PREDICTED BY IDOCK:   -8.70 KCAL/MOL
REMARK 923 INTER-LIGAND FREE ENERGY PREDICTED BY IDOCK:   -7.71 KCAL/MOL
REMARK 924 INTRA-LIGAND FREE ENERGY PREDICTED BY IDOCK:   -1.00 KCAL/MOL
REMARK 927      BINDING AFFINITY PREDICTED BY RF-SCORE:    0.00 PKD
ROOT
HETATM    1  C   UNL     1      -9.165  10.750  66.701  1.00  0.00    -0.184 C  
HETATM    2  C   UNL     1     -10.680  10.734  66.858  1.00  0.00    -0.309 C  
ENDROOT
BRANCH   2   3
HETATM    3  C   UNL     1     -11.273  12.032  67.375  1.00  0.00    -0.368 C  
HETATM    4  C   UNL     1     -11.690  12.260  68.645  1.00  0.00    -0.377 C  
BRANCH   3   5
HETATM    5  C   UNL     1     -11.302  13.133  66.391  1.00  0.00    -0.349 A  
HETATM    6  H   UNL     1     -12.424  16.601  63.427  1.00  0.00     0.000 HD 
HETATM    7  C   UNL     1     -10.240  14.042  66.309  1.00  0.00    -0.300 A  
HETATM    8  C   UNL     1     -12.436  13.325  65.588  1.00  0.00    -0.510 A  
HETATM    9  C   UNL     1     -12.522  14.437  64.749  1.00  0.00    -0.371 A  
HETATM   10  O   UNL     1     -11.638  16.468  63.944  1.00  0.00    -1.175 OA 
HETATM   11  C   UNL     1     -10.330  15.161  65.476  1.00  0.00    -0.399 A  
HETATM   12  C   UNL     1     -11.481  15.358  64.720  1.00  0.00    -0.336 A  
ENDBRANCH   3   5
BRANCH   4  13
HETATM   13  C   UNL     1     -11.717  11.179  69.653  1.00  0.00    -0.410 A  
HETATM   14  C   UNL     1     -12.903  10.889  70.337  1.00  0.00    -0.257 A  
HETATM   15  C   UNL     1     -10.544  10.484  69.977  1.00  0.00    -0.223 A  
HETATM   16  C   UNL     1     -11.736   9.266  71.679  1.00  0.00    -0.392 A  
HETATM   17  H   UNL     1     -12.588   8.184  73.164  1.00  0.00     0.000 HD 
HETATM   18  C   UNL     1     -10.554   9.524  70.993  1.00  0.00    -0.392 A  
HETATM   19  O   UNL     1     -11.781   8.360  72.696  1.00  0.00    -0.386 OA 
HETATM   20  C   UNL     1     -12.912   9.932  71.354  1.00  0.00    -0.504 A  
ENDBRANCH   4  13
BRANCH   4  21
HETATM   21  C   UNL     1     -12.075  13.617  69.228  1.00  0.00    -0.360 C  
HETATM   22  C   UNL     1     -10.939  14.361  69.918  1.00  0.00    -0.103 C  
ENDBRANCH   4  21
ENDBRANCH   2   3
TORSDOF 4
ENDMDL
MODEL        3
REMARK 921   NORMALIZED FREE ENERGY PREDICTED BY IDOCK:   -6.25 KCAL/MOL
REMARK 922        TOTAL FREE ENERGY PREDICTED BY IDOCK:   -8.67 KCAL/MOL
REMARK 923 INTER-LIGAND FREE ENERGY PREDICTED BY IDOCK:   -7.23 KCAL/MOL
REMARK 924 INTRA-LIGAND FREE ENERGY PREDICTED BY IDOCK:   -1.44 KCAL/MOL
REMARK 927      BINDING AFFINITY PREDICTED BY RF-SCORE:    0.00 PKD
ROOT
HETATM    1  C   UNL     1     -10.291  16.586  67.964  1.00  0.00    -0.294 C  
HETATM    2  C   UNL     1     -11.714  16.065  68.110  1.00  0.00    -0.077 C  
ENDROOT
BRANCH   2   3
HETATM    3  C   UNL     1     -11.821  14.558  68.258  1.00  0.00    -0.347 C  
HETATM    4  C   UNL     1     -12.197  13.899  69.381  1.00  0.00    -0.338 C  
BRANCH   3   5
HETATM    5  C   UNL     1     -11.562  13.796  67.019  1.00  0.00    -0.391 A  
HETATM    6  H   UNL     1     -11.353  12.095  62.645  1.00  0.00     0.000 HD 
HETATM    7  C   UNL     1     -10.335  13.149  66.825  1.00  0.00    -0.252 A  
HETATM    8  C   UNL     1     -12.515  13.787  65.990  1.00  0.00    -0.491 A  
HETATM    9  C   UNL     1     -12.224  13.177  64.770  1.00  0.00    -0.477 A  
HETATM   10  O   UNL     1     -10.710  12.069  63.344  1.00  0.00    -0.415 OA 
HETATM   11  C   UNL     1     -10.040  12.548  65.599  1.00  0.00    -0.285 A  
HETATM   12  C   UNL     1     -10.981  12.586  64.575  1.00  0.00    -0.323 A  
ENDBRANCH   3   5
BRANCH   4  13
HETATM   13  C   UNL     1     -12.428  14.614  70.654  1.00  0.00    -0.408 A  
HETATM   14  C   UNL     1     -11.342  14.989  71.454  1.00  0.00    -0.327 A  
HETATM   15  C   UNL     1     -13.733  14.864  71.100  1.00  0.00    -0.452 A  
HETATM   16  C   UNL     1     -12.859  15.803  73.137  1.00  0.00    -0.522 A  
HETATM   17  H   UNL     1     -12.282  16.594  74.911  1.00  0.00     0.000 HD 
HETATM   18  C   UNL     1     -13.949  15.460  72.345  1.00  0.00    -0.657 A  
HETATM   19  O   UNL     1     -13.027  16.359  74.370  1.00  0.00    -0.637 OA 
HETATM   20  C   UNL     1     -11.558  15.582  72.700  1.00  0.00    -0.503 A  
ENDBRANCH   4  13
BRANCH   4  21
HETATM   21  C   UNL     1     -12.524  12.411  69.476  1.00  0.00     0.184 C  
HETATM   22  C   UNL     1     -11.383  11.539  69.982  1.00  0.00    -0.222 C  
ENDBRANCH   4  21
ENDBRANCH   2   3
TORSDOF 4
ENDMDL
MODEL        4
REMARK 921   NORMALIZED FREE ENERGY PREDICTED BY IDOCK:   -6.17 KCAL/MOL
REMARK 922        TOTAL FREE ENERGY PREDICTED BY IDOCK:   -8.57 KCAL/MOL
REMARK 923 INTER-LIGAND FREE ENERGY PREDICTED BY IDOCK:   -7.78 KCAL/MOL
REMARK 924 INTRA-LIGAND FREE ENERGY PREDICTED BY IDOCK:   -0.79 KCAL/MOL
REMARK 927      BINDING AFFINITY PREDICTED BY RF-SCORE:    0.00 PKD
ROOT
HETATM    1  C   UNL     1     -11.062  14.501  70.005  1.00  0.00    -0.170 C  
HETATM    2  C   UNL     1     -12.192  13.692  69.383  1.00  0.00    -0.307 C  
ENDROOT
BRANCH   2   3
HETATM    3  C   UNL     1     -11.759  12.374  68.768  1.00  0.00    -0.379 C  
HETATM    4  C   UNL     1     -11.306  12.205  67.501  1.00  0.00    -0.392 C  
BRANCH   3   5
HETATM    5  C   UNL     1     -11.775  11.225  69.695  1.00  0.00    -0.420 A  
HETATM    6  H   UNL     1     -10.834   7.838  72.812  1.00  0.00     0.000 HD 
HETATM    7  C   UNL     1     -12.945  10.885  70.387  1.00  0.00    -0.172 A  
HETATM    8  C   UNL     1     -10.593  10.516  69.953  1.00  0.00    -0.261 A  
HETATM    9  C   UNL     1     -10.573   9.513  70.922  1.00  0.00    -0.395 A  
HETATM   10  O   UNL     1     -11.648   8.291  72.627  1.00  0.00    -0.399 OA 
HETATM   11  C   UNL     1     -12.922   9.887  71.365  1.00  0.00    -0.504 A  
HETATM   12  C   UNL     1     -11.730   9.225  71.637  1.00  0.00    -0.392 A  
ENDBRANCH   3   5
BRANCH   4  13
HETATM   13  C   UNL     1     -11.309  13.315  66.526  1.00  0.00    -0.353 A  
HETATM   14  C   UNL     1     -10.312  14.297  66.578  1.00  0.00    -0.278 A  
HETATM   15  C   UNL     1     -12.343  13.431  65.587  1.00  0.00    -0.521 A  
HETATM   16  C   UNL     1     -11.406  15.508  64.808  1.00  0.00    -0.357 A  
HETATM   17  H   UNL     1     -10.761  17.277  64.063  1.00  0.00     0.000 HD 
HETATM   18  C   UNL     1     -12.392  14.530  64.726  1.00  0.00    -0.403 A  
HETATM   19  O   UNL     1     -11.434  16.610  64.007  1.00  0.00    -1.192 OA 
HETATM   20  C   UNL     1     -10.363  15.397  65.719  1.00  0.00    -0.381 A  
ENDBRANCH   4  13
BRANCH   4  21
HETATM   21  C   UNL     1     -10.661  10.938  66.946  1.00  0.00    -0.318 C  
HETATM   22  C   UNL     1      -9.176  11.062  66.634  1.00  0.00    -0.182 C  
ENDBRANCH   4  21
ENDBRANCH   2   3
TORSDOF 4
ENDMDL
MODEL        5
REMARK 921   NORMALIZED FREE ENERGY PREDICTED BY IDOCK:   -6.07 KCAL/MOL
REMARK 922        TOTAL FREE ENERGY PREDICTED BY IDOCK:   -8.45 KCAL/MOL
REMARK 923 INTER-LIGAND FREE ENERGY PREDICTED BY IDOCK:   -7.56 KCAL/MOL
REMARK 924 INTRA-LIGAND FREE ENERGY PREDICTED BY IDOCK:   -0.89 KCAL/MOL
REMARK 927      BINDING AFFINITY PREDICTED BY RF-SCORE:    0.00 PKD
ROOT
HETATM    1  C   UNL     1     -11.106  10.839  69.907  1.00  0.00    -0.339 C  
HETATM    2  C   UNL     1     -12.317  11.649  69.463  1.00  0.00    -0.152 C  
ENDROOT
BRANCH   2   3
HETATM    3  C   UNL     1     -12.074  13.144  69.368  1.00  0.00    -0.285 C  
HETATM    4  C   UNL     1     -11.791  13.829  68.233  1.00  0.00    -0.413 C  
BRANCH   3   5
HETATM    5  C   UNL     1     -12.254  13.881  70.637  1.00  0.00    -0.443 A  
HETATM    6  H   UNL     1     -13.219  15.314  75.005  1.00  0.00     0.000 HD 
HETATM    7  C   UNL     1     -11.352  14.884  71.011  1.00  0.00    -0.259 A  
HETATM    8  C   UNL     1     -13.285  13.519  71.516  1.00  0.00    -0.402 A  
HETATM    9  C   UNL     1     -13.383  14.123  72.769  1.00  0.00    -0.618 A  
HETATM   10  O   UNL     1     -12.533  15.589  74.408  1.00  0.00    -0.628 OA 
HETATM   11  C   UNL     1     -11.443  15.482  72.271  1.00  0.00    -0.496 A  
HETATM   12  C   UNL     1     -12.447  15.079  73.146  1.00  0.00    -0.435 A  
ENDBRANCH   3   5
BRANCH   4  13
HETATM   13  C   UNL     1     -11.562  13.133  66.950  1.00  0.00    -0.417 A  
HETATM   14  C   UNL     1     -10.348  12.476  66.715  1.00  0.00    -0.241 A  
HETATM   15  C   UNL     1     -12.529  13.179  65.936  1.00  0.00    -0.386 A  
HETATM   16  C   UNL     1     -11.052  11.969  64.469  1.00  0.00    -0.331 A  
HETATM   17  H   UNL     1      -9.918  10.987  63.109  1.00  0.00     0.000 HD 
HETATM   18  C   UNL     1     -12.274  12.596  64.693  1.00  0.00    -0.519 A  
HETATM   19  O   UNL     1     -10.752  11.414  63.261  1.00  0.00    -0.357 OA 
HETATM   20  C   UNL     1     -10.092  11.896  65.471  1.00  0.00    -0.277 A  
ENDBRANCH   4  13
BRANCH   4  21
HETATM   21  C   UNL     1     -11.768  15.348  68.089  1.00  0.00    -0.276 C  
HETATM   22  C   UNL     1     -10.422  15.930  67.678  1.00  0.00    -0.289 C  
ENDBRANCH   4  21
ENDBRANCH   2   3
TORSDOF 4
ENDMDL
MODEL        6
REMARK 921   NORMALIZED FREE ENERGY PREDICTED BY IDOCK:   -6.07 KCAL/MOL
REMARK 922        TOTAL FREE ENERGY PREDICTED BY IDOCK:   -8.45 KCAL/MOL
REMARK 923 INTER-LIGAND FREE ENERGY PREDICTED BY IDOCK:   -7.47 KCAL/MOL
REMARK 924 INTRA-LIGAND FREE ENERGY PREDICTED BY IDOCK:   -0.98 KCAL/MOL
REMARK 927      BINDING AFFINITY PREDICTED BY RF-SCORE:    0.00 PKD
ROOT
HETATM    1  C   UNL     1      -9.540  11.024  66.567  1.00  0.00    -0.223 C  
HETATM    2  C   UNL     1     -11.019  10.994  66.926  1.00  0.00    -0.311 C  
ENDROOT
BRANCH   2   3
HETATM    3  C   UNL     1     -11.538  12.269  67.565  1.00  0.00    -0.422 C  
HETATM    4  C   UNL     1     -11.872  12.420  68.871  1.00  0.00    -0.350 C  
BRANCH   3   5
HETATM    5  C   UNL     1     -11.589  13.437  66.662  1.00  0.00    -0.399 A  
HETATM    6  H   UNL     1     -10.709  17.112  63.871  1.00  0.00     0.000 HD 
HETATM    7  C   UNL     1     -12.603  13.551  65.703  1.00  0.00    -0.512 A  
HETATM    8  C   UNL     1     -10.569  14.398  66.702  1.00  0.00    -0.282 A  
HETATM    9  C   UNL     1     -10.542  15.433  65.767  1.00  0.00    -0.361 A  
HETATM   10  O   UNL     1     -11.422  16.484  63.850  1.00  0.00    -1.145 OA 
HETATM   11  C   UNL     1     -12.571  14.582  64.760  1.00  0.00    -0.232 A  
HETATM   12  C   UNL     1     -11.527  15.502  64.789  1.00  0.00    -0.313 A  
ENDBRANCH   3   5
BRANCH   4  13
HETATM   13  C   UNL     1     -11.876  11.272  69.803  1.00  0.00    -0.437 A  
HETATM   14  C   UNL     1     -13.034  10.959  70.523  1.00  0.00    -0.212 A  
HETATM   15  C   UNL     1     -10.705  10.533  70.020  1.00  0.00    -0.282 A  
HETATM   16  C   UNL     1     -11.841   9.224  71.692  1.00  0.00    -0.383 A  
HETATM   17  H   UNL     1     -12.646   8.058  73.139  1.00  0.00     0.000 HD 
HETATM   18  C   UNL     1     -10.688   9.506  70.967  1.00  0.00    -0.411 A  
HETATM   19  O   UNL     1     -11.858   8.250  72.645  1.00  0.00    -0.401 OA 
HETATM   20  C   UNL     1     -13.016   9.934  71.472  1.00  0.00    -0.523 A  
ENDBRANCH   4  13
BRANCH   4  21
HETATM   21  C   UNL     1     -12.177  13.743  69.567  1.00  0.00    -0.344 C  
HETATM   22  C   UNL     1     -10.995  14.367  70.297  1.00  0.00     0.073 C  
ENDBRANCH   4  21
ENDBRANCH   2   3
TORSDOF 4
ENDMDL
MODEL        7
REMARK 921   NORMALIZED FREE ENERGY PREDICTED BY IDOCK:   -6.06 KCAL/MOL
REMARK 922        TOTAL FREE ENERGY PREDICTED BY IDOCK:   -8.43 KCAL/MOL
REMARK 923 INTER-LIGAND FREE ENERGY PREDICTED BY IDOCK:   -7.18 KCAL/MOL
REMARK 924 INTRA-LIGAND FREE ENERGY PREDICTED BY IDOCK:   -1.25 KCAL/MOL
REMARK 927      BINDING AFFINITY PREDICTED BY RF-SCORE:    0.00 PKD
ROOT
HETATM    1  C   UNL     1     -10.485  16.237  67.749  1.00  0.00    -0.295 C  
HETATM    2  C   UNL     1     -11.899  15.770  68.062  1.00  0.00     0.024 C  
ENDROOT
BRANCH   2   3
HETATM    3  C   UNL     1     -11.977  14.585  69.007  1.00  0.00    -0.334 C  
HETATM    4  C   UNL     1     -11.716  13.295  68.681  1.00  0.00    -0.376 C  
BRANCH   3   5
HETATM    5  C   UNL     1     -12.289  14.932  70.409  1.00  0.00    -0.401 A  
HETATM    6  H   UNL     1     -12.458  16.671  74.770  1.00  0.00     0.000 HD 
HETATM    7  C   UNL     1     -13.614  14.926  70.866  1.00  0.00    -0.313 A  
HETATM    8  C   UNL     1     -11.266  15.354  71.270  1.00  0.00    -0.407 A  
HETATM    9  C   UNL     1     -11.572  15.805  72.555  1.00  0.00    -0.474 A  
HETATM   10  O   UNL     1     -13.158  16.361  74.207  1.00  0.00    -0.616 OA 
HETATM   11  C   UNL     1     -13.920  15.387  72.149  1.00  0.00    -0.649 A  
HETATM   12  C   UNL     1     -12.896  15.842  72.973  1.00  0.00    -0.513 A  
ENDBRANCH   3   5
BRANCH   4  13
HETATM   13  C   UNL     1     -11.440  12.894  67.286  1.00  0.00    -0.388 A  
HETATM   14  C   UNL     1     -10.191  12.362  66.944  1.00  0.00    -0.238 A  
HETATM   15  C   UNL     1     -12.398  13.104  66.285  1.00  0.00    -0.346 A  
HETATM   16  C   UNL     1     -10.847  12.301  64.628  1.00  0.00    -0.308 A  
HETATM   17  H   UNL     1      -9.650  11.682  63.116  1.00  0.00     0.000 HD 
HETATM   18  C   UNL     1     -12.101  12.806  64.953  1.00  0.00    -0.490 A  
HETATM   19  O   UNL     1     -10.507  12.026  63.337  1.00  0.00    -0.427 OA 
HETATM   20  C   UNL     1      -9.893  12.068  65.612  1.00  0.00    -0.265 A  
ENDBRANCH   4  13
BRANCH   4  21
HETATM   21  C   UNL     1     -11.573  12.137  69.665  1.00  0.00    -0.361 C  
HETATM   22  C   UNL     1     -12.628  11.048  69.525  1.00  0.00    -0.002 C  
ENDBRANCH   4  21
ENDBRANCH   2   3
TORSDOF 4
ENDMDL
MODEL        8
REMARK 921   NORMALIZED FREE ENERGY PREDICTED BY IDOCK:   -6.00 KCAL/MOL
REMARK 922        TOTAL FREE ENERGY PREDICTED BY IDOCK:   -8.36 KCAL/MOL
REMARK 923 INTER-LIGAND FREE ENERGY PREDICTED BY IDOCK:   -7.42 KCAL/MOL
REMARK 924 INTRA-LIGAND FREE ENERGY PREDICTED BY IDOCK:   -0.95 KCAL/MOL
REMARK 927      BINDING AFFINITY PREDICTED BY RF-SCORE:    0.00 PKD
ROOT
HETATM    1  C   UNL     1     -11.936  10.717  69.237  1.00  0.00    -0.334 C  
HETATM    2  C   UNL     1     -11.715  12.078  69.882  1.00  0.00    -0.374 C  
ENDROOT
BRANCH   2   3
HETATM    3  C   UNL     1     -11.673  13.240  68.907  1.00  0.00    -0.369 C  
HETATM    4  C   UNL     1     -11.848  14.546  69.225  1.00  0.00    -0.361 C  
BRANCH   3   5
HETATM    5  C   UNL     1     -11.328  12.868  67.519  1.00  0.00    -0.354 A  
HETATM    6  H   UNL     1     -10.918  12.434  62.859  1.00  0.00     0.000 HD 
HETATM    7  C   UNL     1     -10.038  12.426  67.201  1.00  0.00    -0.221 A  
HETATM    8  C   UNL     1     -12.269  13.039  66.494  1.00  0.00    -0.316 A  
HETATM    9  C   UNL     1     -11.909  12.812  65.165  1.00  0.00    -0.428 A  
HETATM   10  O   UNL     1     -10.279  12.287  63.547  1.00  0.00    -0.427 OA 
HETATM   11  C   UNL     1      -9.674  12.208  65.869  1.00  0.00    -0.253 A  
HETATM   12  C   UNL     1     -10.610  12.424  64.862  1.00  0.00    -0.294 A  
ENDBRANCH   3   5
BRANCH   4  13
HETATM   13  C   UNL     1     -12.234  14.962  70.590  1.00  0.00    -0.379 A  
HETATM   14  C   UNL     1     -13.577  14.924  70.981  1.00  0.00    -0.402 A  
HETATM   15  C   UNL     1     -11.269  15.458  71.478  1.00  0.00    -0.401 A  
HETATM   16  C   UNL     1     -12.993  15.910  73.098  1.00  0.00    -0.549 A  
HETATM   17  H   UNL     1     -14.325  16.376  74.550  1.00  0.00     0.000 HD 
HETATM   18  C   UNL     1     -11.650  15.933  72.736  1.00  0.00    -0.371 A  
HETATM   19  O   UNL     1     -13.409  16.392  74.303  1.00  0.00    -0.388 OA 
HETATM   20  C   UNL     1     -13.957  15.402  72.236  1.00  0.00    -0.661 A  
ENDBRANCH   4  13
BRANCH   4  21
HETATM   21  C   UNL     1     -11.587  15.732  68.301  1.00  0.00    -0.302 C  
HETATM   22  C   UNL     1     -10.137  16.194  68.250  1.00  0.00    -0.232 C  
ENDBRANCH   4  21
ENDBRANCH   2   3
TORSDOF 4
ENDMDL
MODEL        9
REMARK 921   NORMALIZED FREE ENERGY PREDICTED BY IDOCK:   -5.92 KCAL/MOL
REMARK 922        TOTAL FREE ENERGY PREDICTED BY IDOCK:   -8.27 KCAL/MOL
REMARK 923 INTER-LIGAND FREE ENERGY PREDICTED BY IDOCK:   -7.54 KCAL/MOL
REMARK 924 INTRA-LIGAND FREE ENERGY PREDICTED BY IDOCK:   -0.73 KCAL/MOL
REMARK 927      BINDING AFFINITY PREDICTED BY RF-SCORE:    0.00 PKD
ROOT
HETATM    1  C   UNL     1     -11.304  14.736  70.154  1.00  0.00    -0.291 C  
HETATM    2  C   UNL     1     -12.244  13.799  69.408  1.00  0.00    -0.325 C  
ENDROOT
BRANCH   2   3
HETATM    3  C   UNL     1     -11.612  13.075  68.234  1.00  0.00    -0.375 C  
HETATM    4  C   UNL     1     -11.225  11.775  68.223  1.00  0.00    -0.313 C  
BRANCH   3   5
HETATM    5  C   UNL     1     -11.506  13.876  66.998  1.00  0.00    -0.367 A  
HETATM    6  H   UNL     1     -12.212  16.412  63.107  1.00  0.00     0.000 HD 
HETATM    7  C   UNL     1     -10.434  14.758  66.812  1.00  0.00    -0.282 A  
HETATM    8  C   UNL     1     -12.526  13.821  66.038  1.00  0.00    -0.491 A  
HETATM    9  C   UNL     1     -12.495  14.670  64.931  1.00  0.00    -0.266 A  
HETATM   10  O   UNL     1     -11.499  16.439  63.734  1.00  0.00    -1.002 OA 
HETATM   11  C   UNL     1     -10.408  15.616  65.708  1.00  0.00    -0.386 A  
HETATM   12  C   UNL     1     -11.452  15.577  64.789  1.00  0.00    -0.313 A  
ENDBRANCH   3   5
BRANCH   4  13
HETATM   13  C   UNL     1     -11.274  10.946  69.445  1.00  0.00    -0.335 A  
HETATM   14  C   UNL     1     -10.158  10.192  69.827  1.00  0.00    -0.269 A  
HETATM   15  C   UNL     1     -12.456  10.855  70.192  1.00  0.00    -0.356 A  
HETATM   16  C   UNL     1     -11.416   9.242  71.646  1.00  0.00    -0.398 A  
HETATM   17  H   UNL     1     -10.694   7.858  72.936  1.00  0.00     0.000 HD 
HETATM   18  C   UNL     1     -12.527  10.002  71.296  1.00  0.00    -0.494 A  
HETATM   19  O   UNL     1     -11.453   8.376  72.697  1.00  0.00    -0.380 OA 
HETATM   20  C   UNL     1     -10.230   9.337  70.928  1.00  0.00    -0.371 A  
ENDBRANCH   4  13
BRANCH   4  21
HETATM   21  C   UNL     1     -10.799  10.981  66.991  1.00  0.00    -0.334 C  
HETATM   22  C   UNL     1      -9.340  11.159  66.590  1.00  0.00    -0.194 C  
ENDBRANCH   4  21
ENDBRANCH   2   3
TORSDOF 4
ENDMDL
MODEL       10
REMARK 921   NORMALIZED FREE ENERGY PREDICTED BY IDOCK:   -5.91 KCAL/MOL
REMARK 922        TOTAL FREE ENERGY PREDICTED BY IDOCK:   -8.25 KCAL/MOL
REMARK 923 INTER-LIGAND FREE ENERGY PREDICTED BY IDOCK:   -7.26 KCAL/MOL
REMARK 924 INTRA-LIGAND FREE ENERGY PREDICTED BY IDOCK:   -0.99 KCAL/MOL
REMARK 927      BINDING AFFINITY PREDICTED BY RF-SCORE:    0.00 PKD
ROOT
HETATM    1  C   UNL     1      -9.942  10.656  66.272  1.00  0.00    -0.274 C  
HETATM    2  C   UNL     1     -11.271  10.912  66.970  1.00  0.00    -0.211 C  
ENDROOT
BRANCH   2   3
HETATM    3  C   UNL     1     -11.161  11.688  68.269  1.00  0.00    -0.320 C  
HETATM    4  C   UNL     1     -11.178  13.039  68.387  1.00  0.00    -0.304 C  
BRANCH   3   5
HETATM    5  C   UNL     1     -11.117  10.851  69.486  1.00  0.00    -0.326 A  
HETATM    6  H   UNL     1     -11.984   8.031  73.142  1.00  0.00     0.000 HD 
HETATM    7  C   UNL     1      -9.951  10.156  69.830  1.00  0.00    -0.258 A  
HETATM    8  C   UNL     1     -12.273  10.681  70.262  1.00  0.00    -0.417 A  
HETATM    9  C   UNL     1     -12.272   9.793  71.338  1.00  0.00    -0.486 A  
HETATM   10  O   UNL     1     -11.186   8.159  72.643  1.00  0.00    -0.370 OA 
HETATM   11  C   UNL     1      -9.953   9.259  70.901  1.00  0.00    -0.367 A  
HETATM   12  C   UNL     1     -11.122   9.071  71.632  1.00  0.00    -0.363 A  
ENDBRANCH   3   5
BRANCH   4  13
HETATM   13  C   UNL     1     -11.181  13.916  67.198  1.00  0.00    -0.328 A  
HETATM   14  C   UNL     1     -10.188  14.891  67.043  1.00  0.00    -0.256 A  
HETATM   15  C   UNL     1     -12.211  13.823  66.252  1.00  0.00    -0.489 A  
HETATM   16  C   UNL     1     -11.279  15.691  65.052  1.00  0.00    -0.329 A  
HETATM   17  H   UNL     1     -10.637  17.264  63.949  1.00  0.00     0.000 HD 
HETATM   18  C   UNL     1     -12.260  14.713  65.176  1.00  0.00    -0.282 A  
HETATM   19  O   UNL     1     -11.307  16.596  64.034  1.00  0.00    -1.120 OA 
HETATM   20  C   UNL     1     -10.239  15.782  65.969  1.00  0.00    -0.352 A  
ENDBRANCH   4  13
BRANCH   4  21
HETATM   21  C   UNL     1     -11.294  13.819  69.693  1.00  0.00    -0.241 C  
HETATM   22  C   UNL     1     -12.691  14.342  70.002  1.00  0.00    -0.167 C  
ENDBRANCH   4  21
ENDBRANCH   2   3
TORSDOF 4
ENDMDL
MODEL       11
REMARK 921   NORMALIZED FREE ENERGY PREDICTED BY IDOCK:   -5.80 KCAL/MOL
REMARK 922        TOTAL FREE ENERGY PREDICTED BY IDOCK:   -8.11 KCAL/MOL
REMARK 923 INTER-LIGAND FREE ENERGY PREDICTED BY IDOCK:   -6.77 KCAL/MOL
REMARK 924 INTRA-LIGAND FREE ENERGY PREDICTED BY IDOCK:   -1.34 KCAL/MOL
REMARK 927      BINDING AFFINITY PREDICTED BY RF-SCORE:    0.00 PKD
ROOT
HETATM    1  C   UNL     1     -10.019  10.636  64.059  1.00  0.00    -0.401 C  
HETATM    2  C   UNL     1      -9.222  10.969  65.312  1.00  0.00    -0.229 C  
ENDROOT
BRANCH   2   3
HETATM    3  C   UNL     1     -10.024  10.923  66.600  1.00  0.00    -0.250 C  
HETATM    4  C   UNL     1     -10.929  11.849  67.001  1.00  0.00    -0.326 C  
BRANCH   3   5
HETATM    5  C   UNL     1      -9.823   9.703  67.409  1.00  0.00    -0.218 A  
HETATM    6  H   UNL     1      -9.051   6.505  70.762  1.00  0.00     0.000 HD 
HETATM    7  C   UNL     1     -10.507   8.521  67.097  1.00  0.00    -0.370 A  
HETATM    8  C   UNL     1      -9.008   9.745  68.549  1.00  0.00    -0.124 A  
HETATM    9  C   UNL     1      -8.916   8.635  69.388  1.00  0.00    -0.145 A  
HETATM   10  O   UNL     1      -9.584   6.453  69.978  1.00  0.00    -0.158 OA 
HETATM   11  C   UNL     1     -10.423   7.412  67.943  1.00  0.00    -0.265 A  
HETATM   12  C   UNL     1      -9.643   7.488  69.092  1.00  0.00    -0.157 A  
ENDBRANCH   3   5
BRANCH   4  13
HETATM   13  C   UNL     1     -11.135  13.103  66.246  1.00  0.00    -0.308 A  
HETATM   14  C   UNL     1     -12.181  13.201  65.322  1.00  0.00    -0.502 A  
HETATM   15  C   UNL     1     -10.247  14.176  66.401  1.00  0.00    -0.292 A  
HETATM   16  C   UNL     1     -11.423  15.397  64.691  1.00  0.00    -0.337 A  
HETATM   17  H   UNL     1     -12.284  16.537  63.255  1.00  0.00     0.000 HD 
HETATM   18  C   UNL     1     -10.392  15.327  65.622  1.00  0.00    -0.389 A  
HETATM   19  O   UNL     1     -11.580  16.489  63.890  1.00  0.00    -1.175 OA 
HETATM   20  C   UNL     1     -12.324  14.350  64.541  1.00  0.00    -0.440 A  
ENDBRANCH   4  13
BRANCH   4  21
HETATM   21  C   UNL     1     -11.897  11.702  68.172  1.00  0.00    -0.315 C  
HETATM   22  C   UNL     1     -11.606  12.614  69.357  1.00  0.00    -0.369 C  
ENDBRANCH   4  21
ENDBRANCH   2   3
TORSDOF 4
ENDMDL
MODEL       12
REMARK 921   NORMALIZED FREE ENERGY PREDICTED BY IDOCK:   -5.78 KCAL/MOL
REMARK 922        TOTAL FREE ENERGY PREDICTED BY IDOCK:   -8.09 KCAL/MOL
REMARK 923 INTER-LIGAND FREE ENERGY PREDICTED BY IDOCK:   -6.77 KCAL/MOL
REMARK 924 INTRA-LIGAND FREE ENERGY PREDICTED BY IDOCK:   -1.32 KCAL/MOL
REMARK 927      BINDING AFFINITY PREDICTED BY RF-SCORE:    0.00 PKD
ROOT
HETATM    1  C   UNL     1     -11.836  13.358  69.387  1.00  0.00    -0.390 C  
HETATM    2  C   UNL     1     -11.994  12.225  68.383  1.00  0.00    -0.266 C  
ENDROOT
BRANCH   2   3
HETATM    3  C   UNL     1     -10.953  12.212  67.278  1.00  0.00    -0.308 C  
HETATM    4  C   UNL     1     -10.026  11.244  67.077  1.00  0.00    -0.226 C  
BRANCH   3   5
HETATM    5  C   UNL     1     -11.055  13.333  66.321  1.00  0.00    -0.306 A  
HETATM    6  H   UNL     1     -12.405  16.720  63.358  1.00  0.00     0.000 HD 
HETATM    7  C   UNL     1     -10.122  14.377  66.346  1.00  0.00    -0.294 A  
HETATM    8  C   UNL     1     -12.139  13.399  65.434  1.00  0.00    -0.457 A  
HETATM    9  C   UNL     1     -12.310  14.517  64.617  1.00  0.00    -0.419 A  
HETATM   10  O   UNL     1     -11.650  16.674  63.933  1.00  0.00    -1.204 OA 
HETATM   11  C   UNL     1     -10.299  15.502  65.535  1.00  0.00    -0.419 A  
HETATM   12  C   UNL     1     -11.405  15.569  64.693  1.00  0.00    -0.357 A  
ENDBRANCH   3   5
BRANCH   4  13
HETATM   13  C   UNL     1      -9.859  10.126  68.029  1.00  0.00    -0.169 A  
HETATM   14  C   UNL     1     -10.451   8.886  67.765  1.00  0.00    -0.300 A  
HETATM   15  C   UNL     1      -9.165  10.318  69.232  1.00  0.00    -0.215 A  
HETATM   16  C   UNL     1      -9.701   8.068  69.902  1.00  0.00    -0.180 A  
HETATM   17  H   UNL     1     -10.093   6.215  70.620  1.00  0.00     0.000 HD 
HETATM   18  C   UNL     1      -9.086   9.286  70.171  1.00  0.00    -0.248 A  
HETATM   19  O   UNL     1      -9.673   7.047  70.803  1.00  0.00    -0.169 OA 
HETATM   20  C   UNL     1     -10.375   7.856  68.705  1.00  0.00    -0.224 A  
ENDBRANCH   4  13
BRANCH   4  21
HETATM   21  C   UNL     1      -9.129  11.108  65.849  1.00  0.00    -0.218 C  
HETATM   22  C   UNL     1      -9.827  10.573  64.606  1.00  0.00    -0.404 C  
ENDBRANCH   4  21
ENDBRANCH   2   3
TORSDOF 4
ENDMDL
MODEL       13
REMARK 921   NORMALIZED FREE ENERGY PREDICTED BY IDOCK:   -5.77 KCAL/MOL
REMARK 922        TOTAL FREE ENERGY PREDICTED BY IDOCK:   -8.08 KCAL/MOL
REMARK 923 INTER-LIGAND FREE ENERGY PREDICTED BY IDOCK:   -6.73 KCAL/MOL
REMARK 924 INTRA-LIGAND FREE ENERGY PREDICTED BY IDOCK:   -1.35 KCAL/MOL
REMARK 927      BINDING AFFINITY PREDICTED BY RF-SCORE:    0.00 PKD
ROOT
HETATM    1  C   UNL     1     -11.779  12.897  69.533  1.00  0.00    -0.387 C  
HETATM    2  C   UNL     1     -11.999  11.891  68.412  1.00  0.00    -0.246 C  
ENDROOT
BRANCH   2   3
HETATM    3  C   UNL     1     -11.045  12.035  67.240  1.00  0.00    -0.341 C  
HETATM    4  C   UNL     1     -10.112  11.126  66.864  1.00  0.00    -0.250 C  
BRANCH   3   5
HETATM    5  C   UNL     1     -11.248  13.251  66.425  1.00  0.00    -0.325 A  
HETATM    6  H   UNL     1     -10.852  17.191  63.898  1.00  0.00     0.000 HD 
HETATM    7  C   UNL     1     -12.289  13.316  65.491  1.00  0.00    -0.533 A  
HETATM    8  C   UNL     1     -10.343  14.318  66.522  1.00  0.00    -0.278 A  
HETATM    9  C   UNL     1     -10.454  15.412  65.664  1.00  0.00    -0.391 A  
HETATM   10  O   UNL     1     -11.489  16.488  63.841  1.00  0.00    -1.145 OA 
HETATM   11  C   UNL     1     -12.395  14.408  64.625  1.00  0.00    -0.435 A  
HETATM   12  C   UNL     1     -11.462  15.436  64.708  1.00  0.00    -0.336 A  
ENDBRANCH   3   5
BRANCH   4  13
HETATM   13  C   UNL     1      -9.846   9.916  67.670  1.00  0.00    -0.198 A  
HETATM   14  C   UNL     1     -10.485   8.711  67.356  1.00  0.00    -0.351 A  
HETATM   15  C   UNL     1      -9.007   9.982  68.790  1.00  0.00    -0.145 A  
HETATM   16  C   UNL     1      -9.489   7.676  69.289  1.00  0.00    -0.158 A  
HETATM   17  H   UNL     1      -9.817   5.760  69.857  1.00  0.00     0.000 HD 
HETATM   18  C   UNL     1      -8.827   8.859  69.602  1.00  0.00    -0.142 A  
HETATM   19  O   UNL     1      -9.365   6.568  70.071  1.00  0.00    -0.156 OA 
HETATM   20  C   UNL     1     -10.308   7.589  68.169  1.00  0.00    -0.244 A  
ENDBRANCH   4  13
BRANCH   4  21
HETATM   21  C   UNL     1      -9.308  11.157  65.567  1.00  0.00    -0.247 C  
HETATM   22  C   UNL     1     -10.048  10.627  64.346  1.00  0.00    -0.418 C  
ENDBRANCH   4  21
ENDBRANCH   2   3
TORSDOF 4
ENDMDL
MODEL       14
REMARK 921   NORMALIZED FREE ENERGY PREDICTED BY IDOCK:   -5.65 KCAL/MOL
REMARK 922        TOTAL FREE ENERGY PREDICTED BY IDOCK:   -7.93 KCAL/MOL
REMARK 923 INTER-LIGAND FREE ENERGY PREDICTED BY IDOCK:   -6.72 KCAL/MOL
REMARK 924 INTRA-LIGAND FREE ENERGY PREDICTED BY IDOCK:   -1.21 KCAL/MOL
REMARK 927      BINDING AFFINITY PREDICTED BY RF-SCORE:    0.00 PKD
ROOT
HETATM    1  C   UNL     1      -9.451  10.324  64.152  1.00  0.00    -0.358 C  
HETATM    2  C   UNL     1      -9.095  10.991  65.473  1.00  0.00    -0.225 C  
ENDROOT
BRANCH   2   3
HETATM    3  C   UNL     1     -10.279  11.574  66.224  1.00  0.00    -0.268 C  
HETATM    4  C   UNL     1     -10.862  11.033  67.322  1.00  0.00    -0.335 C  
BRANCH   3   5
HETATM    5  C   UNL     1     -10.745  12.883  65.722  1.00  0.00    -0.293 A  
HETATM    6  H   UNL     1     -11.206  17.260  64.081  1.00  0.00     0.000 HD 
HETATM    7  C   UNL     1     -11.913  12.976  64.955  1.00  0.00    -0.438 A  
HETATM    8  C   UNL     1      -9.971  14.032  65.939  1.00  0.00    -0.325 A  
HETATM    9  C   UNL     1     -10.340  15.246  65.360  1.00  0.00    -0.421 A  
HETATM   10  O   UNL     1     -11.755  16.496  63.950  1.00  0.00    -1.148 OA 
HETATM   11  C   UNL     1     -12.277  14.190  64.366  1.00  0.00    -0.466 A  
HETATM   12  C   UNL     1     -11.473  15.309  64.558  1.00  0.00    -0.315 A  
ENDBRANCH   3   5
BRANCH   4  13
HETATM   13  C   UNL     1     -10.457   9.708  67.836  1.00  0.00    -0.296 A  
HETATM   14  C   UNL     1     -10.777   8.550  67.118  1.00  0.00    -0.209 A  
HETATM   15  C   UNL     1      -9.811   9.596  69.075  1.00  0.00    -0.183 A  
HETATM   16  C   UNL     1      -9.856   7.196  68.883  1.00  0.00    -0.156 A  
HETATM   17  H   UNL     1      -9.843   5.171  68.884  1.00  0.00     0.000 HD 
HETATM   18  C   UNL     1      -9.509   8.337  69.600  1.00  0.00    -0.163 A  
HETATM   19  O   UNL     1      -9.606   5.950  69.374  1.00  0.00    -0.133 OA 
HETATM   20  C   UNL     1     -10.478   7.292  67.644  1.00  0.00    -0.310 A  
ENDBRANCH   4  13
BRANCH   4  21
HETATM   21  C   UNL     1     -11.897  11.717  68.210  1.00  0.00    -0.340 C  
HETATM   22  C   UNL     1     -11.334  12.779  69.146  1.00  0.00    -0.337 C  
ENDBRANCH   4  21
ENDBRANCH   2   3
TORSDOF 4
ENDMDL
MODEL       15
REMARK 921   NORMALIZED FREE ENERGY PREDICTED BY IDOCK:   -5.62 KCAL/MOL
REMARK 922        TOTAL FREE ENERGY PREDICTED BY IDOCK:   -7.90 KCAL/MOL
REMARK 923 INTER-LIGAND FREE ENERGY PREDICTED BY IDOCK:   -6.59 KCAL/MOL
REMARK 924 INTRA-LIGAND FREE ENERGY PREDICTED BY IDOCK:   -1.31 KCAL/MOL
REMARK 927      BINDING AFFINITY PREDICTED BY RF-SCORE:    0.00 PKD
ROOT
HETATM    1  C   UNL     1     -11.291  12.744  69.168  1.00  0.00    -0.337 C  
HETATM    2  C   UNL     1     -11.869  11.714  68.207  1.00  0.00    -0.335 C  
ENDROOT
BRANCH   2   3
HETATM    3  C   UNL     1     -10.841  11.026  67.328  1.00  0.00    -0.335 C  
HETATM    4  C   UNL     1     -10.255  11.564  66.229  1.00  0.00    -0.268 C  
BRANCH   3   5
HETATM    5  C   UNL     1     -10.419   9.691  67.799  1.00  0.00    -0.309 A  
HETATM    6  H   UNL     1      -9.118   5.203  68.282  1.00  0.00     0.000 HD 
HETATM    7  C   UNL     1      -9.584   9.563  68.916  1.00  0.00    -0.156 A  
HETATM    8  C   UNL     1     -10.783   8.546  67.076  1.00  0.00    -0.190 A  
HETATM    9  C   UNL     1     -10.282   7.297  67.442  1.00  0.00    -0.304 A  
HETATM   10  O   UNL     1      -8.887   5.967  68.798  1.00  0.00    -0.117 OA 
HETATM   11  C   UNL     1      -9.074   8.312  69.276  1.00  0.00    -0.151 A  
HETATM   12  C   UNL     1      -9.412   7.194  68.521  1.00  0.00    -0.139 A  
ENDBRANCH   3   5
BRANCH   4  13
HETATM   13  C   UNL     1     -10.674  12.878  65.697  1.00  0.00    -0.295 A  
HETATM   14  C   UNL     1     -11.794  12.972  64.863  1.00  0.00    -0.404 A  
HETATM   15  C   UNL     1      -9.917  14.025  65.970  1.00  0.00    -0.331 A  
HETATM   16  C   UNL     1     -11.366  15.320  64.547  1.00  0.00    -0.300 A  
HETATM   17  H   UNL     1     -12.472  16.536  63.364  1.00  0.00     0.000 HD 
HETATM   18  C   UNL     1     -10.264  15.250  65.393  1.00  0.00    -0.414 A  
HETATM   19  O   UNL     1     -11.720  16.488  63.941  1.00  0.00    -1.148 OA 
HETATM   20  C   UNL     1     -12.139  14.195  64.284  1.00  0.00    -0.471 A  
ENDBRANCH   4  13
BRANCH   4  21
HETATM   21  C   UNL     1      -9.067  10.975  65.474  1.00  0.00    -0.225 C  
HETATM   22  C   UNL     1      -9.421  10.299  64.156  1.00  0.00    -0.358 C  
ENDBRANCH   4  21
ENDBRANCH   2   3
TORSDOF 4
ENDMDL
MODEL       16
REMARK 921   NORMALIZED FREE ENERGY PREDICTED BY IDOCK:   -5.61 KCAL/MOL
REMARK 922        TOTAL FREE ENERGY PREDICTED BY IDOCK:   -7.88 KCAL/MOL
REMARK 923 INTER-LIGAND FREE ENERGY PREDICTED BY IDOCK:   -6.53 KCAL/MOL
REMARK 924 INTRA-LIGAND FREE ENERGY PREDICTED BY IDOCK:   -1.35 KCAL/MOL
REMARK 927      BINDING AFFINITY PREDICTED BY RF-SCORE:    0.00 PKD
ROOT
HETATM    1  C   UNL     1     -11.429  12.437  69.273  1.00  0.00    -0.349 C  
HETATM    2  C   UNL     1     -11.907  11.557  68.126  1.00  0.00    -0.306 C  
ENDROOT
BRANCH   2   3
HETATM    3  C   UNL     1     -10.990  11.541  66.918  1.00  0.00    -0.350 C  
HETATM    4  C   UNL     1     -10.215  10.499  66.526  1.00  0.00    -0.288 C  
BRANCH   3   5
HETATM    5  C   UNL     1     -11.043  12.761  66.086  1.00  0.00    -0.322 A  
HETATM    6  H   UNL     1     -12.245  16.525  63.545  1.00  0.00     0.000 HD 
HETATM    7  C   UNL     1     -10.039  13.733  66.182  1.00  0.00    -0.314 A  
HETATM    8  C   UNL     1     -12.148  12.993  65.254  1.00  0.00    -0.484 A  
HETATM    9  C   UNL     1     -12.265  14.200  64.564  1.00  0.00    -0.468 A  
HETATM   10  O   UNL     1     -11.477  16.368  64.082  1.00  0.00    -0.951 OA 
HETATM   11  C   UNL     1     -10.162  14.946  65.500  1.00  0.00    -0.401 A  
HETATM   12  C   UNL     1     -11.286  15.175  64.713  1.00  0.00    -0.395 A  
ENDBRANCH   3   5
BRANCH   4  13
HETATM   13  C   UNL     1     -10.099   9.275  67.347  1.00  0.00    -0.280 A  
HETATM   14  C   UNL     1      -9.379   9.302  68.547  1.00  0.00    -0.143 A  
HETATM   15  C   UNL     1     -10.650   8.067  66.898  1.00  0.00    -0.324 A  
HETATM   16  C   UNL     1      -9.722   6.933  68.810  1.00  0.00    -0.137 A  
HETATM   17  H   UNL     1      -8.986   5.833  70.343  1.00  0.00     0.000 HD 
HETATM   18  C   UNL     1     -10.462   6.893  67.632  1.00  0.00    -0.290 A  
HETATM   19  O   UNL     1      -9.491   5.806  69.539  1.00  0.00    -0.131 OA 
HETATM   20  C   UNL     1      -9.188   8.128  69.278  1.00  0.00    -0.151 A  
ENDBRANCH   4  13
BRANCH   4  21
HETATM   21  C   UNL     1      -9.467  10.392  65.201  1.00  0.00    -0.303 C  
HETATM   22  C   UNL     1      -7.964  10.187  65.332  1.00  0.00    -0.144 C  
ENDBRANCH   4  21
ENDBRANCH   2   3
TORSDOF 4
ENDMDL
MODEL       17
REMARK 921   NORMALIZED FREE ENERGY PREDICTED BY IDOCK:   -5.61 KCAL/MOL
REMARK 922        TOTAL FREE ENERGY PREDICTED BY IDOCK:   -7.88 KCAL/MOL
REMARK 923 INTER-LIGAND FREE ENERGY PREDICTED BY IDOCK:   -6.99 KCAL/MOL
REMARK 924 INTRA-LIGAND FREE ENERGY PREDICTED BY IDOCK:   -0.89 KCAL/MOL
REMARK 927      BINDING AFFINITY PREDICTED BY RF-SCORE:    0.00 PKD
ROOT
HETATM    1  C   UNL     1     -10.055  15.867  67.502  1.00  0.00    -0.247 C  
HETATM    2  C   UNL     1     -11.524  15.574  67.774  1.00  0.00    -0.247 C  
ENDROOT
BRANCH   2   3
HETATM    3  C   UNL     1     -11.770  14.523  68.841  1.00  0.00    -0.354 C  
HETATM    4  C   UNL     1     -11.517  13.196  68.717  1.00  0.00    -0.348 C  
BRANCH   3   5
HETATM    5  C   UNL     1     -12.250  15.054  70.133  1.00  0.00    -0.392 A  
HETATM    6  H   UNL     1     -14.303  15.845  74.284  1.00  0.00     0.000 HD 
HETATM    7  C   UNL     1     -11.426  15.873  70.915  1.00  0.00    -0.444 A  
HETATM    8  C   UNL     1     -13.506  14.672  70.624  1.00  0.00    -0.084 A  
HETATM    9  C   UNL     1     -13.911  15.067  71.899  1.00  0.00    -0.604 A  
HETATM   10  O   UNL     1     -13.461  16.135  73.951  1.00  0.00    -0.519 OA 
HETATM   11  C   UNL     1     -11.827  16.260  72.197  1.00  0.00    -0.585 A  
HETATM   12  C   UNL     1     -13.059  15.835  72.684  1.00  0.00    -0.491 A  
ENDBRANCH   3   5
BRANCH   4  13
HETATM   13  C   UNL     1     -11.075  12.613  67.433  1.00  0.00    -0.315 A  
HETATM   14  C   UNL     1     -11.900  12.694  66.305  1.00  0.00    -0.471 A  
HETATM   15  C   UNL     1      -9.860  11.918  67.351  1.00  0.00    -0.192 A  
HETATM   16  C   UNL     1     -10.330  11.363  65.056  1.00  0.00    -0.287 A  
HETATM   17  H   UNL     1     -10.593  10.789  63.131  1.00  0.00     0.000 HD 
HETATM   18  C   UNL     1      -9.486  11.292  66.159  1.00  0.00    -0.232 A  
HETATM   19  O   UNL     1     -10.017  10.740  63.885  1.00  0.00    -0.296 OA 
HETATM   20  C   UNL     1     -11.528  12.065  65.115  1.00  0.00    -0.344 A  
ENDBRANCH   4  13
BRANCH   4  21
HETATM   21  C   UNL     1     -11.548  12.172  69.848  1.00  0.00    -0.297 C  
HETATM   22  C   UNL     1     -12.324  10.900  69.534  1.00  0.00    -0.241 C  
ENDBRANCH   4  21
ENDBRANCH   2   3
TORSDOF 4
ENDMDL
MODEL       18
REMARK 921   NORMALIZED FREE ENERGY PREDICTED BY IDOCK:   -5.58 KCAL/MOL
REMARK 922        TOTAL FREE ENERGY PREDICTED BY IDOCK:   -7.85 KCAL/MOL
REMARK 923 INTER-LIGAND FREE ENERGY PREDICTED BY IDOCK:   -6.46 KCAL/MOL
REMARK 924 INTRA-LIGAND FREE ENERGY PREDICTED BY IDOCK:   -1.38 KCAL/MOL
REMARK 927      BINDING AFFINITY PREDICTED BY RF-SCORE:    0.00 PKD
ROOT
HETATM    1  C   UNL     1     -11.415  12.524  69.174  1.00  0.00    -0.361 C  
HETATM    2  C   UNL     1     -11.900  11.445  68.216  1.00  0.00    -0.320 C  
ENDROOT
BRANCH   2   3
HETATM    3  C   UNL     1     -10.812  10.829  67.357  1.00  0.00    -0.345 C  
HETATM    4  C   UNL     1     -10.271  11.387  66.246  1.00  0.00    -0.274 C  
BRANCH   3   5
HETATM    5  C   UNL     1     -10.274   9.550  67.865  1.00  0.00    -0.251 A  
HETATM    6  H   UNL     1      -8.562   5.982  70.396  1.00  0.00     0.000 HD 
HETATM    7  C   UNL     1     -10.661   8.335  67.285  1.00  0.00    -0.335 A  
HETATM    8  C   UNL     1      -9.436   9.540  68.989  1.00  0.00    -0.158 A  
HETATM    9  C   UNL     1      -9.029   8.329  69.550  1.00  0.00    -0.150 A  
HETATM   10  O   UNL     1      -9.106   5.974  69.617  1.00  0.00    -0.133 OA 
HETATM   11  C   UNL     1     -10.261   7.122  67.853  1.00  0.00    -0.231 A  
HETATM   12  C   UNL     1      -9.465   7.132  68.994  1.00  0.00    -0.143 A  
ENDBRANCH   3   5
BRANCH   4  13
HETATM   13  C   UNL     1     -10.803  12.643  65.678  1.00  0.00    -0.305 A  
HETATM   14  C   UNL     1     -11.948  12.620  64.874  1.00  0.00    -0.459 A  
HETATM   15  C   UNL     1     -10.128  13.855  65.884  1.00  0.00    -0.331 A  
HETATM   16  C   UNL     1     -11.709  14.979  64.458  1.00  0.00    -0.368 A  
HETATM   17  H   UNL     1     -12.936  16.061  63.264  1.00  0.00     0.000 HD 
HETATM   18  C   UNL     1     -10.583  15.026  65.273  1.00  0.00    -0.418 A  
HETATM   19  O   UNL     1     -12.168  16.093  63.820  1.00  0.00    -0.934 OA 
HETATM   20  C   UNL     1     -12.401  13.790  64.261  1.00  0.00    -0.384 A  
ENDBRANCH   4  13
BRANCH   4  21
HETATM   21  C   UNL     1      -9.032  10.887  65.509  1.00  0.00    -0.213 C  
HETATM   22  C   UNL     1      -9.319  10.141  64.212  1.00  0.00    -0.349 C  
ENDBRANCH   4  21
ENDBRANCH   2   3
TORSDOF 4
ENDMDL
MODEL       19
REMARK 921   NORMALIZED FREE ENERGY PREDICTED BY IDOCK:   -5.56 KCAL/MOL
REMARK 922        TOTAL FREE ENERGY PREDICTED BY IDOCK:   -7.81 KCAL/MOL
REMARK 923 INTER-LIGAND FREE ENERGY PREDICTED BY IDOCK:   -6.95 KCAL/MOL
REMARK 924 INTRA-LIGAND FREE ENERGY PREDICTED BY IDOCK:   -0.86 KCAL/MOL
REMARK 927      BINDING AFFINITY PREDICTED BY RF-SCORE:    0.00 PKD
ROOT
HETATM    1  C   UNL     1      -8.448   9.806  69.968  1.00  0.00    -0.229 C  
HETATM    2  C   UNL     1      -9.768   9.143  69.600  1.00  0.00    -0.183 C  
ENDROOT
BRANCH   2   3
HETATM    3  C   UNL     1     -10.799   9.130  70.714  1.00  0.00    -0.331 C  
HETATM    4  C   UNL     1     -11.803  10.027  70.872  1.00  0.00    -0.459 C  
BRANCH   3   5
HETATM    5  C   UNL     1     -10.703   7.976  71.631  1.00  0.00    -0.284 A  
HETATM    6  H   UNL     1     -10.347   5.043  75.283  1.00  0.00     0.000 HD 
HETATM    7  C   UNL     1     -11.362   6.776  71.335  1.00  0.00    -0.322 A  
HETATM    8  C   UNL     1     -10.019   8.104  72.849  1.00  0.00    -0.336 A  
HETATM    9  C   UNL     1     -10.034   7.060  73.775  1.00  0.00    -0.367 A  
HETATM   10  O   UNL     1     -10.790   4.933  74.450  1.00  0.00    -0.346 OA 
HETATM   11  C   UNL     1     -11.386   5.735  72.267  1.00  0.00    -0.334 A  
HETATM   12  C   UNL     1     -10.738   5.897  73.488  1.00  0.00    -0.259 A  
ENDBRANCH   3   5
BRANCH   4  13
HETATM   13  C   UNL     1     -11.915  11.219  70.004  1.00  0.00    -0.447 A  
HETATM   14  C   UNL     1     -11.743  11.098  68.621  1.00  0.00    -0.389 A  
HETATM   15  C   UNL     1     -12.129  12.485  70.566  1.00  0.00    -0.361 A  
HETATM   16  C   UNL     1     -11.948  13.485  68.382  1.00  0.00    -0.343 A  
HETATM   17  H   UNL     1     -11.792  14.477  66.623  1.00  0.00     0.000 HD 
HETATM   18  C   UNL     1     -12.146  13.622  69.752  1.00  0.00    -0.396 A  
HETATM   19  O   UNL     1     -11.927  14.570  67.559  1.00  0.00    -0.382 OA 
HETATM   20  C   UNL     1     -11.756  12.234  67.809  1.00  0.00    -0.403 A  
ENDBRANCH   4  13
BRANCH   4  21
HETATM   21  C   UNL     1     -12.970   9.899  71.847  1.00  0.00    -0.545 C  
HETATM   22  C   UNL     1     -14.137   9.063  71.338  1.00  0.00    -0.237 C  
ENDBRANCH   4  21
ENDBRANCH   2   3
TORSDOF 4
ENDMDL
MODEL       20
REMARK 921   NORMALIZED FREE ENERGY PREDICTED BY IDOCK:   -5.51 KCAL/MOL
REMARK 922        TOTAL FREE ENERGY PREDICTED BY IDOCK:   -7.75 KCAL/MOL
REMARK 923 INTER-LIGAND FREE ENERGY PREDICTED BY IDOCK:   -6.69 KCAL/MOL
REMARK 924 INTRA-LIGAND FREE ENERGY PREDICTED BY IDOCK:   -1.06 KCAL/MOL
REMARK 927      BINDING AFFINITY PREDICTED BY RF-SCORE:    0.00 PKD
ROOT
HETATM    1  C   UNL     1     -13.899   9.401  72.561  1.00  0.00    -0.385 C  
HETATM    2  C   UNL     1     -13.484   9.286  71.101  1.00  0.00    -0.224 C  
ENDROOT
BRANCH   2   3
HETATM    3  C   UNL     1     -12.114   9.859  70.789  1.00  0.00    -0.396 C  
HETATM    4  C   UNL     1     -10.928   9.246  71.029  1.00  0.00    -0.390 C  
BRANCH   3   5
HETATM    5  C   UNL     1     -12.132  11.161  70.091  1.00  0.00    -0.443 A  
HETATM    6  H   UNL     1     -11.824  15.661  68.779  1.00  0.00     0.000 HD 
HETATM    7  C   UNL     1     -11.895  11.232  68.712  1.00  0.00    -0.396 A  
HETATM    8  C   UNL     1     -12.305  12.345  70.822  1.00  0.00    -0.377 A  
HETATM    9  C   UNL     1     -12.196  13.583  70.188  1.00  0.00    -0.400 A  
HETATM   10  O   UNL     1     -11.734  14.866  68.266  1.00  0.00    -0.321 OA 
HETATM   11  C   UNL     1     -11.776  12.473  68.080  1.00  0.00    -0.410 A  
HETATM   12  C   UNL     1     -11.907  13.637  68.830  1.00  0.00    -0.364 A  
ENDBRANCH   3   5
BRANCH   4  13
HETATM   13  C   UNL     1     -10.857   7.964  71.760  1.00  0.00    -0.286 A  
HETATM   14  C   UNL     1     -11.341   6.792  71.167  1.00  0.00    -0.342 A  
HETATM   15  C   UNL     1     -10.367   7.923  73.072  1.00  0.00    -0.401 A  
HETATM   16  C   UNL     1     -10.891   5.576  73.196  1.00  0.00    -0.285 A  
HETATM   17  H   UNL     1     -11.299   3.610  73.466  1.00  0.00     0.000 HD 
HETATM   18  C   UNL     1     -10.384   6.725  73.792  1.00  0.00    -0.397 A  
HETATM   19  O   UNL     1     -10.953   4.395  73.874  1.00  0.00    -0.266 OA 
HETATM   20  C   UNL     1     -11.361   5.596  71.888  1.00  0.00    -0.208 A  
ENDBRANCH   4  13
BRANCH   4  21
HETATM   21  C   UNL     1      -9.566   9.709  70.519  1.00  0.00    -0.261 C  
HETATM   22  C   UNL     1      -8.842   8.704  69.633  1.00  0.00    -0.137 C  
ENDBRANCH   4  21
ENDBRANCH   2   3
TORSDOF 4
ENDMDL
MODEL       21
REMARK 921   NORMALIZED FREE ENERGY PREDICTED BY IDOCK:   -5.48 KCAL/MOL
REMARK 922        TOTAL FREE ENERGY PREDICTED BY IDOCK:   -7.72 KCAL/MOL
REMARK 923 INTER-LIGAND FREE ENERGY PREDICTED BY IDOCK:   -6.56 KCAL/MOL
REMARK 924 INTRA-LIGAND FREE ENERGY PREDICTED BY IDOCK:   -1.16 KCAL/MOL
REMARK 927      BINDING AFFINITY PREDICTED BY RF-SCORE:    0.00 PKD
ROOT
HETATM    1  C   UNL     1     -13.262  11.220  71.874  1.00  0.00    -0.491 C  
HETATM    2  C   UNL     1     -13.146  10.237  70.717  1.00  0.00    -0.360 C  
ENDROOT
BRANCH   2   3
HETATM    3  C   UNL     1     -11.741   9.721  70.468  1.00  0.00    -0.343 C  
HETATM    4  C   UNL     1     -10.841  10.261  69.608  1.00  0.00    -0.311 C  
BRANCH   3   5
HETATM    5  C   UNL     1     -11.341   8.581  71.318  1.00  0.00    -0.325 A  
HETATM    6  H   UNL     1     -10.001   5.685  74.765  1.00  0.00     0.000 HD 
HETATM    7  C   UNL     1     -11.868   7.304  71.089  1.00  0.00    -0.345 A  
HETATM    8  C   UNL     1     -10.493   8.789  72.415  1.00  0.00    -0.220 A  
HETATM    9  C   UNL     1     -10.215   7.743  73.296  1.00  0.00    -0.367 A  
HETATM   10  O   UNL     1     -10.553   5.523  74.009  1.00  0.00    -0.273 OA 
HETATM   11  C   UNL     1     -11.598   6.259  71.977  1.00  0.00    -0.372 A  
HETATM   12  C   UNL     1     -10.790   6.496  73.084  1.00  0.00    -0.257 A  
ENDBRANCH   3   5
BRANCH   4  13
HETATM   13  C   UNL     1     -11.208  11.375  68.709  1.00  0.00    -0.308 A  
HETATM   14  C   UNL     1     -11.403  11.139  67.343  1.00  0.00    -0.329 A  
HETATM   15  C   UNL     1     -11.297  12.684  69.203  1.00  0.00    -0.339 A  
HETATM   16  C   UNL     1     -11.723  13.497  66.977  1.00  0.00    -0.383 A  
HETATM   17  H   UNL     1     -12.061  14.338  65.166  1.00  0.00     0.000 HD 
HETATM   18  C   UNL     1     -11.556  13.748  68.335  1.00  0.00    -0.369 A  
HETATM   19  O   UNL     1     -11.947  14.509  66.093  1.00  0.00    -0.372 OA 
HETATM   20  C   UNL     1     -11.658  12.202  66.475  1.00  0.00    -0.425 A  
ENDBRANCH   4  13
BRANCH   4  21
HETATM   21  C   UNL     1      -9.363   9.892  69.515  1.00  0.00    -0.236 C  
HETATM   22  C   UNL     1      -9.053   8.742  68.566  1.00  0.00    -0.138 C  
ENDBRANCH   4  21
ENDBRANCH   2   3
TORSDOF 4
ENDMDL
MODEL       22
REMARK 921   NORMALIZED FREE ENERGY PREDICTED BY IDOCK:   -5.47 KCAL/MOL
REMARK 922        TOTAL FREE ENERGY PREDICTED BY IDOCK:   -7.71 KCAL/MOL
REMARK 923 INTER-LIGAND FREE ENERGY PREDICTED BY IDOCK:   -6.71 KCAL/MOL
REMARK 924 INTRA-LIGAND FREE ENERGY PREDICTED BY IDOCK:   -0.99 KCAL/MOL
REMARK 927      BINDING AFFINITY PREDICTED BY RF-SCORE:    0.00 PKD
ROOT
HETATM    1  C   UNL     1      -8.296   9.996  69.826  1.00  0.00    -0.187 C  
HETATM    2  C   UNL     1      -9.575   9.460  69.196  1.00  0.00    -0.163 C  
ENDROOT
BRANCH   2   3
HETATM    3  C   UNL     1     -10.798   9.538  70.090  1.00  0.00    -0.300 C  
HETATM    4  C   UNL     1     -11.773  10.478  70.016  1.00  0.00    -0.394 C  
BRANCH   3   5
HETATM    5  C   UNL     1     -10.933   8.425  71.052  1.00  0.00    -0.288 A  
HETATM    6  H   UNL     1     -11.278   4.292  73.257  1.00  0.00     0.000 HD 
HETATM    7  C   UNL     1     -10.423   8.543  72.351  1.00  0.00    -0.367 A  
HETATM    8  C   UNL     1     -11.498   7.209  70.642  1.00  0.00    -0.346 A  
HETATM    9  C   UNL     1     -11.511   6.114  71.506  1.00  0.00    -0.325 A  
HETATM   10  O   UNL     1     -10.918   5.118  73.558  1.00  0.00    -0.281 OA 
HETATM   11  C   UNL     1     -10.427   7.443  73.213  1.00  0.00    -0.424 A  
HETATM   12  C   UNL     1     -10.953   6.232  72.773  1.00  0.00    -0.260 A  
ENDBRANCH   3   5
BRANCH   4  13
HETATM   13  C   UNL     1     -11.663  11.632  69.098  1.00  0.00    -0.390 A  
HETATM   14  C   UNL     1     -11.668  12.936  69.607  1.00  0.00    -0.367 A  
HETATM   15  C   UNL     1     -11.619  11.432  67.712  1.00  0.00    -0.325 A  
HETATM   16  C   UNL     1     -11.635  13.815  67.366  1.00  0.00    -0.362 A  
HETATM   17  H   UNL     1     -11.673  15.788  66.910  1.00  0.00     0.000 HD 
HETATM   18  C   UNL     1     -11.605  12.526  66.843  1.00  0.00    -0.436 A  
HETATM   19  O   UNL     1     -11.653  14.908  66.553  1.00  0.00    -0.339 OA 
HETATM   20  C   UNL     1     -11.657  14.029  68.739  1.00  0.00    -0.366 A  
ENDBRANCH   4  13
BRANCH   4  21
HETATM   21  C   UNL     1     -13.109  10.439  70.752  1.00  0.00    -0.362 C  
HETATM   22  C   UNL     1     -13.129  11.190  72.077  1.00  0.00    -0.433 C  
ENDBRANCH   4  21
ENDBRANCH   2   3
TORSDOF 4
ENDMDL
MODEL       23
REMARK 921   NORMALIZED FREE ENERGY PREDICTED BY IDOCK:   -5.47 KCAL/MOL
REMARK 922        TOTAL FREE ENERGY PREDICTED BY IDOCK:   -7.70 KCAL/MOL
REMARK 923 INTER-LIGAND FREE ENERGY PREDICTED BY IDOCK:   -6.66 KCAL/MOL
REMARK 924 INTRA-LIGAND FREE ENERGY PREDICTED BY IDOCK:   -1.04 KCAL/MOL
REMARK 927      BINDING AFFINITY PREDICTED BY RF-SCORE:    0.00 PKD
ROOT
HETATM    1  C   UNL     1     -13.388  10.709  72.072  1.00  0.00    -0.409 C  
HETATM    2  C   UNL     1     -13.176  10.059  70.711  1.00  0.00    -0.270 C  
ENDROOT
BRANCH   2   3
HETATM    3  C   UNL     1     -11.806  10.299  70.105  1.00  0.00    -0.343 C  
HETATM    4  C   UNL     1     -10.733   9.479  70.228  1.00  0.00    -0.315 C  
BRANCH   3   5
HETATM    5  C   UNL     1     -11.709  11.500  69.251  1.00  0.00    -0.397 A  
HETATM    6  H   UNL     1     -11.898  14.723  65.839  1.00  0.00     0.000 HD 
HETATM    7  C   UNL     1     -11.756  12.781  69.817  1.00  0.00    -0.352 A  
HETATM    8  C   UNL     1     -11.656  11.366  67.856  1.00  0.00    -0.337 A  
HETATM    9  C   UNL     1     -11.694  12.497  67.040  1.00  0.00    -0.437 A  
HETATM   10  O   UNL     1     -11.905  14.830  66.783  1.00  0.00    -0.353 OA 
HETATM   11  C   UNL     1     -11.804  13.913  68.999  1.00  0.00    -0.397 A  
HETATM   12  C   UNL     1     -11.794  13.757  67.617  1.00  0.00    -0.378 A  
ENDBRANCH   3   5
BRANCH   4  13
HETATM   13  C   UNL     1     -10.769   8.288  71.103  1.00  0.00    -0.270 A  
HETATM   14  C   UNL     1     -11.061   7.030  70.563  1.00  0.00    -0.316 A  
HETATM   15  C   UNL     1     -10.577   8.419  72.485  1.00  0.00    -0.368 A  
HETATM   16  C   UNL     1     -11.015   6.068  72.769  1.00  0.00    -0.264 A  
HETATM   17  H   UNL     1     -11.389   4.119  73.176  1.00  0.00     0.000 HD 
HETATM   18  C   UNL     1     -10.700   7.305  73.321  1.00  0.00    -0.428 A  
HETATM   19  O   UNL     1     -11.174   4.964  73.553  1.00  0.00    -0.323 OA 
HETATM   20  C   UNL     1     -11.188   5.918  71.398  1.00  0.00    -0.285 A  
ENDBRANCH   4  13
BRANCH   4  21
HETATM   21  C   UNL     1      -9.428   9.593  69.445  1.00  0.00    -0.201 C  
HETATM   22  C   UNL     1      -8.176   9.708  70.305  1.00  0.00    -0.217 C  
ENDBRANCH   4  21
ENDBRANCH   2   3
TORSDOF 4
ENDMDL
MODEL       24
REMARK 921   NORMALIZED FREE ENERGY PREDICTED BY IDOCK:   -5.44 KCAL/MOL
REMARK 922        TOTAL FREE ENERGY PREDICTED BY IDOCK:   -7.68 KCAL/MOL
REMARK 923 INTER-LIGAND FREE ENERGY PREDICTED BY IDOCK:   -6.64 KCAL/MOL
REMARK 924 INTRA-LIGAND FREE ENERGY PREDICTED BY IDOCK:   -1.04 KCAL/MOL
REMARK 927      BINDING AFFINITY PREDICTED BY RF-SCORE:    0.00 PKD
ROOT
HETATM    1  C   UNL     1      -8.999   8.479  68.486  1.00  0.00    -0.139 C  
HETATM    2  C   UNL     1      -9.221   9.674  69.402  1.00  0.00    -0.196 C  
ENDROOT
BRANCH   2   3
HETATM    3  C   UNL     1     -10.663  10.140  69.493  1.00  0.00    -0.277 C  
HETATM    4  C   UNL     1     -11.599   9.650  70.344  1.00  0.00    -0.299 C  
BRANCH   3   5
HETATM    5  C   UNL     1     -11.001  11.279  68.616  1.00  0.00    -0.266 A  
HETATM    6  H   UNL     1     -12.529  14.168  65.242  1.00  0.00     0.000 HD 
HETATM    7  C   UNL     1     -11.249  12.546  69.160  1.00  0.00    -0.297 A  
HETATM    8  C   UNL     1     -11.159  11.079  67.238  1.00  0.00    -0.359 A  
HETATM    9  C   UNL     1     -11.603  12.121  66.423  1.00  0.00    -0.429 A  
HETATM   10  O   UNL     1     -12.398  14.325  66.169  1.00  0.00    -0.437 OA 
HETATM   11  C   UNL     1     -11.703  13.587  68.346  1.00  0.00    -0.393 A  
HETATM   12  C   UNL     1     -11.895  13.357  66.987  1.00  0.00    -0.394 A  
ENDBRANCH   3   5
BRANCH   4  13
HETATM   13  C   UNL     1     -11.320   8.486  71.210  1.00  0.00    -0.325 A  
HETATM   14  C   UNL     1     -11.821   7.223  70.871  1.00  0.00    -0.351 A  
HETATM   15  C   UNL     1     -10.609   8.648  72.407  1.00  0.00    -0.310 A  
HETATM   16  C   UNL     1     -10.950   6.322  72.926  1.00  0.00    -0.254 A  
HETATM   17  H   UNL     1     -11.176   4.398  73.519  1.00  0.00     0.000 HD 
HETATM   18  C   UNL     1     -10.423   7.563  73.268  1.00  0.00    -0.426 A  
HETATM   19  O   UNL     1     -10.816   5.246  73.752  1.00  0.00    -0.282 OA 
HETATM   20  C   UNL     1     -11.638   6.140  71.733  1.00  0.00    -0.333 A  
ENDBRANCH   4  13
BRANCH   4  21
HETATM   21  C   UNL     1     -12.976  10.256  70.599  1.00  0.00    -0.338 C  
HETATM   22  C   UNL     1     -13.060  11.155  71.826  1.00  0.00    -0.536 C  
ENDBRANCH   4  21
ENDBRANCH   2   3
TORSDOF 4
ENDMDL
MODEL       25
REMARK 921   NORMALIZED FREE ENERGY PREDICTED BY IDOCK:   -5.42 KCAL/MOL
REMARK 922        TOTAL FREE ENERGY PREDICTED BY IDOCK:   -7.65 KCAL/MOL
REMARK 923 INTER-LIGAND FREE ENERGY PREDICTED BY IDOCK:   -6.34 KCAL/MOL
REMARK 924 INTRA-LIGAND FREE ENERGY PREDICTED BY IDOCK:   -1.31 KCAL/MOL
REMARK 927      BINDING AFFINITY PREDICTED BY RF-SCORE:    0.00 PKD
ROOT
HETATM    1  C   UNL     1     -12.376  13.887  64.494  1.00  0.00    -0.408 C  
HETATM    2  C   UNL     1     -12.403  13.572  65.984  1.00  0.00    -0.486 C  
ENDROOT
BRANCH   2   3
HETATM    3  C   UNL     1     -11.068  13.138  66.560  1.00  0.00    -0.317 C  
HETATM    4  C   UNL     1     -10.174  13.948  67.179  1.00  0.00    -0.258 C  
BRANCH   3   5
HETATM    5  C   UNL     1     -10.806  11.686  66.486  1.00  0.00    -0.328 A  
HETATM    6  H   UNL     1      -9.151   7.365  65.679  1.00  0.00     0.000 HD 
HETATM    7  C   UNL     1     -11.145  10.847  67.555  1.00  0.00    -0.375 A  
HETATM    8  C   UNL     1     -10.136  11.151  65.376  1.00  0.00    -0.317 A  
HETATM    9  C   UNL     1      -9.773   9.805  65.358  1.00  0.00    -0.383 A  
HETATM   10  O   UNL     1      -9.630   7.708  66.424  1.00  0.00    -0.200 OA 
HETATM   11  C   UNL     1     -10.772   9.500  67.541  1.00  0.00    -0.311 A  
HETATM   12  C   UNL     1     -10.070   8.998  66.450  1.00  0.00    -0.281 A  
ENDBRANCH   3   5
BRANCH   4  13
HETATM   13  C   UNL     1     -10.374  15.411  67.242  1.00  0.00    -0.271 A  
HETATM   14  C   UNL     1     -10.078  16.207  66.130  1.00  0.00    -0.356 A  
HETATM   15  C   UNL     1     -10.796  16.017  68.433  1.00  0.00    -0.310 A  
HETATM   16  C   UNL     1     -10.577  18.185  67.408  1.00  0.00    -0.388 A  
HETATM   17  H   UNL     1     -10.416  20.076  66.700  1.00  0.00     0.000 HD 
HETATM   18  C   UNL     1     -10.899  17.409  68.516  1.00  0.00    -0.190 A  
HETATM   19  O   UNL     1     -10.635  19.546  67.457  1.00  0.00    -0.444 OA 
HETATM   20  C   UNL     1     -10.177  17.597  66.214  1.00  0.00    -0.362 A  
ENDBRANCH   4  13
BRANCH   4  21
HETATM   21  C   UNL     1      -8.943  13.489  67.955  1.00  0.00    -0.189 C  
HETATM   22  C   UNL     1      -7.623  14.060  67.453  1.00  0.00    -0.167 C  
ENDBRANCH   4  21
ENDBRANCH   2   3
TORSDOF 4
ENDMDL
MODEL       26
REMARK 921   NORMALIZED FREE ENERGY PREDICTED BY IDOCK:   -5.42 KCAL/MOL
REMARK 922        TOTAL FREE ENERGY PREDICTED BY IDOCK:   -7.64 KCAL/MOL
REMARK 923 INTER-LIGAND FREE ENERGY PREDICTED BY IDOCK:   -6.45 KCAL/MOL
REMARK 924 INTRA-LIGAND FREE ENERGY PREDICTED BY IDOCK:   -1.19 KCAL/MOL
REMARK 927      BINDING AFFINITY PREDICTED BY RF-SCORE:    0.00 PKD
ROOT
HETATM    1  C   UNL     1      -8.175  10.307  69.579  1.00  0.00    -0.165 C  
HETATM    2  C   UNL     1      -9.368   9.558  69.002  1.00  0.00    -0.155 C  
ENDROOT
BRANCH   2   3
HETATM    3  C   UNL     1     -10.592   9.535  69.899  1.00  0.00    -0.269 C  
HETATM    4  C   UNL     1     -11.624  10.413  69.851  1.00  0.00    -0.358 C  
BRANCH   3   5
HETATM    5  C   UNL     1     -10.653   8.391  70.831  1.00  0.00    -0.243 A  
HETATM    6  H   UNL     1     -11.087   5.487  74.498  1.00  0.00     0.000 HD 
HETATM    7  C   UNL     1     -11.072   7.131  70.385  1.00  0.00    -0.309 A  
HETATM    8  C   UNL     1     -10.372   8.580  72.192  1.00  0.00    -0.409 A  
HETATM    9  C   UNL     1     -10.551   7.535  73.098  1.00  0.00    -0.442 A  
HETATM   10  O   UNL     1     -11.253   5.336  73.575  1.00  0.00    -0.296 OA 
HETATM   11  C   UNL     1     -11.262   6.087  71.295  1.00  0.00    -0.323 A  
HETATM   12  C   UNL     1     -11.019   6.307  72.647  1.00  0.00    -0.252 A  
ENDBRANCH   3   5
BRANCH   4  13
HETATM   13  C   UNL     1     -11.589  11.595  68.964  1.00  0.00    -0.379 A  
HETATM   14  C   UNL     1     -11.432  12.875  69.507  1.00  0.00    -0.292 A  
HETATM   15  C   UNL     1     -11.778  11.449  67.583  1.00  0.00    -0.246 A  
HETATM   16  C   UNL     1     -11.700  13.842  67.319  1.00  0.00    -0.382 A  
HETATM   17  H   UNL     1     -11.687  15.831  66.936  1.00  0.00     0.000 HD 
HETATM   18  C   UNL     1     -11.834  12.576  66.758  1.00  0.00    -0.416 A  
HETATM   19  O   UNL     1     -11.779  14.967  66.553  1.00  0.00    -0.312 OA 
HETATM   20  C   UNL     1     -11.491  14.001  68.683  1.00  0.00    -0.337 A  
ENDBRANCH   4  13
BRANCH   4  21
HETATM   21  C   UNL     1     -12.952  10.270  70.587  1.00  0.00    -0.338 C  
HETATM   22  C   UNL     1     -13.039  11.037  71.900  1.00  0.00    -0.525 C  
ENDBRANCH   4  21
ENDBRANCH   2   3
TORSDOF 4
ENDMDL
MODEL       27
REMARK 921   NORMALIZED FREE ENERGY PREDICTED BY IDOCK:   -5.39 KCAL/MOL
REMARK 922        TOTAL FREE ENERGY PREDICTED BY IDOCK:   -7.61 KCAL/MOL
REMARK 923 INTER-LIGAND FREE ENERGY PREDICTED BY IDOCK:   -7.47 KCAL/MOL
REMARK 924 INTRA-LIGAND FREE ENERGY PREDICTED BY IDOCK:   -0.14 KCAL/MOL
REMARK 927      BINDING AFFINITY PREDICTED BY RF-SCORE:    0.00 PKD
ROOT
HETATM    1  C   UNL     1      -8.955   9.824  70.089  1.00  0.00    -0.235 C  
HETATM    2  C   UNL     1     -10.440   9.901  69.761  1.00  0.00    -0.292 C  
ENDROOT
BRANCH   2   3
HETATM    3  C   UNL     1     -11.352   9.329  70.831  1.00  0.00    -0.373 C  
HETATM    4  C   UNL     1     -12.354   9.996  71.455  1.00  0.00    -0.513 C  
BRANCH   3   5
HETATM    5  C   UNL     1     -11.139   7.896  71.121  1.00  0.00    -0.278 A  
HETATM    6  H   UNL     1     -10.134   3.308  71.056  1.00  0.00     0.000 HD 
HETATM    7  C   UNL     1     -10.774   7.477  72.407  1.00  0.00    -0.311 A  
HETATM    8  C   UNL     1     -11.220   6.952  70.088  1.00  0.00    -0.361 A  
HETATM    9  C   UNL     1     -10.896   5.617  70.329  1.00  0.00    -0.336 A  
HETATM   10  O   UNL     1     -10.103   3.931  71.772  1.00  0.00    -0.178 OA 
HETATM   11  C   UNL     1     -10.439   6.142  72.646  1.00  0.00    -0.233 A  
HETATM   12  C   UNL     1     -10.483   5.229  71.598  1.00  0.00    -0.214 A  
ENDBRANCH   3   5
BRANCH   4  13
HETATM   13  C   UNL     1     -12.579  11.439  71.227  1.00  0.00    -0.480 A  
HETATM   14  C   UNL     1     -11.980  12.077  70.135  1.00  0.00    -0.401 A  
HETATM   15  C   UNL     1     -13.336  12.190  72.136  1.00  0.00    -0.438 A  
HETATM   16  C   UNL     1     -12.850  14.191  70.889  1.00  0.00    -0.334 A  
HETATM   17  H   UNL     1     -12.509  15.963  69.968  1.00  0.00     0.000 HD 
HETATM   18  C   UNL     1     -13.472  13.570  71.967  1.00  0.00    -0.584 A  
HETATM   19  O   UNL     1     -12.934  15.539  70.704  1.00  0.00    -0.462 OA 
HETATM   20  C   UNL     1     -12.114  13.457  69.967  1.00  0.00    -0.404 A  
ENDBRANCH   4  13
BRANCH   4  21
HETATM   21  C   UNL     1     -13.412   9.372  72.360  1.00  0.00    -0.506 C  
HETATM   22  C   UNL     1     -14.380   8.430  71.655  1.00  0.00    -0.536 C  
ENDBRANCH   4  21
ENDBRANCH   2   3
TORSDOF 4
ENDMDL
MODEL       28
REMARK 921   NORMALIZED FREE ENERGY PREDICTED BY IDOCK:   -5.38 KCAL/MOL
REMARK 922        TOTAL FREE ENERGY PREDICTED BY IDOCK:   -7.60 KCAL/MOL
REMARK 923 INTER-LIGAND FREE ENERGY PREDICTED BY IDOCK:   -6.26 KCAL/MOL
REMARK 924 INTRA-LIGAND FREE ENERGY PREDICTED BY IDOCK:   -1.34 KCAL/MOL
REMARK 927      BINDING AFFINITY PREDICTED BY RF-SCORE:    0.00 PKD
ROOT
HETATM    1  C   UNL     1      -7.564  13.662  67.335  1.00  0.00    -0.144 C  
HETATM    2  C   UNL     1      -8.910  13.604  68.045  1.00  0.00    -0.187 C  
ENDROOT
BRANCH   2   3
HETATM    3  C   UNL     1     -10.093  14.010  67.186  1.00  0.00    -0.259 C  
HETATM    4  C   UNL     1     -10.923  13.161  66.530  1.00  0.00    -0.303 C  
BRANCH   3   5
HETATM    5  C   UNL     1     -10.369  15.461  67.160  1.00  0.00    -0.271 A  
HETATM    6  H   UNL     1     -11.050  20.013  68.103  1.00  0.00     0.000 HD 
HETATM    7  C   UNL     1     -10.045  16.227  66.033  1.00  0.00    -0.377 A  
HETATM    8  C   UNL     1     -10.880  16.097  68.301  1.00  0.00    -0.326 A  
HETATM    9  C   UNL     1     -11.022  17.484  68.327  1.00  0.00    -0.103 A  
HETATM   10  O   UNL     1     -10.730  19.592  67.313  1.00  0.00    -0.471 OA 
HETATM   11  C   UNL     1     -10.178  17.618  66.063  1.00  0.00    -0.301 A  
HETATM   12  C   UNL     1     -10.646  18.235  67.219  1.00  0.00    -0.381 A  
ENDBRANCH   3   5
BRANCH   4  13
HETATM   13  C   UNL     1     -10.665  11.706  66.494  1.00  0.00    -0.313 A  
HETATM   14  C   UNL     1     -11.013  10.904  67.587  1.00  0.00    -0.350 A  
HETATM   15  C   UNL     1     -10.011  11.131  65.395  1.00  0.00    -0.309 A  
HETATM   16  C   UNL     1     -10.021   8.995  66.508  1.00  0.00    -0.285 A  
HETATM   17  H   UNL     1      -9.924   7.143  67.321  1.00  0.00     0.000 HD 
HETATM   18  C   UNL     1      -9.689   9.771  65.402  1.00  0.00    -0.383 A  
HETATM   19  O   UNL     1      -9.697   7.672  66.566  1.00  0.00    -0.208 OA 
HETATM   20  C   UNL     1     -10.687   9.547  67.595  1.00  0.00    -0.314 A  
ENDBRANCH   4  13
BRANCH   4  21
HETATM   21  C   UNL     1     -12.237  13.542  65.854  1.00  0.00    -0.507 C  
HETATM   22  C   UNL     1     -12.150  13.711  64.343  1.00  0.00    -0.470 C  
ENDBRANCH   4  21
ENDBRANCH   2   3
TORSDOF 4
ENDMDL
MODEL       29
REMARK 921   NORMALIZED FREE ENERGY PREDICTED BY IDOCK:   -5.38 KCAL/MOL
REMARK 922        TOTAL FREE ENERGY PREDICTED BY IDOCK:   -7.60 KCAL/MOL
REMARK 923 INTER-LIGAND FREE ENERGY PREDICTED BY IDOCK:   -6.16 KCAL/MOL
REMARK 924 INTRA-LIGAND FREE ENERGY PREDICTED BY IDOCK:   -1.44 KCAL/MOL
REMARK 927      BINDING AFFINITY PREDICTED BY RF-SCORE:    0.00 PKD
ROOT
HETATM    1  C   UNL     1     -12.550  13.834  65.357  1.00  0.00    -0.534 C  
HETATM    2  C   UNL     1     -12.245  14.117  66.822  1.00  0.00    -0.429 C  
ENDROOT
BRANCH   2   3
HETATM    3  C   UNL     1     -10.807  14.515  67.100  1.00  0.00    -0.296 C  
HETATM    4  C   UNL     1      -9.763  13.661  67.236  1.00  0.00    -0.243 C  
BRANCH   3   5
HETATM    5  C   UNL     1     -10.566  15.972  67.137  1.00  0.00    -0.305 A  
HETATM    6  H   UNL     1     -10.292  20.592  66.334  1.00  0.00     0.000 HD 
HETATM    7  C   UNL     1     -10.548  16.660  68.357  1.00  0.00    -0.343 A  
HETATM    8  C   UNL     1     -10.436  16.690  65.940  1.00  0.00    -0.324 A  
HETATM    9  C   UNL     1     -10.336  18.081  65.963  1.00  0.00    -0.333 A  
HETATM   10  O   UNL     1     -10.350  20.115  67.154  1.00  0.00    -0.419 OA 
HETATM   11  C   UNL     1     -10.458  18.054  68.380  1.00  0.00    -0.326 A  
HETATM   12  C   UNL     1     -10.374  18.753  67.180  1.00  0.00    -0.404 A  
ENDBRANCH   3   5
BRANCH   4  13
HETATM   13  C   UNL     1      -9.961  12.196  67.247  1.00  0.00    -0.211 A  
HETATM   14  C   UNL     1      -9.737  11.449  66.085  1.00  0.00    -0.248 A  
HETATM   15  C   UNL     1     -10.437  11.555  68.399  1.00  0.00    -0.226 A  
HETATM   16  C   UNL     1     -10.503   9.463  67.208  1.00  0.00    -0.264 A  
HETATM   17  H   UNL     1     -10.643   7.639  66.339  1.00  0.00     0.000 HD 
HETATM   18  C   UNL     1     -10.708  10.184  68.380  1.00  0.00    -0.266 A  
HETATM   19  O   UNL     1     -10.784   8.131  67.139  1.00  0.00    -0.316 OA 
HETATM   20  C   UNL     1     -10.011  10.081  66.064  1.00  0.00    -0.334 A  
ENDBRANCH   4  13
BRANCH   4  21
HETATM   21  C   UNL     1      -8.289  14.055  67.292  1.00  0.00    -0.209 C  
HETATM   22  C   UNL     1      -7.698  14.116  68.694  1.00  0.00    -0.135 C  
ENDBRANCH   4  21
ENDBRANCH   2   3
TORSDOF 4
ENDMDL
MODEL       30
REMARK 921   NORMALIZED FREE ENERGY PREDICTED BY IDOCK:   -5.37 KCAL/MOL
REMARK 922        TOTAL FREE ENERGY PREDICTED BY IDOCK:   -7.58 KCAL/MOL
REMARK 923 INTER-LIGAND FREE ENERGY PREDICTED BY IDOCK:   -6.17 KCAL/MOL
REMARK 924 INTRA-LIGAND FREE ENERGY PREDICTED BY IDOCK:   -1.42 KCAL/MOL
REMARK 927      BINDING AFFINITY PREDICTED BY RF-SCORE:    0.00 PKD
ROOT
HETATM    1  C   UNL     1     -12.092  13.805  64.545  1.00  0.00    -0.463 C  
HETATM    2  C   UNL     1     -12.184  13.497  66.033  1.00  0.00    -0.493 C  
ENDROOT
BRANCH   2   3
HETATM    3  C   UNL     1     -10.894  12.994  66.653  1.00  0.00    -0.291 C  
HETATM    4  C   UNL     1      -9.987  13.753  67.317  1.00  0.00    -0.239 C  
BRANCH   3   5
HETATM    5  C   UNL     1     -10.696  11.532  66.569  1.00  0.00    -0.318 A  
HETATM    6  H   UNL     1      -9.223   7.148  65.749  1.00  0.00     0.000 HD 
HETATM    7  C   UNL     1     -11.096  10.699  67.622  1.00  0.00    -0.385 A  
HETATM    8  C   UNL     1     -10.029  10.978  65.467  1.00  0.00    -0.308 A  
HETATM    9  C   UNL     1      -9.727   9.617  65.442  1.00  0.00    -0.365 A  
HETATM   10  O   UNL     1      -9.702   7.505  66.488  1.00  0.00    -0.203 OA 
HETATM   11  C   UNL     1     -10.783   9.337  67.601  1.00  0.00    -0.276 A  
HETATM   12  C   UNL     1     -10.082   8.814  66.519  1.00  0.00    -0.279 A  
ENDBRANCH   3   5
BRANCH   4  13
HETATM   13  C   UNL     1     -10.121  15.223  67.393  1.00  0.00    -0.232 A  
HETATM   14  C   UNL     1     -10.703  15.817  68.519  1.00  0.00    -0.274 A  
HETATM   15  C   UNL     1      -9.728  16.027  66.314  1.00  0.00    -0.332 A  
HETATM   16  C   UNL     1     -10.540  17.977  67.468  1.00  0.00    -0.388 A  
HETATM   17  H   UNL     1     -11.200  19.705  68.295  1.00  0.00     0.000 HD 
HETATM   18  C   UNL     1      -9.938  17.408  66.351  1.00  0.00    -0.322 A  
HETATM   19  O   UNL     1     -10.789  19.316  67.532  1.00  0.00    -0.473 OA 
HETATM   20  C   UNL     1     -10.915  17.197  68.555  1.00  0.00    -0.204 A  
ENDBRANCH   4  13
BRANCH   4  21
HETATM   21  C   UNL     1      -8.809  13.228  68.132  1.00  0.00    -0.187 C  
HETATM   22  C   UNL     1      -7.469  13.260  67.410  1.00  0.00    -0.134 C  
ENDBRANCH   4  21
ENDBRANCH   2   3
TORSDOF 4
ENDMDL
MODEL       31
REMARK 921   NORMALIZED FREE ENERGY PREDICTED BY IDOCK:   -5.36 KCAL/MOL
REMARK 922        TOTAL FREE ENERGY PREDICTED BY IDOCK:   -7.58 KCAL/MOL
REMARK 923 INTER-LIGAND FREE ENERGY PREDICTED BY IDOCK:   -6.14 KCAL/MOL
REMARK 924 INTRA-LIGAND FREE ENERGY PREDICTED BY IDOCK:   -1.43 KCAL/MOL
REMARK 927      BINDING AFFINITY PREDICTED BY RF-SCORE:    0.00 PKD
ROOT
HETATM    1  C   UNL     1     -12.604  13.836  65.084  1.00  0.00    -0.471 C  
HETATM    2  C   UNL     1     -12.338  13.995  66.574  1.00  0.00    -0.442 C  
ENDROOT
BRANCH   2   3
HETATM    3  C   UNL     1     -10.906  14.354  66.924  1.00  0.00    -0.301 C  
HETATM    4  C   UNL     1      -9.873  13.481  67.020  1.00  0.00    -0.251 C  
BRANCH   3   5
HETATM    5  C   UNL     1     -10.653  15.801  67.085  1.00  0.00    -0.313 A  
HETATM    6  H   UNL     1     -10.298  20.465  66.656  1.00  0.00     0.000 HD 
HETATM    7  C   UNL     1     -10.689  16.393  68.354  1.00  0.00    -0.327 A  
HETATM    8  C   UNL     1     -10.458  16.607  65.954  1.00  0.00    -0.324 A  
HETATM    9  C   UNL     1     -10.347  17.991  66.091  1.00  0.00    -0.368 A  
HETATM   10  O   UNL     1     -10.400  19.928  67.433  1.00  0.00    -0.412 OA 
HETATM   11  C   UNL     1     -10.587  17.780  68.489  1.00  0.00    -0.260 A  
HETATM   12  C   UNL     1     -10.438  18.567  67.352  1.00  0.00    -0.419 A  
ENDBRANCH   3   5
BRANCH   4  13
HETATM   13  C   UNL     1     -10.084  12.022  66.907  1.00  0.00    -0.224 A  
HETATM   14  C   UNL     1     -10.565  11.296  68.003  1.00  0.00    -0.230 A  
HETATM   15  C   UNL     1      -9.744  11.347  65.727  1.00  0.00    -0.263 A  
HETATM   16  C   UNL     1     -10.317   9.249  66.761  1.00  0.00    -0.226 A  
HETATM   17  H   UNL     1     -10.728   7.407  67.497  1.00  0.00     0.000 HD 
HETATM   18  C   UNL     1      -9.861   9.956  65.653  1.00  0.00    -0.368 A  
HETATM   19  O   UNL     1     -10.417   7.890  66.741  1.00  0.00    -0.327 OA 
HETATM   20  C   UNL     1     -10.678   9.907  67.931  1.00  0.00    -0.316 A  
ENDBRANCH   4  13
BRANCH   4  21
HETATM   21  C   UNL     1      -8.399  13.853  67.148  1.00  0.00    -0.171 C  
HETATM   22  C   UNL     1      -7.819  13.690  68.547  1.00  0.00    -0.131 C  
ENDBRANCH   4  21
ENDBRANCH   2   3
TORSDOF 4
ENDMDL
MODEL       32
REMARK 921   NORMALIZED FREE ENERGY PREDICTED BY IDOCK:   -5.36 KCAL/MOL
REMARK 922        TOTAL FREE ENERGY PREDICTED BY IDOCK:   -7.57 KCAL/MOL
REMARK 923 INTER-LIGAND FREE ENERGY PREDICTED BY IDOCK:   -6.25 KCAL/MOL
REMARK 924 INTRA-LIGAND FREE ENERGY PREDICTED BY IDOCK:   -1.32 KCAL/MOL
REMARK 927      BINDING AFFINITY PREDICTED BY RF-SCORE:    0.00 PKD
ROOT
HETATM    1  C   UNL     1      -9.116   9.914  64.767  1.00  0.00    -0.283 C  
HETATM    2  C   UNL     1      -8.863  10.856  65.936  1.00  0.00    -0.197 C  
ENDROOT
BRANCH   2   3
HETATM    3  C   UNL     1     -10.105  11.548  66.467  1.00  0.00    -0.246 C  
HETATM    4  C   UNL     1     -10.782  11.205  67.591  1.00  0.00    -0.273 C  
BRANCH   3   5
HETATM    5  C   UNL     1     -10.522  12.742  65.702  1.00  0.00    -0.297 A  
HETATM    6  H   UNL     1     -12.795  16.102  63.335  1.00  0.00     0.000 HD 
HETATM    7  C   UNL     1      -9.868  13.967  65.884  1.00  0.00    -0.302 A  
HETATM    8  C   UNL     1     -11.633  12.674  64.850  1.00  0.00    -0.376 A  
HETATM    9  C   UNL     1     -12.109  13.826  64.224  1.00  0.00    -0.481 A  
HETATM   10  O   UNL     1     -12.024  16.157  63.887  1.00  0.00    -0.947 OA 
HETATM   11  C   UNL     1     -10.352  15.123  65.265  1.00  0.00    -0.425 A  
HETATM   12  C   UNL     1     -11.481  15.044  64.457  1.00  0.00    -0.318 A  
ENDBRANCH   3   5
BRANCH   4  13
HETATM   13  C   UNL     1     -10.427   9.997  68.366  1.00  0.00    -0.235 A  
HETATM   14  C   UNL     1      -9.681  10.114  69.544  1.00  0.00    -0.251 A  
HETATM   15  C   UNL     1     -10.776   8.725  67.893  1.00  0.00    -0.171 A  
HETATM   16  C   UNL     1      -9.601   7.716  69.737  1.00  0.00    -0.163 A  
HETATM   17  H   UNL     1      -8.633   6.718  71.209  1.00  0.00     0.000 HD 
HETATM   18  C   UNL     1     -10.363   7.581  68.581  1.00  0.00    -0.218 A  
HETATM   19  O   UNL     1      -9.153   6.625  70.420  1.00  0.00    -0.151 OA 
HETATM   20  C   UNL     1      -9.265   8.971  70.230  1.00  0.00    -0.229 A  
ENDBRANCH   4  13
BRANCH   4  21
HETATM   21  C   UNL     1     -11.887  12.023  68.252  1.00  0.00    -0.351 C  
HETATM   22  C   UNL     1     -11.397  13.183  69.109  1.00  0.00    -0.335 C  
ENDBRANCH   4  21
ENDBRANCH   2   3
TORSDOF 4
ENDMDL
MODEL       33
REMARK 921   NORMALIZED FREE ENERGY PREDICTED BY IDOCK:   -5.35 KCAL/MOL
REMARK 922        TOTAL FREE ENERGY PREDICTED BY IDOCK:   -7.56 KCAL/MOL
REMARK 923 INTER-LIGAND FREE ENERGY PREDICTED BY IDOCK:   -6.14 KCAL/MOL
REMARK 924 INTRA-LIGAND FREE ENERGY PREDICTED BY IDOCK:   -1.42 KCAL/MOL
REMARK 927      BINDING AFFINITY PREDICTED BY RF-SCORE:    0.00 PKD
ROOT
HETATM    1  C   UNL     1      -7.943  13.920  68.698  1.00  0.00    -0.109 C  
HETATM    2  C   UNL     1      -8.365  13.842  67.238  1.00  0.00    -0.199 C  
ENDROOT
BRANCH   2   3
HETATM    3  C   UNL     1      -9.820  13.468  67.021  1.00  0.00    -0.251 C  
HETATM    4  C   UNL     1     -10.844  14.341  66.851  1.00  0.00    -0.298 C  
BRANCH   3   5
HETATM    5  C   UNL     1     -10.075  12.017  66.912  1.00  0.00    -0.224 A  
HETATM    6  H   UNL     1     -10.074   7.427  65.912  1.00  0.00     0.000 HD 
HETATM    7  C   UNL     1     -10.570  11.298  68.008  1.00  0.00    -0.230 A  
HETATM    8  C   UNL     1      -9.741  11.333  65.735  1.00  0.00    -0.263 A  
HETATM    9  C   UNL     1      -9.859   9.945  65.671  1.00  0.00    -0.368 A  
HETATM   10  O   UNL     1     -10.331   7.881  66.706  1.00  0.00    -0.309 OA 
HETATM   11  C   UNL     1     -10.679   9.906  67.948  1.00  0.00    -0.316 A  
HETATM   12  C   UNL     1     -10.302   9.241  66.785  1.00  0.00    -0.226 A  
ENDBRANCH   3   5
BRANCH   4  13
HETATM   13  C   UNL     1     -10.645  15.798  66.991  1.00  0.00    -0.316 A  
HETATM   14  C   UNL     1     -10.732  16.400  68.251  1.00  0.00    -0.337 A  
HETATM   15  C   UNL     1     -10.434  16.596  65.858  1.00  0.00    -0.324 A  
HETATM   16  C   UNL     1     -10.449  18.567  67.241  1.00  0.00    -0.419 A  
HETATM   17  H   UNL     1     -10.465  20.317  68.261  1.00  0.00     0.000 HD 
HETATM   18  C   UNL     1     -10.335  17.984  65.983  1.00  0.00    -0.333 A  
HETATM   19  O   UNL     1     -10.388  19.919  67.402  1.00  0.00    -0.412 OA 
HETATM   20  C   UNL     1     -10.637  17.788  68.376  1.00  0.00    -0.297 A  
ENDBRANCH   4  13
BRANCH   4  21
HETATM   21  C   UNL     1     -12.260  13.980  66.412  1.00  0.00    -0.492 C  
HETATM   22  C   UNL     1     -12.444  13.837  64.907  1.00  0.00    -0.420 C  
ENDBRANCH   4  21
ENDBRANCH   2   3
TORSDOF 4
ENDMDL
MODEL       34
REMARK 921   NORMALIZED FREE ENERGY PREDICTED BY IDOCK:   -5.35 KCAL/MOL
REMARK 922        TOTAL FREE ENERGY PREDICTED BY IDOCK:   -7.56 KCAL/MOL
REMARK 923 INTER-LIGAND FREE ENERGY PREDICTED BY IDOCK:   -6.33 KCAL/MOL
REMARK 924 INTRA-LIGAND FREE ENERGY PREDICTED BY IDOCK:   -1.23 KCAL/MOL
REMARK 927      BINDING AFFINITY PREDICTED BY RF-SCORE:    0.00 PKD
ROOT
HETATM    1  C   UNL     1      -9.106   8.762  68.545  1.00  0.00    -0.138 C  
HETATM    2  C   UNL     1      -9.397   9.837  69.584  1.00  0.00    -0.237 C  
ENDROOT
BRANCH   2   3
HETATM    3  C   UNL     1     -10.863  10.209  69.711  1.00  0.00    -0.320 C  
HETATM    4  C   UNL     1     -11.753   9.639  70.561  1.00  0.00    -0.312 C  
BRANCH   3   5
HETATM    5  C   UNL     1     -11.286  11.350  68.873  1.00  0.00    -0.310 A  
HETATM    6  H   UNL     1     -12.010  15.526  66.846  1.00  0.00     0.000 HD 
HETATM    7  C   UNL     1     -11.562  11.169  67.512  1.00  0.00    -0.220 A  
HETATM    8  C   UNL     1     -11.330  12.641  69.419  1.00  0.00    -0.273 A  
HETATM    9  C   UNL     1     -11.604  13.739  68.603  1.00  0.00    -0.369 A  
HETATM   10  O   UNL     1     -12.011  14.654  66.470  1.00  0.00    -0.362 OA 
HETATM   11  C   UNL     1     -11.826  12.270  66.693  1.00  0.00    -0.362 A  
HETATM   12  C   UNL     1     -11.823  13.548  67.244  1.00  0.00    -0.385 A  
ENDBRANCH   3   5
BRANCH   4  13
HETATM   13  C   UNL     1     -11.388   8.470  71.388  1.00  0.00    -0.330 A  
HETATM   14  C   UNL     1     -11.899   7.204  71.078  1.00  0.00    -0.373 A  
HETATM   15  C   UNL     1     -10.583   8.630  72.524  1.00  0.00    -0.212 A  
HETATM   16  C   UNL     1     -10.849   6.294  73.044  1.00  0.00    -0.259 A  
HETATM   17  H   UNL     1     -11.000   4.362  73.632  1.00  0.00     0.000 HD 
HETATM   18  C   UNL     1     -10.312   7.539  73.355  1.00  0.00    -0.405 A  
HETATM   19  O   UNL     1     -10.634   5.212  73.844  1.00  0.00    -0.253 OA 
HETATM   20  C   UNL     1     -11.631   6.115  71.909  1.00  0.00    -0.352 A  
ENDBRANCH   4  13
BRANCH   4  21
HETATM   21  C   UNL     1     -13.160  10.151  70.855  1.00  0.00    -0.412 C  
HETATM   22  C   UNL     1     -13.261  11.080  72.058  1.00  0.00    -0.447 C  
ENDBRANCH   4  21
ENDBRANCH   2   3
TORSDOF 4
ENDMDL
MODEL       35
REMARK 921   NORMALIZED FREE ENERGY PREDICTED BY IDOCK:   -5.34 KCAL/MOL
REMARK 922        TOTAL FREE ENERGY PREDICTED BY IDOCK:   -7.55 KCAL/MOL
REMARK 923 INTER-LIGAND FREE ENERGY PREDICTED BY IDOCK:   -6.44 KCAL/MOL
REMARK 924 INTRA-LIGAND FREE ENERGY PREDICTED BY IDOCK:   -1.11 KCAL/MOL
REMARK 927      BINDING AFFINITY PREDICTED BY RF-SCORE:    0.00 PKD
ROOT
HETATM    1  C   UNL     1      -8.276  10.402  69.621  1.00  0.00    -0.099 C  
HETATM    2  C   UNL     1      -9.467   9.656  69.036  1.00  0.00    -0.168 C  
ENDROOT
BRANCH   2   3
HETATM    3  C   UNL     1     -10.683   9.600  69.942  1.00  0.00    -0.283 C  
HETATM    4  C   UNL     1     -11.735  10.455  69.906  1.00  0.00    -0.341 C  
BRANCH   3   5
HETATM    5  C   UNL     1     -10.711   8.451  70.869  1.00  0.00    -0.260 A  
HETATM    6  H   UNL     1     -11.023   5.524  74.531  1.00  0.00     0.000 HD 
HETATM    7  C   UNL     1     -11.133   7.190  70.428  1.00  0.00    -0.309 A  
HETATM    8  C   UNL     1     -10.393   8.635  72.223  1.00  0.00    -0.376 A  
HETATM    9  C   UNL     1     -10.541   7.584  73.128  1.00  0.00    -0.442 A  
HETATM   10  O   UNL     1     -11.214   5.378  73.612  1.00  0.00    -0.235 OA 
HETATM   11  C   UNL     1     -11.291   6.140  71.337  1.00  0.00    -0.336 A  
HETATM   12  C   UNL     1     -11.013   6.355  72.683  1.00  0.00    -0.253 A  
ENDBRANCH   3   5
BRANCH   4  13
HETATM   13  C   UNL     1     -11.735  11.641  69.024  1.00  0.00    -0.388 A  
HETATM   14  C   UNL     1     -11.772  11.481  67.634  1.00  0.00    -0.283 A  
HETATM   15  C   UNL     1     -11.631  12.928  69.569  1.00  0.00    -0.348 A  
HETATM   16  C   UNL     1     -11.554  13.862  67.351  1.00  0.00    -0.368 A  
HETATM   17  H   UNL     1     -11.448  14.796  65.557  1.00  0.00     0.000 HD 
HETATM   18  C   UNL     1     -11.541  14.042  68.730  1.00  0.00    -0.366 A  
HETATM   19  O   UNL     1     -11.439  14.919  66.498  1.00  0.00    -0.345 OA 
HETATM   20  C   UNL     1     -11.679  12.594  66.796  1.00  0.00    -0.460 A  
ENDBRANCH   4  13
BRANCH   4  21
HETATM   21  C   UNL     1     -13.055  10.278  70.652  1.00  0.00    -0.292 C  
HETATM   22  C   UNL     1     -13.179  11.096  71.930  1.00  0.00    -0.488 C  
ENDBRANCH   4  21
ENDBRANCH   2   3
TORSDOF 4
ENDMDL
MODEL       36
REMARK 921   NORMALIZED FREE ENERGY PREDICTED BY IDOCK:   -5.33 KCAL/MOL
REMARK 922        TOTAL FREE ENERGY PREDICTED BY IDOCK:   -7.54 KCAL/MOL
REMARK 923 INTER-LIGAND FREE ENERGY PREDICTED BY IDOCK:   -6.13 KCAL/MOL
REMARK 924 INTRA-LIGAND FREE ENERGY PREDICTED BY IDOCK:   -1.40 KCAL/MOL
REMARK 927      BINDING AFFINITY PREDICTED BY RF-SCORE:    0.00 PKD
ROOT
HETATM    1  C   UNL     1      -7.973  13.077  68.685  1.00  0.00    -0.027 C  
HETATM    2  C   UNL     1      -8.206  13.667  67.301  1.00  0.00    -0.164 C  
ENDROOT
BRANCH   2   3
HETATM    3  C   UNL     1      -9.630  14.124  67.042  1.00  0.00    -0.264 C  
HETATM    4  C   UNL     1     -10.686  13.312  66.786  1.00  0.00    -0.279 C  
BRANCH   3   5
HETATM    5  C   UNL     1      -9.845  15.579  67.172  1.00  0.00    -0.236 A  
HETATM    6  H   UNL     1     -10.932  20.117  66.627  1.00  0.00     0.000 HD 
HETATM    7  C   UNL     1     -10.124  16.149  68.421  1.00  0.00    -0.236 A  
HETATM    8  C   UNL     1      -9.856  16.391  66.029  1.00  0.00    -0.362 A  
HETATM    9  C   UNL     1     -10.185  17.742  66.130  1.00  0.00    -0.339 A  
HETATM   10  O   UNL     1     -10.900  19.585  67.414  1.00  0.00    -0.486 OA 
HETATM   11  C   UNL     1     -10.464  17.500  68.522  1.00  0.00    -0.361 A  
HETATM   12  C   UNL     1     -10.511  18.279  67.370  1.00  0.00    -0.409 A  
ENDBRANCH   3   5
BRANCH   4  13
HETATM   13  C   UNL     1     -10.513  11.855  66.607  1.00  0.00    -0.250 A  
HETATM   14  C   UNL     1     -10.719  10.987  67.685  1.00  0.00    -0.281 A  
HETATM   15  C   UNL     1     -10.077  11.340  65.379  1.00  0.00    -0.314 A  
HETATM   16  C   UNL     1     -10.016   9.127  66.328  1.00  0.00    -0.282 A  
HETATM   17  H   UNL     1      -9.885   7.216  66.985  1.00  0.00     0.000 HD 
HETATM   18  C   UNL     1      -9.829   9.972  65.238  1.00  0.00    -0.388 A  
HETATM   19  O   UNL     1      -9.757   7.792  66.241  1.00  0.00    -0.176 OA 
HETATM   20  C   UNL     1     -10.468   9.621  67.546  1.00  0.00    -0.321 A  
ENDBRANCH   4  13
BRANCH   4  21
HETATM   21  C   UNL     1     -12.150  13.739  66.747  1.00  0.00    -0.460 C  
HETATM   22  C   UNL     1     -12.700  14.006  65.352  1.00  0.00    -0.499 C  
ENDBRANCH   4  21
ENDBRANCH   2   3
TORSDOF 4
ENDMDL
MODEL       37
REMARK 921   NORMALIZED FREE ENERGY PREDICTED BY IDOCK:   -5.32 KCAL/MOL
REMARK 922        TOTAL FREE ENERGY PREDICTED BY IDOCK:   -7.52 KCAL/MOL
REMARK 923 INTER-LIGAND FREE ENERGY PREDICTED BY IDOCK:   -6.18 KCAL/MOL
REMARK 924 INTRA-LIGAND FREE ENERGY PREDICTED BY IDOCK:   -1.34 KCAL/MOL
REMARK 927      BINDING AFFINITY PREDICTED BY RF-SCORE:    0.00 PKD
ROOT
HETATM    1  C   UNL     1     -12.262  13.614  64.540  1.00  0.00    -0.444 C  
HETATM    2  C   UNL     1     -12.246  13.488  66.057  1.00  0.00    -0.493 C  
ENDROOT
BRANCH   2   3
HETATM    3  C   UNL     1     -10.896  13.117  66.644  1.00  0.00    -0.292 C  
HETATM    4  C   UNL     1     -10.019  13.979  67.216  1.00  0.00    -0.242 C  
BRANCH   3   5
HETATM    5  C   UNL     1     -10.598  11.670  66.639  1.00  0.00    -0.281 A  
HETATM    6  H   UNL     1     -10.539   7.002  67.165  1.00  0.00     0.000 HD 
HETATM    7  C   UNL     1      -9.933  11.084  65.555  1.00  0.00    -0.308 A  
HETATM    8  C   UNL     1     -11.055  10.858  67.687  1.00  0.00    -0.376 A  
HETATM    9  C   UNL     1     -10.888   9.474  67.626  1.00  0.00    -0.253 A  
HETATM   10  O   UNL     1     -10.199   7.544  66.462  1.00  0.00    -0.210 OA 
HETATM   11  C   UNL     1      -9.776   9.697  65.489  1.00  0.00    -0.372 A  
HETATM   12  C   UNL     1     -10.274   8.904  66.517  1.00  0.00    -0.249 A  
ENDBRANCH   3   5
BRANCH   4  13
HETATM   13  C   UNL     1     -10.256  15.437  67.208  1.00  0.00    -0.254 A  
HETATM   14  C   UNL     1     -10.085  16.169  66.027  1.00  0.00    -0.372 A  
HETATM   15  C   UNL     1     -10.587  16.107  68.394  1.00  0.00    -0.286 A  
HETATM   16  C   UNL     1     -10.525  18.211  67.224  1.00  0.00    -0.393 A  
HETATM   17  H   UNL     1     -10.484  20.057  66.391  1.00  0.00     0.000 HD 
HETATM   18  C   UNL     1     -10.723  17.498  68.401  1.00  0.00    -0.280 A  
HETATM   19  O   UNL     1     -10.619  19.570  67.195  1.00  0.00    -0.439 OA 
HETATM   20  C   UNL     1     -10.217  17.559  66.036  1.00  0.00    -0.306 A  
ENDBRANCH   4  13
BRANCH   4  21
HETATM   21  C   UNL     1      -8.771  13.589  68.004  1.00  0.00    -0.181 C  
HETATM   22  C   UNL     1      -7.461  14.092  67.412  1.00  0.00    -0.155 C  
ENDBRANCH   4  21
ENDBRANCH   2   3
TORSDOF 4
ENDMDL
MODEL       38
REMARK 921   NORMALIZED FREE ENERGY PREDICTED BY IDOCK:   -5.29 KCAL/MOL
REMARK 922        TOTAL FREE ENERGY PREDICTED BY IDOCK:   -7.48 KCAL/MOL
REMARK 923 INTER-LIGAND FREE ENERGY PREDICTED BY IDOCK:   -6.05 KCAL/MOL
REMARK 924 INTRA-LIGAND FREE ENERGY PREDICTED BY IDOCK:   -1.43 KCAL/MOL
REMARK 927      BINDING AFFINITY PREDICTED BY RF-SCORE:    0.00 PKD
ROOT
HETATM    1  C   UNL     1      -7.793  14.156  68.683  1.00  0.00    -0.137 C  
HETATM    2  C   UNL     1      -8.301  14.016  67.255  1.00  0.00    -0.209 C  
ENDROOT
BRANCH   2   3
HETATM    3  C   UNL     1      -9.732  13.523  67.141  1.00  0.00    -0.244 C  
HETATM    4  C   UNL     1     -10.829  14.308  66.999  1.00  0.00    -0.297 C  
BRANCH   3   5
HETATM    5  C   UNL     1      -9.879  12.054  67.107  1.00  0.00    -0.205 A  
HETATM    6  H   UNL     1     -11.074   7.553  67.723  1.00  0.00     0.000 HD 
HETATM    7  C   UNL     1      -9.671  11.346  65.916  1.00  0.00    -0.257 A  
HETATM    8  C   UNL     1     -10.311  11.366  68.250  1.00  0.00    -0.209 A  
HETATM    9  C   UNL     1     -10.574   9.997  68.188  1.00  0.00    -0.268 A  
HETATM   10  O   UNL     1     -10.754   8.001  66.949  1.00  0.00    -0.322 OA 
HETATM   11  C   UNL     1      -9.944   9.977  65.852  1.00  0.00    -0.339 A  
HETATM   12  C   UNL     1     -10.414   9.320  66.985  1.00  0.00    -0.233 A  
ENDBRANCH   3   5
BRANCH   4  13
HETATM   13  C   UNL     1     -10.737  15.781  67.067  1.00  0.00    -0.306 A  
HETATM   14  C   UNL     1     -10.513  16.525  65.903  1.00  0.00    -0.335 A  
HETATM   15  C   UNL     1     -10.808  16.438  68.303  1.00  0.00    -0.347 A  
HETATM   16  C   UNL     1     -10.385  18.542  67.211  1.00  0.00    -0.398 A  
HETATM   17  H   UNL     1     -10.010  20.380  66.446  1.00  0.00     0.000 HD 
HETATM   18  C   UNL     1     -10.632  17.822  68.375  1.00  0.00    -0.297 A  
HETATM   19  O   UNL     1     -10.178  19.888  67.242  1.00  0.00    -0.390 OA 
HETATM   20  C   UNL     1     -10.334  17.907  65.975  1.00  0.00    -0.318 A  
ENDBRANCH   4  13
BRANCH   4  21
HETATM   21  C   UNL     1     -12.236  13.822  66.660  1.00  0.00    -0.454 C  
HETATM   22  C   UNL     1     -12.523  13.689  65.171  1.00  0.00    -0.488 C  
ENDBRANCH   4  21
ENDBRANCH   2   3
TORSDOF 4
ENDMDL
MODEL       39
REMARK 921   NORMALIZED FREE ENERGY PREDICTED BY IDOCK:   -5.25 KCAL/MOL
REMARK 922        TOTAL FREE ENERGY PREDICTED BY IDOCK:   -7.43 KCAL/MOL
REMARK 923 INTER-LIGAND FREE ENERGY PREDICTED BY IDOCK:   -6.51 KCAL/MOL
REMARK 924 INTRA-LIGAND FREE ENERGY PREDICTED BY IDOCK:   -0.92 KCAL/MOL
REMARK 927      BINDING AFFINITY PREDICTED BY RF-SCORE:    0.00 PKD
ROOT
HETATM    1  C   UNL     1      -7.683  14.474  67.173  1.00  0.00    -0.093 C  
HETATM    2  C   UNL     1      -8.473  15.546  67.912  1.00  0.00    -0.146 C  
ENDROOT
BRANCH   2   3
HETATM    3  C   UNL     1      -9.502  16.268  67.062  1.00  0.00    -0.237 C  
HETATM    4  C   UNL     1      -9.485  17.588  66.750  1.00  0.00    -0.282 C  
BRANCH   3   5
HETATM    5  C   UNL     1     -10.546  15.397  66.483  1.00  0.00    -0.306 A  
HETATM    6  H   UNL     1     -13.150  12.463  63.899  1.00  0.00     0.000 HD 
HETATM    7  C   UNL     1     -11.436  14.704  67.313  1.00  0.00    -0.386 A  
HETATM    8  C   UNL     1     -10.597  15.193  65.096  1.00  0.00    -0.447 A  
HETATM    9  C   UNL     1     -11.497  14.274  64.555  1.00  0.00    -0.363 A  
HETATM   10  O   UNL     1     -13.146  12.613  64.837  1.00  0.00    -0.850 OA 
HETATM   11  C   UNL     1     -12.329  13.776  66.772  1.00  0.00    -0.365 A  
HETATM   12  C   UNL     1     -12.336  13.555  65.399  1.00  0.00    -0.478 A  
ENDBRANCH   3   5
BRANCH   4  13
HETATM   13  C   UNL     1      -8.485  18.505  67.337  1.00  0.00    -0.265 A  
HETATM   14  C   UNL     1      -7.358  18.879  66.597  1.00  0.00    -0.239 A  
HETATM   15  C   UNL     1      -8.625  18.952  68.658  1.00  0.00    -0.376 A  
HETATM   16  C   UNL     1      -6.508  20.089  68.497  1.00  0.00    -0.295 A  
HETATM   17  H   UNL     1      -4.737  21.071  68.530  1.00  0.00     0.000 HD 
HETATM   18  C   UNL     1      -7.634  19.747  69.239  1.00  0.00    -0.158 A  
HETATM   19  O   UNL     1      -5.505  20.837  69.037  1.00  0.00    -0.305 OA 
HETATM   20  C   UNL     1      -6.366  19.670  67.180  1.00  0.00    -0.203 A  
ENDBRANCH   4  13
BRANCH   4  21
HETATM   21  C   UNL     1     -10.380  18.274  65.722  1.00  0.00    -0.193 C  
HETATM   22  C   UNL     1     -10.785  19.698  66.079  1.00  0.00    -0.527 C  
ENDBRANCH   4  21
ENDBRANCH   2   3
TORSDOF 4
ENDMDL
MODEL       40
REMARK 921   NORMALIZED FREE ENERGY PREDICTED BY IDOCK:   -5.23 KCAL/MOL
REMARK 922        TOTAL FREE ENERGY PREDICTED BY IDOCK:   -7.41 KCAL/MOL
REMARK 923 INTER-LIGAND FREE ENERGY PREDICTED BY IDOCK:   -6.05 KCAL/MOL
REMARK 924 INTRA-LIGAND FREE ENERGY PREDICTED BY IDOCK:   -1.37 KCAL/MOL
REMARK 927      BINDING AFFINITY PREDICTED BY RF-SCORE:    0.00 PKD
ROOT
HETATM    1  C   UNL     1     -12.060  15.532  69.883  1.00  0.00    -0.378 C  
HETATM    2  C   UNL     1     -10.547  15.433  69.742  1.00  0.00    -0.304 C  
ENDROOT
BRANCH   2   3
HETATM    3  C   UNL     1     -10.015  15.815  68.374  1.00  0.00    -0.217 C  
HETATM    4  C   UNL     1      -9.891  14.981  67.312  1.00  0.00    -0.228 C  
BRANCH   3   5
HETATM    5  C   UNL     1      -9.695  17.249  68.214  1.00  0.00    -0.294 A  
HETATM    6  H   UNL     1      -7.720  21.449  67.486  1.00  0.00     0.000 HD 
HETATM    7  C   UNL     1     -10.660  18.145  67.737  1.00  0.00    -0.407 A  
HETATM    8  C   UNL     1      -8.392  17.707  68.459  1.00  0.00    -0.291 A  
HETATM    9  C   UNL     1      -8.051  19.032  68.188  1.00  0.00    -0.347 A  
HETATM   10  O   UNL     1      -8.614  21.159  67.343  1.00  0.00    -0.090 OA 
HETATM   11  C   UNL     1     -10.316  19.469  67.455  1.00  0.00    -0.567 A  
HETATM   12  C   UNL     1      -9.008  19.894  67.664  1.00  0.00    -0.335 A  
ENDBRANCH   3   5
BRANCH   4  13
HETATM   13  C   UNL     1     -10.161  13.533  67.435  1.00  0.00    -0.237 A  
HETATM   14  C   UNL     1      -9.108  12.641  67.668  1.00  0.00    -0.192 A  
HETATM   15  C   UNL     1     -11.459  13.036  67.254  1.00  0.00    -0.380 A  
HETATM   16  C   UNL     1     -10.634  10.787  67.491  1.00  0.00    -0.237 A  
HETATM   17  H   UNL     1     -10.092   8.841  67.638  1.00  0.00     0.000 HD 
HETATM   18  C   UNL     1     -11.696  11.660  67.283  1.00  0.00    -0.255 A  
HETATM   19  O   UNL     1     -10.817   9.437  67.495  1.00  0.00    -0.269 OA 
HETATM   20  C   UNL     1      -9.344  11.265  67.693  1.00  0.00    -0.162 A  
ENDBRANCH   4  13
BRANCH   4  21
HETATM   21  C   UNL     1      -9.573  15.400  65.880  1.00  0.00    -0.386 C  
HETATM   22  C   UNL     1     -10.792  15.680  65.011  1.00  0.00    -0.468 C  
ENDBRANCH   4  21
ENDBRANCH   2   3
TORSDOF 4
ENDMDL
MODEL       41
REMARK 921   NORMALIZED FREE ENERGY PREDICTED BY IDOCK:   -5.23 KCAL/MOL
REMARK 922        TOTAL FREE ENERGY PREDICTED BY IDOCK:   -7.41 KCAL/MOL
REMARK 923 INTER-LIGAND FREE ENERGY PREDICTED BY IDOCK:   -6.06 KCAL/MOL
REMARK 924 INTRA-LIGAND FREE ENERGY PREDICTED BY IDOCK:   -1.35 KCAL/MOL
REMARK 927      BINDING AFFINITY PREDICTED BY RF-SCORE:    0.00 PKD
ROOT
HETATM    1  C   UNL     1      -8.424   8.247  72.685  1.00  0.00    -0.248 C  
HETATM    2  C   UNL     1      -9.751   7.763  73.254  1.00  0.00    -0.357 C  
ENDROOT
BRANCH   2   3
HETATM    3  C   UNL     1     -10.576   6.919  72.300  1.00  0.00    -0.244 C  
HETATM    4  C   UNL     1     -11.382   7.394  71.320  1.00  0.00    -0.289 C  
BRANCH   3   5
HETATM    5  C   UNL     1     -10.384   5.461  72.443  1.00  0.00    -0.257 A  
HETATM    6  H   UNL     1      -8.775   1.056  72.713  1.00  0.00     0.000 HD 
HETATM    7  C   UNL     1     -11.192   4.719  73.314  1.00  0.00    -0.421 A  
HETATM    8  C   UNL     1      -9.334   4.823  71.767  1.00  0.00    -0.186 A  
HETATM    9  C   UNL     1      -9.069   3.473  71.996  1.00  0.00    -0.157 A  
HETATM   10  O   UNL     1      -9.508   1.468  73.155  1.00  0.00    -0.071 OA 
HETATM   11  C   UNL     1     -10.920   3.369  73.551  1.00  0.00    -0.328 A  
HETATM   12  C   UNL     1      -9.847   2.764  72.904  1.00  0.00    -0.123 A  
ENDBRANCH   3   5
BRANCH   4  13
HETATM   13  C   UNL     1     -11.636   8.842  71.165  1.00  0.00    -0.344 A  
HETATM   14  C   UNL     1     -12.674   9.452  71.878  1.00  0.00    -0.484 A  
HETATM   15  C   UNL     1     -10.884   9.599  70.256  1.00  0.00    -0.339 A  
HETATM   16  C   UNL     1     -12.236  11.531  70.746  1.00  0.00    -0.363 A  
HETATM   17  H   UNL     1     -13.298  13.233  71.027  1.00  0.00     0.000 HD 
HETATM   18  C   UNL     1     -11.185  10.948  70.047  1.00  0.00    -0.340 A  
HETATM   19  O   UNL     1     -12.580  12.835  70.549  1.00  0.00    -0.226 OA 
HETATM   20  C   UNL     1     -12.977  10.799  71.666  1.00  0.00    -0.581 A  
ENDBRANCH   4  13
BRANCH   4  21
HETATM   21  C   UNL     1     -12.035   6.562  70.220  1.00  0.00    -0.252 C  
HETATM   22  C   UNL     1     -11.145   6.286  69.015  1.00  0.00    -0.446 C  
ENDBRANCH   4  21
ENDBRANCH   2   3
TORSDOF 4
ENDMDL
MODEL       42
REMARK 921   NORMALIZED FREE ENERGY PREDICTED BY IDOCK:   -5.22 KCAL/MOL
REMARK 922        TOTAL FREE ENERGY PREDICTED BY IDOCK:   -7.40 KCAL/MOL
REMARK 923 INTER-LIGAND FREE ENERGY PREDICTED BY IDOCK:   -6.25 KCAL/MOL
REMARK 924 INTRA-LIGAND FREE ENERGY PREDICTED BY IDOCK:   -1.15 KCAL/MOL
REMARK 927      BINDING AFFINITY PREDICTED BY RF-SCORE:    0.00 PKD
ROOT
HETATM    1  C   UNL     1     -14.296   7.152  71.826  1.00  0.00    -0.515 C  
HETATM    2  C   UNL     1     -13.121   7.281  70.866  1.00  0.00    -0.084 C  
ENDROOT
BRANCH   2   3
HETATM    3  C   UNL     1     -12.012   8.198  71.346  1.00  0.00    -0.330 C  
HETATM    4  C   UNL     1     -10.827   7.798  71.871  1.00  0.00    -0.281 C  
BRANCH   3   5
HETATM    5  C   UNL     1     -12.262   9.637  71.127  1.00  0.00    -0.437 A  
HETATM    6  H   UNL     1     -13.122  14.243  71.471  1.00  0.00     0.000 HD 
HETATM    7  C   UNL     1     -11.661  10.308  70.054  1.00  0.00    -0.330 A  
HETATM    8  C   UNL     1     -13.037  10.361  72.044  1.00  0.00    -0.521 A  
HETATM    9  C   UNL     1     -13.170  11.744  71.913  1.00  0.00    -0.468 A  
HETATM   10  O   UNL     1     -12.618  13.760  70.826  1.00  0.00    -0.336 OA 
HETATM   11  C   UNL     1     -11.786  11.694  69.929  1.00  0.00    -0.434 A  
HETATM   12  C   UNL     1     -12.524  12.401  70.873  1.00  0.00    -0.274 A  
ENDBRANCH   3   5
BRANCH   4  13
HETATM   13  C   UNL     1     -10.548   6.372  72.146  1.00  0.00    -0.249 A  
HETATM   14  C   UNL     1     -10.067   5.543  71.126  1.00  0.00    -0.267 A  
HETATM   15  C   UNL     1     -10.825   5.827  73.407  1.00  0.00    -0.295 A  
HETATM   16  C   UNL     1     -10.189   3.647  72.606  1.00  0.00    -0.167 A  
HETATM   17  H   UNL     1      -9.717   1.750  72.077  1.00  0.00     0.000 HD 
HETATM   18  C   UNL     1     -10.644   4.461  73.638  1.00  0.00    -0.309 A  
HETATM   19  O   UNL     1     -10.028   2.306  72.781  1.00  0.00    -0.111 OA 
HETATM   20  C   UNL     1      -9.890   4.177  71.356  1.00  0.00    -0.254 A  
ENDBRANCH   4  13
BRANCH   4  21
HETATM   21  C   UNL     1      -9.624   8.696  72.146  1.00  0.00    -0.378 C  
HETATM   22  C   UNL     1      -8.565   8.695  71.052  1.00  0.00    -0.211 C  
ENDBRANCH   4  21
ENDBRANCH   2   3
TORSDOF 4
ENDMDL
MODEL       43
REMARK 921   NORMALIZED FREE ENERGY PREDICTED BY IDOCK:   -5.19 KCAL/MOL
REMARK 922        TOTAL FREE ENERGY PREDICTED BY IDOCK:   -7.36 KCAL/MOL
REMARK 923 INTER-LIGAND FREE ENERGY PREDICTED BY IDOCK:   -6.37 KCAL/MOL
REMARK 924 INTRA-LIGAND FREE ENERGY PREDICTED BY IDOCK:   -0.99 KCAL/MOL
REMARK 927      BINDING AFFINITY PREDICTED BY RF-SCORE:    0.00 PKD
ROOT
HETATM    1  C   UNL     1      -7.480  14.823  67.003  1.00  0.00     0.095 C  
HETATM    2  C   UNL     1      -8.346  15.682  67.915  1.00  0.00    -0.150 C  
ENDROOT
BRANCH   2   3
HETATM    3  C   UNL     1      -8.778  17.005  67.310  1.00  0.00    -0.212 C  
HETATM    4  C   UNL     1      -9.901  17.210  66.578  1.00  0.00    -0.305 C  
BRANCH   3   5
HETATM    5  C   UNL     1      -7.908  18.151  67.646  1.00  0.00    -0.224 A  
HETATM    6  H   UNL     1      -5.200  21.406  69.679  1.00  0.00     0.000 HD 
HETATM    7  C   UNL     1      -6.976  18.632  66.717  1.00  0.00    -0.218 A  
HETATM    8  C   UNL     1      -7.952  18.711  68.930  1.00  0.00    -0.252 A  
HETATM    9  C   UNL     1      -7.046  19.707  69.293  1.00  0.00    -0.366 A  
HETATM   10  O   UNL     1      -5.178  21.056  68.796  1.00  0.00    -0.303 OA 
HETATM   11  C   UNL     1      -6.061  19.623  67.084  1.00  0.00    -0.194 A  
HETATM   12  C   UNL     1      -6.093  20.136  68.377  1.00  0.00    -0.279 A  
ENDBRANCH   3   5
BRANCH   4  13
HETATM   13  C   UNL     1     -10.780  16.089  66.184  1.00  0.00    -0.246 A  
HETATM   14  C   UNL     1     -11.377  15.288  67.164  1.00  0.00    -0.247 A  
HETATM   15  C   UNL     1     -10.968  15.779  64.830  1.00  0.00    -0.443 A  
HETATM   16  C   UNL     1     -12.292  13.866  65.451  1.00  0.00    -0.470 A  
HETATM   17  H   UNL     1     -13.400  12.209  65.809  1.00  0.00     0.000 HD 
HETATM   18  C   UNL     1     -11.726  14.665  64.462  1.00  0.00    -0.410 A  
HETATM   19  O   UNL     1     -13.014  12.754  65.135  1.00  0.00    -0.768 OA 
HETATM   20  C   UNL     1     -12.133  14.173  66.797  1.00  0.00    -0.474 A  
ENDBRANCH   4  13
BRANCH   4  21
HETATM   21  C   UNL     1     -10.457  18.568  66.160  1.00  0.00    -0.447 C  
HETATM   22  C   UNL     1     -11.021  19.405  67.300  1.00  0.00    -0.454 C  
ENDBRANCH   4  21
ENDBRANCH   2   3
TORSDOF 4
ENDMDL
MODEL       44
REMARK 921   NORMALIZED FREE ENERGY PREDICTED BY IDOCK:   -5.18 KCAL/MOL
REMARK 922        TOTAL FREE ENERGY PREDICTED BY IDOCK:   -7.35 KCAL/MOL
REMARK 923 INTER-LIGAND FREE ENERGY PREDICTED BY IDOCK:   -5.92 KCAL/MOL
REMARK 924 INTRA-LIGAND FREE ENERGY PREDICTED BY IDOCK:   -1.44 KCAL/MOL
REMARK 927      BINDING AFFINITY PREDICTED BY RF-SCORE:    0.00 PKD
ROOT
HETATM    1  C   UNL     1     -10.934   6.221  68.794  1.00  0.00    -0.424 C  
HETATM    2  C   UNL     1     -11.715   6.370  70.093  1.00  0.00    -0.372 C  
ENDROOT
BRANCH   2   3
HETATM    3  C   UNL     1     -10.856   6.594  71.323  1.00  0.00    -0.279 C  
HETATM    4  C   UNL     1     -10.514   7.801  71.839  1.00  0.00    -0.268 C  
BRANCH   3   5
HETATM    5  C   UNL     1     -10.452   5.360  72.028  1.00  0.00    -0.278 A  
HETATM    6  H   UNL     1      -8.202   1.760  74.038  1.00  0.00     0.000 HD 
HETATM    7  C   UNL     1     -11.211   4.872  73.099  1.00  0.00    -0.403 A  
HETATM    8  C   UNL     1      -9.256   4.716  71.681  1.00  0.00    -0.183 A  
HETATM    9  C   UNL     1      -8.805   3.626  72.426  1.00  0.00    -0.117 A  
HETATM   10  O   UNL     1      -9.028   2.169  74.265  1.00  0.00    -0.071 OA 
HETATM   11  C   UNL     1     -10.753   3.787  73.852  1.00  0.00    -0.305 A  
HETATM   12  C   UNL     1      -9.542   3.188  73.519  1.00  0.00    -0.099 A  
ENDBRANCH   3   5
BRANCH   4  13
HETATM   13  C   UNL     1     -10.860   9.060  71.147  1.00  0.00    -0.364 A  
HETATM   14  C   UNL     1     -12.041   9.737  71.474  1.00  0.00    -0.493 A  
HETATM   15  C   UNL     1     -10.045   9.551  70.118  1.00  0.00    -0.293 A  
HETATM   16  C   UNL     1     -11.611  11.338  69.728  1.00  0.00    -0.333 A  
HETATM   17  H   UNL     1     -12.841  12.878  69.259  1.00  0.00     0.000 HD 
HETATM   18  C   UNL     1     -10.422  10.693  69.406  1.00  0.00    -0.252 A  
HETATM   19  O   UNL     1     -12.029  12.437  69.039  1.00  0.00    -0.296 OA 
HETATM   20  C   UNL     1     -12.419  10.877  70.761  1.00  0.00    -0.489 A  
ENDBRANCH   4  13
BRANCH   4  21
HETATM   21  C   UNL     1      -9.845   8.037  73.190  1.00  0.00    -0.332 C  
HETATM   22  C   UNL     1      -8.328   8.164  73.137  1.00  0.00    -0.266 C  
ENDBRANCH   4  21
ENDBRANCH   2   3
TORSDOF 4
ENDMDL
MODEL       45
REMARK 921   NORMALIZED FREE ENERGY PREDICTED BY IDOCK:   -5.18 KCAL/MOL
REMARK 922        TOTAL FREE ENERGY PREDICTED BY IDOCK:   -7.35 KCAL/MOL
REMARK 923 INTER-LIGAND FREE ENERGY PREDICTED BY IDOCK:   -6.47 KCAL/MOL
REMARK 924 INTRA-LIGAND FREE ENERGY PREDICTED BY IDOCK:   -0.88 KCAL/MOL
REMARK 927      BINDING AFFINITY PREDICTED BY RF-SCORE:    0.00 PKD
ROOT
HETATM    1  C   UNL     1     -12.255  14.064  70.750  1.00  0.00    -0.438 C  
HETATM    2  C   UNL     1     -12.351  12.578  70.431  1.00  0.00    -0.311 C  
ENDROOT
BRANCH   2   3
HETATM    3  C   UNL     1     -11.374  12.096  69.375  1.00  0.00    -0.311 C  
HETATM    4  C   UNL     1     -10.714  10.911  69.392  1.00  0.00    -0.265 C  
BRANCH   3   5
HETATM    5  C   UNL     1     -11.226  12.995  68.213  1.00  0.00    -0.309 A  
HETATM    6  H   UNL     1      -9.737  15.665  64.647  1.00  0.00     0.000 HD 
HETATM    7  C   UNL     1     -12.209  13.037  67.216  1.00  0.00    -0.180 A  
HETATM    8  C   UNL     1     -10.056  13.752  68.058  1.00  0.00    -0.245 A  
HETATM    9  C   UNL     1      -9.854  14.505  66.901  1.00  0.00    -0.265 A  
HETATM   10  O   UNL     1     -10.547  15.180  64.752  1.00  0.00    -0.398 OA 
HETATM   11  C   UNL     1     -12.002  13.783  66.052  1.00  0.00    -0.443 A  
HETATM   12  C   UNL     1     -10.816  14.493  65.898  1.00  0.00    -0.308 A  
ENDBRANCH   3   5
BRANCH   4  13
HETATM   13  C   UNL     1     -10.800   9.997  70.550  1.00  0.00    -0.380 A  
HETATM   14  C   UNL     1      -9.634   9.453  71.101  1.00  0.00    -0.220 A  
HETATM   15  C   UNL     1     -12.048   9.618  71.063  1.00  0.00    -0.421 A  
HETATM   16  C   UNL     1     -10.961   8.137  72.619  1.00  0.00    -0.370 A  
HETATM   17  H   UNL     1     -10.200   6.828  73.964  1.00  0.00     0.000 HD 
HETATM   18  C   UNL     1     -12.129   8.685  72.100  1.00  0.00    -0.451 A  
HETATM   19  O   UNL     1     -10.997   7.202  73.610  1.00  0.00    -0.287 OA 
HETATM   20  C   UNL     1      -9.715   8.519  72.136  1.00  0.00    -0.387 A  
ENDBRANCH   4  13
BRANCH   4  21
HETATM   21  C   UNL     1      -9.910  10.322  68.237  1.00  0.00    -0.161 C  
HETATM   22  C   UNL     1     -10.617   9.215  67.465  1.00  0.00    -0.317 C  
ENDBRANCH   4  21
ENDBRANCH   2   3
TORSDOF 4
ENDMDL
MODEL       46
REMARK 921   NORMALIZED FREE ENERGY PREDICTED BY IDOCK:   -5.16 KCAL/MOL
REMARK 922        TOTAL FREE ENERGY PREDICTED BY IDOCK:   -7.32 KCAL/MOL
REMARK 923 INTER-LIGAND FREE ENERGY PREDICTED BY IDOCK:   -6.25 KCAL/MOL
REMARK 924 INTRA-LIGAND FREE ENERGY PREDICTED BY IDOCK:   -1.07 KCAL/MOL
REMARK 927      BINDING AFFINITY PREDICTED BY RF-SCORE:    0.00 PKD
ROOT
HETATM    1  C   UNL     1     -10.348   8.145  67.396  1.00  0.00    -0.351 C  
HETATM    2  C   UNL     1      -9.693   9.050  68.431  1.00  0.00    -0.170 C  
ENDROOT
BRANCH   2   3
HETATM    3  C   UNL     1     -10.575  10.182  68.926  1.00  0.00    -0.237 C  
HETATM    4  C   UNL     1     -11.263  10.194  70.095  1.00  0.00    -0.377 C  
BRANCH   3   5
HETATM    5  C   UNL     1     -10.586  11.380  68.063  1.00  0.00    -0.224 A  
HETATM    6  H   UNL     1      -9.630  14.924  65.131  1.00  0.00     0.000 HD 
HETATM    7  C   UNL     1     -11.755  11.765  67.394  1.00  0.00    -0.304 A  
HETATM    8  C   UNL     1      -9.400  12.094  67.840  1.00  0.00    -0.192 A  
HETATM    9  C   UNL     1      -9.376  13.148  66.927  1.00  0.00    -0.246 A  
HETATM   10  O   UNL     1     -10.447  14.468  65.294  1.00  0.00    -0.337 OA 
HETATM   11  C   UNL     1     -11.729  12.814  66.471  1.00  0.00    -0.463 A  
HETATM   12  C   UNL     1     -10.532  13.482  66.232  1.00  0.00    -0.290 A  
ENDBRANCH   3   5
BRANCH   4  13
HETATM   13  C   UNL     1     -11.314   9.005  70.971  1.00  0.00    -0.362 A  
HETATM   14  C   UNL     1     -10.358   8.835  71.979  1.00  0.00    -0.411 A  
HETATM   15  C   UNL     1     -12.277   8.009  70.758  1.00  0.00    -0.030 A  
HETATM   16  C   UNL     1     -11.296   6.682  72.511  1.00  0.00    -0.253 A  
HETATM   17  H   UNL     1     -10.570   5.438  73.935  1.00  0.00     0.000 HD 
HETATM   18  C   UNL     1     -12.268   6.845  71.530  1.00  0.00    -0.415 A  
HETATM   19  O   UNL     1     -11.234   5.549  73.266  1.00  0.00    -0.286 OA 
HETATM   20  C   UNL     1     -10.347   7.670  72.749  1.00  0.00    -0.351 A  
ENDBRANCH   4  13
BRANCH   4  21
HETATM   21  C   UNL     1     -11.966  11.404  70.704  1.00  0.00    -0.413 C  
HETATM   22  C   UNL     1     -13.105  11.066  71.656  1.00  0.00    -0.543 C  
ENDBRANCH   4  21
ENDBRANCH   2   3
TORSDOF 4
ENDMDL
MODEL       47
REMARK 921   NORMALIZED FREE ENERGY PREDICTED BY IDOCK:   -5.15 KCAL/MOL
REMARK 922        TOTAL FREE ENERGY PREDICTED BY IDOCK:   -7.31 KCAL/MOL
REMARK 923 INTER-LIGAND FREE ENERGY PREDICTED BY IDOCK:   -6.03 KCAL/MOL
REMARK 924 INTRA-LIGAND FREE ENERGY PREDICTED BY IDOCK:   -1.28 KCAL/MOL
REMARK 927      BINDING AFFINITY PREDICTED BY RF-SCORE:    0.00 PKD
ROOT
HETATM    1  C   UNL     1     -11.638  15.509  70.122  1.00  0.00    -0.355 C  
HETATM    2  C   UNL     1     -12.012  15.478  68.647  1.00  0.00    -0.231 C  
ENDROOT
BRANCH   2   3
HETATM    3  C   UNL     1     -10.919  14.962  67.730  1.00  0.00    -0.294 C  
HETATM    4  C   UNL     1      -9.960  15.718  67.140  1.00  0.00    -0.242 C  
BRANCH   3   5
HETATM    5  C   UNL     1     -10.893  13.494  67.564  1.00  0.00    -0.276 A  
HETATM    6  H   UNL     1     -10.738   9.060  66.021  1.00  0.00     0.000 HD 
HETATM    7  C   UNL     1     -10.311  12.678  68.541  1.00  0.00    -0.232 A  
HETATM    8  C   UNL     1     -11.379  12.915  66.383  1.00  0.00    -0.361 A  
HETATM    9  C   UNL     1     -11.241  11.544  66.165  1.00  0.00    -0.265 A  
HETATM   10  O   UNL     1     -10.431   9.435  66.838  1.00  0.00    -0.245 OA 
HETATM   11  C   UNL     1     -10.163  11.306  68.319  1.00  0.00    -0.198 A  
HETATM   12  C   UNL     1     -10.612  10.756  67.122  1.00  0.00    -0.256 A  
ENDBRANCH   3   5
BRANCH   4  13
HETATM   13  C   UNL     1      -9.968  17.192  67.245  1.00  0.00    -0.274 A  
HETATM   14  C   UNL     1     -10.383  17.970  66.158  1.00  0.00    -0.368 A  
HETATM   15  C   UNL     1      -9.499  17.822  68.405  1.00  0.00    -0.297 A  
HETATM   16  C   UNL     1      -9.818  19.972  67.369  1.00  0.00    -0.422 A  
HETATM   17  H   UNL     1     -10.002  21.848  66.628  1.00  0.00     0.000 HD 
HETATM   18  C   UNL     1      -9.424  19.216  68.468  1.00  0.00    -0.444 A  
HETATM   19  O   UNL     1      -9.733  21.332  67.378  1.00  0.00    -0.259 OA 
HETATM   20  C   UNL     1     -10.305  19.363  66.219  1.00  0.00    -0.584 A  
ENDBRANCH   4  13
BRANCH   4  21
HETATM   21  C   UNL     1      -8.732  15.188  66.405  1.00  0.00    -0.219 C  
HETATM   22  C   UNL     1      -7.546  14.855  67.301  1.00  0.00    -0.213 C  
ENDBRANCH   4  21
ENDBRANCH   2   3
TORSDOF 4
ENDMDL
MODEL       48
REMARK 921   NORMALIZED FREE ENERGY PREDICTED BY IDOCK:   -5.15 KCAL/MOL
REMARK 922        TOTAL FREE ENERGY PREDICTED BY IDOCK:   -7.31 KCAL/MOL
REMARK 923 INTER-LIGAND FREE ENERGY PREDICTED BY IDOCK:   -6.29 KCAL/MOL
REMARK 924 INTRA-LIGAND FREE ENERGY PREDICTED BY IDOCK:   -1.02 KCAL/MOL
REMARK 927      BINDING AFFINITY PREDICTED BY RF-SCORE:    0.00 PKD
ROOT
HETATM    1  C   UNL     1      -8.791   8.173  73.542  1.00  0.00    -0.310 C  
HETATM    2  C   UNL     1      -9.504   8.562  72.255  1.00  0.00    -0.365 C  
ENDROOT
BRANCH   2   3
HETATM    3  C   UNL     1     -10.720   7.715  71.927  1.00  0.00    -0.259 C  
HETATM    4  C   UNL     1     -11.876   8.169  71.382  1.00  0.00    -0.329 C  
BRANCH   3   5
HETATM    5  C   UNL     1     -10.546   6.267  72.164  1.00  0.00    -0.256 A  
HETATM    6  H   UNL     1     -10.920   1.748  73.392  1.00  0.00     0.000 HD 
HETATM    7  C   UNL     1      -9.865   5.471  71.235  1.00  0.00    -0.228 A  
HETATM    8  C   UNL     1     -11.137   5.665  73.284  1.00  0.00    -0.288 A  
HETATM    9  C   UNL     1     -11.086   4.281  73.446  1.00  0.00    -0.371 A  
HETATM   10  O   UNL     1     -10.490   2.146  72.644  1.00  0.00    -0.151 OA 
HETATM   11  C   UNL     1      -9.822   4.083  71.392  1.00  0.00    -0.249 A  
HETATM   12  C   UNL     1     -10.452   3.500  72.486  1.00  0.00    -0.068 A  
ENDBRANCH   3   5
BRANCH   4  13
HETATM   13  C   UNL     1     -12.111   9.612  71.165  1.00  0.00    -0.448 A  
HETATM   14  C   UNL     1     -11.469  10.276  70.113  1.00  0.00    -0.383 A  
HETATM   15  C   UNL     1     -12.923  10.338  72.046  1.00  0.00    -0.503 A  
HETATM   16  C   UNL     1     -12.407  12.365  70.854  1.00  0.00    -0.262 A  
HETATM   17  H   UNL     1     -12.049  14.156  69.977  1.00  0.00     0.000 HD 
HETATM   18  C   UNL     1     -13.072  11.718  71.890  1.00  0.00    -0.482 A  
HETATM   19  O   UNL     1     -12.502  13.714  70.685  1.00  0.00    -0.344 OA 
HETATM   20  C   UNL     1     -11.616  11.656  69.959  1.00  0.00    -0.338 A  
ENDBRANCH   4  13
BRANCH   4  21
HETATM   21  C   UNL     1     -13.010   7.301  70.844  1.00  0.00    -0.125 C  
HETATM   22  C   UNL     1     -14.255   7.263  71.720  1.00  0.00    -0.526 C  
ENDBRANCH   4  21
ENDBRANCH   2   3
TORSDOF 4
ENDMDL
MODEL       49
REMARK 921   NORMALIZED FREE ENERGY PREDICTED BY IDOCK:   -5.14 KCAL/MOL
REMARK 922        TOTAL FREE ENERGY PREDICTED BY IDOCK:   -7.30 KCAL/MOL
REMARK 923 INTER-LIGAND FREE ENERGY PREDICTED BY IDOCK:   -6.05 KCAL/MOL
REMARK 924 INTRA-LIGAND FREE ENERGY PREDICTED BY IDOCK:   -1.25 KCAL/MOL
REMARK 927      BINDING AFFINITY PREDICTED BY RF-SCORE:    0.00 PKD
ROOT
HETATM    1  C   UNL     1     -10.553  14.195  65.039  1.00  0.00    -0.436 C  
HETATM    2  C   UNL     1     -11.248  14.967  66.152  1.00  0.00    -0.325 C  
ENDROOT
BRANCH   2   3
HETATM    3  C   UNL     1     -10.311  15.561  67.187  1.00  0.00    -0.272 C  
HETATM    4  C   UNL     1     -10.046  15.034  68.408  1.00  0.00    -0.225 C  
BRANCH   3   5
HETATM    5  C   UNL     1      -9.590  16.772  66.746  1.00  0.00    -0.261 A  
HETATM    6  H   UNL     1      -7.852  21.088  66.095  1.00  0.00     0.000 HD 
HETATM    7  C   UNL     1      -8.283  16.682  66.253  1.00  0.00    -0.365 A  
HETATM    8  C   UNL     1     -10.183  18.034  66.898  1.00  0.00    -0.366 A  
HETATM    9  C   UNL     1      -9.459  19.190  66.602  1.00  0.00    -0.387 A  
HETATM   10  O   UNL     1      -7.449  20.238  65.960  1.00  0.00    -0.277 OA 
HETATM   11  C   UNL     1      -7.554  17.840  65.967  1.00  0.00    -0.255 A  
HETATM   12  C   UNL     1      -8.144  19.084  66.165  1.00  0.00    -0.244 A  
ENDBRANCH   3   5
BRANCH   4  13
HETATM   13  C   UNL     1     -10.772  13.847  68.909  1.00  0.00    -0.256 A  
HETATM   14  C   UNL     1     -11.733  13.987  69.917  1.00  0.00    -0.368 A  
HETATM   15  C   UNL     1     -10.457  12.569  68.428  1.00  0.00    -0.250 A  
HETATM   16  C   UNL     1     -12.016  11.597  69.984  1.00  0.00    -0.351 A  
HETATM   17  H   UNL     1     -13.263  10.627  71.252  1.00  0.00     0.000 HD 
HETATM   18  C   UNL     1     -11.081  11.441  68.966  1.00  0.00    -0.300 A  
HETATM   19  O   UNL     1     -12.624  10.521  70.557  1.00  0.00    -0.331 OA 
HETATM   20  C   UNL     1     -12.354  12.859  70.457  1.00  0.00    -0.362 A  
ENDBRANCH   4  13
BRANCH   4  21
HETATM   21  C   UNL     1      -8.946  15.495  69.360  1.00  0.00    -0.275 C  
HETATM   22  C   UNL     1      -7.624  14.753  69.214  1.00  0.00    -0.144 C  
ENDBRANCH   4  21
ENDBRANCH   2   3
TORSDOF 4
ENDMDL
MODEL       50
REMARK 921   NORMALIZED FREE ENERGY PREDICTED BY IDOCK:   -5.14 KCAL/MOL
REMARK 922        TOTAL FREE ENERGY PREDICTED BY IDOCK:   -7.30 KCAL/MOL
REMARK 923 INTER-LIGAND FREE ENERGY PREDICTED BY IDOCK:   -5.85 KCAL/MOL
REMARK 924 INTRA-LIGAND FREE ENERGY PREDICTED BY IDOCK:   -1.45 KCAL/MOL
REMARK 927      BINDING AFFINITY PREDICTED BY RF-SCORE:    0.00 PKD
ROOT
HETATM    1  C   UNL     1      -7.275  13.202  67.424  1.00  0.00    -0.119 C  
HETATM    2  C   UNL     1      -8.605  12.965  68.126  1.00  0.00    -0.188 C  
ENDROOT
BRANCH   2   3
HETATM    3  C   UNL     1      -9.827  13.289  67.287  1.00  0.00    -0.233 C  
HETATM    4  C   UNL     1     -10.645  12.382  66.698  1.00  0.00    -0.256 C  
BRANCH   3   5
HETATM    5  C   UNL     1     -10.156  14.727  67.204  1.00  0.00    -0.240 A  
HETATM    6  H   UNL     1     -11.018  19.282  67.968  1.00  0.00     0.000 HD 
HETATM    7  C   UNL     1      -9.844  15.463  66.054  1.00  0.00    -0.355 A  
HETATM    8  C   UNL     1     -10.707  15.385  68.313  1.00  0.00    -0.260 A  
HETATM    9  C   UNL     1     -10.900  16.766  68.286  1.00  0.00    -0.366 A  
HETATM   10  O   UNL     1     -10.671  18.845  67.199  1.00  0.00    -0.439 OA 
HETATM   11  C   UNL     1     -10.028  16.848  66.030  1.00  0.00    -0.313 A  
HETATM   12  C   UNL     1     -10.536  17.489  67.156  1.00  0.00    -0.312 A  
ENDBRANCH   3   5
BRANCH   4  13
HETATM   13  C   UNL     1     -10.335  10.937  66.720  1.00  0.00    -0.289 A  
HETATM   14  C   UNL     1      -9.540  10.376  65.714  1.00  0.00    -0.269 A  
HETATM   15  C   UNL     1     -10.888  10.109  67.706  1.00  0.00    -0.346 A  
HETATM   16  C   UNL     1      -9.893   8.187  66.652  1.00  0.00    -0.261 A  
HETATM   17  H   UNL     1      -9.149   6.473  65.870  1.00  0.00     0.000 HD 
HETATM   18  C   UNL     1     -10.666   8.730  67.673  1.00  0.00    -0.206 A  
HETATM   19  O   UNL     1      -9.677   6.844  66.567  1.00  0.00    -0.175 OA 
HETATM   20  C   UNL     1      -9.320   8.997  65.679  1.00  0.00    -0.289 A  
ENDBRANCH   4  13
BRANCH   4  21
HETATM   21  C   UNL     1     -11.991  12.685  66.047  1.00  0.00    -0.478 C  
HETATM   22  C   UNL     1     -11.943  12.861  64.535  1.00  0.00    -0.452 C  
ENDBRANCH   4  21
ENDBRANCH   2   3
TORSDOF 4
ENDMDL
MODEL       51
REMARK 921   NORMALIZED FREE ENERGY PREDICTED BY IDOCK:   -5.14 KCAL/MOL
REMARK 922        TOTAL FREE ENERGY PREDICTED BY IDOCK:   -7.30 KCAL/MOL
REMARK 923 INTER-LIGAND FREE ENERGY PREDICTED BY IDOCK:   -5.94 KCAL/MOL
REMARK 924 INTRA-LIGAND FREE ENERGY PREDICTED BY IDOCK:   -1.36 KCAL/MOL
REMARK 927      BINDING AFFINITY PREDICTED BY RF-SCORE:    0.00 PKD
ROOT
HETATM    1  C   UNL     1     -11.000  15.129  64.967  1.00  0.00    -0.443 C  
HETATM    2  C   UNL     1      -9.735  14.954  65.796  1.00  0.00    -0.359 C  
ENDROOT
BRANCH   2   3
HETATM    3  C   UNL     1      -9.980  14.715  67.275  1.00  0.00    -0.235 C  
HETATM    4  C   UNL     1     -10.060  15.676  68.228  1.00  0.00    -0.218 C  
BRANCH   3   5
HETATM    5  C   UNL     1     -10.225  13.304  67.640  1.00  0.00    -0.228 A  
HETATM    6  H   UNL     1     -10.226   8.981  69.478  1.00  0.00     0.000 HD 
HETATM    7  C   UNL     1     -11.516  12.766  67.573  1.00  0.00    -0.390 A  
HETATM    8  C   UNL     1      -9.177  12.518  68.140  1.00  0.00    -0.209 A  
HETATM    9  C   UNL     1      -9.428  11.228  68.606  1.00  0.00    -0.179 A  
HETATM   10  O   UNL     1     -10.940   9.493  69.115  1.00  0.00    -0.210 OA 
HETATM   11  C   UNL     1     -11.770  11.477  68.049  1.00  0.00    -0.343 A  
HETATM   12  C   UNL     1     -10.725  10.728  68.581  1.00  0.00    -0.208 A  
ENDBRANCH   3   5
BRANCH   4  13
HETATM   13  C   UNL     1      -9.783  17.094  67.918  1.00  0.00    -0.270 A  
HETATM   14  C   UNL     1      -8.539  17.651  68.238  1.00  0.00    -0.268 A  
HETATM   15  C   UNL     1     -10.782  17.906  67.365  1.00  0.00    -0.306 A  
HETATM   16  C   UNL     1      -9.313  19.809  67.501  1.00  0.00    -0.340 A  
HETATM   17  H   UNL     1      -8.211  21.507  67.577  1.00  0.00     0.000 HD 
HETATM   18  C   UNL     1     -10.546  19.267  67.155  1.00  0.00    -0.575 A  
HETATM   19  O   UNL     1      -9.053  21.137  67.341  1.00  0.00    -0.158 OA 
HETATM   20  C   UNL     1      -8.305  19.012  68.032  1.00  0.00    -0.335 A  
ENDBRANCH   4  13
BRANCH   4  21
HETATM   21  C   UNL     1     -10.525  15.468  69.667  1.00  0.00    -0.289 C  
HETATM   22  C   UNL     1     -12.028  15.597  69.877  1.00  0.00    -0.376 C  
ENDBRANCH   4  21
ENDBRANCH   2   3
TORSDOF 4
ENDMDL
MODEL       52
REMARK 921   NORMALIZED FREE ENERGY PREDICTED BY IDOCK:   -5.12 KCAL/MOL
REMARK 922        TOTAL FREE ENERGY PREDICTED BY IDOCK:   -7.27 KCAL/MOL
REMARK 923 INTER-LIGAND FREE ENERGY PREDICTED BY IDOCK:   -6.56 KCAL/MOL
REMARK 924 INTRA-LIGAND FREE ENERGY PREDICTED BY IDOCK:   -0.71 KCAL/MOL
REMARK 927      BINDING AFFINITY PREDICTED BY RF-SCORE:    0.00 PKD
ROOT
HETATM    1  C   UNL     1     -10.266  10.477  64.746  1.00  0.00    -0.373 C  
HETATM    2  C   UNL     1      -9.490  11.009  65.944  1.00  0.00    -0.244 C  
ENDROOT
BRANCH   2   3
HETATM    3  C   UNL     1     -10.329  11.238  67.187  1.00  0.00    -0.244 C  
HETATM    4  C   UNL     1     -11.083  12.336  67.441  1.00  0.00    -0.333 C  
BRANCH   3   5
HETATM    5  C   UNL     1     -10.357  10.102  68.132  1.00  0.00    -0.217 A  
HETATM    6  H   UNL     1     -10.022   5.968  70.337  1.00  0.00     0.000 HD 
HETATM    7  C   UNL     1     -10.188  10.315  69.506  1.00  0.00    -0.261 A  
HETATM    8  C   UNL     1     -10.467   8.791  67.647  1.00  0.00    -0.310 A  
HETATM    9  C   UNL     1     -10.365   7.709  68.521  1.00  0.00    -0.225 A  
HETATM   10  O   UNL     1      -9.975   6.851  70.682  1.00  0.00    -0.186 OA 
HETATM   11  C   UNL     1     -10.076   9.231  70.380  1.00  0.00    -0.287 A  
HETATM   12  C   UNL     1     -10.144   7.937  69.875  1.00  0.00    -0.197 A  
ENDBRANCH   3   5
BRANCH   4  13
HETATM   13  C   UNL     1     -11.057  13.512  66.547  1.00  0.00    -0.310 A  
HETATM   14  C   UNL     1      -9.978  14.403  66.591  1.00  0.00    -0.278 A  
HETATM   15  C   UNL     1     -12.139  13.780  65.697  1.00  0.00    -0.444 A  
HETATM   16  C   UNL     1     -11.081  15.826  64.993  1.00  0.00    -0.370 A  
HETATM   17  H   UNL     1     -10.338  17.587  64.324  1.00  0.00     0.000 HD 
HETATM   18  C   UNL     1     -12.151  14.940  64.918  1.00  0.00    -0.275 A  
HETATM   19  O   UNL     1     -11.068  16.983  64.273  1.00  0.00    -1.092 OA 
HETATM   20  C   UNL     1      -9.991  15.564  65.815  1.00  0.00    -0.391 A  
ENDBRANCH   4  13
BRANCH   4  21
HETATM   21  C   UNL     1     -12.098  12.480  68.571  1.00  0.00    -0.129 C  
HETATM   22  C   UNL     1     -12.022  13.797  69.333  1.00  0.00    -0.397 C  
ENDBRANCH   4  21
ENDBRANCH   2   3
TORSDOF 4
ENDMDL
MODEL       53
REMARK 921   NORMALIZED FREE ENERGY PREDICTED BY IDOCK:   -5.00 KCAL/MOL
REMARK 922        TOTAL FREE ENERGY PREDICTED BY IDOCK:   -7.13 KCAL/MOL
REMARK 923 INTER-LIGAND FREE ENERGY PREDICTED BY IDOCK:   -6.48 KCAL/MOL
REMARK 924 INTRA-LIGAND FREE ENERGY PREDICTED BY IDOCK:   -0.65 KCAL/MOL
REMARK 927      BINDING AFFINITY PREDICTED BY RF-SCORE:    0.00 PKD
ROOT
HETATM    1  C   UNL     1     -10.408   8.972  67.271  1.00  0.00    -0.342 C  
HETATM    2  C   UNL     1      -9.692  10.093  68.011  1.00  0.00    -0.161 C  
ENDROOT
BRANCH   2   3
HETATM    3  C   UNL     1     -10.438  10.628  69.219  1.00  0.00    -0.252 C  
HETATM    4  C   UNL     1     -11.086  11.817  69.286  1.00  0.00    -0.278 C  
BRANCH   3   5
HETATM    5  C   UNL     1     -10.503   9.698  70.366  1.00  0.00    -0.352 A  
HETATM    6  H   UNL     1      -9.752   7.107  74.212  1.00  0.00     0.000 HD 
HETATM    7  C   UNL     1     -11.724   9.434  71.000  1.00  0.00    -0.395 A  
HETATM    8  C   UNL     1      -9.325   9.139  70.881  1.00  0.00    -0.335 A  
HETATM    9  C   UNL     1      -9.365   8.364  72.040  1.00  0.00    -0.332 A  
HETATM   10  O   UNL     1     -10.561   7.456  73.857  1.00  0.00    -0.307 OA 
HETATM   11  C   UNL     1     -11.762   8.666  72.167  1.00  0.00    -0.442 A  
HETATM   12  C   UNL     1     -10.577   8.156  72.687  1.00  0.00    -0.344 A  
ENDBRANCH   3   5
BRANCH   4  13
HETATM   13  C   UNL     1     -11.015  12.796  68.181  1.00  0.00    -0.273 A  
HETATM   14  C   UNL     1     -11.990  12.790  67.177  1.00  0.00    -0.351 A  
HETATM   15  C   UNL     1      -9.940  13.691  68.095  1.00  0.00    -0.246 A  
HETATM   16  C   UNL     1     -10.795  14.517  66.001  1.00  0.00    -0.310 A  
HETATM   17  H   UNL     1     -11.367  15.297  64.221  1.00  0.00     0.000 HD 
HETATM   18  C   UNL     1      -9.830  14.554  67.002  1.00  0.00    -0.249 A  
HETATM   19  O   UNL     1     -10.707  15.322  64.904  1.00  0.00    -0.419 OA 
HETATM   20  C   UNL     1     -11.878  13.651  66.083  1.00  0.00    -0.424 A  
ENDBRANCH   4  13
BRANCH   4  21
HETATM   21  C   UNL     1     -12.020  12.263  70.408  1.00  0.00    -0.349 C  
HETATM   22  C   UNL     1     -11.947  13.746  70.747  1.00  0.00    -0.318 C  
ENDBRANCH   4  21
ENDBRANCH   2   3
TORSDOF 4
ENDMDL
MODEL       54
REMARK 921   NORMALIZED FREE ENERGY PREDICTED BY IDOCK:   -4.97 KCAL/MOL
REMARK 922        TOTAL FREE ENERGY PREDICTED BY IDOCK:   -7.09 KCAL/MOL
REMARK 923 INTER-LIGAND FREE ENERGY PREDICTED BY IDOCK:   -5.80 KCAL/MOL
REMARK 924 INTRA-LIGAND FREE ENERGY PREDICTED BY IDOCK:   -1.29 KCAL/MOL
REMARK 927      BINDING AFFINITY PREDICTED BY RF-SCORE:    0.00 PKD
ROOT
HETATM    1  C   UNL     1      -9.567   8.532  66.343  1.00  0.00    -0.314 C  
HETATM    2  C   UNL     1     -10.648   9.348  67.038  1.00  0.00    -0.272 C  
ENDROOT
BRANCH   2   3
HETATM    3  C   UNL     1     -10.126  10.497  67.881  1.00  0.00    -0.204 C  
HETATM    4  C   UNL     1     -10.316  11.815  67.625  1.00  0.00    -0.219 C  
BRANCH   3   5
HETATM    5  C   UNL     1      -9.429  10.089  69.118  1.00  0.00    -0.214 A  
HETATM    6  H   UNL     1      -7.993   8.106  73.127  1.00  0.00     0.000 HD 
HETATM    7  C   UNL     1      -8.033  10.166  69.205  1.00  0.00    -0.138 A  
HETATM    8  C   UNL     1     -10.156   9.542  70.184  1.00  0.00    -0.293 A  
HETATM    9  C   UNL     1      -9.491   9.037  71.301  1.00  0.00    -0.339 A  
HETATM   10  O   UNL     1      -7.490   8.501  72.424  1.00  0.00    -0.210 OA 
HETATM   11  C   UNL     1      -7.366   9.651  70.321  1.00  0.00    -0.153 A  
HETATM   12  C   UNL     1      -8.103   9.072  71.349  1.00  0.00    -0.044 A  
ENDBRANCH   3   5
BRANCH   4  13
HETATM   13  C   UNL     1     -10.971  12.272  66.381  1.00  0.00    -0.326 A  
HETATM   14  C   UNL     1     -10.375  12.018  65.140  1.00  0.00    -0.313 A  
HETATM   15  C   UNL     1     -12.157  13.017  66.439  1.00  0.00    -0.428 A  
HETATM   16  C   UNL     1     -12.107  13.282  64.046  1.00  0.00    -0.447 A  
HETATM   17  H   UNL     1     -12.191  13.619  62.050  1.00  0.00     0.000 HD 
HETATM   18  C   UNL     1     -12.727  13.524  65.267  1.00  0.00    -0.481 A  
HETATM   19  O   UNL     1     -12.614  13.784  62.884  1.00  0.00    -0.611 OA 
HETATM   20  C   UNL     1     -10.943  12.527  63.971  1.00  0.00    -0.443 A  
ENDBRANCH   4  13
BRANCH   4  21
HETATM   21  C   UNL     1      -9.993  12.965  68.575  1.00  0.00    -0.168 C  
HETATM   22  C   UNL     1      -8.784  13.801  68.176  1.00  0.00    -0.183 C  
ENDBRANCH   4  21
ENDBRANCH   2   3
TORSDOF 4
ENDMDL
MODEL       55
REMARK 921   NORMALIZED FREE ENERGY PREDICTED BY IDOCK:   -4.95 KCAL/MOL
REMARK 922        TOTAL FREE ENERGY PREDICTED BY IDOCK:   -7.07 KCAL/MOL
REMARK 923 INTER-LIGAND FREE ENERGY PREDICTED BY IDOCK:   -5.82 KCAL/MOL
REMARK 924 INTRA-LIGAND FREE ENERGY PREDICTED BY IDOCK:   -1.26 KCAL/MOL
REMARK 927      BINDING AFFINITY PREDICTED BY RF-SCORE:    0.00 PKD
ROOT
HETATM    1  C   UNL     1      -7.287  15.052  68.355  1.00  0.00    -0.112 C  
HETATM    2  C   UNL     1      -7.553  16.389  69.033  1.00  0.00    -0.232 C  
ENDROOT
BRANCH   2   3
HETATM    3  C   UNL     1      -8.377  17.361  68.208  1.00  0.00    -0.248 C  
HETATM    4  C   UNL     1      -9.732  17.398  68.150  1.00  0.00    -0.291 C  
BRANCH   3   5
HETATM    5  C   UNL     1      -7.590  18.383  67.489  1.00  0.00    -0.226 A  
HETATM    6  H   UNL     1      -5.462  21.159  64.352  1.00  0.00     0.000 HD 
HETATM    7  C   UNL     1      -7.414  19.661  68.036  1.00  0.00    -0.331 A  
HETATM    8  C   UNL     1      -7.083  18.106  66.211  1.00  0.00    -0.298 A  
HETATM    9  C   UNL     1      -6.450  19.108  65.474  1.00  0.00    -0.303 A  
HETATM   10  O   UNL     1      -5.775  21.352  65.229  1.00  0.00    -0.187 OA 
HETATM   11  C   UNL     1      -6.789  20.667  67.294  1.00  0.00    -0.376 A  
HETATM   12  C   UNL     1      -6.332  20.384  66.011  1.00  0.00    -0.218 A  
ENDBRANCH   3   5
BRANCH   4  13
HETATM   13  C   UNL     1     -10.560  16.373  68.819  1.00  0.00    -0.310 A  
HETATM   14  C   UNL     1     -10.808  16.460  70.194  1.00  0.00    -0.265 A  
HETATM   15  C   UNL     1     -11.046  15.274  68.098  1.00  0.00    -0.309 A  
HETATM   16  C   UNL     1     -11.969  14.352  70.122  1.00  0.00    -0.322 A  
HETATM   17  H   UNL     1     -12.775  13.434  71.737  1.00  0.00     0.000 HD 
HETATM   18  C   UNL     1     -11.753  14.261  68.751  1.00  0.00    -0.378 A  
HETATM   19  O   UNL     1     -12.628  13.372  70.801  1.00  0.00    -0.336 OA 
HETATM   20  C   UNL     1     -11.511  15.446  70.847  1.00  0.00    -0.396 A  
ENDBRANCH   4  13
BRANCH   4  21
HETATM   21  C   UNL     1     -10.567  18.502  67.508  1.00  0.00    -0.461 C  
HETATM   22  C   UNL     1     -10.671  18.422  65.991  1.00  0.00    -0.218 C  
ENDBRANCH   4  21
ENDBRANCH   2   3
TORSDOF 4
ENDMDL
MODEL       56
REMARK 921   NORMALIZED FREE ENERGY PREDICTED BY IDOCK:   -4.93 KCAL/MOL
REMARK 922        TOTAL FREE ENERGY PREDICTED BY IDOCK:   -7.04 KCAL/MOL
REMARK 923 INTER-LIGAND FREE ENERGY PREDICTED BY IDOCK:   -5.61 KCAL/MOL
REMARK 924 INTRA-LIGAND FREE ENERGY PREDICTED BY IDOCK:   -1.43 KCAL/MOL
REMARK 927      BINDING AFFINITY PREDICTED BY RF-SCORE:    0.00 PKD
ROOT
HETATM    1  C   UNL     1     -12.424  13.038  64.769  1.00  0.00    -0.485 C  
HETATM    2  C   UNL     1     -12.402  13.424  66.242  1.00  0.00    -0.410 C  
ENDROOT
BRANCH   2   3
HETATM    3  C   UNL     1     -11.064  13.937  66.740  1.00  0.00    -0.310 C  
HETATM    4  C   UNL     1      -9.996  13.169  67.069  1.00  0.00    -0.244 C  
BRANCH   3   5
HETATM    5  C   UNL     1     -10.939  15.409  66.773  1.00  0.00    -0.282 A  
HETATM    6  H   UNL     1     -10.256  19.926  67.867  1.00  0.00     0.000 HD 
HETATM    7  C   UNL     1     -10.551  16.116  65.627  1.00  0.00    -0.377 A  
HETATM    8  C   UNL     1     -11.127  16.101  67.978  1.00  0.00    -0.317 A  
HETATM    9  C   UNL     1     -10.886  17.473  68.044  1.00  0.00    -0.260 A  
HETATM   10  O   UNL     1     -10.153  19.474  67.038  1.00  0.00    -0.344 OA 
HETATM   11  C   UNL     1     -10.300  17.489  65.696  1.00  0.00    -0.145 A  
HETATM   12  C   UNL     1     -10.450  18.150  66.911  1.00  0.00    -0.357 A  
ENDBRANCH   3   5
BRANCH   4  13
HETATM   13  C   UNL     1     -10.085  11.693  67.090  1.00  0.00    -0.227 A  
HETATM   14  C   UNL     1      -9.649  10.949  65.988  1.00  0.00    -0.248 A  
HETATM   15  C   UNL     1     -10.666  11.035  68.183  1.00  0.00    -0.246 A  
HETATM   16  C   UNL     1     -10.413   8.926  67.048  1.00  0.00    -0.256 A  
HETATM   17  H   UNL     1     -10.298   7.084  66.214  1.00  0.00     0.000 HD 
HETATM   18  C   UNL     1     -10.830   9.647  68.162  1.00  0.00    -0.241 A  
HETATM   19  O   UNL     1     -10.583   7.576  66.975  1.00  0.00    -0.319 OA 
HETATM   20  C   UNL     1      -9.817   9.563  65.966  1.00  0.00    -0.353 A  
ENDBRANCH   4  13
BRANCH   4  21
HETATM   21  C   UNL     1      -8.585  13.676  67.353  1.00  0.00    -0.212 C  
HETATM   22  C   UNL     1      -8.199  13.696  68.826  1.00  0.00     0.021 C  
ENDBRANCH   4  21
ENDBRANCH   2   3
TORSDOF 4
ENDMDL
MODEL       57
REMARK 921   NORMALIZED FREE ENERGY PREDICTED BY IDOCK:   -4.91 KCAL/MOL
REMARK 922        TOTAL FREE ENERGY PREDICTED BY IDOCK:   -7.02 KCAL/MOL
REMARK 923 INTER-LIGAND FREE ENERGY PREDICTED BY IDOCK:   -5.76 KCAL/MOL
REMARK 924 INTRA-LIGAND FREE ENERGY PREDICTED BY IDOCK:   -1.25 KCAL/MOL
REMARK 927      BINDING AFFINITY PREDICTED BY RF-SCORE:    0.00 PKD
ROOT
HETATM    1  C   UNL     1      -8.947   8.154  73.139  1.00  0.00    -0.330 C  
HETATM    2  C   UNL     1      -8.879   7.867  71.646  1.00  0.00    -0.163 C  
ENDROOT
BRANCH   2   3
HETATM    3  C   UNL     1     -10.230   7.756  70.963  1.00  0.00    -0.210 C  
HETATM    4  C   UNL     1     -11.090   6.715  71.079  1.00  0.00    -0.330 C  
BRANCH   3   5
HETATM    5  C   UNL     1     -10.628   8.946  70.184  1.00  0.00    -0.243 A  
HETATM    6  H   UNL     1     -11.999  12.042  66.928  1.00  0.00     0.000 HD 
HETATM    7  C   UNL     1     -11.303  10.007  70.800  1.00  0.00    -0.439 A  
HETATM    8  C   UNL     1     -10.406   8.983  68.800  1.00  0.00    -0.236 A  
HETATM    9  C   UNL     1     -10.893  10.046  68.039  1.00  0.00    -0.311 A  
HETATM   10  O   UNL     1     -12.131  12.044  67.869  1.00  0.00    -0.531 OA 
HETATM   11  C   UNL     1     -11.800  11.067  70.036  1.00  0.00    -0.435 A  
HETATM   12  C   UNL     1     -11.608  11.064  68.659  1.00  0.00    -0.316 A  
ENDBRANCH   3   5
BRANCH   4  13
HETATM   13  C   UNL     1     -10.720   5.487  71.814  1.00  0.00    -0.289 A  
HETATM   14  C   UNL     1      -9.954   4.498  71.186  1.00  0.00    -0.257 A  
HETATM   15  C   UNL     1     -11.187   5.275  73.118  1.00  0.00    -0.382 A  
HETATM   16  C   UNL     1     -10.168   3.093  73.129  1.00  0.00    -0.148 A  
HETATM   17  H   UNL     1      -9.394   1.228  73.283  1.00  0.00     0.000 HD 
HETATM   18  C   UNL     1     -10.910   4.075  73.778  1.00  0.00    -0.333 A  
HETATM   19  O   UNL     1      -9.901   1.897  73.726  1.00  0.00    -0.084 OA 
HETATM   20  C   UNL     1      -9.680   3.298  71.844  1.00  0.00    -0.233 A  
ENDBRANCH   4  13
BRANCH   4  21
HETATM   21  C   UNL     1     -12.534   6.691  70.583  1.00  0.00    -0.049 C  
HETATM   22  C   UNL     1     -13.546   7.306  71.540  1.00  0.00    -0.442 C  
ENDBRANCH   4  21
ENDBRANCH   2   3
TORSDOF 4
ENDMDL
MODEL       58
REMARK 921   NORMALIZED FREE ENERGY PREDICTED BY IDOCK:   -4.89 KCAL/MOL
REMARK 922        TOTAL FREE ENERGY PREDICTED BY IDOCK:   -6.99 KCAL/MOL
REMARK 923 INTER-LIGAND FREE ENERGY PREDICTED BY IDOCK:   -6.92 KCAL/MOL
REMARK 924 INTRA-LIGAND FREE ENERGY PREDICTED BY IDOCK:   -0.06 KCAL/MOL
REMARK 927      BINDING AFFINITY PREDICTED BY RF-SCORE:    0.00 PKD
ROOT
HETATM    1  C   UNL     1      -8.838   9.479  70.694  1.00  0.00    -0.208 C  
HETATM    2  C   UNL     1     -10.025   9.943  69.860  1.00  0.00    -0.292 C  
ENDROOT
BRANCH   2   3
HETATM    3  C   UNL     1     -11.359   9.898  70.583  1.00  0.00    -0.413 C  
HETATM    4  C   UNL     1     -11.902   8.804  71.173  1.00  0.00    -0.345 C  
BRANCH   3   5
HETATM    5  C   UNL     1     -12.044  11.202  70.696  1.00  0.00    -0.477 A  
HETATM    6  H   UNL     1     -14.129  15.178  72.079  1.00  0.00     0.000 HD 
HETATM    7  C   UNL     1     -11.842  12.198  69.732  1.00  0.00    -0.397 A  
HETATM    8  C   UNL     1     -12.839  11.481  71.817  1.00  0.00    -0.441 A  
HETATM    9  C   UNL     1     -13.384  12.753  71.992  1.00  0.00    -0.565 A  
HETATM   10  O   UNL     1     -13.617  14.994  71.301  1.00  0.00    -0.405 OA 
HETATM   11  C   UNL     1     -12.379  13.475  69.913  1.00  0.00    -0.287 A  
HETATM   12  C   UNL     1     -13.129  13.745  71.054  1.00  0.00    -0.205 A  
ENDBRANCH   3   5
BRANCH   4  13
HETATM   13  C   UNL     1     -11.274   7.472  71.053  1.00  0.00    -0.281 A  
HETATM   14  C   UNL     1     -11.197   6.843  69.804  1.00  0.00    -0.315 A  
HETATM   15  C   UNL     1     -10.811   6.802  72.193  1.00  0.00    -0.257 A  
HETATM   16  C   UNL     1     -10.253   4.887  70.843  1.00  0.00    -0.202 A  
HETATM   17  H   UNL     1      -9.758   3.191  69.853  1.00  0.00     0.000 HD 
HETATM   18  C   UNL     1     -10.299   5.506  72.088  1.00  0.00    -0.263 A  
HETATM   19  O   UNL     1      -9.789   3.614  70.703  1.00  0.00    -0.178 OA 
HETATM   20  C   UNL     1     -10.689   5.547  69.700  1.00  0.00    -0.349 A  
ENDBRANCH   4  13
BRANCH   4  21
HETATM   21  C   UNL     1     -13.123   8.798  72.088  1.00  0.00    -0.451 C  
HETATM   22  C   UNL     1     -14.288   7.951  71.591  1.00  0.00    -0.595 C  
ENDBRANCH   4  21
ENDBRANCH   2   3
TORSDOF 4
ENDMDL
MODEL       59
REMARK 921   NORMALIZED FREE ENERGY PREDICTED BY IDOCK:   -4.86 KCAL/MOL
REMARK 922        TOTAL FREE ENERGY PREDICTED BY IDOCK:   -6.96 KCAL/MOL
REMARK 923 INTER-LIGAND FREE ENERGY PREDICTED BY IDOCK:   -5.66 KCAL/MOL
REMARK 924 INTRA-LIGAND FREE ENERGY PREDICTED BY IDOCK:   -1.29 KCAL/MOL
REMARK 927      BINDING AFFINITY PREDICTED BY RF-SCORE:    0.00 PKD
ROOT
HETATM    1  C   UNL     1     -11.705  14.396  65.590  1.00  0.00    -0.356 C  
HETATM    2  C   UNL     1     -10.268  14.257  66.072  1.00  0.00    -0.327 C  
ENDROOT
BRANCH   2   3
HETATM    3  C   UNL     1     -10.108  14.242  67.581  1.00  0.00    -0.229 C  
HETATM    4  C   UNL     1      -9.902  15.328  68.366  1.00  0.00    -0.216 C  
BRANCH   3   5
HETATM    5  C   UNL     1     -10.281  12.914  68.207  1.00  0.00    -0.245 A  
HETATM    6  H   UNL     1     -11.776   8.738  69.753  1.00  0.00     0.000 HD 
HETATM    7  C   UNL     1      -9.188  12.053  68.362  1.00  0.00    -0.160 A  
HETATM    8  C   UNL     1     -11.561  12.475  68.574  1.00  0.00    -0.364 A  
HETATM    9  C   UNL     1     -11.749  11.176  69.046  1.00  0.00    -0.408 A  
HETATM   10  O   UNL     1     -10.899   9.033  69.536  1.00  0.00    -0.229 OA 
HETATM   11  C   UNL     1      -9.377  10.748  68.825  1.00  0.00    -0.186 A  
HETATM   12  C   UNL     1     -10.661  10.316  69.142  1.00  0.00    -0.228 A  
ENDBRANCH   3   5
BRANCH   4  13
HETATM   13  C   UNL     1      -9.682  16.669  67.783  1.00  0.00    -0.240 A  
HETATM   14  C   UNL     1     -10.741  17.580  67.703  1.00  0.00    -0.306 A  
HETATM   15  C   UNL     1      -8.433  17.013  67.249  1.00  0.00    -0.210 A  
HETATM   16  C   UNL     1      -9.324  19.130  66.527  1.00  0.00    -0.348 A  
HETATM   17  H   UNL     1      -9.929  20.934  65.832  1.00  0.00     0.000 HD 
HETATM   18  C   UNL     1      -8.253  18.247  66.619  1.00  0.00    -0.282 A  
HETATM   19  O   UNL     1      -9.198  20.331  65.895  1.00  0.00    -0.231 OA 
HETATM   20  C   UNL     1     -10.563  18.812  67.071  1.00  0.00    -0.483 A  
ENDBRANCH   4  13
BRANCH   4  21
HETATM   21  C   UNL     1      -9.964  15.353  69.890  1.00  0.00    -0.229 C  
HETATM   22  C   UNL     1     -11.347  15.624  70.468  1.00  0.00    -0.386 C  
ENDBRANCH   4  21
ENDBRANCH   2   3
TORSDOF 4
ENDMDL
MODEL       60
REMARK 921   NORMALIZED FREE ENERGY PREDICTED BY IDOCK:   -4.86 KCAL/MOL
REMARK 922        TOTAL FREE ENERGY PREDICTED BY IDOCK:   -6.95 KCAL/MOL
REMARK 923 INTER-LIGAND FREE ENERGY PREDICTED BY IDOCK:   -6.57 KCAL/MOL
REMARK 924 INTRA-LIGAND FREE ENERGY PREDICTED BY IDOCK:   -0.38 KCAL/MOL
REMARK 927      BINDING AFFINITY PREDICTED BY RF-SCORE:    0.00 PKD
ROOT
HETATM    1  C   UNL     1     -10.968  12.890  66.598  1.00  0.00    -0.302 C  
HETATM    2  C   UNL     1     -12.031  13.468  67.522  1.00  0.00    -0.385 C  
ENDROOT
BRANCH   2   3
HETATM    3  C   UNL     1     -11.569  13.697  68.949  1.00  0.00    -0.362 C  
HETATM    4  C   UNL     1     -10.863  14.769  69.389  1.00  0.00    -0.269 C  
BRANCH   3   5
HETATM    5  C   UNL     1     -12.022  12.677  69.916  1.00  0.00    -0.365 A  
HETATM    6  H   UNL     1     -14.206  10.131  73.205  1.00  0.00     0.000 HD 
HETATM    7  C   UNL     1     -11.852  11.313  69.644  1.00  0.00    -0.430 A  
HETATM    8  C   UNL     1     -12.702  13.067  71.079  1.00  0.00    -0.347 A  
HETATM    9  C   UNL     1     -13.244  12.105  71.931  1.00  0.00    -0.474 A  
HETATM   10  O   UNL     1     -13.722   9.853  72.437  1.00  0.00    -0.338 OA 
HETATM   11  C   UNL     1     -12.404  10.350  70.492  1.00  0.00    -0.410 A  
HETATM   12  C   UNL     1     -13.113  10.757  71.618  1.00  0.00    -0.446 A  
ENDBRANCH   3   5
BRANCH   4  13
HETATM   13  C   UNL     1     -10.355  15.793  68.454  1.00  0.00    -0.233 A  
HETATM   14  C   UNL     1      -9.088  15.648  67.876  1.00  0.00    -0.185 A  
HETATM   15  C   UNL     1     -11.106  16.947  68.190  1.00  0.00    -0.205 A  
HETATM   16  C   UNL     1      -9.314  17.805  66.829  1.00  0.00    -0.280 A  
HETATM   17  H   UNL     1      -7.889  18.674  65.682  1.00  0.00     0.000 HD 
HETATM   18  C   UNL     1     -10.584  17.955  67.375  1.00  0.00    -0.370 A  
HETATM   19  O   UNL     1      -8.757  18.777  66.054  1.00  0.00    -0.481 OA 
HETATM   20  C   UNL     1      -8.565  16.657  67.065  1.00  0.00    -0.220 A  
ENDBRANCH   4  13
BRANCH   4  21
HETATM   21  C   UNL     1     -10.590  15.118  70.849  1.00  0.00     0.058 C  
HETATM   22  C   UNL     1     -11.587  16.087  71.471  1.00  0.00    -0.529 C  
ENDBRANCH   4  21
ENDBRANCH   2   3
TORSDOF 4
ENDMDL
MODEL       61
REMARK 921   NORMALIZED FREE ENERGY PREDICTED BY IDOCK:   -4.85 KCAL/MOL
REMARK 922        TOTAL FREE ENERGY PREDICTED BY IDOCK:   -6.95 KCAL/MOL
REMARK 923 INTER-LIGAND FREE ENERGY PREDICTED BY IDOCK:   -5.79 KCAL/MOL
REMARK 924 INTRA-LIGAND FREE ENERGY PREDICTED BY IDOCK:   -1.15 KCAL/MOL
REMARK 927      BINDING AFFINITY PREDICTED BY RF-SCORE:    0.00 PKD
ROOT
HETATM    1  C   UNL     1     -11.161  13.401  66.321  1.00  0.00    -0.305 C  
HETATM    2  C   UNL     1     -11.723  12.096  66.867  1.00  0.00    -0.374 C  
ENDROOT
BRANCH   2   3
HETATM    3  C   UNL     1     -11.048  11.599  68.132  1.00  0.00    -0.298 C  
HETATM    4  C   UNL     1      -9.895  10.886  68.185  1.00  0.00    -0.187 C  
BRANCH   3   5
HETATM    5  C   UNL     1     -11.699  12.024  69.388  1.00  0.00    -0.402 A  
HETATM    6  H   UNL     1     -14.003  14.234  72.834  1.00  0.00     0.000 HD 
HETATM    7  C   UNL     1     -12.286  11.080  70.240  1.00  0.00    -0.447 A  
HETATM    8  C   UNL     1     -11.807  13.388  69.694  1.00  0.00    -0.394 A  
HETATM    9  C   UNL     1     -12.531  13.802  70.812  1.00  0.00    -0.441 A  
HETATM   10  O   UNL     1     -13.913  13.305  72.655  1.00  0.00    -0.741 OA 
HETATM   11  C   UNL     1     -13.020  11.495  71.354  1.00  0.00    -0.450 A  
HETATM   12  C   UNL     1     -13.153  12.855  71.617  1.00  0.00    -0.335 A  
ENDBRANCH   3   5
BRANCH   4  13
HETATM   13  C   UNL     1      -9.230  10.404  66.956  1.00  0.00    -0.165 A  
HETATM   14  C   UNL     1      -9.664   9.224  66.341  1.00  0.00    -0.325 A  
HETATM   15  C   UNL     1      -8.121  11.087  66.437  1.00  0.00    -0.166 A  
HETATM   16  C   UNL     1      -7.871   9.393  64.744  1.00  0.00    -0.118 A  
HETATM   17  H   UNL     1      -7.510   8.039  63.281  1.00  0.00     0.000 HD 
HETATM   18  C   UNL     1      -7.440  10.580  65.327  1.00  0.00    -0.065 A  
HETATM   19  O   UNL     1      -7.216   8.850  63.679  1.00  0.00    -0.092 OA 
HETATM   20  C   UNL     1      -8.981   8.716  65.234  1.00  0.00    -0.150 A  
ENDBRANCH   4  13
BRANCH   4  21
HETATM   21  C   UNL     1      -9.094  10.578  69.447  1.00  0.00    -0.123 C  
HETATM   22  C   UNL     1      -9.303   9.177  70.008  1.00  0.00    -0.218 C  
ENDBRANCH   4  21
ENDBRANCH   2   3
TORSDOF 4
ENDMDL
MODEL       62
REMARK 921   NORMALIZED FREE ENERGY PREDICTED BY IDOCK:   -4.85 KCAL/MOL
REMARK 922        TOTAL FREE ENERGY PREDICTED BY IDOCK:   -6.94 KCAL/MOL
REMARK 923 INTER-LIGAND FREE ENERGY PREDICTED BY IDOCK:   -6.79 KCAL/MOL
REMARK 924 INTRA-LIGAND FREE ENERGY PREDICTED BY IDOCK:   -0.15 KCAL/MOL
REMARK 927      BINDING AFFINITY PREDICTED BY RF-SCORE:    0.00 PKD
ROOT
HETATM    1  C   UNL     1     -11.952  16.068  71.803  1.00  0.00    -0.592 C  
HETATM    2  C   UNL     1     -12.508  15.584  70.471  1.00  0.00    -0.472 C  
ENDROOT
BRANCH   2   3
HETATM    3  C   UNL     1     -11.681  14.503  69.799  1.00  0.00    -0.356 C  
HETATM    4  C   UNL     1     -10.595  14.712  69.014  1.00  0.00    -0.248 C  
BRANCH   3   5
HETATM    5  C   UNL     1     -12.088  13.121  70.125  1.00  0.00    -0.392 A  
HETATM    6  H   UNL     1     -12.526   8.471  70.627  1.00  0.00     0.000 HD 
HETATM    7  C   UNL     1     -12.744  12.839  71.330  1.00  0.00    -0.353 A  
HETATM    8  C   UNL     1     -11.743  12.068  69.266  1.00  0.00    -0.389 A  
HETATM    9  C   UNL     1     -12.012  10.748  69.631  1.00  0.00    -0.385 A  
HETATM   10  O   UNL     1     -12.791   9.176  71.205  1.00  0.00    -0.289 OA 
HETATM   11  C   UNL     1     -13.003  11.516  71.700  1.00  0.00    -0.499 A  
HETATM   12  C   UNL     1     -12.615  10.482  70.854  1.00  0.00    -0.398 A  
ENDBRANCH   3   5
BRANCH   4  13
HETATM   13  C   UNL     1     -10.174  16.075  68.627  1.00  0.00    -0.231 A  
HETATM   14  C   UNL     1     -11.018  16.874  67.848  1.00  0.00    -0.251 A  
HETATM   15  C   UNL     1      -8.904  16.551  68.981  1.00  0.00    -0.223 A  
HETATM   16  C   UNL     1      -9.318  18.575  67.744  1.00  0.00    -0.291 A  
HETATM   17  H   UNL     1      -9.501  20.316  66.725  1.00  0.00     0.000 HD 
HETATM   18  C   UNL     1      -8.475  17.805  68.538  1.00  0.00    -0.296 A  
HETATM   19  O   UNL     1      -8.925  19.790  67.267  1.00  0.00    -0.302 OA 
HETATM   20  C   UNL     1     -10.588  18.126  67.403  1.00  0.00    -0.406 A  
ENDBRANCH   4  13
BRANCH   4  21
HETATM   21  C   UNL     1      -9.630  13.637  68.521  1.00  0.00    -0.165 C  
HETATM   22  C   UNL     1      -9.488  13.554  67.007  1.00  0.00    -0.251 C  
ENDBRANCH   4  21
ENDBRANCH   2   3
TORSDOF 4
ENDMDL
MODEL       63
REMARK 921   NORMALIZED FREE ENERGY PREDICTED BY IDOCK:   -4.78 KCAL/MOL
REMARK 922        TOTAL FREE ENERGY PREDICTED BY IDOCK:   -6.86 KCAL/MOL
REMARK 923 INTER-LIGAND FREE ENERGY PREDICTED BY IDOCK:   -6.24 KCAL/MOL
REMARK 924 INTRA-LIGAND FREE ENERGY PREDICTED BY IDOCK:   -0.62 KCAL/MOL
REMARK 927      BINDING AFFINITY PREDICTED BY RF-SCORE:    0.00 PKD
ROOT
HETATM    1  C   UNL     1     -10.382  10.477  66.757  1.00  0.00    -0.301 C  
HETATM    2  C   UNL     1      -9.802  11.227  67.948  1.00  0.00    -0.187 C  
ENDROOT
BRANCH   2   3
HETATM    3  C   UNL     1     -10.838  11.808  68.893  1.00  0.00    -0.265 C  
HETATM    4  C   UNL     1     -11.325  13.073  68.851  1.00  0.00    -0.333 C  
BRANCH   3   5
HETATM    5  C   UNL     1     -11.390  10.848  69.871  1.00  0.00    -0.381 A  
HETATM    6  H   UNL     1     -12.188   7.849  73.398  1.00  0.00     0.000 HD 
HETATM    7  C   UNL     1     -12.742  10.899  70.233  1.00  0.00    -0.285 A  
HETATM    8  C   UNL     1     -10.541   9.932  70.508  1.00  0.00    -0.359 A  
HETATM    9  C   UNL     1     -11.030   9.110  71.524  1.00  0.00    -0.434 A  
HETATM   10  O   UNL     1     -12.780   8.445  72.955  1.00  0.00    -0.199 OA 
HETATM   11  C   UNL     1     -13.229  10.083  71.258  1.00  0.00    -0.469 A  
HETATM   12  C   UNL     1     -12.362   9.211  71.908  1.00  0.00    -0.385 A  
ENDBRANCH   3   5
BRANCH   4  13
HETATM   13  C   UNL     1     -10.776  14.079  67.917  1.00  0.00    -0.246 A  
HETATM   14  C   UNL     1      -9.665  14.846  68.287  1.00  0.00    -0.215 A  
HETATM   15  C   UNL     1     -11.402  14.319  66.687  1.00  0.00    -0.356 A  
HETATM   16  C   UNL     1      -9.844  16.100  66.240  1.00  0.00    -0.307 A  
HETATM   17  H   UNL     1      -8.632  17.641  65.732  1.00  0.00     0.000 HD 
HETATM   18  C   UNL     1     -10.935  15.331  65.845  1.00  0.00    -0.325 A  
HETATM   19  O   UNL     1      -9.377  17.116  65.462  1.00  0.00    -0.421 OA 
HETATM   20  C   UNL     1      -9.200  15.860  67.448  1.00  0.00    -0.207 A  
ENDBRANCH   4  13
BRANCH   4  21
HETATM   21  C   UNL     1     -12.519  13.596  69.644  1.00  0.00    -0.145 C  
HETATM   22  C   UNL     1     -12.159  14.323  70.933  1.00  0.00    -0.417 C  
ENDBRANCH   4  21
ENDBRANCH   2   3
TORSDOF 4
ENDMDL
MODEL       64
REMARK 921   NORMALIZED FREE ENERGY PREDICTED BY IDOCK:   -4.72 KCAL/MOL
REMARK 922        TOTAL FREE ENERGY PREDICTED BY IDOCK:   -6.78 KCAL/MOL
REMARK 923 INTER-LIGAND FREE ENERGY PREDICTED BY IDOCK:   -5.61 KCAL/MOL
REMARK 924 INTRA-LIGAND FREE ENERGY PREDICTED BY IDOCK:   -1.17 KCAL/MOL
REMARK 927      BINDING AFFINITY PREDICTED BY RF-SCORE:    0.00 PKD
ROOT
HETATM    1  C   UNL     1     -11.531  14.775  65.320  1.00  0.00    -0.352 C  
HETATM    2  C   UNL     1     -10.194  14.320  65.886  1.00  0.00    -0.338 C  
ENDROOT
BRANCH   2   3
HETATM    3  C   UNL     1     -10.298  13.379  67.072  1.00  0.00    -0.247 C  
HETATM    4  C   UNL     1      -9.972  12.063  67.068  1.00  0.00    -0.218 C  
BRANCH   3   5
HETATM    5  C   UNL     1     -10.721  14.020  68.334  1.00  0.00    -0.261 A  
HETATM    6  H   UNL     1     -11.444  16.833  72.026  1.00  0.00     0.000 HD 
HETATM    7  C   UNL     1     -12.001  13.792  68.854  1.00  0.00    -0.394 A  
HETATM    8  C   UNL     1      -9.869  14.930  68.977  1.00  0.00    -0.220 A  
HETATM    9  C   UNL     1     -10.311  15.634  70.097  1.00  0.00    -0.268 A  
HETATM   10  O   UNL     1     -12.020  16.198  71.618  1.00  0.00    -0.465 OA 
HETATM   11  C   UNL     1     -12.448  14.505  69.970  1.00  0.00    -0.348 A  
HETATM   12  C   UNL     1     -11.603  15.435  70.568  1.00  0.00    -0.326 A  
ENDBRANCH   3   5
BRANCH   4  13
HETATM   13  C   UNL     1      -9.583  11.369  65.822  1.00  0.00    -0.260 A  
HETATM   14  C   UNL     1     -10.457  11.350  64.728  1.00  0.00    -0.366 A  
HETATM   15  C   UNL     1      -8.369  10.673  65.748  1.00  0.00    -0.162 A  
HETATM   16  C   UNL     1      -8.936   9.916  63.533  1.00  0.00    -0.252 A  
HETATM   17  H   UNL     1      -9.280   9.174  61.680  1.00  0.00     0.000 HD 
HETATM   18  C   UNL     1      -8.044   9.944  64.600  1.00  0.00    -0.152 A  
HETATM   19  O   UNL     1      -8.671   9.193  62.409  1.00  0.00    -0.213 OA 
HETATM   20  C   UNL     1     -10.134  10.619  63.583  1.00  0.00    -0.311 A  
ENDBRANCH   4  13
BRANCH   4  21
HETATM   21  C   UNL     1      -9.860  11.167  68.298  1.00  0.00    -0.195 C  
HETATM   22  C   UNL     1     -10.930  10.088  68.400  1.00  0.00    -0.266 C  
ENDBRANCH   4  21
ENDBRANCH   2   3
TORSDOF 4
ENDMDL
MODEL       65
REMARK 921   NORMALIZED FREE ENERGY PREDICTED BY IDOCK:   -4.69 KCAL/MOL
REMARK 922        TOTAL FREE ENERGY PREDICTED BY IDOCK:   -6.75 KCAL/MOL
REMARK 923 INTER-LIGAND FREE ENERGY PREDICTED BY IDOCK:   -5.40 KCAL/MOL
REMARK 924 INTRA-LIGAND FREE ENERGY PREDICTED BY IDOCK:   -1.35 KCAL/MOL
REMARK 927      BINDING AFFINITY PREDICTED BY RF-SCORE:    0.00 PKD
ROOT
HETATM    1  C   UNL     1     -10.136   6.637  74.123  1.00  0.00    -0.390 C  
HETATM    2  C   UNL     1      -9.459   7.286  72.923  1.00  0.00    -0.200 C  
ENDROOT
BRANCH   2   3
HETATM    3  C   UNL     1     -10.298   7.305  71.659  1.00  0.00    -0.214 C  
HETATM    4  C   UNL     1     -10.373   6.306  70.745  1.00  0.00    -0.256 C  
BRANCH   3   5
HETATM    5  C   UNL     1     -11.149   8.502  71.501  1.00  0.00    -0.343 A  
HETATM    6  H   UNL     1     -14.133  12.098  71.981  1.00  0.00     0.000 HD 
HETATM    7  C   UNL     1     -10.736   9.566  70.688  1.00  0.00    -0.375 A  
HETATM    8  C   UNL     1     -12.340   8.617  72.233  1.00  0.00    -0.449 A  
HETATM    9  C   UNL     1     -13.081   9.797  72.186  1.00  0.00    -0.513 A  
HETATM   10  O   UNL     1     -13.344  12.023  71.458  1.00  0.00    -0.261 OA 
HETATM   11  C   UNL     1     -11.474  10.752  70.650  1.00  0.00    -0.314 A  
HETATM   12  C   UNL     1     -12.630  10.863  71.416  1.00  0.00    -0.403 A  
ENDBRANCH   3   5
BRANCH   4  13
HETATM   13  C   UNL     1      -9.512   5.109  70.839  1.00  0.00    -0.223 A  
HETATM   14  C   UNL     1      -8.200   5.148  70.353  1.00  0.00    -0.098 A  
HETATM   15  C   UNL     1     -10.022   3.909  71.354  1.00  0.00    -0.198 A  
HETATM   16  C   UNL     1      -7.941   2.807  70.851  1.00  0.00    -0.049 A  
HETATM   17  H   UNL     1      -6.268   1.733  70.463  1.00  0.00     0.000 HD 
HETATM   18  C   UNL     1      -9.234   2.755  71.360  1.00  0.00    -0.190 A  
HETATM   19  O   UNL     1      -7.151   1.697  70.811  1.00  0.00    -0.032 OA 
HETATM   20  C   UNL     1      -7.414   3.994  70.356  1.00  0.00    -0.045 A  
ENDBRANCH   4  13
BRANCH   4  21
HETATM   21  C   UNL     1     -11.375   6.221  69.597  1.00  0.00    -0.492 C  
HETATM   22  C   UNL     1     -10.758   6.287  68.206  1.00  0.00    -0.356 C  
ENDBRANCH   4  21
ENDBRANCH   2   3
TORSDOF 4
ENDMDL
MODEL       66
REMARK 921   NORMALIZED FREE ENERGY PREDICTED BY IDOCK:   -4.69 KCAL/MOL
REMARK 922        TOTAL FREE ENERGY PREDICTED BY IDOCK:   -6.75 KCAL/MOL
REMARK 923 INTER-LIGAND FREE ENERGY PREDICTED BY IDOCK:   -5.38 KCAL/MOL
REMARK 924 INTRA-LIGAND FREE ENERGY PREDICTED BY IDOCK:   -1.36 KCAL/MOL
REMARK 927      BINDING AFFINITY PREDICTED BY RF-SCORE:    0.00 PKD
ROOT
HETATM    1  C   UNL     1     -10.809   6.444  68.303  1.00  0.00    -0.384 C  
HETATM    2  C   UNL     1     -11.426   6.282  69.686  1.00  0.00    -0.425 C  
ENDROOT
BRANCH   2   3
HETATM    3  C   UNL     1     -10.443   6.420  70.834  1.00  0.00    -0.275 C  
HETATM    4  C   UNL     1     -10.383   7.460  71.703  1.00  0.00    -0.215 C  
BRANCH   3   5
HETATM    5  C   UNL     1      -9.551   5.258  71.028  1.00  0.00    -0.227 A  
HETATM    6  H   UNL     1      -7.598   1.015  71.529  1.00  0.00     0.000 HD 
HETATM    7  C   UNL     1      -8.226   5.295  70.577  1.00  0.00    -0.108 A  
HETATM    8  C   UNL     1     -10.054   4.075  71.589  1.00  0.00    -0.183 A  
HETATM    9  C   UNL     1      -9.254   2.935  71.657  1.00  0.00    -0.181 A  
HETATM   10  O   UNL     1      -7.236   1.818  71.173  1.00  0.00    -0.032 OA 
HETATM   11  C   UNL     1      -7.427   4.150  70.635  1.00  0.00    -0.045 A  
HETATM   12  C   UNL     1      -7.958   2.974  71.156  1.00  0.00    -0.057 A  
ENDBRANCH   3   5
BRANCH   4  13
HETATM   13  C   UNL     1     -11.226   8.661  71.526  1.00  0.00    -0.360 A  
HETATM   14  C   UNL     1     -10.818   9.682  70.661  1.00  0.00    -0.386 A  
HETATM   15  C   UNL     1     -12.403   8.815  72.270  1.00  0.00    -0.448 A  
HETATM   16  C   UNL     1     -12.717  11.006  71.321  1.00  0.00    -0.432 A  
HETATM   17  H   UNL     1     -13.105  12.872  70.636  1.00  0.00     0.000 HD 
HETATM   18  C   UNL     1     -13.151   9.991  72.167  1.00  0.00    -0.482 A  
HETATM   19  O   UNL     1     -13.402  12.179  71.215  1.00  0.00    -0.100 OA 
HETATM   20  C   UNL     1     -11.564  10.859  70.560  1.00  0.00    -0.397 A  
ENDBRANCH   4  13
BRANCH   4  21
HETATM   21  C   UNL     1      -9.557   7.505  72.985  1.00  0.00    -0.268 C  
HETATM   22  C   UNL     1     -10.146   6.723  74.151  1.00  0.00    -0.381 C  
ENDBRANCH   4  21
ENDBRANCH   2   3
TORSDOF 4
ENDMDL
MODEL       67
REMARK 921   NORMALIZED FREE ENERGY PREDICTED BY IDOCK:   -4.63 KCAL/MOL
REMARK 922        TOTAL FREE ENERGY PREDICTED BY IDOCK:   -6.68 KCAL/MOL
REMARK 923 INTER-LIGAND FREE ENERGY PREDICTED BY IDOCK:   -5.46 KCAL/MOL
REMARK 924 INTRA-LIGAND FREE ENERGY PREDICTED BY IDOCK:   -1.22 KCAL/MOL
REMARK 927      BINDING AFFINITY PREDICTED BY RF-SCORE:    0.00 PKD
ROOT
HETATM    1  C   UNL     1     -10.316   7.170  68.419  1.00  0.00    -0.220 C  
HETATM    2  C   UNL     1     -11.188   6.444  69.434  1.00  0.00    -0.459 C  
ENDROOT
BRANCH   2   3
HETATM    3  C   UNL     1     -11.096   6.988  70.848  1.00  0.00    -0.300 C  
HETATM    4  C   UNL     1     -10.375   6.443  71.859  1.00  0.00    -0.228 C  
BRANCH   3   5
HETATM    5  C   UNL     1     -11.804   8.266  71.065  1.00  0.00    -0.276 A  
HETATM    6  H   UNL     1     -14.409  11.855  72.617  1.00  0.00     0.000 HD 
HETATM    7  C   UNL     1     -11.237   9.475  70.642  1.00  0.00    -0.364 A  
HETATM    8  C   UNL     1     -13.013   8.285  71.775  1.00  0.00    -0.367 A  
HETATM    9  C   UNL     1     -13.622   9.499  72.094  1.00  0.00    -0.500 A  
HETATM   10  O   UNL     1     -13.605  11.855  72.110  1.00  0.00    -0.377 OA 
HETATM   11  C   UNL     1     -11.841  10.692  70.971  1.00  0.00    -0.396 A  
HETATM   12  C   UNL     1     -13.018  10.691  71.713  1.00  0.00    -0.472 A  
ENDBRANCH   3   5
BRANCH   4  13
HETATM   13  C   UNL     1      -9.683   5.147  71.701  1.00  0.00    -0.217 A  
HETATM   14  C   UNL     1      -8.429   5.092  71.083  1.00  0.00    -0.123 A  
HETATM   15  C   UNL     1     -10.305   3.958  72.107  1.00  0.00    -0.139 A  
HETATM   16  C   UNL     1      -8.452   2.690  71.239  1.00  0.00    -0.062 A  
HETATM   17  H   UNL     1      -6.987   1.483  70.532  1.00  0.00     0.000 HD 
HETATM   18  C   UNL     1      -9.688   2.726  71.876  1.00  0.00    -0.221 A  
HETATM   19  O   UNL     1      -7.831   1.508  70.967  1.00  0.00    -0.035 OA 
HETATM   20  C   UNL     1      -7.813   3.861  70.849  1.00  0.00    -0.051 A  
ENDBRANCH   4  13
BRANCH   4  21
HETATM   21  C   UNL     1     -10.096   7.098  73.209  1.00  0.00    -0.318 C  
HETATM   22  C   UNL     1      -8.900   8.041  73.225  1.00  0.00    -0.330 C  
ENDBRANCH   4  21
ENDBRANCH   2   3
TORSDOF 4
ENDMDL
MODEL       68
REMARK 921   NORMALIZED FREE ENERGY PREDICTED BY IDOCK:   -4.62 KCAL/MOL
REMARK 922        TOTAL FREE ENERGY PREDICTED BY IDOCK:   -6.66 KCAL/MOL
REMARK 923 INTER-LIGAND FREE ENERGY PREDICTED BY IDOCK:   -6.32 KCAL/MOL
REMARK 924 INTRA-LIGAND FREE ENERGY PREDICTED BY IDOCK:   -0.33 KCAL/MOL
REMARK 927      BINDING AFFINITY PREDICTED BY RF-SCORE:    0.00 PKD
ROOT
HETATM    1  C   UNL     1      -9.743   8.915  71.611  1.00  0.00    -0.379 C  
HETATM    2  C   UNL     1     -10.992   9.229  70.799  1.00  0.00    -0.349 C  
ENDROOT
BRANCH   2   3
HETATM    3  C   UNL     1     -10.727   9.942  69.486  1.00  0.00    -0.265 C  
HETATM    4  C   UNL     1     -11.107  11.209  69.184  1.00  0.00    -0.306 C  
BRANCH   3   5
HETATM    5  C   UNL     1      -9.912   9.177  68.520  1.00  0.00    -0.192 A  
HETATM    6  H   UNL     1      -8.182   6.794  64.860  1.00  0.00     0.000 HD 
HETATM    7  C   UNL     1      -8.527   9.371  68.447  1.00  0.00    -0.120 A  
HETATM    8  C   UNL     1     -10.535   8.310  67.611  1.00  0.00    -0.303 A  
HETATM    9  C   UNL     1      -9.787   7.683  66.614  1.00  0.00    -0.283 A  
HETATM   10  O   UNL     1      -7.743   7.355  65.488  1.00  0.00    -0.094 OA 
HETATM   11  C   UNL     1      -7.780   8.751  67.442  1.00  0.00    -0.097 A  
HETATM   12  C   UNL     1      -8.423   7.928  66.522  1.00  0.00    -0.134 A  
ENDBRANCH   3   5
BRANCH   4  13
HETATM   13  C   UNL     1     -11.956  11.998  70.101  1.00  0.00    -0.401 A  
HETATM   14  C   UNL     1     -12.031  13.389  69.964  1.00  0.00    -0.407 A  
HETATM   15  C   UNL     1     -12.638  11.369  71.152  1.00  0.00    -0.490 A  
HETATM   16  C   UNL     1     -13.412  13.512  71.933  1.00  0.00    -0.442 A  
HETATM   17  H   UNL     1     -14.117  15.235  72.730  1.00  0.00     0.000 HD 
HETATM   18  C   UNL     1     -13.369  12.128  72.070  1.00  0.00    -0.470 A  
HETATM   19  O   UNL     1     -14.087  14.290  72.824  1.00  0.00    -0.575 OA 
HETATM   20  C   UNL     1     -12.758  14.147  70.884  1.00  0.00    -0.432 A  
ENDBRANCH   4  13
BRANCH   4  21
HETATM   21  C   UNL     1     -10.656  12.009  67.965  1.00  0.00    -0.233 C  
HETATM   22  C   UNL     1     -11.511  11.811  66.721  1.00  0.00    -0.352 C  
ENDBRANCH   4  21
ENDBRANCH   2   3
TORSDOF 4
ENDMDL
MODEL       69
REMARK 921   NORMALIZED FREE ENERGY PREDICTED BY IDOCK:   -4.59 KCAL/MOL
REMARK 922        TOTAL FREE ENERGY PREDICTED BY IDOCK:   -6.62 KCAL/MOL
REMARK 923 INTER-LIGAND FREE ENERGY PREDICTED BY IDOCK:   -6.60 KCAL/MOL
REMARK 924 INTRA-LIGAND FREE ENERGY PREDICTED BY IDOCK:   -0.02 KCAL/MOL
REMARK 927      BINDING AFFINITY PREDICTED BY RF-SCORE:    0.00 PKD
ROOT
HETATM    1  C   UNL     1     -11.101  10.172  69.745  1.00  0.00    -0.328 C  
HETATM    2  C   UNL     1     -12.183  11.024  69.096  1.00  0.00    -0.229 C  
ENDROOT
BRANCH   2   3
HETATM    3  C   UNL     1     -11.848  12.500  68.996  1.00  0.00    -0.344 C  
HETATM    4  C   UNL     1     -11.244  13.104  67.943  1.00  0.00    -0.300 C  
BRANCH   3   5
HETATM    5  C   UNL     1     -12.313  13.318  70.135  1.00  0.00    -0.306 A  
HETATM    6  H   UNL     1     -13.434  15.120  74.326  1.00  0.00     0.000 HD 
HETATM    7  C   UNL     1     -12.269  14.717  70.072  1.00  0.00    -0.385 A  
HETATM    8  C   UNL     1     -12.723  12.696  71.323  1.00  0.00    -0.354 A  
HETATM    9  C   UNL     1     -13.040  13.463  72.444  1.00  0.00    -0.469 A  
HETATM   10  O   UNL     1     -13.186  15.555  73.519  1.00  0.00    -0.497 OA 
HETATM   11  C   UNL     1     -12.577  15.485  71.198  1.00  0.00    -0.509 A  
HETATM   12  C   UNL     1     -12.940  14.848  72.380  1.00  0.00    -0.352 A  
ENDBRANCH   3   5
BRANCH   4  13
HETATM   13  C   UNL     1     -10.726  12.323  66.800  1.00  0.00    -0.272 A  
HETATM   14  C   UNL     1     -11.470  12.232  65.618  1.00  0.00    -0.416 A  
HETATM   15  C   UNL     1      -9.522  11.616  66.914  1.00  0.00    -0.195 A  
HETATM   16  C   UNL     1      -9.844  10.709  64.706  1.00  0.00    -0.310 A  
HETATM   17  H   UNL     1      -9.985   9.842  62.881  1.00  0.00     0.000 HD 
HETATM   18  C   UNL     1      -9.079  10.807  65.864  1.00  0.00    -0.208 A  
HETATM   19  O   UNL     1      -9.463   9.908  63.671  1.00  0.00    -0.262 OA 
HETATM   20  C   UNL     1     -11.030  11.422  64.570  1.00  0.00    -0.346 A  
ENDBRANCH   4  13
BRANCH   4  21
HETATM   21  C   UNL     1     -11.106  14.610  67.736  1.00  0.00    -0.306 C  
HETATM   22  C   UNL     1      -9.671  15.120  67.702  1.00  0.00    -0.211 C  
ENDBRANCH   4  21
ENDBRANCH   2   3
TORSDOF 4
ENDMDL
MODEL       70
REMARK 921   NORMALIZED FREE ENERGY PREDICTED BY IDOCK:   -4.59 KCAL/MOL
REMARK 922        TOTAL FREE ENERGY PREDICTED BY IDOCK:   -6.62 KCAL/MOL
REMARK 923 INTER-LIGAND FREE ENERGY PREDICTED BY IDOCK:   -5.19 KCAL/MOL
REMARK 924 INTRA-LIGAND FREE ENERGY PREDICTED BY IDOCK:   -1.43 KCAL/MOL
REMARK 927      BINDING AFFINITY PREDICTED BY RF-SCORE:    0.00 PKD
ROOT
HETATM    1  C   UNL     1      -8.690   8.580  66.304  1.00  0.00    -0.164 C  
HETATM    2  C   UNL     1     -10.130   8.651  66.794  1.00  0.00    -0.366 C  
ENDROOT
BRANCH   2   3
HETATM    3  C   UNL     1     -10.278   8.979  68.269  1.00  0.00    -0.241 C  
HETATM    4  C   UNL     1     -10.542  10.206  68.783  1.00  0.00    -0.236 C  
BRANCH   3   5
HETATM    5  C   UNL     1     -10.201   7.812  69.172  1.00  0.00    -0.210 A  
HETATM    6  H   UNL     1     -10.598   3.668  71.348  1.00  0.00     0.000 HD 
HETATM    7  C   UNL     1      -9.028   7.544  69.888  1.00  0.00    -0.141 A  
HETATM    8  C   UNL     1     -11.276   6.916  69.252  1.00  0.00    -0.188 A  
HETATM    9  C   UNL     1     -11.161   5.747  70.004  1.00  0.00    -0.329 A  
HETATM   10  O   UNL     1      -9.873   4.281  71.325  1.00  0.00    -0.178 OA 
HETATM   11  C   UNL     1      -8.908   6.367  70.632  1.00  0.00    -0.144 A  
HETATM   12  C   UNL     1      -9.970   5.470  70.665  1.00  0.00    -0.207 A  
ENDBRANCH   3   5
BRANCH   4  13
HETATM   13  C   UNL     1     -10.589  11.408  67.924  1.00  0.00    -0.224 A  
HETATM   14  C   UNL     1     -11.768  11.740  67.248  1.00  0.00    -0.293 A  
HETATM   15  C   UNL     1      -9.438  12.183  67.729  1.00  0.00    -0.192 A  
HETATM   16  C   UNL     1     -10.636  13.568  66.164  1.00  0.00    -0.290 A  
HETATM   17  H   UNL     1     -11.494  14.803  64.808  1.00  0.00     0.000 HD 
HETATM   18  C   UNL     1      -9.462  13.267  66.847  1.00  0.00    -0.249 A  
HETATM   19  O   UNL     1     -10.692  14.598  65.273  1.00  0.00    -0.329 OA 
HETATM   20  C   UNL     1     -11.791  12.821  66.364  1.00  0.00    -0.472 A  
ENDBRANCH   4  13
BRANCH   4  21
HETATM   21  C   UNL     1     -10.913  10.504  70.233  1.00  0.00    -0.306 C  
HETATM   22  C   UNL     1     -12.409  10.495  70.523  1.00  0.00    -0.432 C  
ENDBRANCH   4  21
ENDBRANCH   2   3
TORSDOF 4
ENDMDL
MODEL       71
REMARK 921   NORMALIZED FREE ENERGY PREDICTED BY IDOCK:   -4.59 KCAL/MOL
REMARK 922        TOTAL FREE ENERGY PREDICTED BY IDOCK:   -6.62 KCAL/MOL
REMARK 923 INTER-LIGAND FREE ENERGY PREDICTED BY IDOCK:   -5.16 KCAL/MOL
REMARK 924 INTRA-LIGAND FREE ENERGY PREDICTED BY IDOCK:   -1.46 KCAL/MOL
REMARK 927      BINDING AFFINITY PREDICTED BY RF-SCORE:    0.00 PKD
ROOT
HETATM    1  C   UNL     1      -7.263  12.112  67.277  1.00  0.00    -0.144 C  
HETATM    2  C   UNL     1      -8.568  12.027  68.057  1.00  0.00    -0.170 C  
ENDROOT
BRANCH   2   3
HETATM    3  C   UNL     1      -9.536  10.972  67.553  1.00  0.00    -0.175 C  
HETATM    4  C   UNL     1      -9.720   9.744  68.097  1.00  0.00    -0.163 C  
BRANCH   3   5
HETATM    5  C   UNL     1     -10.383  11.402  66.422  1.00  0.00    -0.284 A  
HETATM    6  H   UNL     1     -13.256  13.601  63.426  1.00  0.00     0.000 HD 
HETATM    7  C   UNL     1     -10.042  11.059  65.107  1.00  0.00    -0.346 A  
HETATM    8  C   UNL     1     -11.491  12.230  66.652  1.00  0.00    -0.431 A  
HETATM    9  C   UNL     1     -12.219  12.743  65.578  1.00  0.00    -0.519 A  
HETATM   10  O   UNL     1     -12.526  13.018  63.257  1.00  0.00    -0.699 OA 
HETATM   11  C   UNL     1     -10.765  11.581  64.031  1.00  0.00    -0.445 A  
HETATM   12  C   UNL     1     -11.835  12.436  64.278  1.00  0.00    -0.398 A  
ENDBRANCH   3   5
BRANCH   4  13
HETATM   13  C   UNL     1      -8.869   9.255  69.203  1.00  0.00    -0.141 A  
HETATM   14  C   UNL     1      -9.329   9.323  70.523  1.00  0.00    -0.316 A  
HETATM   15  C   UNL     1      -7.575   8.783  68.945  1.00  0.00    -0.091 A  
HETATM   16  C   UNL     1      -7.206   8.502  71.308  1.00  0.00    -0.081 A  
HETATM   17  H   UNL     1      -6.731   8.239  73.259  1.00  0.00     0.000 HD 
HETATM   18  C   UNL     1      -6.741   8.405  70.001  1.00  0.00    -0.042 A  
HETATM   19  O   UNL     1      -6.414   8.173  72.367  1.00  0.00    -0.066 OA 
HETATM   20  C   UNL     1      -8.494   8.949  71.578  1.00  0.00    -0.182 A  
ENDBRANCH   4  13
BRANCH   4  21
HETATM   21  C   UNL     1     -10.839   8.769  67.741  1.00  0.00    -0.087 C  
HETATM   22  C   UNL     1     -10.399   7.568  66.914  1.00  0.00    -0.379 C  
ENDBRANCH   4  21
ENDBRANCH   2   3
TORSDOF 4
ENDMDL
MODEL       72
REMARK 921   NORMALIZED FREE ENERGY PREDICTED BY IDOCK:   -4.58 KCAL/MOL
REMARK 922        TOTAL FREE ENERGY PREDICTED BY IDOCK:   -6.61 KCAL/MOL
REMARK 923 INTER-LIGAND FREE ENERGY PREDICTED BY IDOCK:   -5.41 KCAL/MOL
REMARK 924 INTRA-LIGAND FREE ENERGY PREDICTED BY IDOCK:   -1.20 KCAL/MOL
REMARK 927      BINDING AFFINITY PREDICTED BY RF-SCORE:    0.00 PKD
ROOT
HETATM    1  C   UNL     1     -11.789  15.085  64.906  1.00  0.00    -0.298 C  
HETATM    2  C   UNL     1     -10.289  15.001  65.154  1.00  0.00    -0.422 C  
ENDROOT
BRANCH   2   3
HETATM    3  C   UNL     1      -9.906  14.569  66.557  1.00  0.00    -0.297 C  
HETATM    4  C   UNL     1      -9.308  15.353  67.489  1.00  0.00    -0.204 C  
BRANCH   3   5
HETATM    5  C   UNL     1     -10.313  13.195  66.914  1.00  0.00    -0.247 A  
HETATM    6  H   UNL     1     -10.582   8.643  68.044  1.00  0.00     0.000 HD 
HETATM    7  C   UNL     1     -11.456  12.972  67.694  1.00  0.00    -0.369 A  
HETATM    8  C   UNL     1      -9.509  12.108  66.545  1.00  0.00    -0.235 A  
HETATM    9  C   UNL     1      -9.820  10.822  66.988  1.00  0.00    -0.221 A  
HETATM   10  O   UNL     1     -11.152   9.367  68.278  1.00  0.00    -0.097 OA 
HETATM   11  C   UNL     1     -11.761  11.685  68.146  1.00  0.00    -0.365 A  
HETATM   12  C   UNL     1     -10.927  10.626  67.805  1.00  0.00    -0.306 A  
ENDBRANCH   3   5
BRANCH   4  13
HETATM   13  C   UNL     1      -8.846  16.719  67.166  1.00  0.00    -0.217 A  
HETATM   14  C   UNL     1      -7.681  16.906  66.413  1.00  0.00    -0.345 A  
HETATM   15  C   UNL     1      -9.533  17.835  67.664  1.00  0.00    -0.255 A  
HETATM   16  C   UNL     1      -7.871  19.288  66.703  1.00  0.00    -0.271 A  
HETATM   17  H   UNL     1      -6.544  20.638  65.982  1.00  0.00     0.000 HD 
HETATM   18  C   UNL     1      -9.044  19.123  67.432  1.00  0.00    -0.333 A  
HETATM   19  O   UNL     1      -7.345  20.525  66.480  1.00  0.00    -0.261 OA 
HETATM   20  C   UNL     1      -7.191  18.193  66.184  1.00  0.00    -0.316 A  
ENDBRANCH   4  13
BRANCH   4  21
HETATM   21  C   UNL     1      -9.123  15.003  68.963  1.00  0.00    -0.205 C  
HETATM   22  C   UNL     1      -7.673  14.905  69.418  1.00  0.00    -0.150 C  
ENDBRANCH   4  21
ENDBRANCH   2   3
TORSDOF 4
ENDMDL
MODEL       73
REMARK 921   NORMALIZED FREE ENERGY PREDICTED BY IDOCK:   -4.57 KCAL/MOL
REMARK 922        TOTAL FREE ENERGY PREDICTED BY IDOCK:   -6.60 KCAL/MOL
REMARK 923 INTER-LIGAND FREE ENERGY PREDICTED BY IDOCK:   -6.12 KCAL/MOL
REMARK 924 INTRA-LIGAND FREE ENERGY PREDICTED BY IDOCK:   -0.48 KCAL/MOL
REMARK 927      BINDING AFFINITY PREDICTED BY RF-SCORE:    0.00 PKD
ROOT
HETATM    1  C   UNL     1     -12.411  13.554  64.032  1.00  0.00    -0.391 C  
HETATM    2  C   UNL     1     -12.413  12.843  65.378  1.00  0.00    -0.511 C  
ENDROOT
BRANCH   2   3
HETATM    3  C   UNL     1     -11.045  12.392  65.855  1.00  0.00    -0.349 C  
HETATM    4  C   UNL     1     -10.523  12.619  67.086  1.00  0.00    -0.245 C  
BRANCH   3   5
HETATM    5  C   UNL     1     -10.291  11.572  64.885  1.00  0.00    -0.340 A  
HETATM    6  H   UNL     1      -7.432   9.870  61.569  1.00  0.00     0.000 HD 
HETATM    7  C   UNL     1      -9.988  10.234  65.169  1.00  0.00    -0.395 A  
HETATM    8  C   UNL     1      -9.800  12.154  63.708  1.00  0.00    -0.259 A  
HETATM    9  C   UNL     1      -8.980  11.420  62.851  1.00  0.00    -0.194 A  
HETATM   10  O   UNL     1      -7.782   9.454  62.349  1.00  0.00    -0.112 OA 
HETATM   11  C   UNL     1      -9.158   9.502  64.315  1.00  0.00    -0.220 A  
HETATM   12  C   UNL     1      -8.645  10.111  63.174  1.00  0.00    -0.193 A  
ENDBRANCH   3   5
BRANCH   4  13
HETATM   13  C   UNL     1     -11.221  13.467  68.075  1.00  0.00    -0.298 A  
HETATM   14  C   UNL     1     -11.299  14.851  67.881  1.00  0.00    -0.340 A  
HETATM   15  C   UNL     1     -11.752  12.902  69.243  1.00  0.00    -0.378 A  
HETATM   16  C   UNL     1     -12.379  15.094  70.019  1.00  0.00    -0.315 A  
HETATM   17  H   UNL     1     -12.942  16.866  70.822  1.00  0.00     0.000 HD 
HETATM   18  C   UNL     1     -12.333  13.718  70.218  1.00  0.00    -0.407 A  
HETATM   19  O   UNL     1     -12.910  15.927  70.958  1.00  0.00    -0.445 OA 
HETATM   20  C   UNL     1     -11.877  15.666  68.857  1.00  0.00    -0.368 A  
ENDBRANCH   4  13
BRANCH   4  21
HETATM   21  C   UNL     1      -9.254  11.984  67.648  1.00  0.00    -0.182 C  
HETATM   22  C   UNL     1      -7.984  12.794  67.425  1.00  0.00    -0.179 C  
ENDBRANCH   4  21
ENDBRANCH   2   3
TORSDOF 4
ENDMDL
MODEL       74
REMARK 921   NORMALIZED FREE ENERGY PREDICTED BY IDOCK:   -4.55 KCAL/MOL
REMARK 922        TOTAL FREE ENERGY PREDICTED BY IDOCK:   -6.58 KCAL/MOL
REMARK 923 INTER-LIGAND FREE ENERGY PREDICTED BY IDOCK:   -5.22 KCAL/MOL
REMARK 924 INTRA-LIGAND FREE ENERGY PREDICTED BY IDOCK:   -1.35 KCAL/MOL
REMARK 927      BINDING AFFINITY PREDICTED BY RF-SCORE:    0.00 PKD
ROOT
HETATM    1  C   UNL     1     -11.453  11.370  69.276  1.00  0.00    -0.370 C  
HETATM    2  C   UNL     1     -11.209  10.436  68.099  1.00  0.00    -0.333 C  
ENDROOT
BRANCH   2   3
HETATM    3  C   UNL     1      -9.753  10.303  67.692  1.00  0.00    -0.189 C  
HETATM    4  C   UNL     1      -9.171  10.908  66.627  1.00  0.00    -0.184 C  
BRANCH   3   5
HETATM    5  C   UNL     1      -8.924   9.499  68.614  1.00  0.00    -0.132 A  
HETATM    6  H   UNL     1      -6.534   7.693  72.233  1.00  0.00     0.000 HD 
HETATM    7  C   UNL     1      -8.874   8.105  68.494  1.00  0.00    -0.134 A  
HETATM    8  C   UNL     1      -8.248  10.124  69.672  1.00  0.00    -0.176 A  
HETATM    9  C   UNL     1      -7.569   9.358  70.620  1.00  0.00    -0.163 A  
HETATM   10  O   UNL     1      -6.964   7.259  71.505  1.00  0.00    -0.058 OA 
HETATM   11  C   UNL     1      -8.203   7.337  69.450  1.00  0.00    -0.131 A  
HETATM   12  C   UNL     1      -7.574   7.972  70.516  1.00  0.00    -0.076 A  
ENDBRANCH   3   5
BRANCH   4  13
HETATM   13  C   UNL     1      -9.966  11.688  65.655  1.00  0.00    -0.274 A  
HETATM   14  C   UNL     1     -10.078  13.076  65.793  1.00  0.00    -0.294 A  
HETATM   15  C   UNL     1     -10.665  11.038  64.629  1.00  0.00    -0.318 A  
HETATM   16  C   UNL     1     -11.605  13.143  63.934  1.00  0.00    -0.433 A  
HETATM   17  H   UNL     1     -12.500  14.825  63.247  1.00  0.00     0.000 HD 
HETATM   18  C   UNL     1     -11.487  11.767  63.765  1.00  0.00    -0.510 A  
HETATM   19  O   UNL     1     -12.419  13.886  63.132  1.00  0.00    -0.766 OA 
HETATM   20  C   UNL     1     -10.902  13.804  64.933  1.00  0.00    -0.398 A  
ENDBRANCH   4  13
BRANCH   4  21
HETATM   21  C   UNL     1      -7.673  10.963  66.339  1.00  0.00    -0.154 C  
HETATM   22  C   UNL     1      -7.181   9.938  65.326  1.00  0.00    -0.131 C  
ENDBRANCH   4  21
ENDBRANCH   2   3
TORSDOF 4
ENDMDL
MODEL       75
REMARK 921   NORMALIZED FREE ENERGY PREDICTED BY IDOCK:   -4.55 KCAL/MOL
REMARK 922        TOTAL FREE ENERGY PREDICTED BY IDOCK:   -6.58 KCAL/MOL
REMARK 923 INTER-LIGAND FREE ENERGY PREDICTED BY IDOCK:   -5.58 KCAL/MOL
REMARK 924 INTRA-LIGAND FREE ENERGY PREDICTED BY IDOCK:   -0.99 KCAL/MOL
REMARK 927      BINDING AFFINITY PREDICTED BY RF-SCORE:    0.00 PKD
ROOT
HETATM    1  C   UNL     1      -7.081  12.246  67.817  1.00  0.00    -0.114 C  
HETATM    2  C   UNL     1      -8.170  11.850  66.829  1.00  0.00    -0.129 C  
ENDROOT
BRANCH   2   3
HETATM    3  C   UNL     1      -9.525  12.477  67.099  1.00  0.00    -0.208 C  
HETATM    4  C   UNL     1     -10.555  11.884  67.752  1.00  0.00    -0.233 C  
BRANCH   3   5
HETATM    5  C   UNL     1      -9.652  13.884  66.665  1.00  0.00    -0.297 A  
HETATM    6  H   UNL     1     -10.944  18.019  64.850  1.00  0.00     0.000 HD 
HETATM    7  C   UNL     1      -9.152  14.922  67.461  1.00  0.00    -0.186 A  
HETATM    8  C   UNL     1     -10.351  14.193  65.490  1.00  0.00    -0.368 A  
HETATM    9  C   UNL     1     -10.585  15.523  65.141  1.00  0.00    -0.455 A  
HETATM   10  O   UNL     1     -10.443  17.824  65.633  1.00  0.00    -0.613 OA 
HETATM   11  C   UNL     1      -9.395  16.255  67.117  1.00  0.00    -0.232 A  
HETATM   12  C   UNL     1     -10.128  16.541  65.970  1.00  0.00    -0.348 A  
ENDBRANCH   3   5
BRANCH   4  13
HETATM   13  C   UNL     1     -10.489  10.468  68.169  1.00  0.00    -0.217 A  
HETATM   14  C   UNL     1     -10.278  10.142  69.514  1.00  0.00    -0.258 A  
HETATM   15  C   UNL     1     -10.572   9.444  67.215  1.00  0.00    -0.314 A  
HETATM   16  C   UNL     1     -10.186   7.806  68.938  1.00  0.00    -0.211 A  
HETATM   17  H   UNL     1      -9.843   6.313  70.263  1.00  0.00     0.000 HD 
HETATM   18  C   UNL     1     -10.420   8.109  67.601  1.00  0.00    -0.300 A  
HETATM   19  O   UNL     1     -10.003   6.520  69.350  1.00  0.00    -0.154 OA 
HETATM   20  C   UNL     1     -10.123   8.809  69.898  1.00  0.00    -0.197 A  
ENDBRANCH   4  13
BRANCH   4  21
HETATM   21  C   UNL     1     -11.830  12.577  68.223  1.00  0.00    -0.361 C  
HETATM   22  C   UNL     1     -11.817  13.013  69.682  1.00  0.00    -0.385 C  
ENDBRANCH   4  21
ENDBRANCH   2   3
TORSDOF 4
ENDMDL
MODEL       76
REMARK 921   NORMALIZED FREE ENERGY PREDICTED BY IDOCK:   -4.53 KCAL/MOL
REMARK 922        TOTAL FREE ENERGY PREDICTED BY IDOCK:   -6.55 KCAL/MOL
REMARK 923 INTER-LIGAND FREE ENERGY PREDICTED BY IDOCK:   -6.57 KCAL/MOL
REMARK 924 INTRA-LIGAND FREE ENERGY PREDICTED BY IDOCK:    0.02 KCAL/MOL
REMARK 927      BINDING AFFINITY PREDICTED BY RF-SCORE:    0.00 PKD
ROOT
HETATM    1  C   UNL     1     -10.982   9.809  70.927  1.00  0.00    -0.411 C  
HETATM    2  C   UNL     1     -12.011  10.571  70.104  1.00  0.00    -0.398 C  
ENDROOT
BRANCH   2   3
HETATM    3  C   UNL     1     -11.623  12.002  69.778  1.00  0.00    -0.348 C  
HETATM    4  C   UNL     1     -10.824  12.391  68.754  1.00  0.00    -0.263 C  
BRANCH   3   5
HETATM    5  C   UNL     1     -12.264  13.025  70.631  1.00  0.00    -0.390 A  
HETATM    6  H   UNL     1     -14.239  16.864  72.481  1.00  0.00     0.000 HD 
HETATM    7  C   UNL     1     -13.167  12.651  71.634  1.00  0.00    -0.394 A  
HETATM    8  C   UNL     1     -12.035  14.386  70.383  1.00  0.00    -0.395 A  
HETATM    9  C   UNL     1     -12.735  15.357  71.100  1.00  0.00    -0.503 A  
HETATM   10  O   UNL     1     -14.382  15.946  72.679  1.00  0.00    -0.476 OA 
HETATM   11  C   UNL     1     -13.875  13.623  72.345  1.00  0.00    -0.691 A  
HETATM   12  C   UNL     1     -13.666  14.968  72.055  1.00  0.00    -0.446 A  
ENDBRANCH   3   5
BRANCH   4  13
HETATM   13  C   UNL     1     -10.130  11.404  67.901  1.00  0.00    -0.198 A  
HETATM   14  C   UNL     1      -8.731  11.372  67.862  1.00  0.00    -0.145 A  
HETATM   15  C   UNL     1     -10.864  10.540  67.077  1.00  0.00    -0.288 A  
HETATM   16  C   UNL     1      -8.814   9.669  66.162  1.00  0.00    -0.150 A  
HETATM   17  H   UNL     1      -7.184   8.856  65.276  1.00  0.00     0.000 HD 
HETATM   18  C   UNL     1     -10.204   9.670  66.205  1.00  0.00    -0.286 A  
HETATM   19  O   UNL     1      -8.133   8.857  65.305  1.00  0.00    -0.113 OA 
HETATM   20  C   UNL     1      -8.072  10.504  66.989  1.00  0.00    -0.118 A  
ENDBRANCH   4  13
BRANCH   4  21
HETATM   21  C   UNL     1     -10.610  13.827  68.285  1.00  0.00    -0.262 C  
HETATM   22  C   UNL     1     -10.936  14.074  66.817  1.00  0.00    -0.298 C  
ENDBRANCH   4  21
ENDBRANCH   2   3
TORSDOF 4
ENDMDL
MODEL       77
REMARK 921   NORMALIZED FREE ENERGY PREDICTED BY IDOCK:   -4.53 KCAL/MOL
REMARK 922        TOTAL FREE ENERGY PREDICTED BY IDOCK:   -6.54 KCAL/MOL
REMARK 923 INTER-LIGAND FREE ENERGY PREDICTED BY IDOCK:   -5.16 KCAL/MOL
REMARK 924 INTRA-LIGAND FREE ENERGY PREDICTED BY IDOCK:   -1.38 KCAL/MOL
REMARK 927      BINDING AFFINITY PREDICTED BY RF-SCORE:    0.00 PKD
ROOT
HETATM    1  C   UNL     1     -10.547  10.891  64.267  1.00  0.00    -0.336 C  
HETATM    2  C   UNL     1      -9.462  10.872  65.334  1.00  0.00    -0.254 C  
ENDROOT
BRANCH   2   3
HETATM    3  C   UNL     1      -9.936  11.263  66.722  1.00  0.00    -0.238 C  
HETATM    4  C   UNL     1     -10.037  10.430  67.787  1.00  0.00    -0.212 C  
BRANCH   3   5
HETATM    5  C   UNL     1     -10.224  12.702  66.894  1.00  0.00    -0.242 A  
HETATM    6  H   UNL     1     -11.971  16.930  67.961  1.00  0.00     0.000 HD 
HETATM    7  C   UNL     1      -9.178  13.628  67.002  1.00  0.00    -0.254 A  
HETATM    8  C   UNL     1     -11.548  13.140  67.035  1.00  0.00    -0.408 A  
HETATM    9  C   UNL     1     -11.818  14.478  67.325  1.00  0.00    -0.419 A  
HETATM   10  O   UNL     1     -11.071  16.653  67.839  1.00  0.00    -0.315 OA 
HETATM   11  C   UNL     1      -9.448  14.966  67.303  1.00  0.00    -0.216 A  
HETATM   12  C   UNL     1     -10.767  15.373  67.482  1.00  0.00    -0.295 A  
ENDBRANCH   3   5
BRANCH   4  13
HETATM   13  C   UNL     1      -9.799   8.978  67.654  1.00  0.00    -0.220 A  
HETATM   14  C   UNL     1     -10.767   8.160  67.059  1.00  0.00    -0.247 A  
HETATM   15  C   UNL     1      -8.636   8.399  68.181  1.00  0.00    -0.139 A  
HETATM   16  C   UNL     1      -9.439   6.216  67.559  1.00  0.00    -0.112 A  
HETATM   17  H   UNL     1      -9.986   4.314  67.128  1.00  0.00     0.000 HD 
HETATM   18  C   UNL     1      -8.455   7.014  68.133  1.00  0.00    -0.129 A  
HETATM   19  O   UNL     1      -9.315   4.859  67.520  1.00  0.00    -0.122 OA 
HETATM   20  C   UNL     1     -10.588   6.777  67.014  1.00  0.00    -0.405 A  
ENDBRANCH   4  13
BRANCH   4  21
HETATM   21  C   UNL     1     -10.294  10.854  69.230  1.00  0.00    -0.211 C  
HETATM   22  C   UNL     1     -11.722  10.636  69.713  1.00  0.00    -0.385 C  
ENDBRANCH   4  21
ENDBRANCH   2   3
TORSDOF 4
ENDMDL
MODEL       78
REMARK 921   NORMALIZED FREE ENERGY PREDICTED BY IDOCK:   -4.50 KCAL/MOL
REMARK 922        TOTAL FREE ENERGY PREDICTED BY IDOCK:   -6.52 KCAL/MOL
REMARK 923 INTER-LIGAND FREE ENERGY PREDICTED BY IDOCK:   -5.25 KCAL/MOL
REMARK 924 INTRA-LIGAND FREE ENERGY PREDICTED BY IDOCK:   -1.27 KCAL/MOL
REMARK 927      BINDING AFFINITY PREDICTED BY RF-SCORE:    0.00 PKD
ROOT
HETATM    1  C   UNL     1     -10.350   5.824  66.683  1.00  0.00    -0.300 C  
HETATM    2  C   UNL     1     -11.160   7.008  67.192  1.00  0.00    -0.298 C  
ENDROOT
BRANCH   2   3
HETATM    3  C   UNL     1     -10.526   7.754  68.351  1.00  0.00    -0.207 C  
HETATM    4  C   UNL     1     -10.115   9.046  68.330  1.00  0.00    -0.223 C  
BRANCH   3   5
HETATM    5  C   UNL     1     -10.446   6.986  69.611  1.00  0.00    -0.238 A  
HETATM    6  H   UNL     1      -9.189   4.833  73.592  1.00  0.00     0.000 HD 
HETATM    7  C   UNL     1     -11.543   6.926  70.479  1.00  0.00    -0.396 A  
HETATM    8  C   UNL     1      -9.238   6.380  69.986  1.00  0.00    -0.159 A  
HETATM    9  C   UNL     1      -9.119   5.763  71.232  1.00  0.00    -0.151 A  
HETATM   10  O   UNL     1     -10.021   5.214  73.338  1.00  0.00    -0.157 OA 
HETATM   11  C   UNL     1     -11.421   6.317  71.731  1.00  0.00    -0.355 A  
HETATM   12  C   UNL     1     -10.202   5.760  72.103  1.00  0.00    -0.199 A  
ENDBRANCH   3   5
BRANCH   4  13
HETATM   13  C   UNL     1     -10.138   9.841  67.084  1.00  0.00    -0.267 A  
HETATM   14  C   UNL     1     -11.033  10.910  66.951  1.00  0.00    -0.286 A  
HETATM   15  C   UNL     1      -9.314   9.492  66.006  1.00  0.00    -0.273 A  
HETATM   16  C   UNL     1     -10.314  11.233  64.676  1.00  0.00    -0.315 A  
HETATM   17  H   UNL     1     -11.074  12.631  63.423  1.00  0.00     0.000 HD 
HETATM   18  C   UNL     1      -9.401  10.190  64.798  1.00  0.00    -0.324 A  
HETATM   19  O   UNL     1     -10.451  11.919  63.507  1.00  0.00    -0.385 OA 
HETATM   20  C   UNL     1     -11.123  11.605  65.743  1.00  0.00    -0.313 A  
ENDBRANCH   4  13
BRANCH   4  21
HETATM   21  C   UNL     1      -9.687   9.867  69.543  1.00  0.00    -0.238 C  
HETATM   22  C   UNL     1      -8.240  10.342  69.513  1.00  0.00    -0.165 C  
ENDBRANCH   4  21
ENDBRANCH   2   3
TORSDOF 4
ENDMDL
MODEL       79
REMARK 921   NORMALIZED FREE ENERGY PREDICTED BY IDOCK:   -4.47 KCAL/MOL
REMARK 922        TOTAL FREE ENERGY PREDICTED BY IDOCK:   -6.47 KCAL/MOL
REMARK 923 INTER-LIGAND FREE ENERGY PREDICTED BY IDOCK:   -5.26 KCAL/MOL
REMARK 924 INTRA-LIGAND FREE ENERGY PREDICTED BY IDOCK:   -1.21 KCAL/MOL
REMARK 927      BINDING AFFINITY PREDICTED BY RF-SCORE:    0.00 PKD
ROOT
HETATM    1  C   UNL     1     -10.835   9.797  70.192  1.00  0.00    -0.340 C  
HETATM    2  C   UNL     1      -9.794  10.342  69.225  1.00  0.00    -0.244 C  
ENDROOT
BRANCH   2   3
HETATM    3  C   UNL     1      -9.932   9.837  67.800  1.00  0.00    -0.206 C  
HETATM    4  C   UNL     1     -10.160  10.607  66.707  1.00  0.00    -0.272 C  
BRANCH   3   5
HETATM    5  C   UNL     1      -9.710   8.386  67.635  1.00  0.00    -0.201 A  
HETATM    6  H   UNL     1      -9.808   3.842  66.448  1.00  0.00     0.000 HD 
HETATM    7  C   UNL     1      -8.420   7.848  67.729  1.00  0.00    -0.125 A  
HETATM    8  C   UNL     1     -10.782   7.547  67.297  1.00  0.00    -0.365 A  
HETATM    9  C   UNL     1     -10.557   6.200  67.014  1.00  0.00    -0.384 A  
HETATM   10  O   UNL     1      -9.077   4.392  66.703  1.00  0.00    -0.117 OA 
HETATM   11  C   UNL     1      -8.193   6.501  67.435  1.00  0.00    -0.121 A  
HETATM   12  C   UNL     1      -9.263   5.695  67.060  1.00  0.00    -0.117 A  
ENDBRANCH   3   5
BRANCH   4  13
HETATM   13  C   UNL     1     -10.428  12.055  66.828  1.00  0.00    -0.243 A  
HETATM   14  C   UNL     1      -9.377  12.944  67.078  1.00  0.00    -0.235 A  
HETATM   15  C   UNL     1     -11.741  12.541  66.758  1.00  0.00    -0.453 A  
HETATM   16  C   UNL     1     -10.946  14.763  67.232  1.00  0.00    -0.318 A  
HETATM   17  H   UNL     1     -10.440  16.679  67.651  1.00  0.00     0.000 HD 
HETATM   18  C   UNL     1     -12.001  13.899  66.960  1.00  0.00    -0.459 A  
HETATM   19  O   UNL     1     -11.160  16.089  67.466  1.00  0.00    -0.300 OA 
HETATM   20  C   UNL     1      -9.636  14.301  67.284  1.00  0.00    -0.232 A  
ENDBRANCH   4  13
BRANCH   4  21
HETATM   21  C   UNL     1     -10.078  10.143  65.256  1.00  0.00    -0.344 C  
HETATM   22  C   UNL     1      -8.838  10.611  64.506  1.00  0.00    -0.189 C  
ENDBRANCH   4  21
ENDBRANCH   2   3
TORSDOF 4
ENDMDL
MODEL       80
REMARK 921   NORMALIZED FREE ENERGY PREDICTED BY IDOCK:   -4.47 KCAL/MOL
REMARK 922        TOTAL FREE ENERGY PREDICTED BY IDOCK:   -6.47 KCAL/MOL
REMARK 923 INTER-LIGAND FREE ENERGY PREDICTED BY IDOCK:   -6.70 KCAL/MOL
REMARK 924 INTRA-LIGAND FREE ENERGY PREDICTED BY IDOCK:    0.23 KCAL/MOL
REMARK 927      BINDING AFFINITY PREDICTED BY RF-SCORE:    0.00 PKD
ROOT
HETATM    1  C   UNL     1     -14.157   8.670  71.866  1.00  0.00    -0.512 C  
HETATM    2  C   UNL     1     -12.875   9.388  72.267  1.00  0.00    -0.452 C  
ENDROOT
BRANCH   2   3
HETATM    3  C   UNL     1     -12.226  10.187  71.152  1.00  0.00    -0.490 C  
HETATM    4  C   UNL     1     -11.439   9.679  70.171  1.00  0.00    -0.238 C  
BRANCH   3   5
HETATM    5  C   UNL     1     -12.578  11.622  71.133  1.00  0.00    -0.439 A  
HETATM    6  H   UNL     1     -13.658  16.088  72.112  1.00  0.00     0.000 HD 
HETATM    7  C   UNL     1     -12.132  12.450  70.096  1.00  0.00    -0.366 A  
HETATM    8  C   UNL     1     -13.293  12.181  72.202  1.00  0.00    -0.438 A  
HETATM    9  C   UNL     1     -13.518  13.557  72.253  1.00  0.00    -0.669 A  
HETATM   10  O   UNL     1     -13.197  15.718  71.368  1.00  0.00    -0.495 OA 
HETATM   11  C   UNL     1     -12.348  13.830  70.152  1.00  0.00    -0.390 A  
HETATM   12  C   UNL     1     -13.021  14.372  71.242  1.00  0.00    -0.344 A  
ENDBRANCH   3   5
BRANCH   4  13
HETATM   13  C   UNL     1     -11.027   8.260  70.170  1.00  0.00    -0.222 A  
HETATM   14  C   UNL     1     -11.268   7.460  69.047  1.00  0.00     0.169 A  
HETATM   15  C   UNL     1     -10.454   7.689  71.315  1.00  0.00    -0.223 A  
HETATM   16  C   UNL     1     -10.416   5.542  70.226  1.00  0.00    -0.295 A  
HETATM   17  H   UNL     1     -10.343   3.668  69.460  1.00  0.00     0.000 HD 
HETATM   18  C   UNL     1     -10.147   6.326  71.342  1.00  0.00    -0.222 A  
HETATM   19  O   UNL     1     -10.159   4.203  70.223  1.00  0.00    -0.160 OA 
HETATM   20  C   UNL     1     -10.964   6.098  69.076  1.00  0.00    -0.436 A  
ENDBRANCH   4  13
BRANCH   4  21
HETATM   21  C   UNL     1     -10.969  10.429  68.927  1.00  0.00    -0.289 C  
HETATM   22  C   UNL     1      -9.495  10.814  68.935  1.00  0.00    -0.190 C  
ENDBRANCH   4  21
ENDBRANCH   2   3
TORSDOF 4
ENDMDL
MODEL       81
REMARK 921   NORMALIZED FREE ENERGY PREDICTED BY IDOCK:   -4.45 KCAL/MOL
REMARK 922        TOTAL FREE ENERGY PREDICTED BY IDOCK:   -6.46 KCAL/MOL
REMARK 923 INTER-LIGAND FREE ENERGY PREDICTED BY IDOCK:   -6.39 KCAL/MOL
REMARK 924 INTRA-LIGAND FREE ENERGY PREDICTED BY IDOCK:   -0.06 KCAL/MOL
REMARK 927      BINDING AFFINITY PREDICTED BY RF-SCORE:    0.00 PKD
ROOT
HETATM    1  C   UNL     1     -11.071  15.368  70.858  1.00  0.00    -0.374 C  
HETATM    2  C   UNL     1     -11.851  14.257  70.170  1.00  0.00    -0.379 C  
ENDROOT
BRANCH   2   3
HETATM    3  C   UNL     1     -11.066  13.495  69.118  1.00  0.00    -0.271 C  
HETATM    4  C   UNL     1     -11.033  12.146  68.980  1.00  0.00    -0.255 C  
BRANCH   3   5
HETATM    5  C   UNL     1     -10.361  14.344  68.136  1.00  0.00    -0.231 A  
HETATM    6  H   UNL     1      -9.070  17.439  64.846  1.00  0.00     0.000 HD 
HETATM    7  C   UNL     1      -9.039  14.749  68.365  1.00  0.00    -0.188 A  
HETATM    8  C   UNL     1     -11.041  14.822  67.007  1.00  0.00    -0.333 A  
HETATM    9  C   UNL     1     -10.421  15.727  66.145  1.00  0.00    -0.326 A  
HETATM   10  O   UNL     1      -8.588  17.101  65.592  1.00  0.00    -0.470 OA 
HETATM   11  C   UNL     1      -8.422  15.663  67.507  1.00  0.00    -0.182 A  
HETATM   12  C   UNL     1      -9.128  16.159  66.416  1.00  0.00    -0.304 A  
ENDBRANCH   3   5
BRANCH   4  13
HETATM   13  C   UNL     1     -11.689  11.255  69.959  1.00  0.00    -0.428 A  
HETATM   14  C   UNL     1     -12.613  11.776  70.873  1.00  0.00    -0.384 A  
HETATM   15  C   UNL     1     -11.343   9.898  70.024  1.00  0.00    -0.303 A  
HETATM   16  C   UNL     1     -12.797   9.618  71.924  1.00  0.00    -0.425 A  
HETATM   17  H   UNL     1     -13.951   9.228  73.542  1.00  0.00     0.000 HD 
HETATM   18  C   UNL     1     -11.899   9.077  71.009  1.00  0.00    -0.339 A  
HETATM   19  O   UNL     1     -13.338   8.858  72.918  1.00  0.00    -0.333 OA 
HETATM   20  C   UNL     1     -13.165  10.956  71.859  1.00  0.00    -0.508 A  
ENDBRANCH   4  13
BRANCH   4  21
HETATM   21  C   UNL     1     -10.435  11.384  67.800  1.00  0.00    -0.215 C  
HETATM   22  C   UNL     1      -8.928  11.175  67.875  1.00  0.00    -0.143 C  
ENDBRANCH   4  21
ENDBRANCH   2   3
TORSDOF 4
ENDMDL
MODEL       82
REMARK 921   NORMALIZED FREE ENERGY PREDICTED BY IDOCK:   -4.45 KCAL/MOL
REMARK 922        TOTAL FREE ENERGY PREDICTED BY IDOCK:   -6.45 KCAL/MOL
REMARK 923 INTER-LIGAND FREE ENERGY PREDICTED BY IDOCK:   -5.12 KCAL/MOL
REMARK 924 INTRA-LIGAND FREE ENERGY PREDICTED BY IDOCK:   -1.33 KCAL/MOL
REMARK 927      BINDING AFFINITY PREDICTED BY RF-SCORE:    0.00 PKD
ROOT
HETATM    1  C   UNL     1     -10.111  10.422  64.673  1.00  0.00    -0.378 C  
HETATM    2  C   UNL     1      -9.265  10.298  65.932  1.00  0.00    -0.205 C  
ENDROOT
BRANCH   2   3
HETATM    3  C   UNL     1     -10.042  10.426  67.229  1.00  0.00    -0.244 C  
HETATM    4  C   UNL     1     -10.332   9.412  68.081  1.00  0.00    -0.255 C  
BRANCH   3   5
HETATM    5  C   UNL     1     -10.421  11.808  67.588  1.00  0.00    -0.223 A  
HETATM    6  H   UNL     1     -10.634  16.414  68.488  1.00  0.00     0.000 HD 
HETATM    7  C   UNL     1     -11.722  12.273  67.354  1.00  0.00    -0.405 A  
HETATM    8  C   UNL     1      -9.454  12.692  68.088  1.00  0.00    -0.218 A  
HETATM    9  C   UNL     1      -9.775  14.032  68.308  1.00  0.00    -0.225 A  
HETATM   10  O   UNL     1     -11.306  15.819  68.177  1.00  0.00    -0.350 OA 
HETATM   11  C   UNL     1     -12.040  13.617  67.564  1.00  0.00    -0.352 A  
HETATM   12  C   UNL     1     -11.056  14.488  68.020  1.00  0.00    -0.276 A  
ENDBRANCH   3   5
BRANCH   4  13
HETATM   13  C   UNL     1     -10.009   8.009  67.746  1.00  0.00    -0.224 A  
HETATM   14  C   UNL     1      -8.701   7.535  67.900  1.00  0.00    -0.124 A  
HETATM   15  C   UNL     1     -10.991   7.164  67.212  1.00  0.00    -0.333 A  
HETATM   16  C   UNL     1      -9.351   5.420  66.951  1.00  0.00    -0.127 A  
HETATM   17  H   UNL     1      -8.088   3.868  66.641  1.00  0.00     0.000 HD 
HETATM   18  C   UNL     1     -10.661   5.866  66.814  1.00  0.00    -0.371 A  
HETATM   19  O   UNL     1      -8.982   4.172  66.547  1.00  0.00    -0.115 OA 
HETATM   20  C   UNL     1      -8.371   6.239  67.499  1.00  0.00    -0.113 A  
ENDBRANCH   4  13
BRANCH   4  21
HETATM   21  C   UNL     1     -10.911   9.563  69.485  1.00  0.00    -0.243 C  
HETATM   22  C   UNL     1      -9.890   9.455  70.610  1.00  0.00    -0.340 C  
ENDBRANCH   4  21
ENDBRANCH   2   3
TORSDOF 4
ENDMDL
MODEL       83
REMARK 921   NORMALIZED FREE ENERGY PREDICTED BY IDOCK:   -4.45 KCAL/MOL
REMARK 922        TOTAL FREE ENERGY PREDICTED BY IDOCK:   -6.45 KCAL/MOL
REMARK 923 INTER-LIGAND FREE ENERGY PREDICTED BY IDOCK:   -5.34 KCAL/MOL
REMARK 924 INTRA-LIGAND FREE ENERGY PREDICTED BY IDOCK:   -1.11 KCAL/MOL
REMARK 927      BINDING AFFINITY PREDICTED BY RF-SCORE:    0.00 PKD
ROOT
HETATM    1  C   UNL     1      -8.118  11.902  68.753  1.00  0.00    -0.021 C  
HETATM    2  C   UNL     1      -8.505  12.850  67.627  1.00  0.00    -0.183 C  
ENDROOT
BRANCH   2   3
HETATM    3  C   UNL     1      -9.700  12.399  66.807  1.00  0.00    -0.226 C  
HETATM    4  C   UNL     1     -10.985  12.789  67.002  1.00  0.00    -0.295 C  
BRANCH   3   5
HETATM    5  C   UNL     1      -9.371  11.526  65.662  1.00  0.00    -0.221 A  
HETATM    6  H   UNL     1      -8.786   8.014  62.598  1.00  0.00     0.000 HD 
HETATM    7  C   UNL     1      -9.353  12.039  64.358  1.00  0.00     0.252 A  
HETATM    8  C   UNL     1      -9.156  10.156  65.865  1.00  0.00    -0.190 A  
HETATM    9  C   UNL     1      -8.971   9.305  64.775  1.00  0.00    -0.217 A  
HETATM   10  O   UNL     1      -8.901   8.945  62.447  1.00  0.00    -0.216 OA 
HETATM   11  C   UNL     1      -9.178  11.185  63.266  1.00  0.00    -0.260 A  
HETATM   12  C   UNL     1      -9.010   9.821  63.486  1.00  0.00    -0.244 A  
ENDBRANCH   3   5
BRANCH   4  13
HETATM   13  C   UNL     1     -11.368  13.629  68.157  1.00  0.00    -0.321 A  
HETATM   14  C   UNL     1     -11.776  13.029  69.354  1.00  0.00    -0.386 A  
HETATM   15  C   UNL     1     -11.390  15.025  68.041  1.00  0.00    -0.339 A  
HETATM   16  C   UNL     1     -12.262  15.198  70.278  1.00  0.00    -0.350 A  
HETATM   17  H   UNL     1     -13.024  15.509  72.129  1.00  0.00     0.000 HD 
HETATM   18  C   UNL     1     -11.838  15.812  69.105  1.00  0.00    -0.367 A  
HETATM   19  O   UNL     1     -12.735  15.928  71.328  1.00  0.00    -0.467 OA 
HETATM   20  C   UNL     1     -12.227  13.816  70.416  1.00  0.00    -0.433 A  
ENDBRANCH   4  13
BRANCH   4  21
HETATM   21  C   UNL     1     -12.151  12.524  66.055  1.00  0.00    -0.390 C  
HETATM   22  C   UNL     1     -12.349  13.579  64.975  1.00  0.00    -0.468 C  
ENDBRANCH   4  21
ENDBRANCH   2   3
TORSDOF 4
ENDMDL
MODEL       84
REMARK 921   NORMALIZED FREE ENERGY PREDICTED BY IDOCK:   -4.43 KCAL/MOL
REMARK 922        TOTAL FREE ENERGY PREDICTED BY IDOCK:   -6.43 KCAL/MOL
REMARK 923 INTER-LIGAND FREE ENERGY PREDICTED BY IDOCK:   -5.20 KCAL/MOL
REMARK 924 INTRA-LIGAND FREE ENERGY PREDICTED BY IDOCK:   -1.23 KCAL/MOL
REMARK 927      BINDING AFFINITY PREDICTED BY RF-SCORE:    0.00 PKD
ROOT
HETATM    1  C   UNL     1     -11.542  12.982  64.767  1.00  0.00    -0.368 C  
HETATM    2  C   UNL     1     -11.938  12.098  65.942  1.00  0.00    -0.252 C  
ENDROOT
BRANCH   2   3
HETATM    3  C   UNL     1     -11.036  12.221  67.156  1.00  0.00    -0.330 C  
HETATM    4  C   UNL     1      -9.897  11.517  67.369  1.00  0.00    -0.202 C  
BRANCH   3   5
HETATM    5  C   UNL     1     -11.435  13.268  68.119  1.00  0.00    -0.347 A  
HETATM    6  H   UNL     1     -12.457  15.875  71.890  1.00  0.00     0.000 HD 
HETATM    7  C   UNL     1     -11.229  14.622  67.823  1.00  0.00    -0.320 A  
HETATM    8  C   UNL     1     -11.946  12.908  69.374  1.00  0.00    -0.327 A  
HETATM    9  C   UNL     1     -12.204  13.886  70.334  1.00  0.00    -0.438 A  
HETATM   10  O   UNL     1     -12.139  16.136  71.034  1.00  0.00    -0.376 OA 
HETATM   11  C   UNL     1     -11.478  15.601  68.789  1.00  0.00    -0.382 A  
HETATM   12  C   UNL     1     -11.944  15.220  70.043  1.00  0.00    -0.343 A  
ENDBRANCH   3   5
BRANCH   4  13
HETATM   13  C   UNL     1      -9.479  10.432  66.455  1.00  0.00    -0.204 A  
HETATM   14  C   UNL     1      -9.682   9.095  66.816  1.00  0.00    -0.271 A  
HETATM   15  C   UNL     1      -8.820  10.732  65.256  1.00  0.00    -0.200 A  
HETATM   16  C   UNL     1      -8.536   8.380  64.823  1.00  0.00    -0.101 A  
HETATM   17  H   UNL     1      -8.192   6.445  64.332  1.00  0.00     0.000 HD 
HETATM   18  C   UNL     1      -8.347   9.703  64.437  1.00  0.00    -0.171 A  
HETATM   19  O   UNL     1      -8.064   7.348  64.068  1.00  0.00    -0.118 OA 
HETATM   20  C   UNL     1      -9.206   8.067  66.000  1.00  0.00    -0.179 A  
ENDBRANCH   4  13
BRANCH   4  21
HETATM   21  C   UNL     1      -8.872  11.789  68.466  1.00  0.00    -0.122 C  
HETATM   22  C   UNL     1      -7.872  12.892  68.145  1.00  0.00    -0.147 C  
ENDBRANCH   4  21
ENDBRANCH   2   3
TORSDOF 4
ENDMDL
MODEL       85
REMARK 921   NORMALIZED FREE ENERGY PREDICTED BY IDOCK:   -4.39 KCAL/MOL
REMARK 922        TOTAL FREE ENERGY PREDICTED BY IDOCK:   -6.38 KCAL/MOL
REMARK 923 INTER-LIGAND FREE ENERGY PREDICTED BY IDOCK:   -5.27 KCAL/MOL
REMARK 924 INTRA-LIGAND FREE ENERGY PREDICTED BY IDOCK:   -1.11 KCAL/MOL
REMARK 927      BINDING AFFINITY PREDICTED BY RF-SCORE:    0.00 PKD
ROOT
HETATM    1  C   UNL     1      -7.623  10.449  67.326  1.00  0.00    -0.095 C  
HETATM    2  C   UNL     1      -8.133  11.137  68.585  1.00  0.00    -0.150 C  
ENDROOT
BRANCH   2   3
HETATM    3  C   UNL     1      -9.546  11.679  68.478  1.00  0.00    -0.181 C  
HETATM    4  C   UNL     1     -10.645  11.145  69.067  1.00  0.00    -0.251 C  
BRANCH   3   5
HETATM    5  C   UNL     1      -9.667  12.943  67.722  1.00  0.00    -0.214 A  
HETATM    6  H   UNL     1      -9.197  17.228  65.856  1.00  0.00     0.000 HD 
HETATM    7  C   UNL     1     -10.184  12.947  66.420  1.00  0.00    -0.273 A  
HETATM    8  C   UNL     1      -9.186  14.138  68.275  1.00  0.00    -0.198 A  
HETATM    9  C   UNL     1      -9.180  15.310  67.518  1.00  0.00    -0.202 A  
HETATM   10  O   UNL     1      -9.553  16.432  65.480  1.00  0.00    -0.491 OA 
HETATM   11  C   UNL     1     -10.168  14.118  65.658  1.00  0.00    -0.357 A  
HETATM   12  C   UNL     1      -9.646  15.284  66.209  1.00  0.00    -0.303 A  
ENDBRANCH   3   5
BRANCH   4  13
HETATM   13  C   UNL     1     -10.580   9.862  69.798  1.00  0.00    -0.296 A  
HETATM   14  C   UNL     1     -10.803   9.831  71.180  1.00  0.00    -0.333 A  
HETATM   15  C   UNL     1     -10.233   8.682  69.127  1.00  0.00    -0.215 A  
HETATM   16  C   UNL     1     -10.286   7.480  71.213  1.00  0.00    -0.192 A  
HETATM   17  H   UNL     1     -10.261   6.337  72.885  1.00  0.00     0.000 HD 
HETATM   18  C   UNL     1     -10.086   7.487  69.837  1.00  0.00    -0.193 A  
HETATM   19  O   UNL     1     -10.124   6.342  71.946  1.00  0.00    -0.183 OA 
HETATM   20  C   UNL     1     -10.653   8.637  71.889  1.00  0.00    -0.411 A  
ENDBRANCH   4  13
BRANCH   4  21
HETATM   21  C   UNL     1     -12.020  11.802  69.152  1.00  0.00    -0.356 C  
HETATM   22  C   UNL     1     -12.151  12.872  70.227  1.00  0.00    -0.377 C  
ENDBRANCH   4  21
ENDBRANCH   2   3
TORSDOF 4
ENDMDL
MODEL       86
REMARK 921   NORMALIZED FREE ENERGY PREDICTED BY IDOCK:   -4.39 KCAL/MOL
REMARK 922        TOTAL FREE ENERGY PREDICTED BY IDOCK:   -6.37 KCAL/MOL
REMARK 923 INTER-LIGAND FREE ENERGY PREDICTED BY IDOCK:   -4.92 KCAL/MOL
REMARK 924 INTRA-LIGAND FREE ENERGY PREDICTED BY IDOCK:   -1.45 KCAL/MOL
REMARK 927      BINDING AFFINITY PREDICTED BY RF-SCORE:    0.00 PKD
ROOT
HETATM    1  C   UNL     1      -9.130   7.693  73.669  1.00  0.00    -0.327 C  
HETATM    2  C   UNL     1      -8.576   7.826  72.257  1.00  0.00    -0.173 C  
ENDROOT
BRANCH   2   3
HETATM    3  C   UNL     1      -9.618   7.720  71.159  1.00  0.00    -0.174 C  
HETATM    4  C   UNL     1     -10.075   6.566  70.611  1.00  0.00    -0.212 C  
BRANCH   3   5
HETATM    5  C   UNL     1     -10.211   9.007  70.743  1.00  0.00    -0.305 A  
HETATM    6  H   UNL     1     -11.726  12.838  68.484  1.00  0.00     0.000 HD 
HETATM    7  C   UNL     1     -11.374   9.486  71.360  1.00  0.00    -0.462 A  
HETATM    8  C   UNL     1      -9.659   9.718  69.668  1.00  0.00    -0.239 A  
HETATM    9  C   UNL     1     -10.289  10.867  69.189  1.00  0.00    -0.228 A  
HETATM   10  O   UNL     1     -12.094  12.382  69.232  1.00  0.00    -0.259 OA 
HETATM   11  C   UNL     1     -12.011  10.632  70.873  1.00  0.00    -0.469 A  
HETATM   12  C   UNL     1     -11.472  11.299  69.778  1.00  0.00    -0.310 A  
ENDBRANCH   3   5
BRANCH   4  13
HETATM   13  C   UNL     1      -9.484   5.258  70.965  1.00  0.00    -0.211 A  
HETATM   14  C   UNL     1     -10.080   4.464  71.951  1.00  0.00    -0.245 A  
HETATM   15  C   UNL     1      -8.290   4.835  70.366  1.00  0.00    -0.090 A  
HETATM   16  C   UNL     1      -8.280   2.876  71.765  1.00  0.00    -0.058 A  
HETATM   17  H   UNL     1      -8.114   1.198  72.887  1.00  0.00     0.000 HD 
HETATM   18  C   UNL     1      -7.686   3.640  70.767  1.00  0.00    -0.043 A  
HETATM   19  O   UNL     1      -7.708   1.720  72.206  1.00  0.00    -0.042 OA 
HETATM   20  C   UNL     1      -9.475   3.271  72.354  1.00  0.00    -0.182 A  
ENDBRANCH   4  13
BRANCH   4  21
HETATM   21  C   UNL     1     -11.272   6.436  69.675  1.00  0.00    -0.483 C  
HETATM   22  C   UNL     1     -10.916   6.252  68.206  1.00  0.00    -0.408 C  
ENDBRANCH   4  21
ENDBRANCH   2   3
TORSDOF 4
ENDMDL
MODEL       87
REMARK 921   NORMALIZED FREE ENERGY PREDICTED BY IDOCK:   -4.37 KCAL/MOL
REMARK 922        TOTAL FREE ENERGY PREDICTED BY IDOCK:   -6.36 KCAL/MOL
REMARK 923 INTER-LIGAND FREE ENERGY PREDICTED BY IDOCK:   -5.32 KCAL/MOL
REMARK 924 INTRA-LIGAND FREE ENERGY PREDICTED BY IDOCK:   -1.03 KCAL/MOL
REMARK 927      BINDING AFFINITY PREDICTED BY RF-SCORE:    0.00 PKD
ROOT
HETATM    1  C   UNL     1     -12.608  13.022  65.310  1.00  0.00    -0.516 C  
HETATM    2  C   UNL     1     -12.487  13.383  66.784  1.00  0.00    -0.162 C  
ENDROOT
BRANCH   2   3
HETATM    3  C   UNL     1     -11.115  13.132  67.383  1.00  0.00    -0.301 C  
HETATM    4  C   UNL     1     -10.113  14.041  67.474  1.00  0.00    -0.237 C  
BRANCH   3   5
HETATM    5  C   UNL     1     -10.937  11.791  67.977  1.00  0.00    -0.274 A  
HETATM    6  H   UNL     1      -9.423   7.589  69.432  1.00  0.00     0.000 HD 
HETATM    7  C   UNL     1     -11.563  11.460  69.186  1.00  0.00    -0.381 A  
HETATM    8  C   UNL     1     -10.069  10.868  67.376  1.00  0.00    -0.223 A  
HETATM    9  C   UNL     1      -9.798   9.650  68.000  1.00  0.00    -0.175 A  
HETATM   10  O   UNL     1     -10.036   8.192  69.836  1.00  0.00    -0.185 OA 
HETATM   11  C   UNL     1     -11.283  10.244  69.816  1.00  0.00    -0.339 A  
HETATM   12  C   UNL     1     -10.386   9.360  69.225  1.00  0.00    -0.208 A  
ENDBRANCH   3   5
BRANCH   4  13
HETATM   13  C   UNL     1     -10.230  15.380  66.859  1.00  0.00    -0.273 A  
HETATM   14  C   UNL     1     -10.286  16.521  67.669  1.00  0.00    -0.279 A  
HETATM   15  C   UNL     1     -10.353  15.513  65.469  1.00  0.00    -0.419 A  
HETATM   16  C   UNL     1     -10.630  17.892  65.720  1.00  0.00    -0.174 A  
HETATM   17  H   UNL     1     -10.906  19.898  65.767  1.00  0.00     0.000 HD 
HETATM   18  C   UNL     1     -10.553  16.773  64.898  1.00  0.00     0.073 A  
HETATM   19  O   UNL     1     -10.854  19.134  65.205  1.00  0.00    -0.528 OA 
HETATM   20  C   UNL     1     -10.489  17.779  67.098  1.00  0.00    -0.338 A  
ENDBRANCH   4  13
BRANCH   4  21
HETATM   21  C   UNL     1      -8.822  13.870  68.269  1.00  0.00    -0.185 C  
HETATM   22  C   UNL     1      -7.548  14.151  67.483  1.00  0.00    -0.200 C  
ENDBRANCH   4  21
ENDBRANCH   2   3
TORSDOF 4
ENDMDL
MODEL       88
REMARK 921   NORMALIZED FREE ENERGY PREDICTED BY IDOCK:   -4.36 KCAL/MOL
REMARK 922        TOTAL FREE ENERGY PREDICTED BY IDOCK:   -6.34 KCAL/MOL
REMARK 923 INTER-LIGAND FREE ENERGY PREDICTED BY IDOCK:   -5.35 KCAL/MOL
REMARK 924 INTRA-LIGAND FREE ENERGY PREDICTED BY IDOCK:   -0.99 KCAL/MOL
REMARK 927      BINDING AFFINITY PREDICTED BY RF-SCORE:    0.00 PKD
ROOT
HETATM    1  C   UNL     1     -11.622  15.377  64.672  1.00  0.00    -0.311 C  
HETATM    2  C   UNL     1     -10.164  15.455  65.100  1.00  0.00    -0.360 C  
ENDROOT
BRANCH   2   3
HETATM    3  C   UNL     1      -9.939  15.341  66.597  1.00  0.00    -0.264 C  
HETATM    4  C   UNL     1      -9.340  16.272  67.379  1.00  0.00    -0.224 C  
BRANCH   3   5
HETATM    5  C   UNL     1     -10.514  14.130  67.217  1.00  0.00    -0.272 A  
HETATM    6  H   UNL     1     -13.251  10.744  68.982  1.00  0.00     0.000 HD 
HETATM    7  C   UNL     1      -9.869  12.892  67.092  1.00  0.00    -0.225 A  
HETATM    8  C   UNL     1     -11.755  14.197  67.865  1.00  0.00    -0.402 A  
HETATM    9  C   UNL     1     -12.362  13.034  68.340  1.00  0.00     0.177 A  
HETATM   10  O   UNL     1     -12.396  10.689  68.571  1.00  0.00    -0.317 OA 
HETATM   11  C   UNL     1     -10.482  11.727  67.559  1.00  0.00    -0.228 A  
HETATM   12  C   UNL     1     -11.734  11.808  68.160  1.00  0.00    -0.307 A  
ENDBRANCH   3   5
BRANCH   4  13
HETATM   13  C   UNL     1      -8.715  17.480  66.799  1.00  0.00    -0.278 A  
HETATM   14  C   UNL     1      -7.387  17.440  66.360  1.00  0.00    -0.340 A  
HETATM   15  C   UNL     1      -9.424  18.688  66.746  1.00  0.00    -0.324 A  
HETATM   16  C   UNL     1      -7.473  19.795  65.870  1.00  0.00    -0.324 A  
HETATM   17  H   UNL     1      -5.914  20.874  65.157  1.00  0.00     0.000 HD 
HETATM   18  C   UNL     1      -8.802  19.849  66.279  1.00  0.00    -0.402 A  
HETATM   19  O   UNL     1      -6.821  20.911  65.437  1.00  0.00    -0.115 OA 
HETATM   20  C   UNL     1      -6.764  18.601  65.897  1.00  0.00    -0.302 A  
ENDBRANCH   4  13
BRANCH   4  21
HETATM   21  C   UNL     1      -9.309  16.270  68.905  1.00  0.00    -0.248 C  
HETATM   22  C   UNL     1     -10.559  16.834  69.568  1.00  0.00    -0.283 C  
ENDBRANCH   4  21
ENDBRANCH   2   3
TORSDOF 4
ENDMDL
MODEL       89
REMARK 921   NORMALIZED FREE ENERGY PREDICTED BY IDOCK:   -4.35 KCAL/MOL
REMARK 922        TOTAL FREE ENERGY PREDICTED BY IDOCK:   -6.32 KCAL/MOL
REMARK 923 INTER-LIGAND FREE ENERGY PREDICTED BY IDOCK:   -4.93 KCAL/MOL
REMARK 924 INTRA-LIGAND FREE ENERGY PREDICTED BY IDOCK:   -1.40 KCAL/MOL
REMARK 927      BINDING AFFINITY PREDICTED BY RF-SCORE:    0.00 PKD
ROOT
HETATM    1  C   UNL     1      -7.240  11.746  69.095  1.00  0.00    -0.043 C  
HETATM    2  C   UNL     1      -7.775  12.109  67.717  1.00  0.00    -0.139 C  
ENDROOT
BRANCH   2   3
HETATM    3  C   UNL     1      -9.277  11.960  67.565  1.00  0.00    -0.177 C  
HETATM    4  C   UNL     1     -10.167  12.979  67.467  1.00  0.00    -0.221 C  
BRANCH   3   5
HETATM    5  C   UNL     1      -9.750  10.566  67.435  1.00  0.00    -0.190 A  
HETATM    6  H   UNL     1     -10.405   6.026  66.424  1.00  0.00     0.000 HD 
HETATM    7  C   UNL     1     -10.425   9.943  68.492  1.00  0.00    -0.232 A  
HETATM    8  C   UNL     1      -9.449   9.829  66.281  1.00  0.00    -0.250 A  
HETATM    9  C   UNL     1      -9.780   8.476  66.206  1.00  0.00    -0.300 A  
HETATM   10  O   UNL     1     -10.641   6.521  67.200  1.00  0.00    -0.242 OA 
HETATM   11  C   UNL     1     -10.748   8.585  68.421  1.00  0.00    -0.084 A  
HETATM   12  C   UNL     1     -10.403   7.860  67.285  1.00  0.00    -0.307 A  
ENDBRANCH   3   5
BRANCH   4  13
HETATM   13  C   UNL     1      -9.747  14.387  67.631  1.00  0.00    -0.219 A  
HETATM   14  C   UNL     1      -9.833  15.002  68.885  1.00  0.00    -0.233 A  
HETATM   15  C   UNL     1      -9.324  15.133  66.523  1.00  0.00    -0.308 A  
HETATM   16  C   UNL     1      -9.127  17.089  67.913  1.00  0.00    -0.232 A  
HETATM   17  H   UNL     1      -8.941  18.825  68.940  1.00  0.00     0.000 HD 
HETATM   18  C   UNL     1      -9.012  16.487  66.664  1.00  0.00    -0.285 A  
HETATM   19  O   UNL     1      -8.862  18.414  68.087  1.00  0.00    -0.286 OA 
HETATM   20  C   UNL     1      -9.525  16.357  69.026  1.00  0.00    -0.258 A  
ENDBRANCH   4  13
BRANCH   4  21
HETATM   21  C   UNL     1     -11.640  12.845  67.092  1.00  0.00    -0.421 C  
HETATM   22  C   UNL     1     -11.913  12.787  65.594  1.00  0.00    -0.503 C  
ENDBRANCH   4  21
ENDBRANCH   2   3
TORSDOF 4
ENDMDL
MODEL       90
REMARK 921   NORMALIZED FREE ENERGY PREDICTED BY IDOCK:   -4.34 KCAL/MOL
REMARK 922        TOTAL FREE ENERGY PREDICTED BY IDOCK:   -6.31 KCAL/MOL
REMARK 923 INTER-LIGAND FREE ENERGY PREDICTED BY IDOCK:   -5.05 KCAL/MOL
REMARK 924 INTRA-LIGAND FREE ENERGY PREDICTED BY IDOCK:   -1.27 KCAL/MOL
REMARK 927      BINDING AFFINITY PREDICTED BY RF-SCORE:    0.00 PKD
ROOT
HETATM    1  C   UNL     1     -11.807  14.049  69.508  1.00  0.00    -0.378 C  
HETATM    2  C   UNL     1     -11.652  12.840  68.595  1.00  0.00    -0.352 C  
ENDROOT
BRANCH   2   3
HETATM    3  C   UNL     1     -10.292  12.722  67.931  1.00  0.00    -0.228 C  
HETATM    4  C   UNL     1      -9.572  11.580  67.804  1.00  0.00    -0.177 C  
BRANCH   3   5
HETATM    5  C   UNL     1      -9.793  13.969  67.317  1.00  0.00    -0.242 A  
HETATM    6  H   UNL     1      -9.180  18.006  64.994  1.00  0.00     0.000 HD 
HETATM    7  C   UNL     1      -8.814  14.737  67.960  1.00  0.00    -0.169 A  
HETATM    8  C   UNL     1     -10.361  14.438  66.124  1.00  0.00    -0.305 A  
HETATM    9  C   UNL     1      -9.985  15.678  65.607  1.00  0.00    -0.388 A  
HETATM   10  O   UNL     1      -8.767  17.687  65.788  1.00  0.00    -0.511 OA 
HETATM   11  C   UNL     1      -8.444  15.983  67.448  1.00  0.00    -0.187 A  
HETATM   12  C   UNL     1      -9.050  16.450  66.286  1.00  0.00    -0.327 A  
ENDBRANCH   3   5
BRANCH   4  13
HETATM   13  C   UNL     1     -10.010  10.318  68.436  1.00  0.00    -0.173 A  
HETATM   14  C   UNL     1      -9.937  10.166  69.825  1.00  0.00    -0.258 A  
HETATM   15  C   UNL     1     -10.439   9.242  67.646  1.00  0.00    -0.325 A  
HETATM   16  C   UNL     1     -10.666   7.881  69.619  1.00  0.00    -0.218 A  
HETATM   17  H   UNL     1     -10.879   6.603  71.176  1.00  0.00     0.000 HD 
HETATM   18  C   UNL     1     -10.769   8.021  68.239  1.00  0.00    -0.081 A  
HETATM   19  O   UNL     1     -10.949   6.698  70.234  1.00  0.00    -0.258 OA 
HETATM   20  C   UNL     1     -10.263   8.945  70.418  1.00  0.00    -0.236 A  
ENDBRANCH   4  13
BRANCH   4  21
HETATM   21  C   UNL     1      -8.320  11.405  66.950  1.00  0.00    -0.159 C  
HETATM   22  C   UNL     1      -7.018  11.317  67.736  1.00  0.00    -0.075 C  
ENDBRANCH   4  21
ENDBRANCH   2   3
TORSDOF 4
ENDMDL
MODEL       91
REMARK 921   NORMALIZED FREE ENERGY PREDICTED BY IDOCK:   -4.33 KCAL/MOL
REMARK 922        TOTAL FREE ENERGY PREDICTED BY IDOCK:   -6.30 KCAL/MOL
REMARK 923 INTER-LIGAND FREE ENERGY PREDICTED BY IDOCK:   -5.08 KCAL/MOL
REMARK 924 INTRA-LIGAND FREE ENERGY PREDICTED BY IDOCK:   -1.23 KCAL/MOL
REMARK 927      BINDING AFFINITY PREDICTED BY RF-SCORE:    0.00 PKD
ROOT
HETATM    1  C   UNL     1     -13.708   7.309  71.635  1.00  0.00    -0.446 C  
HETATM    2  C   UNL     1     -12.638   6.928  70.622  1.00  0.00    -0.099 C  
ENDROOT
BRANCH   2   3
HETATM    3  C   UNL     1     -11.291   7.591  70.847  1.00  0.00    -0.297 C  
HETATM    4  C   UNL     1     -10.229   7.029  71.477  1.00  0.00    -0.211 C  
BRANCH   3   5
HETATM    5  C   UNL     1     -11.152   8.930  70.239  1.00  0.00    -0.251 A  
HETATM    6  H   UNL     1     -10.679  12.651  67.411  1.00  0.00     0.000 HD 
HETATM    7  C   UNL     1     -11.771  10.044  70.821  1.00  0.00    -0.437 A  
HETATM    8  C   UNL     1     -10.468   9.080  69.024  1.00  0.00    -0.235 A  
HETATM    9  C   UNL     1     -10.442  10.317  68.381  1.00  0.00    -0.228 A  
HETATM   10  O   UNL     1     -11.121  12.570  68.247  1.00  0.00    -0.227 OA 
HETATM   11  C   UNL     1     -11.754  11.281  70.171  1.00  0.00    -0.429 A  
HETATM   12  C   UNL     1     -11.107  11.399  68.946  1.00  0.00    -0.233 A  
ENDBRANCH   3   5
BRANCH   4  13
HETATM   13  C   UNL     1     -10.333   5.710  72.135  1.00  0.00    -0.256 A  
HETATM   14  C   UNL     1     -10.849   5.613  73.433  1.00  0.00    -0.315 A  
HETATM   15  C   UNL     1      -9.857   4.559  71.494  1.00  0.00    -0.260 A  
HETATM   16  C   UNL     1     -10.368   3.254  73.452  1.00  0.00    -0.158 A  
HETATM   17  H   UNL     1     -10.712   2.028  75.027  1.00  0.00     0.000 HD 
HETATM   18  C   UNL     1      -9.874   3.327  72.153  1.00  0.00    -0.237 A  
HETATM   19  O   UNL     1     -10.375   2.078  74.140  1.00  0.00    -0.104 OA 
HETATM   20  C   UNL     1     -10.864   4.383  74.093  1.00  0.00    -0.267 A  
ENDBRANCH   4  13
BRANCH   4  21
HETATM   21  C   UNL     1      -8.812   7.594  71.512  1.00  0.00    -0.138 C  
HETATM   22  C   UNL     1      -8.430   8.276  72.819  1.00  0.00    -0.248 C  
ENDBRANCH   4  21
ENDBRANCH   2   3
TORSDOF 4
ENDMDL
MODEL       92
REMARK 921   NORMALIZED FREE ENERGY PREDICTED BY IDOCK:   -4.31 KCAL/MOL
REMARK 922        TOTAL FREE ENERGY PREDICTED BY IDOCK:   -6.28 KCAL/MOL
REMARK 923 INTER-LIGAND FREE ENERGY PREDICTED BY IDOCK:   -4.84 KCAL/MOL
REMARK 924 INTRA-LIGAND FREE ENERGY PREDICTED BY IDOCK:   -1.45 KCAL/MOL
REMARK 927      BINDING AFFINITY PREDICTED BY RF-SCORE:    0.00 PKD
ROOT
HETATM    1  C   UNL     1      -9.614   3.904  71.084  1.00  0.00    -0.244 C  
HETATM    2  C   UNL     1      -8.970   5.232  70.712  1.00  0.00    -0.160 C  
ENDROOT
BRANCH   2   3
HETATM    3  C   UNL     1      -9.832   6.128  69.841  1.00  0.00    -0.205 C  
HETATM    4  C   UNL     1      -9.925   6.064  68.490  1.00  0.00    -0.173 C  
BRANCH   3   5
HETATM    5  C   UNL     1     -10.683   7.079  70.585  1.00  0.00    -0.255 A  
HETATM    6  H   UNL     1     -12.825  10.823  72.447  1.00  0.00     0.000 HD 
HETATM    7  C   UNL     1     -12.010   6.754  70.895  1.00  0.00    -0.437 A  
HETATM    8  C   UNL     1     -10.191   8.351  70.912  1.00  0.00    -0.234 A  
HETATM    9  C   UNL     1     -11.030   9.298  71.500  1.00  0.00    -0.446 A  
HETATM   10  O   UNL     1     -13.163   9.955  72.257  1.00  0.00    -0.431 OA 
HETATM   11  C   UNL     1     -12.853   7.707  71.475  1.00  0.00    -0.376 A  
HETATM   12  C   UNL     1     -12.359   8.977  71.752  1.00  0.00    -0.367 A  
ENDBRANCH   3   5
BRANCH   4  13
HETATM   13  C   UNL     1      -9.065   5.158  67.700  1.00  0.00    -0.117 A  
HETATM   14  C   UNL     1      -9.535   3.892  67.329  1.00  0.00    -0.235 A  
HETATM   15  C   UNL     1      -7.754   5.530  67.375  1.00  0.00    -0.100 A  
HETATM   16  C   UNL     1      -7.390   3.374  66.366  1.00  0.00    -0.075 A  
HETATM   17  H   UNL     1      -6.919   1.601  65.508  1.00  0.00     0.000 HD 
HETATM   18  C   UNL     1      -6.914   4.636  66.705  1.00  0.00    -0.060 A  
HETATM   19  O   UNL     1      -6.594   2.463  65.740  1.00  0.00    -0.030 OA 
HETATM   20  C   UNL     1      -8.695   2.998  66.663  1.00  0.00    -0.135 A  
ENDBRANCH   4  13
BRANCH   4  21
HETATM   21  C   UNL     1     -10.948   6.801  67.630  1.00  0.00    -0.346 C  
HETATM   22  C   UNL     1     -10.423   8.062  66.956  1.00  0.00    -0.410 C  
ENDBRANCH   4  21
ENDBRANCH   2   3
TORSDOF 4
ENDMDL
MODEL       93
REMARK 921   NORMALIZED FREE ENERGY PREDICTED BY IDOCK:   -4.31 KCAL/MOL
REMARK 922        TOTAL FREE ENERGY PREDICTED BY IDOCK:   -6.28 KCAL/MOL
REMARK 923 INTER-LIGAND FREE ENERGY PREDICTED BY IDOCK:   -6.20 KCAL/MOL
REMARK 924 INTRA-LIGAND FREE ENERGY PREDICTED BY IDOCK:   -0.08 KCAL/MOL
REMARK 927      BINDING AFFINITY PREDICTED BY RF-SCORE:    0.00 PKD
ROOT
HETATM    1  C   UNL     1     -11.772  12.202  69.941  1.00  0.00    -0.361 C  
HETATM    2  C   UNL     1     -12.148  11.175  68.882  1.00  0.00    -0.276 C  
ENDROOT
BRANCH   2   3
HETATM    3  C   UNL     1     -11.116  10.995  67.784  1.00  0.00    -0.356 C  
HETATM    4  C   UNL     1     -10.075  10.126  67.813  1.00  0.00    -0.216 C  
BRANCH   3   5
HETATM    5  C   UNL     1     -11.359  11.800  66.570  1.00  0.00    -0.370 A  
HETATM    6  H   UNL     1     -12.197  13.429  62.244  1.00  0.00     0.000 HD 
HETATM    7  C   UNL     1     -12.031  13.027  66.652  1.00  0.00    -0.453 A  
HETATM    8  C   UNL     1     -10.992  11.299  65.313  1.00  0.00    -0.207 A  
HETATM    9  C   UNL     1     -11.334  11.996  64.153  1.00  0.00    -0.455 A  
HETATM   10  O   UNL     1     -12.426  13.794  63.091  1.00  0.00    -0.786 OA 
HETATM   11  C   UNL     1     -12.381  13.719  65.490  1.00  0.00    -0.507 A  
HETATM   12  C   UNL     1     -12.047  13.184  64.250  1.00  0.00    -0.414 A  
ENDBRANCH   3   5
BRANCH   4  13
HETATM   13  C   UNL     1      -9.769   9.330  69.019  1.00  0.00    -0.162 A  
HETATM   14  C   UNL     1      -8.798   9.773  69.924  1.00  0.00    -0.248 A  
HETATM   15  C   UNL     1     -10.399   8.096  69.232  1.00  0.00    -0.222 A  
HETATM   16  C   UNL     1      -9.058   7.750  71.202  1.00  0.00    -0.142 A  
HETATM   17  H   UNL     1      -7.988   7.299  72.862  1.00  0.00     0.000 HD 
HETATM   18  C   UNL     1     -10.043   7.304  70.327  1.00  0.00    -0.196 A  
HETATM   19  O   UNL     1      -8.661   6.994  72.264  1.00  0.00    -0.121 OA 
HETATM   20  C   UNL     1      -8.439   8.980  71.016  1.00  0.00    -0.254 A  
ENDBRANCH   4  13
BRANCH   4  21
HETATM   21  C   UNL     1      -9.171   9.778  66.634  1.00  0.00    -0.184 C  
HETATM   22  C   UNL     1      -9.345   8.366  66.092  1.00  0.00    -0.267 C  
ENDBRANCH   4  21
ENDBRANCH   2   3
TORSDOF 4
ENDMDL
MODEL       94
REMARK 921   NORMALIZED FREE ENERGY PREDICTED BY IDOCK:   -4.30 KCAL/MOL
REMARK 922        TOTAL FREE ENERGY PREDICTED BY IDOCK:   -6.27 KCAL/MOL
REMARK 923 INTER-LIGAND FREE ENERGY PREDICTED BY IDOCK:   -5.98 KCAL/MOL
REMARK 924 INTRA-LIGAND FREE ENERGY PREDICTED BY IDOCK:   -0.29 KCAL/MOL
REMARK 927      BINDING AFFINITY PREDICTED BY RF-SCORE:    0.00 PKD
ROOT
HETATM    1  C   UNL     1     -10.183  10.288  69.442  1.00  0.00    -0.255 C  
HETATM    2  C   UNL     1     -11.175  10.939  68.488  1.00  0.00    -0.335 C  
ENDROOT
BRANCH   2   3
HETATM    3  C   UNL     1     -10.859  12.382  68.138  1.00  0.00    -0.250 C  
HETATM    4  C   UNL     1     -10.449  12.829  66.925  1.00  0.00    -0.250 C  
BRANCH   3   5
HETATM    5  C   UNL     1     -11.114  13.351  69.223  1.00  0.00    -0.216 A  
HETATM    6  H   UNL     1     -11.570  17.127  71.980  1.00  0.00     0.000 HD 
HETATM    7  C   UNL     1     -12.169  13.150  70.123  1.00  0.00    -0.360 A  
HETATM    8  C   UNL     1     -10.352  14.525  69.308  1.00  0.00    -0.154 A  
HETATM    9  C   UNL     1     -10.670  15.503  70.250  1.00  0.00    -0.352 A  
HETATM   10  O   UNL     1     -12.077  16.324  71.953  1.00  0.00    -0.471 OA 
HETATM   11  C   UNL     1     -12.495  14.135  71.060  1.00  0.00    -0.438 A  
HETATM   12  C   UNL     1     -11.754  15.311  71.099  1.00  0.00    -0.360 A  
ENDBRANCH   3   5
BRANCH   4  13
HETATM   13  C   UNL     1     -10.142  11.894  65.822  1.00  0.00    -0.272 A  
HETATM   14  C   UNL     1      -8.960  11.144  65.847  1.00  0.00    -0.210 A  
HETATM   15  C   UNL     1     -10.996  11.801  64.715  1.00  0.00    -0.360 A  
HETATM   16  C   UNL     1      -9.468  10.264  63.665  1.00  0.00    -0.299 A  
HETATM   17  H   UNL     1      -8.276   8.987  62.640  1.00  0.00     0.000 HD 
HETATM   18  C   UNL     1     -10.659  10.983  63.634  1.00  0.00    -0.338 A  
HETATM   19  O   UNL     1      -9.088   9.478  62.618  1.00  0.00    -0.265 OA 
HETATM   20  C   UNL     1      -8.622  10.330  64.765  1.00  0.00    -0.193 A  
ENDBRANCH   4  13
BRANCH   4  21
HETATM   21  C   UNL     1     -10.345  14.292  66.502  1.00  0.00    -0.278 C  
HETATM   22  C   UNL     1     -11.510  14.795  65.659  1.00  0.00    -0.327 C  
ENDBRANCH   4  21
ENDBRANCH   2   3
TORSDOF 4
ENDMDL
MODEL       95
REMARK 921   NORMALIZED FREE ENERGY PREDICTED BY IDOCK:   -4.29 KCAL/MOL
REMARK 922        TOTAL FREE ENERGY PREDICTED BY IDOCK:   -6.25 KCAL/MOL
REMARK 923 INTER-LIGAND FREE ENERGY PREDICTED BY IDOCK:   -4.87 KCAL/MOL
REMARK 924 INTRA-LIGAND FREE ENERGY PREDICTED BY IDOCK:   -1.38 KCAL/MOL
REMARK 927      BINDING AFFINITY PREDICTED BY RF-SCORE:    0.00 PKD
ROOT
HETATM    1  C   UNL     1      -8.880  10.647  69.313  1.00  0.00    -0.092 C  
HETATM    2  C   UNL     1      -8.441   9.238  68.939  1.00  0.00    -0.129 C  
ENDROOT
BRANCH   2   3
HETATM    3  C   UNL     1      -9.581   8.275  68.665  1.00  0.00    -0.152 C  
HETATM    4  C   UNL     1     -10.123   8.017  67.449  1.00  0.00    -0.294 C  
BRANCH   3   5
HETATM    5  C   UNL     1     -10.048   7.519  69.845  1.00  0.00    -0.193 A  
HETATM    6  H   UNL     1     -12.480   5.347  73.227  1.00  0.00     0.000 HD 
HETATM    7  C   UNL     1      -9.304   6.439  70.338  1.00  0.00    -0.169 A  
HETATM    8  C   UNL     1     -11.285   7.826  70.429  1.00  0.00    -0.246 A  
HETATM    9  C   UNL     1     -11.790   7.035  71.461  1.00  0.00    -0.351 A  
HETATM   10  O   UNL     1     -11.627   5.146  72.860  1.00  0.00    -0.297 OA 
HETATM   11  C   UNL     1      -9.815   5.641  71.365  1.00  0.00    -0.221 A  
HETATM   12  C   UNL     1     -11.064   5.935  71.902  1.00  0.00    -0.268 A  
ENDBRANCH   3   5
BRANCH   4  13
HETATM   13  C   UNL     1      -9.717   8.776  66.247  1.00  0.00    -0.342 A  
HETATM   14  C   UNL     1     -10.366   9.973  65.921  1.00  0.00    -0.202 A  
HETATM   15  C   UNL     1      -8.727   8.272  65.393  1.00  0.00    -0.147 A  
HETATM   16  C   UNL     1      -9.081  10.121  63.891  1.00  0.00    -0.260 A  
HETATM   17  H   UNL     1      -9.280  11.595  62.516  1.00  0.00     0.000 HD 
HETATM   18  C   UNL     1      -8.408   8.947  64.211  1.00  0.00    -0.176 A  
HETATM   19  O   UNL     1      -8.820  10.793  62.734  1.00  0.00    -0.219 OA 
HETATM   20  C   UNL     1     -10.049  10.645  64.739  1.00  0.00    -0.412 A  
ENDBRANCH   4  13
BRANCH   4  21
HETATM   21  C   UNL     1     -11.108   6.896  67.130  1.00  0.00    -0.362 C  
HETATM   22  C   UNL     1     -10.480   5.513  67.005  1.00  0.00    -0.336 C  
ENDBRANCH   4  21
ENDBRANCH   2   3
TORSDOF 4
ENDMDL
MODEL       96
REMARK 921   NORMALIZED FREE ENERGY PREDICTED BY IDOCK:   -4.28 KCAL/MOL
REMARK 922        TOTAL FREE ENERGY PREDICTED BY IDOCK:   -6.23 KCAL/MOL
REMARK 923 INTER-LIGAND FREE ENERGY PREDICTED BY IDOCK:   -6.55 KCAL/MOL
REMARK 924 INTRA-LIGAND FREE ENERGY PREDICTED BY IDOCK:    0.31 KCAL/MOL
REMARK 927      BINDING AFFINITY PREDICTED BY RF-SCORE:    0.00 PKD
ROOT
HETATM    1  C   UNL     1     -10.883  13.608  69.222  1.00  0.00    -0.123 C  
HETATM    2  C   UNL     1     -11.766  12.385  69.014  1.00  0.00    -0.372 C  
ENDROOT
BRANCH   2   3
HETATM    3  C   UNL     1     -11.011  11.110  68.688  1.00  0.00    -0.268 C  
HETATM    4  C   UNL     1     -10.647  10.703  67.447  1.00  0.00    -0.304 C  
BRANCH   3   5
HETATM    5  C   UNL     1     -10.590  10.323  69.866  1.00  0.00    -0.324 A  
HETATM    6  H   UNL     1     -10.211   7.413  73.534  1.00  0.00     0.000 HD 
HETATM    7  C   UNL     1      -9.252   9.941  70.025  1.00  0.00    -0.224 A  
HETATM    8  C   UNL     1     -11.547   9.880  70.790  1.00  0.00    -0.430 A  
HETATM    9  C   UNL     1     -11.176   9.031  71.832  1.00  0.00    -0.438 A  
HETATM   10  O   UNL     1      -9.547   7.729  72.931  1.00  0.00    -0.193 OA 
HETATM   11  C   UNL     1      -8.882   9.082  71.063  1.00  0.00    -0.291 A  
HETATM   12  C   UNL     1      -9.853   8.618  71.945  1.00  0.00    -0.314 A  
ENDBRANCH   3   5
BRANCH   4  13
HETATM   13  C   UNL     1     -11.078  11.435  66.238  1.00  0.00    -0.281 A  
HETATM   14  C   UNL     1     -10.492  11.149  64.999  1.00  0.00    -0.357 A  
HETATM   15  C   UNL     1     -12.027  12.462  66.333  1.00  0.00    -0.346 A  
HETATM   16  C   UNL     1     -11.757  12.930  63.987  1.00  0.00    -0.434 A  
HETATM   17  H   UNL     1     -11.622  13.465  62.038  1.00  0.00     0.000 HD 
HETATM   18  C   UNL     1     -12.368  13.212  65.204  1.00  0.00    -0.525 A  
HETATM   19  O   UNL     1     -12.039  13.657  62.869  1.00  0.00    -0.241 OA 
HETATM   20  C   UNL     1     -10.830  11.901  63.872  1.00  0.00    -0.456 A  
ENDBRANCH   4  13
BRANCH   4  21
HETATM   21  C   UNL     1      -9.701   9.548  67.129  1.00  0.00    -0.221 C  
HETATM   22  C   UNL     1     -10.379   8.195  66.964  1.00  0.00    -0.403 C  
ENDBRANCH   4  21
ENDBRANCH   2   3
TORSDOF 4
ENDMDL
MODEL       97
REMARK 921   NORMALIZED FREE ENERGY PREDICTED BY IDOCK:   -4.26 KCAL/MOL
REMARK 922        TOTAL FREE ENERGY PREDICTED BY IDOCK:   -6.22 KCAL/MOL
REMARK 923 INTER-LIGAND FREE ENERGY PREDICTED BY IDOCK:   -4.90 KCAL/MOL
REMARK 924 INTRA-LIGAND FREE ENERGY PREDICTED BY IDOCK:   -1.32 KCAL/MOL
REMARK 927      BINDING AFFINITY PREDICTED BY RF-SCORE:    0.00 PKD
ROOT
HETATM    1  C   UNL     1     -10.681  11.324  64.530  1.00  0.00    -0.390 C  
HETATM    2  C   UNL     1      -9.473  11.387  65.454  1.00  0.00    -0.240 C  
ENDROOT
BRANCH   2   3
HETATM    3  C   UNL     1      -9.701  10.792  66.831  1.00  0.00    -0.209 C  
HETATM    4  C   UNL     1     -10.157  11.463  67.918  1.00  0.00    -0.198 C  
BRANCH   3   5
HETATM    5  C   UNL     1      -9.469   9.335  66.920  1.00  0.00    -0.211 A  
HETATM    6  H   UNL     1      -8.013   4.980  67.909  1.00  0.00     0.000 HD 
HETATM    7  C   UNL     1     -10.525   8.434  66.734  1.00  0.00    -0.315 A  
HETATM    8  C   UNL     1      -8.203   8.849  67.277  1.00  0.00    -0.104 A  
HETATM    9  C   UNL     1      -8.010   7.483  67.488  1.00  0.00    -0.116 A  
HETATM   10  O   UNL     1      -8.868   5.293  67.640  1.00  0.00    -0.107 OA 
HETATM   11  C   UNL     1     -10.334   7.067  66.955  1.00  0.00    -0.360 A  
HETATM   12  C   UNL     1      -9.082   6.608  67.351  1.00  0.00    -0.120 A  
ENDBRANCH   3   5
BRANCH   4  13
HETATM   13  C   UNL     1     -10.365  12.926  67.888  1.00  0.00    -0.233 A  
HETATM   14  C   UNL     1      -9.362  13.786  68.349  1.00  0.00    -0.190 A  
HETATM   15  C   UNL     1     -11.589  13.459  67.460  1.00  0.00    -0.382 A  
HETATM   16  C   UNL     1     -10.815  15.674  68.002  1.00  0.00    -0.308 A  
HETATM   17  H   UNL     1     -10.324  17.591  68.432  1.00  0.00     0.000 HD 
HETATM   18  C   UNL     1     -11.815  14.837  67.517  1.00  0.00    -0.326 A  
HETATM   19  O   UNL     1     -11.006  17.020  68.101  1.00  0.00    -0.367 OA 
HETATM   20  C   UNL     1      -9.589  15.163  68.409  1.00  0.00    -0.212 A  
ENDBRANCH   4  13
BRANCH   4  21
HETATM   21  C   UNL     1     -10.601  10.833  69.235  1.00  0.00    -0.261 C  
HETATM   22  C   UNL     1     -12.108  10.694  69.399  1.00  0.00    -0.250 C  
ENDBRANCH   4  21
ENDBRANCH   2   3
TORSDOF 4
ENDMDL
MODEL       98
REMARK 921   NORMALIZED FREE ENERGY PREDICTED BY IDOCK:   -4.26 KCAL/MOL
REMARK 922        TOTAL FREE ENERGY PREDICTED BY IDOCK:   -6.22 KCAL/MOL
REMARK 923 INTER-LIGAND FREE ENERGY PREDICTED BY IDOCK:   -5.69 KCAL/MOL
REMARK 924 INTRA-LIGAND FREE ENERGY PREDICTED BY IDOCK:   -0.53 KCAL/MOL
REMARK 927      BINDING AFFINITY PREDICTED BY RF-SCORE:    0.00 PKD
ROOT
HETATM    1  C   UNL     1     -12.043  11.642  63.387  1.00  0.00    -0.319 C  
HETATM    2  C   UNL     1     -10.558  11.762  63.704  1.00  0.00    -0.496 C  
ENDROOT
BRANCH   2   3
HETATM    3  C   UNL     1     -10.213  11.605  65.173  1.00  0.00    -0.319 C  
HETATM    4  C   UNL     1     -10.186  12.603  66.090  1.00  0.00    -0.272 C  
BRANCH   3   5
HETATM    5  C   UNL     1      -9.972  10.213  65.605  1.00  0.00    -0.348 A  
HETATM    6  H   UNL     1      -8.204   6.040  66.843  1.00  0.00     0.000 HD 
HETATM    7  C   UNL     1     -10.824   9.598  66.532  1.00  0.00     0.074 A  
HETATM    8  C   UNL     1      -8.837   9.525  65.153  1.00  0.00    -0.223 A  
HETATM    9  C   UNL     1      -8.536   8.260  65.657  1.00  0.00    -0.173 A  
HETATM   10  O   UNL     1      -8.992   6.482  67.136  1.00  0.00    -0.112 OA 
HETATM   11  C   UNL     1     -10.517   8.334  67.044  1.00  0.00    -0.384 A  
HETATM   12  C   UNL     1      -9.363   7.687  66.615  1.00  0.00    -0.190 A  
ENDBRANCH   3   5
BRANCH   4  13
HETATM   13  C   UNL     1     -10.381  14.015  65.698  1.00  0.00    -0.342 A  
HETATM   14  C   UNL     1      -9.441  14.982  66.072  1.00  0.00    -0.337 A  
HETATM   15  C   UNL     1     -11.536  14.405  65.008  1.00  0.00    -0.374 A  
HETATM   16  C   UNL     1     -10.827  16.704  65.118  1.00  0.00    -0.186 A  
HETATM   17  H   UNL     1     -10.385  18.680  65.154  1.00  0.00     0.000 HD 
HETATM   18  C   UNL     1     -11.760  15.754  64.716  1.00  0.00    -0.081 A  
HETATM   19  O   UNL     1     -11.022  18.032  64.880  1.00  0.00    -0.776 OA 
HETATM   20  C   UNL     1      -9.666  16.330  65.784  1.00  0.00    -0.299 A  
ENDBRANCH   4  13
BRANCH   4  21
HETATM   21  C   UNL     1     -10.062  12.424  67.601  1.00  0.00    -0.199 C  
HETATM   22  C   UNL     1     -11.330  12.734  68.386  1.00  0.00    -0.331 C  
ENDBRANCH   4  21
ENDBRANCH   2   3
TORSDOF 4
ENDMDL
MODEL       99
REMARK 921   NORMALIZED FREE ENERGY PREDICTED BY IDOCK:   -4.21 KCAL/MOL
REMARK 922        TOTAL FREE ENERGY PREDICTED BY IDOCK:   -6.16 KCAL/MOL
REMARK 923 INTER-LIGAND FREE ENERGY PREDICTED BY IDOCK:   -5.05 KCAL/MOL
REMARK 924 INTRA-LIGAND FREE ENERGY PREDICTED BY IDOCK:   -1.10 KCAL/MOL
REMARK 927      BINDING AFFINITY PREDICTED BY RF-SCORE:    0.00 PKD
ROOT
HETATM    1  C   UNL     1     -12.396   9.986  70.887  1.00  0.00    -0.438 C  
HETATM    2  C   UNL     1     -10.945  10.267  70.523  1.00  0.00    -0.343 C  
ENDROOT
BRANCH   2   3
HETATM    3  C   UNL     1     -10.367   9.338  69.471  1.00  0.00    -0.223 C  
HETATM    4  C   UNL     1      -9.995   9.697  68.217  1.00  0.00    -0.178 C  
BRANCH   3   5
HETATM    5  C   UNL     1     -10.137   7.953  69.930  1.00  0.00    -0.197 A  
HETATM    6  H   UNL     1      -9.836   3.296  70.473  1.00  0.00     0.000 HD 
HETATM    7  C   UNL     1      -9.033   7.645  70.735  1.00  0.00    -0.149 A  
HETATM    8  C   UNL     1     -10.977   6.920  69.490  1.00  0.00    -0.289 A  
HETATM    9  C   UNL     1     -10.690   5.595  69.815  1.00  0.00    -0.401 A  
HETATM   10  O   UNL     1      -9.274   3.989  70.802  1.00  0.00    -0.104 OA 
HETATM   11  C   UNL     1      -8.739   6.316  71.052  1.00  0.00    -0.136 A  
HETATM   12  C   UNL     1      -9.560   5.302  70.570  1.00  0.00    -0.176 A  
ENDBRANCH   3   5
BRANCH   4  13
HETATM   13  C   UNL     1     -10.243  11.060  67.701  1.00  0.00    -0.211 A  
HETATM   14  C   UNL     1      -9.266  12.052  67.842  1.00  0.00    -0.190 A  
HETATM   15  C   UNL     1     -11.480  11.385  67.126  1.00  0.00    -0.268 A  
HETATM   16  C   UNL     1     -10.770  13.674  66.891  1.00  0.00    -0.275 A  
HETATM   17  H   UNL     1     -10.333  15.637  66.652  1.00  0.00     0.000 HD 
HETATM   18  C   UNL     1     -11.744  12.696  66.720  1.00  0.00    -0.460 A  
HETATM   19  O   UNL     1     -10.998  14.969  66.535  1.00  0.00    -0.321 OA 
HETATM   20  C   UNL     1      -9.531  13.362  67.439  1.00  0.00    -0.222 A  
ENDBRANCH   4  13
BRANCH   4  21
HETATM   21  C   UNL     1      -9.213   8.830  67.236  1.00  0.00    -0.165 C  
HETATM   22  C   UNL     1      -9.393   9.204  65.770  1.00  0.00    -0.309 C  
ENDBRANCH   4  21
ENDBRANCH   2   3
TORSDOF 4
ENDMDL
MODEL      100
REMARK 921   NORMALIZED FREE ENERGY PREDICTED BY IDOCK:   -4.21 KCAL/MOL
REMARK 922        TOTAL FREE ENERGY PREDICTED BY IDOCK:   -6.15 KCAL/MOL
REMARK 923 INTER-LIGAND FREE ENERGY PREDICTED BY IDOCK:   -5.01 KCAL/MOL
REMARK 924 INTRA-LIGAND FREE ENERGY PREDICTED BY IDOCK:   -1.14 KCAL/MOL
REMARK 927      BINDING AFFINITY PREDICTED BY RF-SCORE:    0.00 PKD
ROOT
HETATM    1  C   UNL     1     -10.503   5.653  67.512  1.00  0.00    -0.294 C  
HETATM    2  C   UNL     1     -11.396   6.453  68.449  1.00  0.00    -0.145 C  
ENDROOT
BRANCH   2   3
HETATM    3  C   UNL     1     -10.690   7.006  69.674  1.00  0.00    -0.265 C  
HETATM    4  C   UNL     1     -10.225   8.272  69.814  1.00  0.00    -0.204 C  
BRANCH   3   5
HETATM    5  C   UNL     1     -10.600   6.068  70.811  1.00  0.00    -0.316 A  
HETATM    6  H   UNL     1     -11.339   3.263  74.506  1.00  0.00     0.000 HD 
HETATM    7  C   UNL     1      -9.675   5.016  70.794  1.00  0.00    -0.263 A  
HETATM    8  C   UNL     1     -11.501   6.175  71.880  1.00  0.00    -0.355 A  
HETATM    9  C   UNL     1     -11.505   5.216  72.894  1.00  0.00    -0.329 A  
HETATM   10  O   UNL     1     -10.703   3.195  73.803  1.00  0.00    -0.171 OA 
HETATM   11  C   UNL     1      -9.686   4.050  71.804  1.00  0.00    -0.241 A  
HETATM   12  C   UNL     1     -10.616   4.149  72.834  1.00  0.00    -0.167 A  
ENDBRANCH   3   5
BRANCH   4  13
HETATM   13  C   UNL     1     -10.257   9.233  68.691  1.00  0.00    -0.220 A  
HETATM   14  C   UNL     1     -11.229  10.240  68.657  1.00  0.00    -0.263 A  
HETATM   15  C   UNL     1      -9.358   9.104  67.623  1.00  0.00    -0.154 A  
HETATM   16  C   UNL     1     -10.436  10.938  66.494  1.00  0.00    -0.253 A  
HETATM   17  H   UNL     1     -11.251  12.440  65.406  1.00  0.00     0.000 HD 
HETATM   18  C   UNL     1      -9.448   9.959  66.521  1.00  0.00    -0.230 A  
HETATM   19  O   UNL     1     -10.576  11.772  65.425  1.00  0.00    -0.260 OA 
HETATM   20  C   UNL     1     -11.320  11.092  67.555  1.00  0.00    -0.332 A  
ENDBRANCH   4  13
BRANCH   4  21
HETATM   21  C   UNL     1      -9.720   8.899  71.110  1.00  0.00    -0.344 C  
HETATM   22  C   UNL     1      -8.251   8.636  71.415  1.00  0.00    -0.205 C  
ENDBRANCH   4  21
ENDBRANCH   2   3
TORSDOF 4
ENDMDL
MODEL      101
REMARK 921   NORMALIZED FREE ENERGY PREDICTED BY IDOCK:   -4.19 KCAL/MOL
REMARK 922        TOTAL FREE ENERGY PREDICTED BY IDOCK:   -6.13 KCAL/MOL
REMARK 923 INTER-LIGAND FREE ENERGY PREDICTED BY IDOCK:   -4.77 KCAL/MOL
REMARK 924 INTRA-LIGAND FREE ENERGY PREDICTED BY IDOCK:   -1.36 KCAL/MOL
REMARK 927      BINDING AFFINITY PREDICTED BY RF-SCORE:    0.00 PKD
ROOT
HETATM    1  C   UNL     1     -11.012  12.464  63.848  1.00  0.00    -0.467 C  
HETATM    2  C   UNL     1     -11.191  12.275  65.348  1.00  0.00    -0.372 C  
ENDROOT
BRANCH   2   3
HETATM    3  C   UNL     1     -10.041  12.796  66.190  1.00  0.00    -0.274 C  
HETATM    4  C   UNL     1      -8.931  12.097  66.532  1.00  0.00    -0.179 C  
BRANCH   3   5
HETATM    5  C   UNL     1     -10.153  14.218  66.576  1.00  0.00    -0.283 A  
HETATM    6  H   UNL     1     -10.432  18.903  66.774  1.00  0.00     0.000 HD 
HETATM    7  C   UNL     1     -10.918  14.596  67.686  1.00  0.00    -0.296 A  
HETATM    8  C   UNL     1      -9.561  15.208  65.779  1.00  0.00    -0.344 A  
HETATM    9  C   UNL     1      -9.770  16.558  66.065  1.00  0.00    -0.331 A  
HETATM   10  O   UNL     1     -10.815  18.242  67.339  1.00  0.00    -0.389 OA 
HETATM   11  C   UNL     1     -11.136  15.948  67.967  1.00  0.00    -0.334 A  
HETATM   12  C   UNL     1     -10.576  16.915  67.139  1.00  0.00    -0.249 A  
ENDBRANCH   3   5
BRANCH   4  13
HETATM   13  C   UNL     1      -8.793  10.662  66.204  1.00  0.00    -0.179 A  
HETATM   14  C   UNL     1      -8.009  10.265  65.115  1.00  0.00    -0.147 A  
HETATM   15  C   UNL     1      -9.495   9.697  66.939  1.00  0.00    -0.198 A  
HETATM   16  C   UNL     1      -8.668   7.977  65.470  1.00  0.00    -0.102 A  
HETATM   17  H   UNL     1      -8.083   6.424  64.309  1.00  0.00     0.000 HD 
HETATM   18  C   UNL     1      -9.432   8.350  66.571  1.00  0.00    -0.284 A  
HETATM   19  O   UNL     1      -8.605   6.678  65.061  1.00  0.00    -0.055 OA 
HETATM   20  C   UNL     1      -7.950   8.920  64.745  1.00  0.00    -0.129 A  
ENDBRANCH   4  13
BRANCH   4  21
HETATM   21  C   UNL     1      -7.677  12.675  67.182  1.00  0.00    -0.094 C  
HETATM   22  C   UNL     1      -7.738  12.784  68.700  1.00  0.00    -0.064 C  
ENDBRANCH   4  21
ENDBRANCH   2   3
TORSDOF 4
ENDMDL
MODEL      102
REMARK 921   NORMALIZED FREE ENERGY PREDICTED BY IDOCK:   -4.12 KCAL/MOL
REMARK 922        TOTAL FREE ENERGY PREDICTED BY IDOCK:   -6.04 KCAL/MOL
REMARK 923 INTER-LIGAND FREE ENERGY PREDICTED BY IDOCK:   -5.17 KCAL/MOL
REMARK 924 INTRA-LIGAND FREE ENERGY PREDICTED BY IDOCK:   -0.87 KCAL/MOL
REMARK 927      BINDING AFFINITY PREDICTED BY RF-SCORE:    0.00 PKD
ROOT
HETATM    1  C   UNL     1     -10.321  10.065  68.554  1.00  0.00    -0.217 C  
HETATM    2  C   UNL     1     -11.034   9.977  67.212  1.00  0.00    -0.225 C  
ENDROOT
BRANCH   2   3
HETATM    3  C   UNL     1     -10.237  10.515  66.038  1.00  0.00    -0.310 C  
HETATM    4  C   UNL     1      -9.186   9.896  65.445  1.00  0.00    -0.264 C  
BRANCH   3   5
HETATM    5  C   UNL     1     -10.740  11.788  65.482  1.00  0.00    -0.329 A  
HETATM    6  H   UNL     1     -12.983  15.211  63.175  1.00  0.00     0.000 HD 
HETATM    7  C   UNL     1     -10.748  12.952  66.261  1.00  0.00    -0.292 A  
HETATM    8  C   UNL     1     -11.293  11.819  64.193  1.00  0.00    -0.430 A  
HETATM    9  C   UNL     1     -11.885  12.986  63.711  1.00  0.00    -0.566 A  
HETATM   10  O   UNL     1     -12.587  15.212  64.038  1.00  0.00    -0.791 OA 
HETATM   11  C   UNL     1     -11.351  14.118  65.782  1.00  0.00    -0.317 A  
HETATM   12  C   UNL     1     -11.932  14.116  64.518  1.00  0.00    -0.458 A  
ENDBRANCH   3   5
BRANCH   4  13
HETATM   13  C   UNL     1      -8.623   8.643  65.990  1.00  0.00    -0.173 A  
HETATM   14  C   UNL     1      -7.342   8.638  66.555  1.00  0.00    -0.081 A  
HETATM   15  C   UNL     1      -9.337   7.441  65.887  1.00  0.00     0.040 A  
HETATM   16  C   UNL     1      -7.481   6.254  66.859  1.00  0.00    -0.087 A  
HETATM   17  H   UNL     1      -5.999   5.110  67.633  1.00  0.00     0.000 HD 
HETATM   18  C   UNL     1      -8.765   6.243  66.323  1.00  0.00    -0.143 A  
HETATM   19  O   UNL     1      -6.876   5.103  67.267  1.00  0.00    -0.057 OA 
HETATM   20  C   UNL     1      -6.769   7.440  66.987  1.00  0.00    -0.069 A  
ENDBRANCH   4  13
BRANCH   4  21
HETATM   21  C   UNL     1      -8.526  10.316  64.135  1.00  0.00    -0.180 C  
HETATM   22  C   UNL     1      -8.783   9.380  62.962  1.00  0.00    -0.225 C  
ENDBRANCH   4  21
ENDBRANCH   2   3
TORSDOF 4
ENDMDL
MODEL      103
REMARK 921   NORMALIZED FREE ENERGY PREDICTED BY IDOCK:   -4.11 KCAL/MOL
REMARK 922        TOTAL FREE ENERGY PREDICTED BY IDOCK:   -6.03 KCAL/MOL
REMARK 923 INTER-LIGAND FREE ENERGY PREDICTED BY IDOCK:   -4.62 KCAL/MOL
REMARK 924 INTRA-LIGAND FREE ENERGY PREDICTED BY IDOCK:   -1.41 KCAL/MOL
REMARK 927      BINDING AFFINITY PREDICTED BY RF-SCORE:    0.00 PKD
ROOT
HETATM    1  C   UNL     1      -7.225  11.965  68.706  1.00  0.00    -0.112 C  
HETATM    2  C   UNL     1      -7.376  12.357  67.243  1.00  0.00    -0.127 C  
ENDROOT
BRANCH   2   3
HETATM    3  C   UNL     1      -8.582  11.750  66.549  1.00  0.00    -0.148 C  
HETATM    4  C   UNL     1      -9.717  12.412  66.214  1.00  0.00    -0.253 C  
BRANCH   3   5
HETATM    5  C   UNL     1      -8.421  10.335  66.156  1.00  0.00    -0.144 A  
HETATM    6  H   UNL     1      -8.858   5.731  65.329  1.00  0.00     0.000 HD 
HETATM    7  C   UNL     1      -7.698   9.994  65.006  1.00  0.00    -0.138 A  
HETATM    8  C   UNL     1      -9.066   9.327  66.887  1.00  0.00    -0.158 A  
HETATM    9  C   UNL     1      -9.023   8.004  66.447  1.00  0.00    -0.204 A  
HETATM   10  O   UNL     1      -8.392   6.400  64.840  1.00  0.00    -0.132 OA 
HETATM   11  C   UNL     1      -7.664   8.670  64.559  1.00  0.00    -0.124 A  
HETATM   12  C   UNL     1      -8.346   7.691  65.275  1.00  0.00    -0.115 A  
ENDBRANCH   3   5
BRANCH   4  13
HETATM   13  C   UNL     1      -9.940  13.815  66.621  1.00  0.00    -0.279 A  
HETATM   14  C   UNL     1     -10.543  14.101  67.851  1.00  0.00    -0.244 A  
HETATM   15  C   UNL     1      -9.610  14.865  65.753  1.00  0.00    -0.311 A  
HETATM   16  C   UNL     1     -10.526  16.448  67.319  1.00  0.00    -0.303 A  
HETATM   17  H   UNL     1     -11.280  17.898  68.515  1.00  0.00     0.000 HD 
HETATM   18  C   UNL     1      -9.903  16.186  66.103  1.00  0.00    -0.358 A  
HETATM   19  O   UNL     1     -10.856  17.719  67.685  1.00  0.00    -0.363 OA 
HETATM   20  C   UNL     1     -10.839  15.420  68.200  1.00  0.00    -0.285 A  
ENDBRANCH   4  13
BRANCH   4  21
HETATM   21  C   UNL     1     -10.834  11.873  65.324  1.00  0.00    -0.347 C  
HETATM   22  C   UNL     1     -10.586  12.023  63.829  1.00  0.00    -0.478 C  
ENDBRANCH   4  21
ENDBRANCH   2   3
TORSDOF 4
ENDMDL
MODEL      104
REMARK 921   NORMALIZED FREE ENERGY PREDICTED BY IDOCK:   -4.09 KCAL/MOL
REMARK 922        TOTAL FREE ENERGY PREDICTED BY IDOCK:   -6.01 KCAL/MOL
REMARK 923 INTER-LIGAND FREE ENERGY PREDICTED BY IDOCK:   -4.90 KCAL/MOL
REMARK 924 INTRA-LIGAND FREE ENERGY PREDICTED BY IDOCK:   -1.11 KCAL/MOL
REMARK 927      BINDING AFFINITY PREDICTED BY RF-SCORE:    0.00 PKD
ROOT
HETATM    1  C   UNL     1      -9.288  11.719  67.612  1.00  0.00    -0.180 C  
HETATM    2  C   UNL     1      -9.663  13.054  68.240  1.00  0.00    -0.221 C  
ENDROOT
BRANCH   2   3
HETATM    3  C   UNL     1      -9.221  14.270  67.446  1.00  0.00    -0.200 C  
HETATM    4  C   UNL     1      -9.699  14.637  66.231  1.00  0.00    -0.329 C  
BRANCH   3   5
HETATM    5  C   UNL     1      -8.245  15.138  68.137  1.00  0.00    -0.145 A  
HETATM    6  H   UNL     1      -4.562  17.724  69.484  1.00  0.00     0.000 HD 
HETATM    7  C   UNL     1      -8.681  16.179  68.966  1.00  0.00    -0.254 A  
HETATM    8  C   UNL     1      -6.873  14.976  67.899  1.00  0.00    -0.172 A  
HETATM    9  C   UNL     1      -5.955  15.872  68.447  1.00  0.00    -0.106 A  
HETATM   10  O   UNL     1      -5.486  17.827  69.677  1.00  0.00    -0.186 OA 
HETATM   11  C   UNL     1      -7.763  17.083  69.507  1.00  0.00     0.326 A  
HETATM   12  C   UNL     1      -6.409  16.932  69.224  1.00  0.00    -0.223 A  
ENDBRANCH   3   5
BRANCH   4  13
HETATM   13  C   UNL     1     -10.645  13.781  65.485  1.00  0.00    -0.312 A  
HETATM   14  C   UNL     1     -10.214  13.084  64.350  1.00  0.00    -0.335 A  
HETATM   15  C   UNL     1     -11.991  13.713  65.867  1.00  0.00    -0.438 A  
HETATM   16  C   UNL     1     -12.460  12.308  63.969  1.00  0.00    -0.458 A  
HETATM   17  H   UNL     1     -13.020  11.147  62.407  1.00  0.00     0.000 HD 
HETATM   18  C   UNL     1     -12.902  12.974  65.107  1.00  0.00    -0.335 A  
HETATM   19  O   UNL     1     -13.322  11.602  63.184  1.00  0.00    -0.410 OA 
HETATM   20  C   UNL     1     -11.124  12.349  63.589  1.00  0.00    -0.535 A  
ENDBRANCH   4  13
BRANCH   4  21
HETATM   21  C   UNL     1      -9.429  15.966  65.531  1.00  0.00    -0.089 C  
HETATM   22  C   UNL     1     -10.381  17.092  65.913  1.00  0.00    -0.294 C  
ENDBRANCH   4  21
ENDBRANCH   2   3
TORSDOF 4
ENDMDL
MODEL      105
REMARK 921   NORMALIZED FREE ENERGY PREDICTED BY IDOCK:   -4.09 KCAL/MOL
REMARK 922        TOTAL FREE ENERGY PREDICTED BY IDOCK:   -6.00 KCAL/MOL
REMARK 923 INTER-LIGAND FREE ENERGY PREDICTED BY IDOCK:   -4.67 KCAL/MOL
REMARK 924 INTRA-LIGAND FREE ENERGY PREDICTED BY IDOCK:   -1.33 KCAL/MOL
REMARK 927      BINDING AFFINITY PREDICTED BY RF-SCORE:    0.00 PKD
ROOT
HETATM    1  C   UNL     1      -8.115   8.243  71.852  1.00  0.00    -0.184 C  
HETATM    2  C   UNL     1      -8.424   7.411  70.615  1.00  0.00    -0.136 C  
ENDROOT
BRANCH   2   3
HETATM    3  C   UNL     1      -9.892   7.374  70.231  1.00  0.00    -0.187 C  
HETATM    4  C   UNL     1     -10.825   6.538  70.753  1.00  0.00    -0.311 C  
BRANCH   3   5
HETATM    5  C   UNL     1     -10.305   8.411  69.263  1.00  0.00    -0.220 A  
HETATM    6  H   UNL     1     -11.212  12.362  66.889  1.00  0.00     0.000 HD 
HETATM    7  C   UNL     1     -10.291   8.145  67.888  1.00  0.00    -0.280 A  
HETATM    8  C   UNL     1     -10.632   9.698  69.712  1.00  0.00    -0.267 A  
HETATM    9  C   UNL     1     -10.898  10.715  68.795  1.00  0.00    -0.269 A  
HETATM   10  O   UNL     1     -11.019  11.487  66.572  1.00  0.00    -0.282 OA 
HETATM   11  C   UNL     1     -10.547   9.167  66.969  1.00  0.00    -0.266 A  
HETATM   12  C   UNL     1     -10.827  10.448  67.433  1.00  0.00    -0.286 A  
ENDBRANCH   3   5
BRANCH   4  13
HETATM   13  C   UNL     1     -10.453   5.460  71.693  1.00  0.00    -0.291 A  
HETATM   14  C   UNL     1      -9.958   4.245  71.206  1.00  0.00    -0.230 A  
HETATM   15  C   UNL     1     -10.655   5.622  73.071  1.00  0.00    -0.275 A  
HETATM   16  C   UNL     1      -9.918   3.360  73.445  1.00  0.00    -0.116 A  
HETATM   17  H   UNL     1      -9.353   1.474  73.920  1.00  0.00     0.000 HD 
HETATM   18  C   UNL     1     -10.386   4.569  73.949  1.00  0.00    -0.273 A  
HETATM   19  O   UNL     1      -9.673   2.299  74.264  1.00  0.00    -0.083 OA 
HETATM   20  C   UNL     1      -9.693   3.192  72.084  1.00  0.00    -0.230 A  
ENDBRANCH   4  13
BRANCH   4  21
HETATM   21  C   UNL     1     -12.332   6.641  70.543  1.00  0.00    -0.088 C  
HETATM   22  C   UNL     1     -13.047   7.585  71.501  1.00  0.00    -0.402 C  
ENDBRANCH   4  21
ENDBRANCH   2   3
TORSDOF 4
ENDMDL
MODEL      106
REMARK 921   NORMALIZED FREE ENERGY PREDICTED BY IDOCK:   -4.08 KCAL/MOL
REMARK 922        TOTAL FREE ENERGY PREDICTED BY IDOCK:   -5.99 KCAL/MOL
REMARK 923 INTER-LIGAND FREE ENERGY PREDICTED BY IDOCK:   -4.68 KCAL/MOL
REMARK 924 INTRA-LIGAND FREE ENERGY PREDICTED BY IDOCK:   -1.31 KCAL/MOL
REMARK 927      BINDING AFFINITY PREDICTED BY RF-SCORE:    0.00 PKD
ROOT
HETATM    1  C   UNL     1     -10.543   6.266  66.849  1.00  0.00    -0.374 C  
HETATM    2  C   UNL     1     -10.857   7.699  67.256  1.00  0.00    -0.263 C  
ENDROOT
BRANCH   2   3
HETATM    3  C   UNL     1      -9.683   8.458  67.845  1.00  0.00    -0.189 C  
HETATM    4  C   UNL     1      -9.332   9.732  67.539  1.00  0.00    -0.152 C  
BRANCH   3   5
HETATM    5  C   UNL     1      -8.941   7.731  68.896  1.00  0.00    -0.141 A  
HETATM    6  H   UNL     1      -7.537   5.143  72.556  1.00  0.00     0.000 HD 
HETATM    7  C   UNL     1      -7.680   7.184  68.627  1.00  0.00    -0.120 A  
HETATM    8  C   UNL     1      -9.534   7.511  70.147  1.00  0.00    -0.161 A  
HETATM    9  C   UNL     1      -8.893   6.717  71.098  1.00  0.00    -0.137 A  
HETATM   10  O   UNL     1      -7.111   5.308  71.723  1.00  0.00    -0.070 OA 
HETATM   11  C   UNL     1      -7.043   6.380  69.576  1.00  0.00    -0.073 A  
HETATM   12  C   UNL     1      -7.667   6.137  70.795  1.00  0.00    -0.102 A  
ENDBRANCH   3   5
BRANCH   4  13
HETATM   13  C   UNL     1     -10.018  10.484  66.468  1.00  0.00    -0.266 A  
HETATM   14  C   UNL     1      -9.678  10.263  65.128  1.00  0.00    -0.364 A  
HETATM   15  C   UNL     1     -10.964  11.468  66.787  1.00  0.00    -0.347 A  
HETATM   16  C   UNL     1     -11.177  12.022  64.454  1.00  0.00    -0.344 A  
HETATM   17  H   UNL     1     -11.447  12.625  62.539  1.00  0.00     0.000 HD 
HETATM   18  C   UNL     1     -11.545  12.239  65.777  1.00  0.00    -0.443 A  
HETATM   19  O   UNL     1     -11.698  12.773  63.443  1.00  0.00    -0.508 OA 
HETATM   20  C   UNL     1     -10.257  11.036  64.119  1.00  0.00    -0.419 A  
ENDBRANCH   4  13
BRANCH   4  21
HETATM   21  C   UNL     1      -8.300  10.576  68.282  1.00  0.00    -0.122 C  
HETATM   22  C   UNL     1      -6.981  10.766  67.543  1.00  0.00    -0.084 C  
ENDBRANCH   4  21
ENDBRANCH   2   3
TORSDOF 4
ENDMDL
MODEL      107
REMARK 921   NORMALIZED FREE ENERGY PREDICTED BY IDOCK:   -4.04 KCAL/MOL
REMARK 922        TOTAL FREE ENERGY PREDICTED BY IDOCK:   -5.94 KCAL/MOL
REMARK 923 INTER-LIGAND FREE ENERGY PREDICTED BY IDOCK:   -4.96 KCAL/MOL
REMARK 924 INTRA-LIGAND FREE ENERGY PREDICTED BY IDOCK:   -0.98 KCAL/MOL
REMARK 927      BINDING AFFINITY PREDICTED BY RF-SCORE:    0.00 PKD
ROOT
HETATM    1  C   UNL     1     -10.744   5.943  67.801  1.00  0.00    -0.346 C  
HETATM    2  C   UNL     1     -10.958   7.372  67.320  1.00  0.00    -0.234 C  
ENDROOT
BRANCH   2   3
HETATM    3  C   UNL     1     -10.326   8.435  68.200  1.00  0.00    -0.255 C  
HETATM    4  C   UNL     1      -9.824   9.619  67.772  1.00  0.00    -0.192 C  
BRANCH   3   5
HETATM    5  C   UNL     1     -10.360   8.139  69.647  1.00  0.00    -0.221 A  
HETATM    6  H   UNL     1     -11.492   7.083  74.082  1.00  0.00     0.000 HD 
HETATM    7  C   UNL     1      -9.278   7.504  70.269  1.00  0.00    -0.157 A  
HETATM    8  C   UNL     1     -11.516   8.417  70.392  1.00  0.00    -0.129 A  
HETATM    9  C   UNL     1     -11.601   8.024  71.727  1.00  0.00    -0.331 A  
HETATM   10  O   UNL     1     -10.693   6.915  73.598  1.00  0.00    -0.343 OA 
HETATM   11  C   UNL     1      -9.368   7.101  71.604  1.00  0.00    -0.158 A  
HETATM   12  C   UNL     1     -10.539   7.347  72.314  1.00  0.00    -0.232 A  
ENDBRANCH   3   5
BRANCH   4  13
HETATM   13  C   UNL     1      -9.732   9.942  66.332  1.00  0.00    -0.270 A  
HETATM   14  C   UNL     1      -8.919   9.172  65.492  1.00  0.00    -0.252 A  
HETATM   15  C   UNL     1     -10.403  11.057  65.812  1.00  0.00    -0.316 A  
HETATM   16  C   UNL     1      -9.412  10.649  63.656  1.00  0.00    -0.299 A  
HETATM   17  H   UNL     1      -8.639  10.457  61.794  1.00  0.00     0.000 HD 
HETATM   18  C   UNL     1     -10.243  11.411  64.470  1.00  0.00    -0.352 A  
HETATM   19  O   UNL     1      -9.206  10.978  62.350  1.00  0.00    -0.302 OA 
HETATM   20  C   UNL     1      -8.757   9.528  64.152  1.00  0.00    -0.239 A  
ENDBRANCH   4  13
BRANCH   4  21
HETATM   21  C   UNL     1      -9.394  10.781  68.663  1.00  0.00    -0.184 C  
HETATM   22  C   UNL     1      -7.952  11.231  68.473  1.00  0.00    -0.145 C  
ENDBRANCH   4  21
ENDBRANCH   2   3
TORSDOF 4
ENDMDL
MODEL      108
REMARK 921   NORMALIZED FREE ENERGY PREDICTED BY IDOCK:   -3.99 KCAL/MOL
REMARK 922        TOTAL FREE ENERGY PREDICTED BY IDOCK:   -5.88 KCAL/MOL
REMARK 923 INTER-LIGAND FREE ENERGY PREDICTED BY IDOCK:   -4.82 KCAL/MOL
REMARK 924 INTRA-LIGAND FREE ENERGY PREDICTED BY IDOCK:   -1.05 KCAL/MOL
REMARK 927      BINDING AFFINITY PREDICTED BY RF-SCORE:    0.00 PKD
ROOT
HETATM    1  C   UNL     1      -9.979   9.876  69.947  1.00  0.00    -0.292 C  
HETATM    2  C   UNL     1     -10.821   9.791  68.681  1.00  0.00    -0.223 C  
ENDROOT
BRANCH   2   3
HETATM    3  C   UNL     1     -10.261  10.560  67.499  1.00  0.00    -0.245 C  
HETATM    4  C   UNL     1      -9.606  10.018  66.442  1.00  0.00    -0.248 C  
BRANCH   3   5
HETATM    5  C   UNL     1     -10.551  12.008  67.510  1.00  0.00    -0.250 A  
HETATM    6  H   UNL     1     -10.460  16.701  67.322  1.00  0.00     0.000 HD 
HETATM    7  C   UNL     1     -11.803  12.486  67.100  1.00  0.00    -0.386 A  
HETATM    8  C   UNL     1      -9.544  12.922  67.851  1.00  0.00    -0.215 A  
HETATM    9  C   UNL     1      -9.773  14.293  67.740  1.00  0.00    -0.222 A  
HETATM   10  O   UNL     1     -11.160  16.093  67.115  1.00  0.00    -0.206 OA 
HETATM   11  C   UNL     1     -12.029  13.859  66.979  1.00  0.00    -0.459 A  
HETATM   12  C   UNL     1     -11.003  14.749  67.281  1.00  0.00    -0.318 A  
ENDBRANCH   3   5
BRANCH   4  13
HETATM   13  C   UNL     1      -9.257   8.582  66.406  1.00  0.00    -0.251 A  
HETATM   14  C   UNL     1     -10.249   7.614  66.601  1.00  0.00    -0.272 A  
HETATM   15  C   UNL     1      -7.924   8.181  66.241  1.00  0.00    -0.101 A  
HETATM   16  C   UNL     1      -8.581   5.881  66.516  1.00  0.00    -0.123 A  
HETATM   17  H   UNL     1      -8.969   3.907  66.756  1.00  0.00     0.000 HD 
HETATM   18  C   UNL     1      -7.585   6.826  66.296  1.00  0.00    -0.086 A  
HETATM   19  O   UNL     1      -8.289   4.553  66.606  1.00  0.00    -0.106 OA 
HETATM   20  C   UNL     1      -9.910   6.261  66.660  1.00  0.00    -0.201 A  
ENDBRANCH   4  13
BRANCH   4  21
HETATM   21  C   UNL     1      -9.239  10.745  65.151  1.00  0.00    -0.239 C  
HETATM   22  C   UNL     1     -10.344  10.780  64.104  1.00  0.00    -0.382 C  
ENDBRANCH   4  21
ENDBRANCH   2   3
TORSDOF 4
ENDMDL
MODEL      109
REMARK 921   NORMALIZED FREE ENERGY PREDICTED BY IDOCK:   -3.96 KCAL/MOL
REMARK 922        TOTAL FREE ENERGY PREDICTED BY IDOCK:   -5.85 KCAL/MOL
REMARK 923 INTER-LIGAND FREE ENERGY PREDICTED BY IDOCK:   -4.42 KCAL/MOL
REMARK 924 INTRA-LIGAND FREE ENERGY PREDICTED BY IDOCK:   -1.43 KCAL/MOL
REMARK 927      BINDING AFFINITY PREDICTED BY RF-SCORE:    0.00 PKD
ROOT
HETATM    1  C   UNL     1      -7.921   9.709  70.261  1.00  0.00    -0.198 C  
HETATM    2  C   UNL     1      -7.792   8.734  69.099  1.00  0.00    -0.098 C  
ENDROOT
BRANCH   2   3
HETATM    3  C   UNL     1      -8.936   7.745  68.976  1.00  0.00    -0.145 C  
HETATM    4  C   UNL     1      -9.990   7.856  68.131  1.00  0.00    -0.210 C  
BRANCH   3   5
HETATM    5  C   UNL     1      -8.799   6.535  69.814  1.00  0.00    -0.143 A  
HETATM    6  H   UNL     1      -9.356   2.897  72.733  1.00  0.00     0.000 HD 
HETATM    7  C   UNL     1      -7.976   5.478  69.407  1.00  0.00    -0.094 A  
HETATM    8  C   UNL     1      -9.562   6.404  70.983  1.00  0.00    -0.188 A  
HETATM    9  C   UNL     1      -9.533   5.213  71.709  1.00  0.00    -0.188 A  
HETATM   10  O   UNL     1      -8.812   2.983  71.958  1.00  0.00    -0.079 OA 
HETATM   11  C   UNL     1      -7.956   4.281  70.129  1.00  0.00    -0.058 A  
HETATM   12  C   UNL     1      -8.752   4.154  71.262  1.00  0.00    -0.101 A  
ENDBRANCH   3   5
BRANCH   4  13
HETATM   13  C   UNL     1     -10.190   9.065  67.304  1.00  0.00    -0.323 A  
HETATM   14  C   UNL     1     -10.924  10.145  67.807  1.00  0.00    -0.338 A  
HETATM   15  C   UNL     1      -9.705   9.112  65.990  1.00  0.00    -0.358 A  
HETATM   16  C   UNL     1     -10.724  11.273  65.690  1.00  0.00    -0.217 A  
HETATM   17  H   UNL     1     -11.545  13.077  65.272  1.00  0.00     0.000 HD 
HETATM   18  C   UNL     1      -9.972  10.220  65.181  1.00  0.00    -0.395 A  
HETATM   19  O   UNL     1     -11.032  12.357  64.924  1.00  0.00    -0.285 OA 
HETATM   20  C   UNL     1     -11.194  11.250  66.998  1.00  0.00    -0.324 A  
ENDBRANCH   4  13
BRANCH   4  21
HETATM   21  C   UNL     1     -11.020   6.768  67.840  1.00  0.00    -0.309 C  
HETATM   22  C   UNL     1     -10.597   5.756  66.784  1.00  0.00    -0.373 C  
ENDBRANCH   4  21
ENDBRANCH   2   3
TORSDOF 4
ENDMDL
MODEL      110
REMARK 921   NORMALIZED FREE ENERGY PREDICTED BY IDOCK:   -3.95 KCAL/MOL
REMARK 922        TOTAL FREE ENERGY PREDICTED BY IDOCK:   -5.84 KCAL/MOL
REMARK 923 INTER-LIGAND FREE ENERGY PREDICTED BY IDOCK:   -4.62 KCAL/MOL
REMARK 924 INTRA-LIGAND FREE ENERGY PREDICTED BY IDOCK:   -1.22 KCAL/MOL
REMARK 927      BINDING AFFINITY PREDICTED BY RF-SCORE:    0.00 PKD
ROOT
HETATM    1  C   UNL     1      -7.408  10.332  69.264  1.00  0.00    -0.099 C  
HETATM    2  C   UNL     1      -8.636  10.876  68.548  1.00  0.00    -0.152 C  
ENDROOT
BRANCH   2   3
HETATM    3  C   UNL     1      -9.763   9.873  68.378  1.00  0.00    -0.161 C  
HETATM    4  C   UNL     1      -9.979   9.106  67.282  1.00  0.00    -0.270 C  
BRANCH   3   5
HETATM    5  C   UNL     1     -10.619   9.699  69.569  1.00  0.00    -0.247 A  
HETATM    6  H   UNL     1     -14.070   9.594  72.756  1.00  0.00     0.000 HD 
HETATM    7  C   UNL     1     -10.436   8.604  70.423  1.00  0.00    -0.233 A  
HETATM    8  C   UNL     1     -11.680  10.586  69.805  1.00  0.00    -0.354 A  
HETATM    9  C   UNL     1     -12.569  10.353  70.854  1.00  0.00    -0.478 A  
HETATM   10  O   UNL     1     -13.339   9.001  72.625  1.00  0.00    -0.458 OA 
HETATM   11  C   UNL     1     -11.334   8.365  71.468  1.00  0.00    -0.334 A  
HETATM   12  C   UNL     1     -12.404   9.232  71.659  1.00  0.00    -0.372 A  
ENDBRANCH   3   5
BRANCH   4  13
HETATM   13  C   UNL     1      -9.174   9.273  66.053  1.00  0.00    -0.262 A  
HETATM   14  C   UNL     1      -8.022   8.502  65.860  1.00  0.00    -0.105 A  
HETATM   15  C   UNL     1      -9.520  10.247  65.107  1.00  0.00    -0.309 A  
HETATM   16  C   UNL     1      -7.553   9.705  63.828  1.00  0.00    -0.126 A  
HETATM   17  H   UNL     1      -5.931   9.387  62.658  1.00  0.00     0.000 HD 
HETATM   18  C   UNL     1      -8.708  10.464  63.991  1.00  0.00    -0.202 A  
HETATM   19  O   UNL     1      -6.719   9.906  62.769  1.00  0.00    -0.108 OA 
HETATM   20  C   UNL     1      -7.208   8.721  64.746  1.00  0.00    -0.091 A  
ENDBRANCH   4  13
BRANCH   4  21
HETATM   21  C   UNL     1     -10.963   7.943  67.186  1.00  0.00     0.006 C  
HETATM   22  C   UNL     1     -10.338   6.564  67.348  1.00  0.00    -0.263 C  
ENDBRANCH   4  21
ENDBRANCH   2   3
TORSDOF 4
ENDMDL
MODEL      111
REMARK 921   NORMALIZED FREE ENERGY PREDICTED BY IDOCK:   -3.95 KCAL/MOL
REMARK 922        TOTAL FREE ENERGY PREDICTED BY IDOCK:   -5.83 KCAL/MOL
REMARK 923 INTER-LIGAND FREE ENERGY PREDICTED BY IDOCK:   -4.45 KCAL/MOL
REMARK 924 INTRA-LIGAND FREE ENERGY PREDICTED BY IDOCK:   -1.38 KCAL/MOL
REMARK 927      BINDING AFFINITY PREDICTED BY RF-SCORE:    0.00 PKD
ROOT
HETATM    1  C   UNL     1      -7.826   7.301  72.370  1.00  0.00    -0.102 C  
HETATM    2  C   UNL     1      -8.048   8.033  71.054  1.00  0.00    -0.097 C  
ENDROOT
BRANCH   2   3
HETATM    3  C   UNL     1      -9.355   7.697  70.359  1.00  0.00    -0.160 C  
HETATM    4  C   UNL     1      -9.560   6.646  69.527  1.00  0.00    -0.150 C  
BRANCH   3   5
HETATM    5  C   UNL     1     -10.489   8.575  70.716  1.00  0.00    -0.239 A  
HETATM    6  H   UNL     1     -13.969  10.944  72.800  1.00  0.00     0.000 HD 
HETATM    7  C   UNL     1     -10.654   9.815  70.087  1.00  0.00    -0.337 A  
HETATM    8  C   UNL     1     -11.360   8.206  71.751  1.00  0.00    -0.333 A  
HETATM    9  C   UNL     1     -12.353   9.087  72.179  1.00  0.00    -0.442 A  
HETATM   10  O   UNL     1     -13.404  11.194  72.078  1.00  0.00    -0.454 OA 
HETATM   11  C   UNL     1     -11.643  10.701  70.523  1.00  0.00    -0.444 A  
HETATM   12  C   UNL     1     -12.470  10.335  71.580  1.00  0.00    -0.422 A  
ENDBRANCH   3   5
BRANCH   4  13
HETATM   13  C   UNL     1      -8.449   5.765  69.109  1.00  0.00    -0.107 A  
HETATM   14  C   UNL     1      -7.650   6.117  68.015  1.00  0.00    -0.101 A  
HETATM   15  C   UNL     1      -8.229   4.544  69.761  1.00  0.00    -0.066 A  
HETATM   16  C   UNL     1      -6.467   4.028  68.204  1.00  0.00    -0.038 A  
HETATM   17  H   UNL     1      -4.983   3.437  66.959  1.00  0.00     0.000 HD 
HETATM   18  C   UNL     1      -7.235   3.674  69.308  1.00  0.00    -0.049 A  
HETATM   19  O   UNL     1      -5.508   3.194  67.712  1.00  0.00    -0.016 OA 
HETATM   20  C   UNL     1      -6.659   5.245  67.560  1.00  0.00    -0.054 A  
ENDBRANCH   4  13
BRANCH   4  21
HETATM   21  C   UNL     1     -10.914   6.172  69.005  1.00  0.00    -0.436 C  
HETATM   22  C   UNL     1     -11.157   6.442  67.526  1.00  0.00    -0.401 C  
ENDBRANCH   4  21
ENDBRANCH   2   3
TORSDOF 4
ENDMDL
MODEL      112
REMARK 921   NORMALIZED FREE ENERGY PREDICTED BY IDOCK:   -3.93 KCAL/MOL
REMARK 922        TOTAL FREE ENERGY PREDICTED BY IDOCK:   -5.81 KCAL/MOL
REMARK 923 INTER-LIGAND FREE ENERGY PREDICTED BY IDOCK:   -4.87 KCAL/MOL
REMARK 924 INTRA-LIGAND FREE ENERGY PREDICTED BY IDOCK:   -0.94 KCAL/MOL
REMARK 927      BINDING AFFINITY PREDICTED BY RF-SCORE:    0.00 PKD
ROOT
HETATM    1  C   UNL     1     -12.592   8.750  72.244  1.00  0.00    -0.460 C  
HETATM    2  C   UNL     1     -12.155   7.787  71.148  1.00  0.00    -0.306 C  
ENDROOT
BRANCH   2   3
HETATM    3  C   UNL     1     -10.654   7.596  71.039  1.00  0.00    -0.226 C  
HETATM    4  C   UNL     1      -9.813   8.353  70.290  1.00  0.00    -0.188 C  
BRANCH   3   5
HETATM    5  C   UNL     1     -10.101   6.533  71.903  1.00  0.00    -0.200 A  
HETATM    6  H   UNL     1      -8.086   2.709  73.743  1.00  0.00     0.000 HD 
HETATM    7  C   UNL     1      -9.559   6.845  73.156  1.00  0.00    -0.183 A  
HETATM    8  C   UNL     1     -10.039   5.213  71.436  1.00  0.00    -0.265 A  
HETATM    9  C   UNL     1      -9.403   4.229  72.194  1.00  0.00    -0.174 A  
HETATM   10  O   UNL     1      -8.147   3.594  74.084  1.00  0.00    -0.077 OA 
HETATM   11  C   UNL     1      -8.913   5.862  73.911  1.00  0.00    -0.126 A  
HETATM   12  C   UNL     1      -8.824   4.567  73.411  1.00  0.00    -0.102 A  
ENDBRANCH   3   5
BRANCH   4  13
HETATM   13  C   UNL     1     -10.323   9.400  69.380  1.00  0.00    -0.222 A  
HETATM   14  C   UNL     1     -10.976  10.524  69.900  1.00  0.00    -0.359 A  
HETATM   15  C   UNL     1     -10.216   9.245  67.992  1.00  0.00    -0.255 A  
HETATM   16  C   UNL     1     -11.444  11.291  67.667  1.00  0.00    -0.264 A  
HETATM   17  H   UNL     1     -12.486  12.971  67.228  1.00  0.00     0.000 HD 
HETATM   18  C   UNL     1     -10.777  10.193  67.132  1.00  0.00    -0.286 A  
HETATM   19  O   UNL     1     -12.031  12.222  66.863  1.00  0.00    -0.578 OA 
HETATM   20  C   UNL     1     -11.540  11.469  69.042  1.00  0.00    -0.383 A  
ENDBRANCH   4  13
BRANCH   4  21
HETATM   21  C   UNL     1      -8.289   8.314  70.346  1.00  0.00    -0.120 C  
HETATM   22  C   UNL     1      -7.642   7.307  69.405  1.00  0.00    -0.097 C  
ENDBRANCH   4  21
ENDBRANCH   2   3
TORSDOF 4
ENDMDL
MODEL      113
REMARK 921   NORMALIZED FREE ENERGY PREDICTED BY IDOCK:   -3.92 KCAL/MOL
REMARK 922        TOTAL FREE ENERGY PREDICTED BY IDOCK:   -5.80 KCAL/MOL
REMARK 923 INTER-LIGAND FREE ENERGY PREDICTED BY IDOCK:   -4.81 KCAL/MOL
REMARK 924 INTRA-LIGAND FREE ENERGY PREDICTED BY IDOCK:   -0.99 KCAL/MOL
REMARK 927      BINDING AFFINITY PREDICTED BY RF-SCORE:    0.00 PKD
ROOT
HETATM    1  C   UNL     1     -10.247   4.922  67.161  1.00  0.00    -0.211 C  
HETATM    2  C   UNL     1     -11.025   6.225  67.286  1.00  0.00    -0.455 C  
ENDROOT
BRANCH   2   3
HETATM    3  C   UNL     1     -10.178   7.434  67.638  1.00  0.00    -0.261 C  
HETATM    4  C   UNL     1      -9.832   7.819  68.891  1.00  0.00    -0.166 C  
BRANCH   3   5
HETATM    5  C   UNL     1      -9.642   8.173  66.476  1.00  0.00    -0.303 A  
HETATM    6  H   UNL     1      -8.274  11.359  63.307  1.00  0.00     0.000 HD 
HETATM    7  C   UNL     1      -8.522   7.695  65.784  1.00  0.00    -0.153 A  
HETATM    8  C   UNL     1     -10.203   9.405  66.110  1.00  0.00    -0.264 A  
HETATM    9  C   UNL     1      -9.623  10.167  65.096  1.00  0.00    -0.354 A  
HETATM   10  O   UNL     1      -7.901  10.513  63.525  1.00  0.00    -0.118 OA 
HETATM   11  C   UNL     1      -7.934   8.464  64.776  1.00  0.00    -0.138 A  
HETATM   12  C   UNL     1      -8.479   9.703  64.457  1.00  0.00    -0.178 A  
ENDBRANCH   3   5
BRANCH   4  13
HETATM   13  C   UNL     1     -10.375   7.136  70.084  1.00  0.00    -0.218 A  
HETATM   14  C   UNL     1      -9.692   6.050  70.642  1.00  0.00    -0.209 A  
HETATM   15  C   UNL     1     -11.608   7.528  70.625  1.00  0.00    -0.272 A  
HETATM   16  C   UNL     1     -11.479   5.731  72.223  1.00  0.00    -0.262 A  
HETATM   17  H   UNL     1     -11.533   4.254  73.608  1.00  0.00     0.000 HD 
HETATM   18  C   UNL     1     -12.161   6.824  71.697  1.00  0.00    -0.410 A  
HETATM   19  O   UNL     1     -11.999   5.000  73.249  1.00  0.00    -0.168 OA 
HETATM   20  C   UNL     1     -10.247   5.344  71.712  1.00  0.00    -0.263 A  
ENDBRANCH   4  13
BRANCH   4  21
HETATM   21  C   UNL     1      -8.805   8.891  69.244  1.00  0.00    -0.139 C  
HETATM   22  C   UNL     1      -8.778   9.288  70.714  1.00  0.00    -0.272 C  
ENDBRANCH   4  21
ENDBRANCH   2   3
TORSDOF 4
ENDMDL
MODEL      114
REMARK 921   NORMALIZED FREE ENERGY PREDICTED BY IDOCK:   -3.92 KCAL/MOL
REMARK 922        TOTAL FREE ENERGY PREDICTED BY IDOCK:   -5.80 KCAL/MOL
REMARK 923 INTER-LIGAND FREE ENERGY PREDICTED BY IDOCK:   -5.17 KCAL/MOL
REMARK 924 INTRA-LIGAND FREE ENERGY PREDICTED BY IDOCK:   -0.62 KCAL/MOL
REMARK 927      BINDING AFFINITY PREDICTED BY RF-SCORE:    0.00 PKD
ROOT
HETATM    1  C   UNL     1      -7.198  11.803  67.683  1.00  0.00    -0.111 C  
HETATM    2  C   UNL     1      -8.683  11.983  67.962  1.00  0.00    -0.175 C  
ENDROOT
BRANCH   2   3
HETATM    3  C   UNL     1      -9.524  12.281  66.734  1.00  0.00    -0.222 C  
HETATM    4  C   UNL     1     -10.094  11.355  65.923  1.00  0.00    -0.286 C  
BRANCH   3   5
HETATM    5  C   UNL     1      -9.779  13.716  66.493  1.00  0.00    -0.298 A  
HETATM    6  H   UNL     1      -9.636  18.258  65.302  1.00  0.00     0.000 HD 
HETATM    7  C   UNL     1     -11.077  14.174  66.234  1.00  0.00    -0.318 A  
HETATM    8  C   UNL     1      -8.707  14.618  66.437  1.00  0.00    -0.008 A  
HETATM    9  C   UNL     1      -8.927  15.949  66.084  1.00  0.00    -0.376 A  
HETATM   10  O   UNL     1     -10.375  17.664  65.365  1.00  0.00    -0.617 OA 
HETATM   11  C   UNL     1     -11.296  15.506  65.870  1.00  0.00    -0.028 A  
HETATM   12  C   UNL     1     -10.214  16.375  65.778  1.00  0.00    -0.348 A  
ENDBRANCH   3   5
BRANCH   4  13
HETATM   13  C   UNL     1      -9.836   9.911  66.101  1.00  0.00    -0.324 A  
HETATM   14  C   UNL     1     -10.604   9.167  67.003  1.00  0.00    -0.266 A  
HETATM   15  C   UNL     1      -8.779   9.292  65.419  1.00  0.00    -0.208 A  
HETATM   16  C   UNL     1      -9.240   7.230  66.574  1.00  0.00    -0.157 A  
HETATM   17  H   UNL     1      -9.482   5.436  67.482  1.00  0.00     0.000 HD 
HETATM   18  C   UNL     1      -8.481   7.947  65.655  1.00  0.00    -0.160 A  
HETATM   19  O   UNL     1      -8.963   5.926  66.855  1.00  0.00    -0.114 OA 
HETATM   20  C   UNL     1     -10.304   7.824  67.242  1.00  0.00    -0.371 A  
ENDBRANCH   4  13
BRANCH   4  21
HETATM   21  C   UNL     1     -11.118  11.639  64.827  1.00  0.00    -0.328 C  
HETATM   22  C   UNL     1     -10.591  11.481  63.407  1.00  0.00    -0.460 C  
ENDBRANCH   4  21
ENDBRANCH   2   3
TORSDOF 4
ENDMDL
MODEL      115
REMARK 921   NORMALIZED FREE ENERGY PREDICTED BY IDOCK:   -3.88 KCAL/MOL
REMARK 922        TOTAL FREE ENERGY PREDICTED BY IDOCK:   -5.75 KCAL/MOL
REMARK 923 INTER-LIGAND FREE ENERGY PREDICTED BY IDOCK:   -4.43 KCAL/MOL
REMARK 924 INTRA-LIGAND FREE ENERGY PREDICTED BY IDOCK:   -1.32 KCAL/MOL
REMARK 927      BINDING AFFINITY PREDICTED BY RF-SCORE:    0.00 PKD
ROOT
HETATM    1  C   UNL     1     -10.599   7.463  67.204  1.00  0.00    -0.413 C  
HETATM    2  C   UNL     1     -11.238   6.841  68.438  1.00  0.00    -0.146 C  
ENDROOT
BRANCH   2   3
HETATM    3  C   UNL     1     -10.325   6.759  69.647  1.00  0.00    -0.223 C  
HETATM    4  C   UNL     1     -10.169   7.725  70.587  1.00  0.00    -0.199 C  
BRANCH   3   5
HETATM    5  C   UNL     1      -9.630   5.466  69.811  1.00  0.00    -0.225 A  
HETATM    6  H   UNL     1      -6.567   1.949  70.379  1.00  0.00     0.000 HD 
HETATM    7  C   UNL     1     -10.255   4.401  70.473  1.00  0.00    -0.081 A  
HETATM    8  C   UNL     1      -8.304   5.323  69.377  1.00  0.00    -0.095 A  
HETATM    9  C   UNL     1      -7.602   4.147  69.643  1.00  0.00    -0.053 A  
HETATM   10  O   UNL     1      -7.474   2.022  70.653  1.00  0.00    -0.033 OA 
HETATM   11  C   UNL     1      -9.548   3.228  70.749  1.00  0.00    -0.228 A  
HETATM   12  C   UNL     1      -8.220   3.122  70.349  1.00  0.00    -0.048 A  
ENDBRANCH   3   5
BRANCH   4  13
HETATM   13  C   UNL     1     -10.811   9.048  70.445  1.00  0.00    -0.284 A  
HETATM   14  C   UNL     1     -10.278   9.995  69.562  1.00  0.00    -0.255 A  
HETATM   15  C   UNL     1     -11.915   9.389  71.239  1.00  0.00    -0.430 A  
HETATM   16  C   UNL     1     -11.906  11.607  70.302  1.00  0.00    -0.326 A  
HETATM   17  H   UNL     1     -12.012  13.516  69.633  1.00  0.00     0.000 HD 
HETATM   18  C   UNL     1     -12.465  10.671  71.167  1.00  0.00    -0.523 A  
HETATM   19  O   UNL     1     -12.393  12.877  70.223  1.00  0.00    -0.299 OA 
HETATM   20  C   UNL     1     -10.825  11.278  69.493  1.00  0.00    -0.207 A  
ENDBRANCH   4  13
BRANCH   4  21
HETATM   21  C   UNL     1      -9.433   7.567  71.914  1.00  0.00    -0.173 C  
HETATM   22  C   UNL     1      -8.092   8.286  71.989  1.00  0.00    -0.188 C  
ENDBRANCH   4  21
ENDBRANCH   2   3
TORSDOF 4
ENDMDL
MODEL      116
REMARK 921   NORMALIZED FREE ENERGY PREDICTED BY IDOCK:   -3.84 KCAL/MOL
REMARK 922        TOTAL FREE ENERGY PREDICTED BY IDOCK:   -5.70 KCAL/MOL
REMARK 923 INTER-LIGAND FREE ENERGY PREDICTED BY IDOCK:   -4.60 KCAL/MOL
REMARK 924 INTRA-LIGAND FREE ENERGY PREDICTED BY IDOCK:   -1.10 KCAL/MOL
REMARK 927      BINDING AFFINITY PREDICTED BY RF-SCORE:    0.00 PKD
ROOT
HETATM    1  C   UNL     1      -6.787  10.021  67.950  1.00  0.00    -0.075 C  
HETATM    2  C   UNL     1      -7.986   9.097  67.791  1.00  0.00    -0.101 C  
ENDROOT
BRANCH   2   3
HETATM    3  C   UNL     1      -9.327   9.807  67.744  1.00  0.00    -0.148 C  
HETATM    4  C   UNL     1     -10.268   9.783  68.720  1.00  0.00    -0.210 C  
BRANCH   3   5
HETATM    5  C   UNL     1      -9.540  10.647  66.547  1.00  0.00    -0.218 A  
HETATM    6  H   UNL     1     -10.845  12.536  62.449  1.00  0.00     0.000 HD 
HETATM    7  C   UNL     1      -9.508  12.043  66.643  1.00  0.00    -0.222 A  
HETATM    8  C   UNL     1      -9.860  10.048  65.320  1.00  0.00    -0.388 A  
HETATM    9  C   UNL     1     -10.187  10.839  64.218  1.00  0.00    -0.422 A  
HETATM   10  O   UNL     1     -10.601  12.955  63.267  1.00  0.00    -0.119 OA 
HETATM   11  C   UNL     1      -9.846  12.835  65.542  1.00  0.00    -0.169 A  
HETATM   12  C   UNL     1     -10.203  12.223  64.345  1.00  0.00    -0.314 A  
ENDBRANCH   3   5
BRANCH   4  13
HETATM   13  C   UNL     1     -10.118   8.927  69.915  1.00  0.00    -0.204 A  
HETATM   14  C   UNL     1     -10.749   7.679  69.968  1.00  0.00    -0.245 A  
HETATM   15  C   UNL     1      -9.400   9.385  71.028  1.00  0.00    -0.210 A  
HETATM   16  C   UNL     1      -9.988   7.385  72.232  1.00  0.00    -0.169 A  
HETATM   17  H   UNL     1     -10.419   5.776  73.385  1.00  0.00     0.000 HD 
HETATM   18  C   UNL     1      -9.334   8.612  72.190  1.00  0.00    -0.343 A  
HETATM   19  O   UNL     1      -9.973   6.614  73.356  1.00  0.00    -0.175 OA 
HETATM   20  C   UNL     1     -10.686   6.908  71.130  1.00  0.00    -0.252 A  
ENDBRANCH   4  13
BRANCH   4  21
HETATM   21  C   UNL     1     -11.512  10.666  68.781  1.00  0.00    -0.330 C  
HETATM   22  C   UNL     1     -11.467  11.757  69.843  1.00  0.00    -0.285 C  
ENDBRANCH   4  21
ENDBRANCH   2   3
TORSDOF 4
ENDMDL
MODEL      117
REMARK 921   NORMALIZED FREE ENERGY PREDICTED BY IDOCK:   -3.83 KCAL/MOL
REMARK 922        TOTAL FREE ENERGY PREDICTED BY IDOCK:   -5.69 KCAL/MOL
REMARK 923 INTER-LIGAND FREE ENERGY PREDICTED BY IDOCK:   -4.31 KCAL/MOL
REMARK 924 INTRA-LIGAND FREE ENERGY PREDICTED BY IDOCK:   -1.38 KCAL/MOL
REMARK 927      BINDING AFFINITY PREDICTED BY RF-SCORE:    0.00 PKD
ROOT
HETATM    1  C   UNL     1      -7.545   6.534  70.649  1.00  0.00    -0.102 C  
HETATM    2  C   UNL     1      -8.743   5.893  69.963  1.00  0.00    -0.133 C  
ENDROOT
BRANCH   2   3
HETATM    3  C   UNL     1      -9.627   6.863  69.201  1.00  0.00    -0.144 C  
HETATM    4  C   UNL     1      -9.540   7.137  67.876  1.00  0.00    -0.145 C  
BRANCH   3   5
HETATM    5  C   UNL     1     -10.709   7.473  70.001  1.00  0.00    -0.248 A  
HETATM    6  H   UNL     1     -14.265   8.441  72.913  1.00  0.00     0.000 HD 
HETATM    7  C   UNL     1     -10.609   8.799  70.439  1.00  0.00    -0.251 A  
HETATM    8  C   UNL     1     -11.807   6.697  70.400  1.00  0.00    -0.407 A  
HETATM    9  C   UNL     1     -12.766   7.230  71.261  1.00  0.00    -0.400 A  
HETATM   10  O   UNL     1     -13.542   8.986  72.628  1.00  0.00    -0.465 OA 
HETATM   11  C   UNL     1     -11.564   9.329  71.310  1.00  0.00    -0.419 A  
HETATM   12  C   UNL     1     -12.624   8.531  71.729  1.00  0.00    -0.346 A  
ENDBRANCH   3   5
BRANCH   4  13
HETATM   13  C   UNL     1      -8.452   6.584  67.043  1.00  0.00    -0.113 A  
HETATM   14  C   UNL     1      -7.181   7.169  67.072  1.00  0.00    -0.091 A  
HETATM   15  C   UNL     1      -8.700   5.514  66.173  1.00  0.00    -0.133 A  
HETATM   16  C   UNL     1      -6.443   5.660  65.347  1.00  0.00    -0.039 A  
HETATM   17  H   UNL     1      -4.590   5.674  64.530  1.00  0.00     0.000 HD 
HETATM   18  C   UNL     1      -7.693   5.050  65.323  1.00  0.00    -0.087 A  
HETATM   19  O   UNL     1      -5.443   5.257  64.513  1.00  0.00    -0.015 OA 
HETATM   20  C   UNL     1      -6.175   6.708  66.220  1.00  0.00    -0.038 A  
ENDBRANCH   4  13
BRANCH   4  21
HETATM   21  C   UNL     1     -10.557   7.933  67.061  1.00  0.00    -0.381 C  
HETATM   22  C   UNL     1     -10.010   9.205  66.427  1.00  0.00    -0.358 C  
ENDBRANCH   4  21
ENDBRANCH   2   3
TORSDOF 4
ENDMDL
MODEL      118
REMARK 921   NORMALIZED FREE ENERGY PREDICTED BY IDOCK:   -3.83 KCAL/MOL
REMARK 922        TOTAL FREE ENERGY PREDICTED BY IDOCK:   -5.69 KCAL/MOL
REMARK 923 INTER-LIGAND FREE ENERGY PREDICTED BY IDOCK:   -4.23 KCAL/MOL
REMARK 924 INTRA-LIGAND FREE ENERGY PREDICTED BY IDOCK:   -1.46 KCAL/MOL
REMARK 927      BINDING AFFINITY PREDICTED BY RF-SCORE:    0.00 PKD
ROOT
HETATM    1  C   UNL     1      -9.215  10.382  69.053  1.00  0.00    -0.194 C  
HETATM    2  C   UNL     1      -8.461  11.251  68.055  1.00  0.00    -0.138 C  
ENDROOT
BRANCH   2   3
HETATM    3  C   UNL     1      -9.051  11.259  66.656  1.00  0.00    -0.187 C  
HETATM    4  C   UNL     1      -9.931  12.171  66.175  1.00  0.00    -0.253 C  
BRANCH   3   5
HETATM    5  C   UNL     1      -8.525  10.211  65.757  1.00  0.00    -0.153 A  
HETATM    6  H   UNL     1      -5.925   7.274  63.172  1.00  0.00     0.000 HD 
HETATM    7  C   UNL     1      -9.191   8.987  65.626  1.00  0.00    -0.288 A  
HETATM    8  C   UNL     1      -7.305  10.406  65.094  1.00  0.00    -0.088 A  
HETATM    9  C   UNL     1      -6.740   9.372  64.346  1.00  0.00    -0.090 A  
HETATM   10  O   UNL     1      -6.766   7.139  63.592  1.00  0.00    -0.043 OA 
HETATM   11  C   UNL     1      -8.621   7.948  64.885  1.00  0.00     0.031 A  
HETATM   12  C   UNL     1      -7.389   8.145  64.270  1.00  0.00    -0.094 A  
ENDBRANCH   3   5
BRANCH   4  13
HETATM   13  C   UNL     1     -10.516  13.212  67.047  1.00  0.00    -0.248 A  
HETATM   14  C   UNL     1      -9.962  14.498  67.071  1.00  0.00    -0.255 A  
HETATM   15  C   UNL     1     -11.583  12.904  67.901  1.00  0.00    -0.391 A  
HETATM   16  C   UNL     1     -11.496  15.130  68.815  1.00  0.00    -0.319 A  
HETATM   17  H   UNL     1     -11.531  16.949  69.705  1.00  0.00     0.000 HD 
HETATM   18  C   UNL     1     -12.075  13.865  68.787  1.00  0.00    -0.344 A  
HETATM   19  O   UNL     1     -11.927  16.086  69.686  1.00  0.00    -0.299 OA 
HETATM   20  C   UNL     1     -10.451  15.457  67.960  1.00  0.00    -0.257 A  
ENDBRANCH   4  13
BRANCH   4  21
HETATM   21  C   UNL     1     -10.354  12.321  64.717  1.00  0.00    -0.320 C  
HETATM   22  C   UNL     1     -11.731  11.756  64.391  1.00  0.00    -0.301 C  
ENDBRANCH   4  21
ENDBRANCH   2   3
TORSDOF 4
ENDMDL
MODEL      119
REMARK 921   NORMALIZED FREE ENERGY PREDICTED BY IDOCK:   -3.82 KCAL/MOL
REMARK 922        TOTAL FREE ENERGY PREDICTED BY IDOCK:   -5.68 KCAL/MOL
REMARK 923 INTER-LIGAND FREE ENERGY PREDICTED BY IDOCK:   -4.43 KCAL/MOL
REMARK 924 INTRA-LIGAND FREE ENERGY PREDICTED BY IDOCK:   -1.25 KCAL/MOL
REMARK 927      BINDING AFFINITY PREDICTED BY RF-SCORE:    0.00 PKD
ROOT
HETATM    1  C   UNL     1      -7.508  11.042  69.028  1.00  0.00    -0.129 C  
HETATM    2  C   UNL     1      -7.489   9.646  68.419  1.00  0.00    -0.080 C  
ENDROOT
BRANCH   2   3
HETATM    3  C   UNL     1      -8.811   8.905  68.500  1.00  0.00    -0.134 C  
HETATM    4  C   UNL     1      -9.598   8.575  67.446  1.00  0.00    -0.204 C  
BRANCH   3   5
HETATM    5  C   UNL     1      -9.187   8.459  69.857  1.00  0.00    -0.151 A  
HETATM    6  H   UNL     1      -9.401   6.683  74.201  1.00  0.00     0.000 HD 
HETATM    7  C   UNL     1     -10.104   9.194  70.619  1.00  0.00    -0.307 A  
HETATM    8  C   UNL     1      -8.562   7.339  70.424  1.00  0.00    -0.144 A  
HETATM    9  C   UNL     1      -8.818   6.988  71.749  1.00  0.00    -0.127 A  
HETATM   10  O   UNL     1      -9.853   7.427  73.820  1.00  0.00    -0.288 OA 
HETATM   11  C   UNL     1     -10.352   8.848  71.951  1.00  0.00    -0.407 A  
HETATM   12  C   UNL     1      -9.689   7.760  72.508  1.00  0.00    -0.204 A  
ENDBRANCH   3   5
BRANCH   4  13
HETATM   13  C   UNL     1      -9.284   9.033  66.076  1.00  0.00    -0.284 A  
HETATM   14  C   UNL     1      -8.300   8.380  65.326  1.00  0.00    -0.169 A  
HETATM   15  C   UNL     1      -9.921  10.163  65.545  1.00  0.00    -0.363 A  
HETATM   16  C   UNL     1      -8.561   9.999  63.564  1.00  0.00    -0.208 A  
HETATM   17  H   UNL     1      -7.477  10.015  61.854  1.00  0.00     0.000 HD 
HETATM   18  C   UNL     1      -9.559  10.647  64.285  1.00  0.00    -0.350 A  
HETATM   19  O   UNL     1      -8.158  10.457  62.346  1.00  0.00    -0.144 OA 
HETATM   20  C   UNL     1      -7.935   8.866  64.069  1.00  0.00    -0.153 A  
ENDBRANCH   4  13
BRANCH   4  21
HETATM   21  C   UNL     1     -10.805   7.642  67.491  1.00  0.00    -0.205 C  
HETATM   22  C   UNL     1     -10.586   6.284  66.838  1.00  0.00    -0.374 C  
ENDBRANCH   4  21
ENDBRANCH   2   3
TORSDOF 4
ENDMDL
MODEL      120
REMARK 921   NORMALIZED FREE ENERGY PREDICTED BY IDOCK:   -3.82 KCAL/MOL
REMARK 922        TOTAL FREE ENERGY PREDICTED BY IDOCK:   -5.68 KCAL/MOL
REMARK 923 INTER-LIGAND FREE ENERGY PREDICTED BY IDOCK:   -4.27 KCAL/MOL
REMARK 924 INTRA-LIGAND FREE ENERGY PREDICTED BY IDOCK:   -1.40 KCAL/MOL
REMARK 927      BINDING AFFINITY PREDICTED BY RF-SCORE:    0.00 PKD
ROOT
HETATM    1  C   UNL     1      -6.878  14.640  69.791  1.00  0.00    -0.154 C  
HETATM    2  C   UNL     1      -6.647  14.466  68.296  1.00  0.00    -0.116 C  
ENDROOT
BRANCH   2   3
HETATM    3  C   UNL     1      -7.909  14.234  67.486  1.00  0.00    -0.209 C  
HETATM    4  C   UNL     1      -8.614  15.189  66.830  1.00  0.00    -0.297 C  
BRANCH   3   5
HETATM    5  C   UNL     1      -8.315  12.818  67.366  1.00  0.00    -0.189 A  
HETATM    6  H   UNL     1      -8.582   8.154  66.877  1.00  0.00     0.000 HD 
HETATM    7  C   UNL     1      -9.428  12.336  68.068  1.00  0.00    -0.206 A  
HETATM    8  C   UNL     1      -7.536  11.927  66.614  1.00  0.00     0.039 A  
HETATM    9  C   UNL     1      -7.842  10.566  66.602  1.00  0.00    -0.125 A  
HETATM   10  O   UNL     1      -9.135   8.751  67.368  1.00  0.00    -0.131 OA 
HETATM   11  C   UNL     1      -9.727  10.971  68.064  1.00  0.00    -0.181 A  
HETATM   12  C   UNL     1      -8.917  10.097  67.347  1.00  0.00    -0.134 A  
ENDBRANCH   3   5
BRANCH   4  13
HETATM   13  C   UNL     1      -8.270  16.621  66.952  1.00  0.00    -0.247 A  
HETATM   14  C   UNL     1      -7.448  17.229  65.995  1.00  0.00    -0.232 A  
HETATM   15  C   UNL     1      -8.707  17.362  68.058  1.00  0.00    -0.241 A  
HETATM   16  C   UNL     1      -7.470  19.272  67.268  1.00  0.00    -0.231 A  
HETATM   17  H   UNL     1      -6.462  20.952  66.754  1.00  0.00     0.000 HD 
HETATM   18  C   UNL     1      -8.307  18.692  68.216  1.00  0.00    -0.350 A  
HETATM   19  O   UNL     1      -7.033  20.556  67.401  1.00  0.00    -0.272 OA 
HETATM   20  C   UNL     1      -7.046  18.556  66.155  1.00  0.00    -0.301 A  
ENDBRANCH   4  13
BRANCH   4  21
HETATM   21  C   UNL     1      -9.745  14.939  65.836  1.00  0.00    -0.366 C  
HETATM   22  C   UNL     1     -11.145  15.043  66.425  1.00  0.00    -0.329 C  
ENDBRANCH   4  21
ENDBRANCH   2   3
TORSDOF 4
ENDMDL
MODEL      121
REMARK 921   NORMALIZED FREE ENERGY PREDICTED BY IDOCK:   -3.81 KCAL/MOL
REMARK 922        TOTAL FREE ENERGY PREDICTED BY IDOCK:   -5.66 KCAL/MOL
REMARK 923 INTER-LIGAND FREE ENERGY PREDICTED BY IDOCK:   -4.45 KCAL/MOL
REMARK 924 INTRA-LIGAND FREE ENERGY PREDICTED BY IDOCK:   -1.21 KCAL/MOL
REMARK 927      BINDING AFFINITY PREDICTED BY RF-SCORE:    0.00 PKD
ROOT
HETATM    1  C   UNL     1      -7.880   7.148  68.003  1.00  0.00    -0.118 C  
HETATM    2  C   UNL     1      -8.212   7.640  69.405  1.00  0.00    -0.129 C  
ENDROOT
BRANCH   2   3
HETATM    3  C   UNL     1      -9.480   7.050  69.996  1.00  0.00    -0.161 C  
HETATM    4  C   UNL     1     -10.704   7.632  69.980  1.00  0.00    -0.245 C  
BRANCH   3   5
HETATM    5  C   UNL     1      -9.327   5.690  70.552  1.00  0.00    -0.194 A  
HETATM    6  H   UNL     1      -8.634   1.109  71.329  1.00  0.00     0.000 HD 
HETATM    7  C   UNL     1      -8.839   5.503  71.852  1.00  0.00    -0.139 A  
HETATM    8  C   UNL     1      -9.591   4.572  69.748  1.00  0.00    -0.270 A  
HETATM    9  C   UNL     1      -9.327   3.287  70.224  1.00  0.00    -0.242 A  
HETATM   10  O   UNL     1      -8.479   1.857  71.894  1.00  0.00    -0.057 OA 
HETATM   11  C   UNL     1      -8.565   4.217  72.325  1.00  0.00    -0.114 A  
HETATM   12  C   UNL     1      -8.792   3.122  71.497  1.00  0.00    -0.080 A  
ENDBRANCH   3   5
BRANCH   4  13
HETATM   13  C   UNL     1     -10.898   9.006  69.472  1.00  0.00    -0.177 A  
HETATM   14  C   UNL     1     -11.145  10.056  70.365  1.00  0.00    -0.393 A  
HETATM   15  C   UNL     1     -10.902   9.257  68.093  1.00  0.00    -0.145 A  
HETATM   16  C   UNL     1     -11.441  11.566  68.514  1.00  0.00    -0.292 A  
HETATM   17  H   UNL     1     -11.923  13.525  68.700  1.00  0.00     0.000 HD 
HETATM   18  C   UNL     1     -11.174  10.541  67.612  1.00  0.00    -0.338 A  
HETATM   19  O   UNL     1     -11.740  12.825  68.085  1.00  0.00    -0.312 OA 
HETATM   20  C   UNL     1     -11.420  11.338  69.884  1.00  0.00    -0.373 A  
ENDBRANCH   4  13
BRANCH   4  21
HETATM   21  C   UNL     1     -12.018   6.958  70.367  1.00  0.00    -0.312 C  
HETATM   22  C   UNL     1     -12.351   7.015  71.852  1.00  0.00    -0.358 C  
ENDBRANCH   4  21
ENDBRANCH   2   3
TORSDOF 4
ENDMDL
MODEL      122
REMARK 921   NORMALIZED FREE ENERGY PREDICTED BY IDOCK:   -3.79 KCAL/MOL
REMARK 922        TOTAL FREE ENERGY PREDICTED BY IDOCK:   -5.64 KCAL/MOL
REMARK 923 INTER-LIGAND FREE ENERGY PREDICTED BY IDOCK:   -4.26 KCAL/MOL
REMARK 924 INTRA-LIGAND FREE ENERGY PREDICTED BY IDOCK:   -1.38 KCAL/MOL
REMARK 927      BINDING AFFINITY PREDICTED BY RF-SCORE:    0.00 PKD
ROOT
HETATM    1  C   UNL     1     -12.850   7.145  71.442  1.00  0.00    -0.431 C  
HETATM    2  C   UNL     1     -12.003   6.556  70.322  1.00  0.00    -0.252 C  
ENDROOT
BRANCH   2   3
HETATM    3  C   UNL     1     -10.556   7.015  70.318  1.00  0.00    -0.247 C  
HETATM    4  C   UNL     1      -9.540   6.432  71.002  1.00  0.00    -0.188 C  
BRANCH   3   5
HETATM    5  C   UNL     1     -10.270   8.147  69.413  1.00  0.00    -0.211 A  
HETATM    6  H   UNL     1      -8.966  12.184  67.396  1.00  0.00     0.000 HD 
HETATM    7  C   UNL     1      -9.959   7.920  68.066  1.00  0.00    -0.213 A  
HETATM    8  C   UNL     1     -10.224   9.454  69.919  1.00  0.00    -0.247 A  
HETATM    9  C   UNL     1      -9.829  10.511  69.098  1.00  0.00    -0.233 A  
HETATM   10  O   UNL     1      -9.021  11.308  67.033  1.00  0.00    -0.149 OA 
HETATM   11  C   UNL     1      -9.553   8.977  67.247  1.00  0.00    -0.206 A  
HETATM   12  C   UNL     1      -9.473  10.260  67.779  1.00  0.00    -0.148 A  
ENDBRANCH   3   5
BRANCH   4  13
HETATM   13  C   UNL     1      -9.784   5.325  71.949  1.00  0.00    -0.204 A  
HETATM   14  C   UNL     1      -9.683   3.997  71.517  1.00  0.00    -0.246 A  
HETATM   15  C   UNL     1     -10.182   5.594  73.266  1.00  0.00    -0.217 A  
HETATM   16  C   UNL     1     -10.415   3.233  73.679  1.00  0.00    -0.170 A  
HETATM   17  H   UNL     1     -10.687   1.288  74.174  1.00  0.00     0.000 HD 
HETATM   18  C   UNL     1     -10.498   4.545  74.134  1.00  0.00    -0.321 A  
HETATM   19  O   UNL     1     -10.743   2.183  74.484  1.00  0.00    -0.139 OA 
HETATM   20  C   UNL     1     -10.002   2.949  72.383  1.00  0.00    -0.235 A  
ENDBRANCH   4  13
BRANCH   4  21
HETATM   21  C   UNL     1      -8.056   6.744  70.831  1.00  0.00    -0.118 C  
HETATM   22  C   UNL     1      -7.426   7.502  71.991  1.00  0.00    -0.081 C  
ENDBRANCH   4  21
ENDBRANCH   2   3
TORSDOF 4
ENDMDL
MODEL      123
REMARK 921   NORMALIZED FREE ENERGY PREDICTED BY IDOCK:   -3.79 KCAL/MOL
REMARK 922        TOTAL FREE ENERGY PREDICTED BY IDOCK:   -5.64 KCAL/MOL
REMARK 923 INTER-LIGAND FREE ENERGY PREDICTED BY IDOCK:   -4.49 KCAL/MOL
REMARK 924 INTRA-LIGAND FREE ENERGY PREDICTED BY IDOCK:   -1.15 KCAL/MOL
REMARK 927      BINDING AFFINITY PREDICTED BY RF-SCORE:    0.00 PKD
ROOT
HETATM    1  C   UNL     1     -10.183   6.624  67.703  1.00  0.00    -0.220 C  
HETATM    2  C   UNL     1     -10.646   7.910  67.031  1.00  0.00    -0.381 C  
ENDROOT
BRANCH   2   3
HETATM    3  C   UNL     1     -10.019   9.174  67.589  1.00  0.00    -0.245 C  
HETATM    4  C   UNL     1      -8.983   9.853  67.037  1.00  0.00    -0.152 C  
BRANCH   3   5
HETATM    5  C   UNL     1     -10.682   9.713  68.794  1.00  0.00    -0.234 A  
HETATM    6  H   UNL     1     -13.566  11.644  71.960  1.00  0.00     0.000 HD 
HETATM    7  C   UNL     1     -10.453   9.136  70.050  1.00  0.00    -0.244 A  
HETATM    8  C   UNL     1     -11.613  10.754  68.674  1.00  0.00    -0.342 A  
HETATM    9  C   UNL     1     -12.337  11.181  69.788  1.00  0.00    -0.315 A  
HETATM   10  O   UNL     1     -12.917  10.957  72.061  1.00  0.00    -0.457 OA 
HETATM   11  C   UNL     1     -11.186   9.557  71.164  1.00  0.00    -0.446 A  
HETATM   12  C   UNL     1     -12.136  10.562  71.016  1.00  0.00    -0.387 A  
ENDBRANCH   3   5
BRANCH   4  13
HETATM   13  C   UNL     1      -8.263   9.332  65.856  1.00  0.00    -0.116 A  
HETATM   14  C   UNL     1      -7.061   8.633  66.020  1.00  0.00    -0.083 A  
HETATM   15  C   UNL     1      -8.741   9.589  64.564  1.00  0.00    -0.232 A  
HETATM   16  C   UNL     1      -6.807   8.501  63.629  1.00  0.00    -0.087 A  
HETATM   17  H   UNL     1      -5.228   7.646  62.692  1.00  0.00     0.000 HD 
HETATM   18  C   UNL     1      -8.012   9.172  63.447  1.00  0.00    -0.148 A  
HETATM   19  O   UNL     1      -6.051   8.105  62.567  1.00  0.00    -0.083 OA 
HETATM   20  C   UNL     1      -6.330   8.220  64.904  1.00  0.00    -0.052 A  
ENDBRANCH   4  13
BRANCH   4  21
HETATM   21  C   UNL     1      -8.494  11.234  67.461  1.00  0.00    -0.131 C  
HETATM   22  C   UNL     1      -7.647  11.250  68.727  1.00  0.00    -0.130 C  
ENDBRANCH   4  21
ENDBRANCH   2   3
TORSDOF 4
ENDMDL
MODEL      124
REMARK 921   NORMALIZED FREE ENERGY PREDICTED BY IDOCK:   -3.77 KCAL/MOL
REMARK 922        TOTAL FREE ENERGY PREDICTED BY IDOCK:   -5.61 KCAL/MOL
REMARK 923 INTER-LIGAND FREE ENERGY PREDICTED BY IDOCK:   -4.49 KCAL/MOL
REMARK 924 INTRA-LIGAND FREE ENERGY PREDICTED BY IDOCK:   -1.13 KCAL/MOL
REMARK 927      BINDING AFFINITY PREDICTED BY RF-SCORE:    0.00 PKD
ROOT
HETATM    1  C   UNL     1     -12.520   8.934  72.216  1.00  0.00    -0.440 C  
HETATM    2  C   UNL     1     -12.166   8.343  70.858  1.00  0.00    -0.106 C  
ENDROOT
BRANCH   2   3
HETATM    3  C   UNL     1     -10.877   8.872  70.258  1.00  0.00    -0.265 C  
HETATM    4  C   UNL     1      -9.639   8.356  70.463  1.00  0.00    -0.188 C  
BRANCH   3   5
HETATM    5  C   UNL     1     -11.050   9.995  69.313  1.00  0.00    -0.248 A  
HETATM    6  H   UNL     1     -11.290  14.143  67.121  1.00  0.00     0.000 HD 
HETATM    7  C   UNL     1     -10.809   9.817  67.945  1.00  0.00    -0.298 A  
HETATM    8  C   UNL     1     -11.376  11.271  69.794  1.00  0.00    -0.348 A  
HETATM    9  C   UNL     1     -11.415  12.360  68.924  1.00  0.00    -0.355 A  
HETATM   10  O   UNL     1     -11.096  13.278  66.777  1.00  0.00    -0.283 OA 
HETATM   11  C   UNL     1     -10.838  10.910  67.075  1.00  0.00    -0.323 A  
HETATM   12  C   UNL     1     -11.121  12.176  67.578  1.00  0.00    -0.275 A  
ENDBRANCH   3   5
BRANCH   4  13
HETATM   13  C   UNL     1      -9.411   7.261  71.428  1.00  0.00    -0.165 A  
HETATM   14  C   UNL     1      -9.461   5.929  71.002  1.00  0.00    -0.189 A  
HETATM   15  C   UNL     1      -9.210   7.544  72.786  1.00  0.00    -0.208 A  
HETATM   16  C   UNL     1      -9.160   5.186  73.272  1.00  0.00    -0.122 A  
HETATM   17  H   UNL     1      -9.124   3.244  73.846  1.00  0.00     0.000 HD 
HETATM   18  C   UNL     1      -9.084   6.504  73.711  1.00  0.00    -0.152 A  
HETATM   19  O   UNL     1      -9.072   4.144  74.145  1.00  0.00    -0.094 OA 
HETATM   20  C   UNL     1      -9.338   4.889  71.926  1.00  0.00    -0.180 A  
ENDBRANCH   4  13
BRANCH   4  21
HETATM   21  C   UNL     1      -8.376   8.736  69.695  1.00  0.00    -0.126 C  
HETATM   22  C   UNL     1      -7.657   9.971  70.221  1.00  0.00    -0.122 C  
ENDBRANCH   4  21
ENDBRANCH   2   3
TORSDOF 4
ENDMDL
MODEL      125
REMARK 921   NORMALIZED FREE ENERGY PREDICTED BY IDOCK:   -3.77 KCAL/MOL
REMARK 922        TOTAL FREE ENERGY PREDICTED BY IDOCK:   -5.60 KCAL/MOL
REMARK 923 INTER-LIGAND FREE ENERGY PREDICTED BY IDOCK:   -4.41 KCAL/MOL
REMARK 924 INTRA-LIGAND FREE ENERGY PREDICTED BY IDOCK:   -1.19 KCAL/MOL
REMARK 927      BINDING AFFINITY PREDICTED BY RF-SCORE:    0.00 PKD
ROOT
HETATM    1  C   UNL     1     -11.092   6.440  67.112  1.00  0.00    -0.422 C  
HETATM    2  C   UNL     1      -9.783   7.207  66.982  1.00  0.00    -0.222 C  
ENDROOT
BRANCH   2   3
HETATM    3  C   UNL     1      -9.683   8.436  67.866  1.00  0.00    -0.189 C  
HETATM    4  C   UNL     1      -9.374   8.438  69.187  1.00  0.00    -0.151 C  
BRANCH   3   5
HETATM    5  C   UNL     1      -9.866   9.721  67.160  1.00  0.00    -0.238 A  
HETATM    6  H   UNL     1     -10.039  13.288  64.108  1.00  0.00     0.000 HD 
HETATM    7  C   UNL     1     -10.935  10.565  67.485  1.00  0.00    -0.365 A  
HETATM    8  C   UNL     1      -9.016  10.064  66.099  1.00  0.00    -0.174 A  
HETATM    9  C   UNL     1      -9.261  11.213  65.346  1.00  0.00    -0.225 A  
HETATM   10  O   UNL     1     -10.605  13.082  64.842  1.00  0.00    -0.306 OA 
HETATM   11  C   UNL     1     -11.187  11.711  66.725  1.00  0.00    -0.371 A  
HETATM   12  C   UNL     1     -10.358  12.011  65.649  1.00  0.00    -0.253 A  
ENDBRANCH   3   5
BRANCH   4  13
HETATM   13  C   UNL     1      -9.222   7.177  69.943  1.00  0.00    -0.141 A  
HETATM   14  C   UNL     1     -10.266   6.715  70.753  1.00  0.00    -0.221 A  
HETATM   15  C   UNL     1      -8.012   6.472  69.908  1.00  0.00    -0.116 A  
HETATM   16  C   UNL     1      -8.880   4.899  71.511  1.00  0.00    -0.134 A  
HETATM   17  H   UNL     1      -9.453   3.513  72.873  1.00  0.00     0.000 HD 
HETATM   18  C   UNL     1      -7.840   5.329  70.694  1.00  0.00    -0.089 A  
HETATM   19  O   UNL     1      -8.743   3.807  72.315  1.00  0.00    -0.094 OA 
HETATM   20  C   UNL     1     -10.094   5.576  71.541  1.00  0.00    -0.260 A  
ENDBRANCH   4  13
BRANCH   4  21
HETATM   21  C   UNL     1      -9.052   9.670  70.026  1.00  0.00    -0.269 C  
HETATM   22  C   UNL     1      -7.618  10.167  69.906  1.00  0.00    -0.174 C  
ENDBRANCH   4  21
ENDBRANCH   2   3
TORSDOF 4
ENDMDL
MODEL      126
REMARK 921   NORMALIZED FREE ENERGY PREDICTED BY IDOCK:   -3.72 KCAL/MOL
REMARK 922        TOTAL FREE ENERGY PREDICTED BY IDOCK:   -5.55 KCAL/MOL
REMARK 923 INTER-LIGAND FREE ENERGY PREDICTED BY IDOCK:   -4.34 KCAL/MOL
REMARK 924 INTRA-LIGAND FREE ENERGY PREDICTED BY IDOCK:   -1.21 KCAL/MOL
REMARK 927      BINDING AFFINITY PREDICTED BY RF-SCORE:    0.00 PKD
ROOT
HETATM    1  C   UNL     1     -11.791  12.745  65.373  1.00  0.00    -0.456 C  
HETATM    2  C   UNL     1     -11.476  11.916  66.611  1.00  0.00    -0.382 C  
ENDROOT
BRANCH   2   3
HETATM    3  C   UNL     1      -9.999  11.651  66.833  1.00  0.00    -0.225 C  
HETATM    4  C   UNL     1      -9.087  12.562  67.255  1.00  0.00    -0.189 C  
BRANCH   3   5
HETATM    5  C   UNL     1      -9.587  10.246  66.637  1.00  0.00    -0.220 A  
HETATM    6  H   UNL     1      -9.006   5.585  66.737  1.00  0.00     0.000 HD 
HETATM    7  C   UNL     1      -9.151   9.800  65.383  1.00  0.00    -0.251 A  
HETATM    8  C   UNL     1      -9.712   9.327  67.689  1.00  0.00    -0.195 A  
HETATM    9  C   UNL     1      -9.446   7.974  67.474  1.00  0.00    -0.177 A  
HETATM   10  O   UNL     1      -8.890   6.202  66.024  1.00  0.00    -0.150 OA 
HETATM   11  C   UNL     1      -8.895   8.444  65.165  1.00  0.00    -0.075 A  
HETATM   12  C   UNL     1      -9.066   7.541  66.210  1.00  0.00    -0.157 A  
ENDBRANCH   3   5
BRANCH   4  13
HETATM   13  C   UNL     1      -9.442  13.986  67.425  1.00  0.00    -0.225 A  
HETATM   14  C   UNL     1      -8.930  14.947  66.546  1.00  0.00    -0.288 A  
HETATM   15  C   UNL     1     -10.239  14.393  68.504  1.00  0.00    -0.243 A  
HETATM   16  C   UNL     1      -9.962  16.692  67.844  1.00  0.00    -0.254 A  
HETATM   17  H   UNL     1      -9.801  18.669  67.436  1.00  0.00     0.000 HD 
HETATM   18  C   UNL     1     -10.500  15.750  68.714  1.00  0.00    -0.228 A  
HETATM   19  O   UNL     1     -10.168  18.026  68.030  1.00  0.00    -0.343 OA 
HETATM   20  C   UNL     1      -9.188  16.303  66.757  1.00  0.00    -0.253 A  
ENDBRANCH   4  13
BRANCH   4  21
HETATM   21  C   UNL     1      -7.658  12.256  67.694  1.00  0.00    -0.144 C  
HETATM   22  C   UNL     1      -7.450  12.214  69.202  1.00  0.00     0.121 C  
ENDBRANCH   4  21
ENDBRANCH   2   3
TORSDOF 4
ENDMDL
MODEL      127
REMARK 921   NORMALIZED FREE ENERGY PREDICTED BY IDOCK:   -3.69 KCAL/MOL
REMARK 922        TOTAL FREE ENERGY PREDICTED BY IDOCK:   -5.51 KCAL/MOL
REMARK 923 INTER-LIGAND FREE ENERGY PREDICTED BY IDOCK:   -4.54 KCAL/MOL
REMARK 924 INTRA-LIGAND FREE ENERGY PREDICTED BY IDOCK:   -0.97 KCAL/MOL
REMARK 927      BINDING AFFINITY PREDICTED BY RF-SCORE:    0.00 PKD
ROOT
HETATM    1  C   UNL     1      -6.550  10.279  66.823  1.00  0.00    -0.075 C  
HETATM    2  C   UNL     1      -7.870  10.414  67.569  1.00  0.00    -0.106 C  
ENDROOT
BRANCH   2   3
HETATM    3  C   UNL     1      -9.006   9.589  66.993  1.00  0.00    -0.150 C  
HETATM    4  C   UNL     1      -9.327   8.323  67.357  1.00  0.00    -0.171 C  
BRANCH   3   5
HETATM    5  C   UNL     1      -9.853  10.301  66.014  1.00  0.00    -0.292 A  
HETATM    6  H   UNL     1     -12.567  13.308  63.635  1.00  0.00     0.000 HD 
HETATM    7  C   UNL     1      -9.645  10.133  64.639  1.00  0.00    -0.379 A  
HETATM    8  C   UNL     1     -10.817  11.218  66.458  1.00  0.00    -0.319 A  
HETATM    9  C   UNL     1     -11.530  11.987  65.538  1.00  0.00    -0.368 A  
HETATM   10  O   UNL     1     -11.938  12.670  63.320  1.00  0.00    -0.516 OA 
HETATM   11  C   UNL     1     -10.353  10.911  63.718  1.00  0.00    -0.384 A  
HETATM   12  C   UNL     1     -11.274  11.846  64.179  1.00  0.00    -0.376 A  
ENDBRANCH   3   5
BRANCH   4  13
HETATM   13  C   UNL     1      -8.487   7.556  68.302  1.00  0.00    -0.125 A  
HETATM   14  C   UNL     1      -7.632   6.556  67.826  1.00  0.00    -0.106 A  
HETATM   15  C   UNL     1      -8.589   7.779  69.682  1.00  0.00    -0.135 A  
HETATM   16  C   UNL     1      -7.033   5.987  70.088  1.00  0.00    -0.069 A  
HETATM   17  H   UNL     1      -5.765   4.492  70.594  1.00  0.00     0.000 HD 
HETATM   18  C   UNL     1      -7.860   6.993  70.577  1.00  0.00    -0.101 A  
HETATM   19  O   UNL     1      -6.329   5.178  70.928  1.00  0.00    -0.022 OA 
HETATM   20  C   UNL     1      -6.906   5.768  68.721  1.00  0.00    -0.066 A  
ENDBRANCH   4  13
BRANCH   4  21
HETATM   21  C   UNL     1     -10.592   7.571  66.952  1.00  0.00    -0.367 C  
HETATM   22  C   UNL     1     -10.932   6.376  67.832  1.00  0.00    -0.416 C  
ENDBRANCH   4  21
ENDBRANCH   2   3
TORSDOF 4
ENDMDL
MODEL      128
REMARK 921   NORMALIZED FREE ENERGY PREDICTED BY IDOCK:   -3.67 KCAL/MOL
REMARK 922        TOTAL FREE ENERGY PREDICTED BY IDOCK:   -5.48 KCAL/MOL
REMARK 923 INTER-LIGAND FREE ENERGY PREDICTED BY IDOCK:   -4.21 KCAL/MOL
REMARK 924 INTRA-LIGAND FREE ENERGY PREDICTED BY IDOCK:   -1.27 KCAL/MOL
REMARK 927      BINDING AFFINITY PREDICTED BY RF-SCORE:    0.00 PKD
ROOT
HETATM    1  C   UNL     1     -10.759   6.068  67.930  1.00  0.00    -0.363 C  
HETATM    2  C   UNL     1     -10.851   7.343  67.102  1.00  0.00    -0.340 C  
ENDROOT
BRANCH   2   3
HETATM    3  C   UNL     1     -10.016   8.496  67.626  1.00  0.00    -0.253 C  
HETATM    4  C   UNL     1      -8.709   8.718  67.342  1.00  0.00    -0.132 C  
BRANCH   3   5
HETATM    5  C   UNL     1     -10.760   9.476  68.445  1.00  0.00    -0.230 A  
HETATM    6  H   UNL     1     -12.449  12.307  71.791  1.00  0.00     0.000 HD 
HETATM    7  C   UNL     1     -11.318  10.617  67.856  1.00  0.00    -0.342 A  
HETATM    8  C   UNL     1     -10.839   9.310  69.835  1.00  0.00    -0.252 A  
HETATM    9  C   UNL     1     -11.428  10.295  70.627  1.00  0.00    -0.435 A  
HETATM   10  O   UNL     1     -12.428  12.418  70.848  1.00  0.00    -0.371 OA 
HETATM   11  C   UNL     1     -11.900  11.609  68.650  1.00  0.00    -0.370 A  
HETATM   12  C   UNL     1     -11.929  11.447  70.032  1.00  0.00    -0.363 A  
ENDBRANCH   3   5
BRANCH   4  13
HETATM   13  C   UNL     1      -7.914   7.747  66.562  1.00  0.00    -0.106 A  
HETATM   14  C   UNL     1      -8.047   7.690  65.170  1.00  0.00    -0.134 A  
HETATM   15  C   UNL     1      -7.073   6.835  67.213  1.00  0.00    -0.080 A  
HETATM   16  C   UNL     1      -6.554   5.802  65.100  1.00  0.00    -0.043 A  
HETATM   17  H   UNL     1      -6.043   4.809  63.411  1.00  0.00     0.000 HD 
HETATM   18  C   UNL     1      -6.391   5.860  66.480  1.00  0.00    -0.038 A  
HETATM   19  O   UNL     1      -5.931   4.849  64.353  1.00  0.00    -0.020 OA 
HETATM   20  C   UNL     1      -7.368   6.714  64.438  1.00  0.00    -0.087 A  
ENDBRANCH   4  13
BRANCH   4  21
HETATM   21  C   UNL     1      -7.926   9.985  67.677  1.00  0.00    -0.105 C  
HETATM   22  C   UNL     1      -7.581  10.857  66.478  1.00  0.00    -0.142 C  
ENDBRANCH   4  21
ENDBRANCH   2   3
TORSDOF 4
ENDMDL
MODEL      129
REMARK 921   NORMALIZED FREE ENERGY PREDICTED BY IDOCK:   -3.65 KCAL/MOL
REMARK 922        TOTAL FREE ENERGY PREDICTED BY IDOCK:   -5.46 KCAL/MOL
REMARK 923 INTER-LIGAND FREE ENERGY PREDICTED BY IDOCK:   -4.11 KCAL/MOL
REMARK 924 INTRA-LIGAND FREE ENERGY PREDICTED BY IDOCK:   -1.36 KCAL/MOL
REMARK 927      BINDING AFFINITY PREDICTED BY RF-SCORE:    0.00 PKD
ROOT
HETATM    1  C   UNL     1      -9.257   3.067  68.918  1.00  0.00    -0.227 C  
HETATM    2  C   UNL     1      -8.472   4.334  68.607  1.00  0.00    -0.096 C  
ENDROOT
BRANCH   2   3
HETATM    3  C   UNL     1      -9.323   5.578  68.439  1.00  0.00    -0.130 C  
HETATM    4  C   UNL     1      -9.735   6.101  67.258  1.00  0.00    -0.146 C  
BRANCH   3   5
HETATM    5  C   UNL     1      -9.782   6.188  69.704  1.00  0.00    -0.181 A  
HETATM    6  H   UNL     1     -11.773   7.233  73.829  1.00  0.00     0.000 HD 
HETATM    7  C   UNL     1      -8.943   7.046  70.426  1.00  0.00    -0.155 A  
HETATM    8  C   UNL     1     -11.034   5.842  70.234  1.00  0.00    -0.390 A  
HETATM    9  C   UNL     1     -11.419   6.314  71.489  1.00  0.00    -0.351 A  
HETATM   10  O   UNL     1     -10.935   7.498  73.469  1.00  0.00    -0.339 OA 
HETATM   11  C   UNL     1      -9.325   7.510  71.688  1.00  0.00    -0.164 A  
HETATM   12  C   UNL     1     -10.552   7.121  72.216  1.00  0.00    -0.215 A  
ENDBRANCH   3   5
BRANCH   4  13
HETATM   13  C   UNL     1      -9.270   5.551  65.967  1.00  0.00    -0.168 A  
HETATM   14  C   UNL     1      -9.925   4.454  65.396  1.00  0.00    -0.231 A  
HETATM   15  C   UNL     1      -8.133   6.080  65.341  1.00  0.00    -0.132 A  
HETATM   16  C   UNL     1      -8.292   4.395  63.627  1.00  0.00    -0.105 A  
HETATM   17  H   UNL     1      -8.273   3.029  62.133  1.00  0.00     0.000 HD 
HETATM   18  C   UNL     1      -7.643   5.501  64.167  1.00  0.00    -0.075 A  
HETATM   19  O   UNL     1      -7.829   3.783  62.501  1.00  0.00    -0.060 OA 
HETATM   20  C   UNL     1      -9.433   3.873  64.225  1.00  0.00    -0.161 A  
ENDBRANCH   4  13
BRANCH   4  21
HETATM   21  C   UNL     1     -10.768   7.211  67.085  1.00  0.00    -0.422 C  
HETATM   22  C   UNL     1     -10.191   8.620  67.056  1.00  0.00    -0.360 C  
ENDBRANCH   4  21
ENDBRANCH   2   3
TORSDOF 4
ENDMDL
MODEL      130
REMARK 921   NORMALIZED FREE ENERGY PREDICTED BY IDOCK:   -3.64 KCAL/MOL
REMARK 922        TOTAL FREE ENERGY PREDICTED BY IDOCK:   -5.45 KCAL/MOL
REMARK 923 INTER-LIGAND FREE ENERGY PREDICTED BY IDOCK:   -5.26 KCAL/MOL
REMARK 924 INTRA-LIGAND FREE ENERGY PREDICTED BY IDOCK:   -0.19 KCAL/MOL
REMARK 927      BINDING AFFINITY PREDICTED BY RF-SCORE:    0.00 PKD
ROOT
HETATM    1  C   UNL     1     -10.552  12.917  68.356  1.00  0.00    -0.267 C  
HETATM    2  C   UNL     1     -11.330  11.628  68.579  1.00  0.00    -0.332 C  
ENDROOT
BRANCH   2   3
HETATM    3  C   UNL     1     -10.543  10.360  68.305  1.00  0.00    -0.245 C  
HETATM    4  C   UNL     1     -10.647   9.200  68.998  1.00  0.00    -0.219 C  
BRANCH   3   5
HETATM    5  C   UNL     1      -9.663  10.424  67.120  1.00  0.00    -0.206 A  
HETATM    6  H   UNL     1      -6.197  10.107  63.965  1.00  0.00     0.000 HD 
HETATM    7  C   UNL     1     -10.205  10.399  65.829  1.00  0.00    -0.305 A  
HETATM    8  C   UNL     1      -8.270  10.426  67.282  1.00  0.00    -0.121 A  
HETATM    9  C   UNL     1      -7.434  10.356  66.167  1.00  0.00    -0.131 A  
HETATM   10  O   UNL     1      -7.138  10.135  63.840  1.00  0.00    -0.132 OA 
HETATM   11  C   UNL     1      -9.367  10.319  64.713  1.00  0.00    -0.313 A  
HETATM   12  C   UNL     1      -7.989  10.277  64.896  1.00  0.00    -0.146 A  
ENDBRANCH   3   5
BRANCH   4  13
HETATM   13  C   UNL     1     -11.483   9.100  70.213  1.00  0.00    -0.174 A  
HETATM   14  C   UNL     1     -11.778   7.846  70.760  1.00  0.00    -0.230 A  
HETATM   15  C   UNL     1     -12.039  10.251  70.786  1.00  0.00    -0.451 A  
HETATM   16  C   UNL     1     -13.202   8.890  72.396  1.00  0.00    -0.430 A  
HETATM   17  H   UNL     1     -14.266   7.884  73.795  1.00  0.00     0.000 HD 
HETATM   18  C   UNL     1     -12.901  10.146  71.881  1.00  0.00    -0.526 A  
HETATM   19  O   UNL     1     -14.061   8.742  73.444  1.00  0.00    -0.128 OA 
HETATM   20  C   UNL     1     -12.641   7.740  71.852  1.00  0.00    -0.339 A  
ENDBRANCH   4  13
BRANCH   4  21
HETATM   21  C   UNL     1     -10.032   7.862  68.596  1.00  0.00    -0.201 C  
HETATM   22  C   UNL     1     -10.719   7.171  67.425  1.00  0.00    -0.368 C  
ENDBRANCH   4  21
ENDBRANCH   2   3
TORSDOF 4
ENDMDL
MODEL      131
REMARK 921   NORMALIZED FREE ENERGY PREDICTED BY IDOCK:   -3.49 KCAL/MOL
REMARK 922        TOTAL FREE ENERGY PREDICTED BY IDOCK:   -5.26 KCAL/MOL
REMARK 923 INTER-LIGAND FREE ENERGY PREDICTED BY IDOCK:   -5.37 KCAL/MOL
REMARK 924 INTRA-LIGAND FREE ENERGY PREDICTED BY IDOCK:    0.11 KCAL/MOL
REMARK 927      BINDING AFFINITY PREDICTED BY RF-SCORE:    0.00 PKD
ROOT
HETATM    1  C   UNL     1     -11.410  10.330  67.409  1.00  0.00     0.043 C  
HETATM    2  C   UNL     1     -11.602  11.739  67.953  1.00  0.00    -0.377 C  
ENDROOT
BRANCH   2   3
HETATM    3  C   UNL     1     -11.806  11.812  69.455  1.00  0.00    -0.398 C  
HETATM    4  C   UNL     1     -11.875  12.951  70.189  1.00  0.00    -0.319 C  
BRANCH   3   5
HETATM    5  C   UNL     1     -12.023  10.508  70.114  1.00  0.00    -0.398 A  
HETATM    6  H   UNL     1     -11.753   6.523  72.586  1.00  0.00     0.000 HD 
HETATM    7  C   UNL     1     -13.305  10.122  70.522  1.00  0.00     0.020 A  
HETATM    8  C   UNL     1     -10.928   9.683  70.410  1.00  0.00    -0.356 A  
HETATM    9  C   UNL     1     -11.111   8.511  71.145  1.00  0.00    -0.312 A  
HETATM   10  O   UNL     1     -12.507   7.058  72.367  1.00  0.00    -0.101 OA 
HETATM   11  C   UNL     1     -13.487   8.953  71.267  1.00  0.00    -0.222 A  
HETATM   12  C   UNL     1     -12.383   8.170  71.589  1.00  0.00    -0.314 A  
ENDBRANCH   3   5
BRANCH   4  13
HETATM   13  C   UNL     1     -11.625  14.275  69.582  1.00  0.00    -0.351 A  
HETATM   14  C   UNL     1     -11.835  14.469  68.211  1.00  0.00    -0.347 A  
HETATM   15  C   UNL     1     -11.116  15.325  70.358  1.00  0.00    -0.324 A  
HETATM   16  C   UNL     1     -10.988  16.715  68.396  1.00  0.00    -0.345 A  
HETATM   17  H   UNL     1     -10.792  17.996  66.839  1.00  0.00     0.000 HD 
HETATM   18  C   UNL     1     -10.797  16.549  69.764  1.00  0.00    -0.302 A  
HETATM   19  O   UNL     1     -10.662  17.882  67.773  1.00  0.00    -0.400 OA 
HETATM   20  C   UNL     1     -11.513  15.691  67.617  1.00  0.00    -0.167 A  
ENDBRANCH   4  13
BRANCH   4  21
HETATM   21  C   UNL     1     -12.301  13.045  71.651  1.00  0.00     0.091 C  
HETATM   22  C   UNL     1     -13.691  13.626  71.874  1.00  0.00    -0.496 C  
ENDBRANCH   4  21
ENDBRANCH   2   3
TORSDOF 4
ENDMDL
MODEL      132
REMARK 921   NORMALIZED FREE ENERGY PREDICTED BY IDOCK:   -3.38 KCAL/MOL
REMARK 922        TOTAL FREE ENERGY PREDICTED BY IDOCK:   -5.13 KCAL/MOL
REMARK 923 INTER-LIGAND FREE ENERGY PREDICTED BY IDOCK:   -3.74 KCAL/MOL
REMARK 924 INTRA-LIGAND FREE ENERGY PREDICTED BY IDOCK:   -1.39 KCAL/MOL
REMARK 927      BINDING AFFINITY PREDICTED BY RF-SCORE:    0.00 PKD
ROOT
HETATM    1  C   UNL     1     -11.390   6.267  69.481  1.00  0.00    -0.475 C  
HETATM    2  C   UNL     1     -10.949   7.029  68.239  1.00  0.00    -0.148 C  
ENDROOT
BRANCH   2   3
HETATM    3  C   UNL     1      -9.897   8.092  68.492  1.00  0.00    -0.185 C  
HETATM    4  C   UNL     1      -8.555   7.900  68.456  1.00  0.00    -0.128 C  
BRANCH   3   5
HETATM    5  C   UNL     1     -10.432   9.451  68.713  1.00  0.00    -0.236 A  
HETATM    6  H   UNL     1     -12.537  13.643  68.461  1.00  0.00     0.000 HD 
HETATM    7  C   UNL     1     -10.790   9.874  69.999  1.00  0.00    -0.339 A  
HETATM    8  C   UNL     1     -10.665  10.298  67.620  1.00  0.00    -0.339 A  
HETATM    9  C   UNL     1     -11.288  11.532  67.808  1.00  0.00    -0.364 A  
HETATM   10  O   UNL     1     -12.359  13.092  69.214  1.00  0.00    -0.154 OA 
HETATM   11  C   UNL     1     -11.424  11.106  70.187  1.00  0.00    -0.361 A  
HETATM   12  C   UNL     1     -11.686  11.913  69.084  1.00  0.00    -0.319 A  
ENDBRANCH   3   5
BRANCH   4  13
HETATM   13  C   UNL     1      -7.973   6.553  68.279  1.00  0.00    -0.110 A  
HETATM   14  C   UNL     1      -7.920   5.974  67.005  1.00  0.00    -0.102 A  
HETATM   15  C   UNL     1      -7.533   5.820  69.389  1.00  0.00    -0.079 A  
HETATM   16  C   UNL     1      -7.043   3.946  67.960  1.00  0.00    -0.055 A  
HETATM   17  H   UNL     1      -6.608   2.276  66.898  1.00  0.00     0.000 HD 
HETATM   18  C   UNL     1      -7.066   4.513  69.230  1.00  0.00    -0.051 A  
HETATM   19  O   UNL     1      -6.624   2.664  67.765  1.00  0.00    -0.035 OA 
HETATM   20  C   UNL     1      -7.456   4.667  66.846  1.00  0.00    -0.086 A  
ENDBRANCH   4  13
BRANCH   4  21
HETATM   21  C   UNL     1      -7.495   8.998  68.486  1.00  0.00    -0.085 C  
HETATM   22  C   UNL     1      -7.071   9.513  67.117  1.00  0.00    -0.086 C  
ENDBRANCH   4  21
ENDBRANCH   2   3
TORSDOF 4
ENDMDL
MODEL      133
REMARK 921   NORMALIZED FREE ENERGY PREDICTED BY IDOCK:   -3.36 KCAL/MOL
REMARK 922        TOTAL FREE ENERGY PREDICTED BY IDOCK:   -5.10 KCAL/MOL
REMARK 923 INTER-LIGAND FREE ENERGY PREDICTED BY IDOCK:   -5.11 KCAL/MOL
REMARK 924 INTRA-LIGAND FREE ENERGY PREDICTED BY IDOCK:    0.01 KCAL/MOL
REMARK 927      BINDING AFFINITY PREDICTED BY RF-SCORE:    0.00 PKD
ROOT
HETATM    1  C   UNL     1      -7.094  13.333  67.533  1.00  0.00    -0.156 C  
HETATM    2  C   UNL     1      -8.492  13.270  68.132  1.00  0.00    -0.173 C  
ENDROOT
BRANCH   2   3
HETATM    3  C   UNL     1      -9.457  12.368  67.385  1.00  0.00    -0.186 C  
HETATM    4  C   UNL     1      -9.578  11.028  67.554  1.00  0.00    -0.178 C  
BRANCH   3   5
HETATM    5  C   UNL     1     -10.376  13.071  66.467  1.00  0.00    -0.278 A  
HETATM    6  H   UNL     1     -12.419  15.551  63.040  1.00  0.00     0.000 HD 
HETATM    7  C   UNL     1     -11.667  12.580  66.238  1.00  0.00    -0.462 A  
HETATM    8  C   UNL     1      -9.930  14.192  65.753  1.00  0.00    -0.331 A  
HETATM    9  C   UNL     1     -10.749  14.783  64.791  1.00  0.00    -0.380 A  
HETATM   10  O   UNL     1     -12.745  14.810  63.538  1.00  0.00    -0.593 OA 
HETATM   11  C   UNL     1     -12.484  13.165  65.267  1.00  0.00    -0.550 A  
HETATM   12  C   UNL     1     -12.007  14.250  64.538  1.00  0.00    -0.462 A  
ENDBRANCH   3   5
BRANCH   4  13
HETATM   13  C   UNL     1      -8.656  10.275  68.431  1.00  0.00    -0.125 A  
HETATM   14  C   UNL     1      -7.363   9.968  67.989  1.00  0.00    -0.087 A  
HETATM   15  C   UNL     1      -9.088   9.808  69.679  1.00  0.00    -0.235 A  
HETATM   16  C   UNL     1      -6.972   8.705  70.001  1.00  0.00    -0.043 A  
HETATM   17  H   UNL     1      -5.261   7.701  70.407  1.00  0.00     0.000 HD 
HETATM   18  C   UNL     1      -8.244   9.021  70.467  1.00  0.00    -0.187 A  
HETATM   19  O   UNL     1      -6.129   7.916  70.725  1.00  0.00    -0.034 OA 
HETATM   20  C   UNL     1      -6.521   9.179  68.775  1.00  0.00    -0.049 A  
ENDBRANCH   4  13
BRANCH   4  21
HETATM   21  C   UNL     1     -10.688  10.152  66.979  1.00  0.00    -0.264 C  
HETATM   22  C   UNL     1     -10.270   8.724  66.656  1.00  0.00    -0.340 C  
ENDBRANCH   4  21
ENDBRANCH   2   3
TORSDOF 4
ENDMDL
MODEL      134
REMARK 921   NORMALIZED FREE ENERGY PREDICTED BY IDOCK:   -3.31 KCAL/MOL
REMARK 922        TOTAL FREE ENERGY PREDICTED BY IDOCK:   -5.04 KCAL/MOL
REMARK 923 INTER-LIGAND FREE ENERGY PREDICTED BY IDOCK:   -3.78 KCAL/MOL
REMARK 924 INTRA-LIGAND FREE ENERGY PREDICTED BY IDOCK:   -1.26 KCAL/MOL
REMARK 927      BINDING AFFINITY PREDICTED BY RF-SCORE:    0.00 PKD
ROOT
HETATM    1  C   UNL     1     -11.896   6.600  70.332  1.00  0.00    -0.407 C  
HETATM    2  C   UNL     1     -11.363   6.444  68.914  1.00  0.00    -0.292 C  
ENDROOT
BRANCH   2   3
HETATM    3  C   UNL     1     -10.091   7.222  68.630  1.00  0.00    -0.182 C  
HETATM    4  C   UNL     1      -8.837   6.841  68.977  1.00  0.00    -0.129 C  
BRANCH   3   5
HETATM    5  C   UNL     1     -10.285   8.451  67.833  1.00  0.00    -0.273 A  
HETATM    6  H   UNL     1     -10.619  12.838  66.187  1.00  0.00     0.000 HD 
HETATM    7  C   UNL     1     -10.017   8.458  66.459  1.00  0.00    -0.335 A  
HETATM    8  C   UNL     1     -10.657   9.645  68.468  1.00  0.00    -0.253 A  
HETATM    9  C   UNL     1     -10.717  10.836  67.744  1.00  0.00    -0.296 A  
HETATM   10  O   UNL     1     -10.394  12.031  65.738  1.00  0.00    -0.238 OA 
HETATM   11  C   UNL     1     -10.067   9.653  65.735  1.00  0.00    -0.274 A  
HETATM   12  C   UNL     1     -10.396  10.835  66.391  1.00  0.00    -0.248 A  
ENDBRANCH   3   5
BRANCH   4  13
HETATM   13  C   UNL     1      -8.598   5.642  69.807  1.00  0.00    -0.121 A  
HETATM   14  C   UNL     1      -8.596   4.372  69.219  1.00  0.00    -0.107 A  
HETATM   15  C   UNL     1      -8.437   5.761  71.194  1.00  0.00    -0.128 A  
HETATM   16  C   UNL     1      -8.325   3.364  71.388  1.00  0.00    -0.067 A  
HETATM   17  H   UNL     1      -8.242   1.368  71.721  1.00  0.00     0.000 HD 
HETATM   18  C   UNL     1      -8.299   4.619  71.987  1.00  0.00    -0.117 A  
HETATM   19  O   UNL     1      -8.225   2.225  72.129  1.00  0.00    -0.053 OA 
HETATM   20  C   UNL     1      -8.462   3.230  70.012  1.00  0.00    -0.092 A  
ENDBRANCH   4  13
BRANCH   4  21
HETATM   21  C   UNL     1      -7.542   7.497  68.504  1.00  0.00    -0.114 C  
HETATM   22  C   UNL     1      -7.085   8.682  69.343  1.00  0.00    -0.053 C  
ENDBRANCH   4  21
ENDBRANCH   2   3
TORSDOF 4
ENDMDL
MODEL      135
REMARK 921   NORMALIZED FREE ENERGY PREDICTED BY IDOCK:   -3.19 KCAL/MOL
REMARK 922        TOTAL FREE ENERGY PREDICTED BY IDOCK:   -4.89 KCAL/MOL
REMARK 923 INTER-LIGAND FREE ENERGY PREDICTED BY IDOCK:   -3.57 KCAL/MOL
REMARK 924 INTRA-LIGAND FREE ENERGY PREDICTED BY IDOCK:   -1.33 KCAL/MOL
REMARK 927      BINDING AFFINITY PREDICTED BY RF-SCORE:    0.00 PKD
ROOT
HETATM    1  C   UNL     1      -7.076   5.715  68.854  1.00  0.00    -0.069 C  
HETATM    2  C   UNL     1      -7.034   7.220  69.079  1.00  0.00    -0.077 C  
ENDROOT
BRANCH   2   3
HETATM    3  C   UNL     1      -8.390   7.861  69.314  1.00  0.00    -0.136 C  
HETATM    4  C   UNL     1      -9.082   8.600  68.412  1.00  0.00    -0.138 C  
BRANCH   3   5
HETATM    5  C   UNL     1      -8.999   7.555  70.625  1.00  0.00    -0.154 A  
HETATM    6  H   UNL     1     -10.883   5.596  74.456  1.00  0.00     0.000 HD 
HETATM    7  C   UNL     1      -8.708   8.342  71.746  1.00  0.00    -0.241 A  
HETATM    8  C   UNL     1      -9.809   6.420  70.773  1.00  0.00    -0.206 A  
HETATM    9  C   UNL     1     -10.282   6.055  72.033  1.00  0.00    -0.228 A  
HETATM   10  O   UNL     1     -10.359   6.383  74.365  1.00  0.00    -0.332 OA 
HETATM   11  C   UNL     1      -9.173   7.971  73.010  1.00  0.00    -0.337 A  
HETATM   12  C   UNL     1      -9.939   6.817  73.143  1.00  0.00    -0.192 A  
ENDBRANCH   3   5
BRANCH   4  13
HETATM   13  C   UNL     1      -8.497   8.965  67.105  1.00  0.00    -0.106 A  
HETATM   14  C   UNL     1      -7.629  10.059  67.006  1.00  0.00    -0.092 A  
HETATM   15  C   UNL     1      -8.857   8.263  65.947  1.00  0.00    -0.197 A  
HETATM   16  C   UNL     1      -7.530   9.771  64.618  1.00  0.00    -0.134 A  
HETATM   17  H   UNL     1      -6.485  10.968  63.363  1.00  0.00     0.000 HD 
HETATM   18  C   UNL     1      -8.372   8.666  64.700  1.00  0.00    -0.165 A  
HETATM   19  O   UNL     1      -7.060  10.214  63.418  1.00  0.00    -0.133 OA 
HETATM   20  C   UNL     1      -7.147  10.464  65.760  1.00  0.00    -0.139 A  
ENDBRANCH   4  13
BRANCH   4  21
HETATM   21  C   UNL     1     -10.531   9.056  68.556  1.00  0.00    -0.232 C  
HETATM   22  C   UNL     1     -10.703  10.479  69.071  1.00  0.00    -0.259 C  
ENDBRANCH   4  21
ENDBRANCH   2   3
TORSDOF 4
ENDMDL
MODEL      136
REMARK 921   NORMALIZED FREE ENERGY PREDICTED BY IDOCK:   -3.18 KCAL/MOL
REMARK 922        TOTAL FREE ENERGY PREDICTED BY IDOCK:   -4.89 KCAL/MOL
REMARK 923 INTER-LIGAND FREE ENERGY PREDICTED BY IDOCK:   -3.70 KCAL/MOL
REMARK 924 INTRA-LIGAND FREE ENERGY PREDICTED BY IDOCK:   -1.19 KCAL/MOL
REMARK 927      BINDING AFFINITY PREDICTED BY RF-SCORE:    0.00 PKD
ROOT
HETATM    1  C   UNL     1     -11.550  12.478  69.270  1.00  0.00    -0.378 C  
HETATM    2  C   UNL     1     -10.162  13.014  68.947  1.00  0.00    -0.015 C  
ENDROOT
BRANCH   2   3
HETATM    3  C   UNL     1      -9.796  12.968  67.475  1.00  0.00    -0.209 C  
HETATM    4  C   UNL     1      -8.890  12.131  66.912  1.00  0.00    -0.202 C  
BRANCH   3   5
HETATM    5  C   UNL     1     -10.580  13.877  66.615  1.00  0.00    -0.274 A  
HETATM    6  H   UNL     1     -12.148  17.220  63.709  1.00  0.00     0.000 HD 
HETATM    7  C   UNL     1     -11.707  13.410  65.927  1.00  0.00    -0.389 A  
HETATM    8  C   UNL     1     -10.150  15.197  66.415  1.00  0.00    -0.286 A  
HETATM    9  C   UNL     1     -10.812  16.021  65.505  1.00  0.00    -0.301 A  
HETATM   10  O   UNL     1     -12.467  16.337  63.857  1.00  0.00    -0.774 OA 
HETATM   11  C   UNL     1     -12.364  14.232  65.007  1.00  0.00    -0.434 A  
HETATM   12  C   UNL     1     -11.896  15.524  64.791  1.00  0.00    -0.112 A  
ENDBRANCH   3   5
BRANCH   4  13
HETATM   13  C   UNL     1      -8.054  11.233  67.736  1.00  0.00    -0.119 A  
HETATM   14  C   UNL     1      -8.497   9.939  68.034  1.00  0.00    -0.117 A  
HETATM   15  C   UNL     1      -6.845  11.690  68.278  1.00  0.00    -0.067 A  
HETATM   16  C   UNL     1      -6.569   9.596  69.434  1.00  0.00    -0.048 A  
HETATM   17  H   UNL     1      -6.208   7.907  70.491  1.00  0.00     0.000 HD 
HETATM   18  C   UNL     1      -6.100  10.870  69.129  1.00  0.00    -0.044 A  
HETATM   19  O   UNL     1      -5.888   8.776  70.283  1.00  0.00    -0.030 OA 
HETATM   20  C   UNL     1      -7.755   9.120  68.887  1.00  0.00    -0.083 A  
ENDBRANCH   4  13
BRANCH   4  21
HETATM   21  C   UNL     1      -8.678  11.922  65.415  1.00  0.00     0.453 C  
HETATM   22  C   UNL     1      -9.373  10.696  64.838  1.00  0.00    -0.271 C  
ENDBRANCH   4  21
ENDBRANCH   2   3
TORSDOF 4
ENDMDL
MODEL      137
REMARK 921   NORMALIZED FREE ENERGY PREDICTED BY IDOCK:   -3.15 KCAL/MOL
REMARK 922        TOTAL FREE ENERGY PREDICTED BY IDOCK:   -4.85 KCAL/MOL
REMARK 923 INTER-LIGAND FREE ENERGY PREDICTED BY IDOCK:   -3.72 KCAL/MOL
REMARK 924 INTRA-LIGAND FREE ENERGY PREDICTED BY IDOCK:   -1.13 KCAL/MOL
REMARK 927      BINDING AFFINITY PREDICTED BY RF-SCORE:    0.00 PKD
ROOT
HETATM    1  C   UNL     1      -6.759   7.590  70.457  1.00  0.00    -0.047 C  
HETATM    2  C   UNL     1      -7.633   6.909  69.413  1.00  0.00    -0.099 C  
ENDROOT
BRANCH   2   3
HETATM    3  C   UNL     1      -8.837   7.720  68.972  1.00  0.00    -0.138 C  
HETATM    4  C   UNL     1      -9.983   7.882  69.680  1.00  0.00    -0.191 C  
BRANCH   3   5
HETATM    5  C   UNL     1      -8.663   8.441  67.694  1.00  0.00    -0.137 A  
HETATM    6  H   UNL     1      -7.147  10.904  63.993  1.00  0.00     0.000 HD 
HETATM    7  C   UNL     1      -9.333   8.014  66.540  1.00  0.00    -0.261 A  
HETATM    8  C   UNL     1      -7.757   9.508  67.610  1.00  0.00    -0.095 A  
HETATM    9  C   UNL     1      -7.494  10.108  66.378  1.00  0.00    -0.108 A  
HETATM   10  O   UNL     1      -7.784  10.202  64.042  1.00  0.00    -0.148 OA 
HETATM   11  C   UNL     1      -9.061   8.609  65.305  1.00  0.00    -0.100 A  
HETATM   12  C   UNL     1      -8.127   9.637  65.234  1.00  0.00    -0.125 A  
ENDBRANCH   3   5
BRANCH   4  13
HETATM   13  C   UNL     1     -10.219   7.151  70.942  1.00  0.00    -0.207 A  
HETATM   14  C   UNL     1     -10.193   7.835  72.164  1.00  0.00    -0.269 A  
HETATM   15  C   UNL     1     -10.404   5.762  70.932  1.00  0.00    -0.299 A  
HETATM   16  C   UNL     1     -10.485   5.754  73.339  1.00  0.00    -0.244 A  
HETATM   17  H   UNL     1     -10.545   5.577  75.356  1.00  0.00     0.000 HD 
HETATM   18  C   UNL     1     -10.538   5.061  72.134  1.00  0.00    -0.259 A  
HETATM   19  O   UNL     1     -10.581   5.104  74.533  1.00  0.00    -0.315 OA 
HETATM   20  C   UNL     1     -10.323   7.134  73.364  1.00  0.00    -0.391 A  
ENDBRANCH   4  13
BRANCH   4  21
HETATM   21  C   UNL     1     -11.101   8.868  69.354  1.00  0.00     0.026 C  
HETATM   22  C   UNL     1     -10.792  10.319  69.700  1.00  0.00    -0.311 C  
ENDBRANCH   4  21
ENDBRANCH   2   3
TORSDOF 4
ENDMDL
MODEL      138
REMARK 921   NORMALIZED FREE ENERGY PREDICTED BY IDOCK:   -2.97 KCAL/MOL
REMARK 922        TOTAL FREE ENERGY PREDICTED BY IDOCK:   -4.62 KCAL/MOL
REMARK 923 INTER-LIGAND FREE ENERGY PREDICTED BY IDOCK:   -3.25 KCAL/MOL
REMARK 924 INTRA-LIGAND FREE ENERGY PREDICTED BY IDOCK:   -1.37 KCAL/MOL
REMARK 927      BINDING AFFINITY PREDICTED BY RF-SCORE:    0.00 PKD
ROOT
HETATM    1  C   UNL     1      -7.635   8.197  67.267  1.00  0.00    -0.097 C  
HETATM    2  C   UNL     1      -7.081   6.953  67.947  1.00  0.00    -0.086 C  
ENDROOT
BRANCH   2   3
HETATM    3  C   UNL     1      -8.124   5.904  68.288  1.00  0.00    -0.109 C  
HETATM    4  C   UNL     1      -8.794   5.808  69.463  1.00  0.00    -0.118 C  
BRANCH   3   5
HETATM    5  C   UNL     1      -8.458   4.983  67.182  1.00  0.00    -0.106 A  
HETATM    6  H   UNL     1      -9.182   1.323  64.328  1.00  0.00     0.000 HD 
HETATM    7  C   UNL     1      -9.526   5.264  66.321  1.00  0.00    -0.166 A  
HETATM    8  C   UNL     1      -7.758   3.776  67.041  1.00  0.00    -0.080 A  
HETATM    9  C   UNL     1      -8.152   2.845  66.079  1.00  0.00    -0.083 A  
HETATM   10  O   UNL     1      -9.646   2.149  64.394  1.00  0.00    -0.138 OA 
HETATM   11  C   UNL     1      -9.927   4.327  65.365  1.00  0.00    -0.233 A  
HETATM   12  C   UNL     1      -9.248   3.117  65.268  1.00  0.00    -0.150 A  
ENDBRANCH   3   5
BRANCH   4  13
HETATM   13  C   UNL     1      -8.466   6.681  70.610  1.00  0.00    -0.138 A  
HETATM   14  C   UNL     1      -7.324   6.429  71.378  1.00  0.00    -0.084 A  
HETATM   15  C   UNL     1      -9.329   7.722  70.977  1.00  0.00    -0.160 A  
HETATM   16  C   UNL     1      -7.936   8.208  72.880  1.00  0.00    -0.156 A  
HETATM   17  H   UNL     1      -6.887   8.721  74.535  1.00  0.00     0.000 HD 
HETATM   18  C   UNL     1      -9.063   8.489  72.115  1.00  0.00    -0.319 A  
HETATM   19  O   UNL     1      -7.657   8.912  74.013  1.00  0.00    -0.409 OA 
HETATM   20  C   UNL     1      -7.060   7.193  72.517  1.00  0.00    -0.068 A  
ENDBRANCH   4  13
BRANCH   4  21
HETATM   21  C   UNL     1      -9.994   4.906  69.735  1.00  0.00    -0.314 C  
HETATM   22  C   UNL     1      -9.727   3.765  70.707  1.00  0.00    -0.235 C  
ENDBRANCH   4  21
ENDBRANCH   2   3
TORSDOF 4
ENDMDL
MODEL      139
REMARK 921   NORMALIZED FREE ENERGY PREDICTED BY IDOCK:   -2.80 KCAL/MOL
REMARK 922        TOTAL FREE ENERGY PREDICTED BY IDOCK:   -4.41 KCAL/MOL
REMARK 923 INTER-LIGAND FREE ENERGY PREDICTED BY IDOCK:   -3.21 KCAL/MOL
REMARK 924 INTRA-LIGAND FREE ENERGY PREDICTED BY IDOCK:   -1.20 KCAL/MOL
REMARK 927      BINDING AFFINITY PREDICTED BY RF-SCORE:    0.00 PKD
ROOT
HETATM    1  C   UNL     1      -6.157   7.817  70.590  1.00  0.00    -0.034 C  
HETATM    2  C   UNL     1      -7.061   7.212  69.525  1.00  0.00    -0.071 C  
ENDROOT
BRANCH   2   3
HETATM    3  C   UNL     1      -8.536   7.523  69.699  1.00  0.00    -0.135 C  
HETATM    4  C   UNL     1      -9.316   7.106  70.727  1.00  0.00    -0.160 C  
BRANCH   3   5
HETATM    5  C   UNL     1      -9.101   8.428  68.677  1.00  0.00    -0.140 A  
HETATM    6  H   UNL     1     -10.014  11.836  65.576  1.00  0.00     0.000 HD 
HETATM    7  C   UNL     1      -9.913   7.925  67.653  1.00  0.00    -0.234 A  
HETATM    8  C   UNL     1      -8.758   9.788  68.679  1.00  0.00    -0.122 A  
HETATM    9  C   UNL     1      -9.185  10.620  67.644  1.00  0.00    -0.153 A  
HETATM   10  O   UNL     1     -10.278  10.924  65.578  1.00  0.00    -0.253 OA 
HETATM   11  C   UNL     1     -10.332   8.757  66.611  1.00  0.00    -0.298 A  
HETATM   12  C   UNL     1      -9.945  10.093  66.607  1.00  0.00    -0.216 A  
ENDBRANCH   3   5
BRANCH   4  13
HETATM   13  C   UNL     1      -8.806   6.169  71.750  1.00  0.00    -0.138 A  
HETATM   14  C   UNL     1      -8.370   6.652  72.989  1.00  0.00    -0.122 A  
HETATM   15  C   UNL     1      -8.693   4.801  71.464  1.00  0.00    -0.135 A  
HETATM   16  C   UNL     1      -7.678   4.433  73.616  1.00  0.00    -0.082 A  
HETATM   17  H   UNL     1      -6.787   3.966  75.374  1.00  0.00     0.000 HD 
HETATM   18  C   UNL     1      -8.128   3.931  72.400  1.00  0.00    -0.085 A  
HETATM   19  O   UNL     1      -7.094   3.623  74.543  1.00  0.00    -0.049 OA 
HETATM   20  C   UNL     1      -7.803   5.783  73.923  1.00  0.00    -0.099 A  
ENDBRANCH   4  13
BRANCH   4  21
HETATM   21  C   UNL     1     -10.730   7.593  71.029  1.00  0.00    -0.239 C  
HETATM   22  C   UNL     1     -11.836   6.625  70.632  1.00  0.00    -0.443 C  
ENDBRANCH   4  21
ENDBRANCH   2   3
TORSDOF 4
ENDMDL
MODEL      140
REMARK 921   NORMALIZED FREE ENERGY PREDICTED BY IDOCK:   -2.76 KCAL/MOL
REMARK 922        TOTAL FREE ENERGY PREDICTED BY IDOCK:   -4.37 KCAL/MOL
REMARK 923 INTER-LIGAND FREE ENERGY PREDICTED BY IDOCK:   -3.05 KCAL/MOL
REMARK 924 INTRA-LIGAND FREE ENERGY PREDICTED BY IDOCK:   -1.31 KCAL/MOL
REMARK 927      BINDING AFFINITY PREDICTED BY RF-SCORE:    0.00 PKD
ROOT
HETATM    1  C   UNL     1      -9.663   9.327  65.590  1.00  0.00    -0.302 C  
HETATM    2  C   UNL     1      -8.447   8.413  65.642  1.00  0.00    -0.179 C  
ENDROOT
BRANCH   2   3
HETATM    3  C   UNL     1      -8.304   7.626  66.932  1.00  0.00    -0.124 C  
HETATM    4  C   UNL     1      -8.559   6.303  67.083  1.00  0.00    -0.107 C  
BRANCH   3   5
HETATM    5  C   UNL     1      -7.761   8.398  68.069  1.00  0.00    -0.103 A  
HETATM    6  H   UNL     1      -5.365  11.210  70.969  1.00  0.00     0.000 HD 
HETATM    7  C   UNL     1      -8.605   8.843  69.094  1.00  0.00    -0.134 A  
HETATM    8  C   UNL     1      -6.407   8.762  68.085  1.00  0.00    -0.056 A  
HETATM    9  C   UNL     1      -5.917   9.597  69.089  1.00  0.00    -0.034 A  
HETATM   10  O   UNL     1      -6.278  10.947  70.986  1.00  0.00    -0.359 OA 
HETATM   11  C   UNL     1      -8.117   9.689  70.094  1.00  0.00    -0.205 A  
HETATM   12  C   UNL     1      -6.780  10.074  70.068  1.00  0.00    -0.112 A  
ENDBRANCH   3   5
BRANCH   4  13
HETATM   13  C   UNL     1      -9.140   5.500  65.987  1.00  0.00    -0.162 A  
HETATM   14  C   UNL     1     -10.469   5.067  66.063  1.00  0.00    -0.289 A  
HETATM   15  C   UNL     1      -8.349   5.111  64.898  1.00  0.00    -0.145 A  
HETATM   16  C   UNL     1     -10.191   3.837  64.013  1.00  0.00    -0.229 A  
HETATM   17  H   UNL     1     -11.632   2.700  63.156  1.00  0.00     0.000 HD 
HETATM   18  C   UNL     1      -8.876   4.277  63.907  1.00  0.00    -0.135 A  
HETATM   19  O   UNL     1     -10.734   3.000  63.084  1.00  0.00    -0.203 OA 
HETATM   20  C   UNL     1     -10.995   4.232  65.076  1.00  0.00    -0.026 A  
ENDBRANCH   4  13
BRANCH   4  21
HETATM   21  C   UNL     1      -8.207   5.461  68.306  1.00  0.00    -0.095 C  
HETATM   22  C   UNL     1      -6.754   5.012  68.375  1.00  0.00    -0.054 C  
ENDBRANCH   4  21
ENDBRANCH   2   3
TORSDOF 4
ENDMDL
MODEL      141
REMARK 921   NORMALIZED FREE ENERGY PREDICTED BY IDOCK:   -2.57 KCAL/MOL
REMARK 922        TOTAL FREE ENERGY PREDICTED BY IDOCK:   -4.13 KCAL/MOL
REMARK 923 INTER-LIGAND FREE ENERGY PREDICTED BY IDOCK:   -2.78 KCAL/MOL
REMARK 924 INTRA-LIGAND FREE ENERGY PREDICTED BY IDOCK:   -1.35 KCAL/MOL
REMARK 927      BINDING AFFINITY PREDICTED BY RF-SCORE:    0.00 PKD
ROOT
HETATM    1  C   UNL     1      -6.454   6.942  70.920  1.00  0.00    -0.048 C  
HETATM    2  C   UNL     1      -6.192   7.244  69.451  1.00  0.00    -0.031 C  
ENDROOT
BRANCH   2   3
HETATM    3  C   UNL     1      -7.365   6.962  68.531  1.00  0.00    -0.090 C  
HETATM    4  C   UNL     1      -7.895   7.833  67.636  1.00  0.00    -0.123 C  
BRANCH   3   5
HETATM    5  C   UNL     1      -7.886   5.581  68.598  1.00  0.00    -0.091 A  
HETATM    6  H   UNL     1     -10.469   1.667  68.865  1.00  0.00     0.000 HD 
HETATM    7  C   UNL     1      -7.231   4.541  67.928  1.00  0.00    -0.065 A  
HETATM    8  C   UNL     1      -9.091   5.319  69.266  1.00  0.00    -0.138 A  
HETATM    9  C   UNL     1      -9.653   4.043  69.225  1.00  0.00    -0.247 A  
HETATM   10  O   UNL     1      -9.638   1.824  68.432  1.00  0.00    -0.195 OA 
HETATM   11  C   UNL     1      -7.799   3.265  67.878  1.00  0.00    -0.071 A  
HETATM   12  C   UNL     1      -9.017   3.035  68.510  1.00  0.00    -0.139 A  
ENDBRANCH   3   5
BRANCH   4  13
HETATM   13  C   UNL     1      -7.434   9.235  67.560  1.00  0.00    -0.088 A  
HETATM   14  C   UNL     1      -7.932  10.186  68.459  1.00  0.00    -0.104 A  
HETATM   15  C   UNL     1      -6.549   9.637  66.551  1.00  0.00    -0.071 A  
HETATM   16  C   UNL     1      -6.709  11.915  67.314  1.00  0.00    -0.138 A  
HETATM   17  H   UNL     1      -6.760  13.877  67.815  1.00  0.00     0.000 HD 
HETATM   18  C   UNL     1      -6.185  10.980  66.427  1.00  0.00    -0.136 A  
HETATM   19  O   UNL     1      -6.403  13.239  67.209  1.00  0.00    -0.284 OA 
HETATM   20  C   UNL     1      -7.571  11.529  68.334  1.00  0.00    -0.125 A  
ENDBRANCH   4  13
BRANCH   4  21
HETATM   21  C   UNL     1      -8.919   7.492  66.557  1.00  0.00    -0.189 C  
HETATM   22  C   UNL     1     -10.331   7.986  66.840  1.00  0.00    -0.408 C  
ENDBRANCH   4  21
ENDBRANCH   2   3
TORSDOF 4
ENDMDL
MODEL      142
REMARK 921   NORMALIZED FREE ENERGY PREDICTED BY IDOCK:   -2.30 KCAL/MOL
REMARK 922        TOTAL FREE ENERGY PREDICTED BY IDOCK:   -3.79 KCAL/MOL
REMARK 923 INTER-LIGAND FREE ENERGY PREDICTED BY IDOCK:   -3.20 KCAL/MOL
REMARK 924 INTRA-LIGAND FREE ENERGY PREDICTED BY IDOCK:   -0.59 KCAL/MOL
REMARK 927      BINDING AFFINITY PREDICTED BY RF-SCORE:    0.00 PKD
ROOT
HETATM    1  C   UNL     1     -10.947  11.514  66.064  1.00  0.00    -0.316 C  
HETATM    2  C   UNL     1     -10.313  10.854  67.281  1.00  0.00    -0.255 C  
ENDROOT
BRANCH   2   3
HETATM    3  C   UNL     1      -9.141  11.617  67.872  1.00  0.00    -0.171 C  
HETATM    4  C   UNL     1      -7.989  11.066  68.329  1.00  0.00    -0.124 C  
BRANCH   3   5
HETATM    5  C   UNL     1      -9.287  13.087  67.850  1.00  0.00    -0.212 A  
HETATM    6  H   UNL     1     -10.071  17.628  68.763  1.00  0.00     0.000 HD 
HETATM    7  C   UNL     1      -8.418  13.876  67.085  1.00  0.00    -0.196 A  
HETATM    8  C   UNL     1     -10.245  13.708  68.664  1.00  0.00    -0.199 A  
HETATM    9  C   UNL     1     -10.301  15.100  68.744  1.00  0.00    -0.236 A  
HETATM   10  O   UNL     1      -9.437  17.220  68.185  1.00  0.00    -0.262 OA 
HETATM   11  C   UNL     1      -8.468  15.270  67.174  1.00  0.00    -0.235 A  
HETATM   12  C   UNL     1      -9.397  15.867  68.020  1.00  0.00    -0.201 A  
ENDBRANCH   3   5
BRANCH   4  13
HETATM   13  C   UNL     1      -7.814   9.600  68.408  1.00  0.00    -0.085 A  
HETATM   14  C   UNL     1      -7.495   8.870  67.258  1.00  0.00    -0.084 A  
HETATM   15  C   UNL     1      -8.031   8.926  69.617  1.00  0.00    -0.092 A  
HETATM   16  C   UNL     1      -7.657   6.820  68.510  1.00  0.00    -0.104 A  
HETATM   17  H   UNL     1      -7.399   4.973  67.721  1.00  0.00     0.000 HD 
HETATM   18  C   UNL     1      -7.952   7.532  69.669  1.00  0.00    -0.125 A  
HETATM   19  O   UNL     1      -7.601   5.458  68.512  1.00  0.00    -0.081 OA 
HETATM   20  C   UNL     1      -7.419   7.476  67.309  1.00  0.00    -0.100 A  
ENDBRANCH   4  13
BRANCH   4  21
HETATM   21  C   UNL     1      -6.726  11.830  68.713  1.00  0.00    -0.083 C  
HETATM   22  C   UNL     1      -5.431  11.045  68.550  1.00  0.00    -0.043 C  
ENDBRANCH   4  21
ENDBRANCH   2   3
TORSDOF 4
ENDMDL
MODEL      143
REMARK 921   NORMALIZED FREE ENERGY PREDICTED BY IDOCK:   -2.21 KCAL/MOL
REMARK 922        TOTAL FREE ENERGY PREDICTED BY IDOCK:   -3.69 KCAL/MOL
REMARK 923 INTER-LIGAND FREE ENERGY PREDICTED BY IDOCK:   -2.55 KCAL/MOL
REMARK 924 INTRA-LIGAND FREE ENERGY PREDICTED BY IDOCK:   -1.14 KCAL/MOL
REMARK 927      BINDING AFFINITY PREDICTED BY RF-SCORE:    0.00 PKD
ROOT
HETATM    1  C   UNL     1     -10.100   9.522  65.881  1.00  0.00    -0.284 C  
HETATM    2  C   UNL     1      -8.584   9.475  66.017  1.00  0.00    -0.145 C  
ENDROOT
BRANCH   2   3
HETATM    3  C   UNL     1      -8.086   9.234  67.430  1.00  0.00    -0.110 C  
HETATM    4  C   UNL     1      -7.867  10.192  68.365  1.00  0.00    -0.093 C  
BRANCH   3   5
HETATM    5  C   UNL     1      -7.917   7.812  67.792  1.00  0.00    -0.124 A  
HETATM    6  H   UNL     1      -6.368   3.537  68.970  1.00  0.00     0.000 HD 
HETATM    7  C   UNL     1      -8.898   7.147  68.539  1.00  0.00    -0.125 A  
HETATM    8  C   UNL     1      -6.731   7.141  67.461  1.00  0.00    -0.064 A  
HETATM    9  C   UNL     1      -6.513   5.839  67.911  1.00  0.00    -0.043 A  
HETATM   10  O   UNL     1      -7.188   3.969  69.177  1.00  0.00    -0.052 OA 
HETATM   11  C   UNL     1      -8.675   5.846  68.998  1.00  0.00    -0.114 A  
HETATM   12  C   UNL     1      -7.473   5.212  68.696  1.00  0.00    -0.074 A  
ENDBRANCH   3   5
BRANCH   4  13
HETATM   13  C   UNL     1      -7.984  11.629  68.038  1.00  0.00    -0.132 A  
HETATM   14  C   UNL     1      -6.862  12.341  67.598  1.00  0.00    -0.124 A  
HETATM   15  C   UNL     1      -9.198  12.302  68.229  1.00  0.00    -0.189 A  
HETATM   16  C   UNL     1      -8.150  14.374  67.590  1.00  0.00    -0.177 A  
HETATM   17  H   UNL     1      -7.410  16.196  67.106  1.00  0.00     0.000 HD 
HETATM   18  C   UNL     1      -9.282  13.679  68.004  1.00  0.00    -0.197 A  
HETATM   19  O   UNL     1      -8.182  15.722  67.389  1.00  0.00    -0.152 OA 
HETATM   20  C   UNL     1      -6.945  13.717  67.376  1.00  0.00    -0.075 A  
ENDBRANCH   4  13
BRANCH   4  21
HETATM   21  C   UNL     1      -7.584   9.947  69.844  1.00  0.00    -0.167 C  
HETATM   22  C   UNL     1      -6.403  10.727  70.405  1.00  0.00    -0.108 C  
ENDBRANCH   4  21
ENDBRANCH   2   3
TORSDOF 4
ENDMDL
MODEL      144
REMARK 921   NORMALIZED FREE ENERGY PREDICTED BY IDOCK:   -2.16 KCAL/MOL
REMARK 922        TOTAL FREE ENERGY PREDICTED BY IDOCK:   -3.62 KCAL/MOL
REMARK 923 INTER-LIGAND FREE ENERGY PREDICTED BY IDOCK:   -3.04 KCAL/MOL
REMARK 924 INTRA-LIGAND FREE ENERGY PREDICTED BY IDOCK:   -0.58 KCAL/MOL
REMARK 927      BINDING AFFINITY PREDICTED BY RF-SCORE:    0.00 PKD
ROOT
HETATM    1  C   UNL     1     -10.902  11.523  66.195  1.00  0.00    -0.330 C  
HETATM    2  C   UNL     1     -10.396  11.121  67.574  1.00  0.00    -0.228 C  
ENDROOT
BRANCH   2   3
HETATM    3  C   UNL     1      -9.634  12.208  68.307  1.00  0.00    -0.210 C  
HETATM    4  C   UNL     1      -8.287  12.367  68.307  1.00  0.00    -0.169 C  
BRANCH   3   5
HETATM    5  C   UNL     1     -10.483  13.200  68.999  1.00  0.00    -0.031 A  
HETATM    6  H   UNL     1     -13.114  15.683  71.995  1.00  0.00     0.000 HD 
HETATM    7  C   UNL     1     -10.365  14.565  68.707  1.00  0.00    -0.243 A  
HETATM    8  C   UNL     1     -11.356  12.786  70.015  1.00  0.00     0.059 A  
HETATM    9  C   UNL     1     -12.065  13.730  70.758  1.00  0.00    -0.395 A  
HETATM   10  O   UNL     1     -12.549  15.975  71.290  1.00  0.00    -0.428 OA 
HETATM   11  C   UNL     1     -11.068  15.511  69.458  1.00  0.00    -0.286 A  
HETATM   12  C   UNL     1     -11.896  15.084  70.491  1.00  0.00    -0.297 A  
ENDBRANCH   3   5
BRANCH   4  13
HETATM   13  C   UNL     1      -7.395  11.380  67.664  1.00  0.00    -0.102 A  
HETATM   14  C   UNL     1      -7.278  11.344  66.269  1.00  0.00     0.075 A  
HETATM   15  C   UNL     1      -6.712  10.432  68.438  1.00  0.00    -0.060 A  
HETATM   16  C   UNL     1      -5.855   9.409  66.434  1.00  0.00    -0.058 A  
HETATM   17  H   UNL     1      -5.080   8.420  64.846  1.00  0.00     0.000 HD 
HETATM   18  C   UNL     1      -5.939   9.444  67.822  1.00  0.00    -0.052 A  
HETATM   19  O   UNL     1      -5.137   8.444  65.793  1.00  0.00    -0.027 OA 
HETATM   20  C   UNL     1      -6.509  10.354  65.653  1.00  0.00    -0.125 A  
ENDBRANCH   4  13
BRANCH   4  21
HETATM   21  C   UNL     1      -7.531  13.576  68.850  1.00  0.00    -0.017 C  
HETATM   22  C   UNL     1      -6.163  13.808  68.222  1.00  0.00    -0.110 C  
ENDBRANCH   4  21
ENDBRANCH   2   3
TORSDOF 4
ENDMDL
MODEL      145
REMARK 921   NORMALIZED FREE ENERGY PREDICTED BY IDOCK:   -2.03 KCAL/MOL
REMARK 922        TOTAL FREE ENERGY PREDICTED BY IDOCK:   -3.46 KCAL/MOL
REMARK 923 INTER-LIGAND FREE ENERGY PREDICTED BY IDOCK:   -2.18 KCAL/MOL
REMARK 924 INTRA-LIGAND FREE ENERGY PREDICTED BY IDOCK:   -1.29 KCAL/MOL
REMARK 927      BINDING AFFINITY PREDICTED BY RF-SCORE:    0.00 PKD
ROOT
HETATM    1  C   UNL     1      -6.098   7.731  70.773  1.00  0.00    -0.034 C  
HETATM    2  C   UNL     1      -6.277   7.774  69.262  1.00  0.00    -0.035 C  
ENDROOT
BRANCH   2   3
HETATM    3  C   UNL     1      -7.722   7.810  68.799  1.00  0.00    -0.113 C  
HETATM    4  C   UNL     1      -8.585   6.764  68.817  1.00  0.00    -0.123 C  
BRANCH   3   5
HETATM    5  C   UNL     1      -8.202   9.142  68.378  1.00  0.00    -0.115 A  
HETATM    6  H   UNL     1      -9.183  13.708  67.865  1.00  0.00     0.000 HD 
HETATM    7  C   UNL     1      -8.410   9.428  67.023  1.00  0.00    -0.127 A  
HETATM    8  C   UNL     1      -8.373  10.158  69.330  1.00  0.00    -0.160 A  
HETATM    9  C   UNL     1      -8.702  11.452  68.924  1.00  0.00    -0.012 A  
HETATM   10  O   UNL     1      -9.099  13.022  67.212  1.00  0.00    -0.192 OA 
HETATM   11  C   UNL     1      -8.730  10.726  66.616  1.00  0.00    -0.149 A  
HETATM   12  C   UNL     1      -8.852  11.730  67.571  1.00  0.00    -0.162 A  
ENDBRANCH   3   5
BRANCH   4  13
HETATM   13  C   UNL     1      -8.140   5.405  69.192  1.00  0.00    -0.094 A  
HETATM   14  C   UNL     1      -8.470   4.880  70.447  1.00  0.00    -0.104 A  
HETATM   15  C   UNL     1      -7.332   4.660  68.322  1.00  0.00    -0.065 A  
HETATM   16  C   UNL     1      -7.158   2.918  69.975  1.00  0.00    -0.033 A  
HETATM   17  H   UNL     1      -6.890   1.382  71.269  1.00  0.00     0.000 HD 
HETATM   18  C   UNL     1      -6.840   3.412  68.715  1.00  0.00    -0.045 A  
HETATM   19  O   UNL     1      -6.673   1.720  70.408  1.00  0.00    -0.028 OA 
HETATM   20  C   UNL     1      -7.975   3.636  70.840  1.00  0.00    -0.057 A  
ENDBRANCH   4  13
BRANCH   4  21
HETATM   21  C   UNL     1     -10.088   6.843  68.569  1.00  0.00    -0.165 C  
HETATM   22  C   UNL     1     -10.566   6.120  67.316  1.00  0.00    -0.362 C  
ENDBRANCH   4  21
ENDBRANCH   2   3
TORSDOF 4
ENDMDL
MODEL      146
REMARK 921   NORMALIZED FREE ENERGY PREDICTED BY IDOCK:   -1.59 KCAL/MOL
REMARK 922        TOTAL FREE ENERGY PREDICTED BY IDOCK:   -2.92 KCAL/MOL
REMARK 923 INTER-LIGAND FREE ENERGY PREDICTED BY IDOCK:   -2.25 KCAL/MOL
REMARK 924 INTRA-LIGAND FREE ENERGY PREDICTED BY IDOCK:   -0.67 KCAL/MOL
REMARK 927      BINDING AFFINITY PREDICTED BY RF-SCORE:    0.00 PKD
ROOT
HETATM    1  C   UNL     1      -5.182  12.011  71.521  1.00  0.00     0.009 C  
HETATM    2  C   UNL     1      -5.235  11.959  70.000  1.00  0.00    -0.086 C  
ENDROOT
BRANCH   2   3
HETATM    3  C   UNL     1      -6.546  11.445  69.433  1.00  0.00    -0.119 C  
HETATM    4  C   UNL     1      -7.433  12.172  68.709  1.00  0.00    -0.075 C  
BRANCH   3   5
HETATM    5  C   UNL     1      -6.788  10.003  69.645  1.00  0.00    -0.078 A  
HETATM    6  H   UNL     1      -8.540   5.728  70.490  1.00  0.00     0.000 HD 
HETATM    7  C   UNL     1      -6.052   9.046  68.936  1.00  0.00    -0.044 A  
HETATM    8  C   UNL     1      -7.818   9.585  70.499  1.00  0.00    -0.182 A  
HETATM    9  C   UNL     1      -8.135   8.231  70.606  1.00  0.00    -0.110 A  
HETATM   10  O   UNL     1      -7.821   5.995  69.930  1.00  0.00    -0.099 OA 
HETATM   11  C   UNL     1      -6.376   7.690  69.034  1.00  0.00    -0.036 A  
HETATM   12  C   UNL     1      -7.430   7.299  69.854  1.00  0.00    -0.086 A  
ENDBRANCH   3   5
BRANCH   4  13
HETATM   13  C   UNL     1      -7.254  13.625  68.505  1.00  0.00    -0.109 A  
HETATM   14  C   UNL     1      -6.893  14.445  69.580  1.00  0.00    -0.118 A  
HETATM   15  C   UNL     1      -7.507  14.200  67.252  1.00  0.00    -0.068 A  
HETATM   16  C   UNL     1      -7.087  16.386  68.170  1.00  0.00    -0.140 A  
HETATM   17  H   UNL     1      -6.795  18.290  68.797  1.00  0.00     0.000 HD 
HETATM   18  C   UNL     1      -7.423  15.585  67.084  1.00  0.00    -0.244 A  
HETATM   19  O   UNL     1      -7.024  17.743  68.056  1.00  0.00    -0.189 OA 
HETATM   20  C   UNL     1      -6.813  15.829  69.413  1.00  0.00    -0.190 A  
ENDBRANCH   4  13
BRANCH   4  21
HETATM   21  C   UNL     1      -8.633  11.615  67.949  1.00  0.00    -0.150 C  
HETATM   22  C   UNL     1      -8.282  10.802  66.711  1.00  0.00    -0.135 C  
ENDBRANCH   4  21
ENDBRANCH   2   3
TORSDOF 4
ENDMDL
MODEL      147
REMARK 921   NORMALIZED FREE ENERGY PREDICTED BY IDOCK:   14.33 KCAL/MOL
REMARK 922        TOTAL FREE ENERGY PREDICTED BY IDOCK:   16.73 KCAL/MOL
REMARK 923 INTER-LIGAND FREE ENERGY PREDICTED BY IDOCK:   16.87 KCAL/MOL
REMARK 924 INTRA-LIGAND FREE ENERGY PREDICTED BY IDOCK:   -0.14 KCAL/MOL
REMARK 927      BINDING AFFINITY PREDICTED BY RF-SCORE:    0.00 PKD
ROOT
HETATM    1  C   UNL     1     -10.536  11.734  68.619  1.00  0.00    -0.242 C  
HETATM    2  C   UNL     1     -10.463  12.780  69.723  1.00  0.00     0.972 C  
ENDROOT
BRANCH   2   3
HETATM    3  C   UNL     1      -9.580  13.972  69.404  1.00  0.00     0.471 C  
HETATM    4  C   UNL     1      -9.758  14.834  68.373  1.00  0.00    -0.214 C  
BRANCH   3   5
HETATM    5  C   UNL     1      -8.496  14.217  70.378  1.00  0.00     2.460 A  
HETATM    6  H   UNL     1      -4.453  15.044  72.621  1.00  0.00     0.000 HD 
HETATM    7  C   UNL     1      -8.754  14.904  71.571  1.00  0.00     4.321 A  
HETATM    8  C   UNL     1      -7.182  13.835  70.074  1.00  0.00     0.603 A  
HETATM    9  C   UNL     1      -6.135  14.176  70.930  1.00  0.00    -0.149 A  
HETATM   10  O   UNL     1      -5.342  15.283  72.854  1.00  0.00     0.091 OA 
HETATM   11  C   UNL     1      -7.704  15.255  72.424  1.00  0.00     6.465 A  
HETATM   12  C   UNL     1      -6.401  14.905  72.084  1.00  0.00     1.106 A  
ENDBRANCH   3   5
BRANCH   4  13
HETATM   13  C   UNL     1     -10.802  14.609  67.351  1.00  0.00    -0.298 A  
HETATM   14  C   UNL     1     -10.467  14.620  65.992  1.00  0.00    -0.313 A  
HETATM   15  C   UNL     1     -12.141  14.447  67.731  1.00  0.00    -0.304 A  
HETATM   16  C   UNL     1     -12.790  14.361  65.414  1.00  0.00    -0.221 A  
HETATM   17  H   UNL     1     -13.497  14.300  63.517  1.00  0.00     0.000 HD 
HETATM   18  C   UNL     1     -13.138  14.323  66.760  1.00  0.00     1.502 A  
HETATM   19  O   UNL     1     -13.735  14.274  64.436  1.00  0.00     1.466 OA 
HETATM   20  C   UNL     1     -11.464  14.499  65.021  1.00  0.00    -0.382 A  
ENDBRANCH   4  13
BRANCH   4  21
HETATM   21  C   UNL     1      -9.017  16.154  68.174  1.00  0.00    -0.185 C  
HETATM   22  C   UNL     1      -9.873  17.290  67.630  1.00  0.00    -0.279 C  
ENDBRANCH   4  21
ENDBRANCH   2   3
TORSDOF 4
ENDMDL
MODEL      148
REMARK 921   NORMALIZED FREE ENERGY PREDICTED BY IDOCK:   17.05 KCAL/MOL
REMARK 922        TOTAL FREE ENERGY PREDICTED BY IDOCK:   20.08 KCAL/MOL
REMARK 923 INTER-LIGAND FREE ENERGY PREDICTED BY IDOCK:   18.97 KCAL/MOL
REMARK 924 INTRA-LIGAND FREE ENERGY PREDICTED BY IDOCK:    1.11 KCAL/MOL
REMARK 927      BINDING AFFINITY PREDICTED BY RF-SCORE:    0.00 PKD
ROOT
HETATM    1  C   UNL     1     -13.327  10.987  67.840  1.00  0.00     7.880 C  
HETATM    2  C   UNL     1     -13.040  12.454  67.552  1.00  0.00     4.112 C  
ENDROOT
BRANCH   2   3
HETATM    3  C   UNL     1     -12.631  13.266  68.767  1.00  0.00     0.606 C  
HETATM    4  C   UNL     1     -12.068  14.500  68.740  1.00  0.00    -0.256 C  
BRANCH   3   5
HETATM    5  C   UNL     1     -12.973  12.650  70.066  1.00  0.00     0.719 A  
HETATM    6  H   UNL     1     -14.959  11.203  74.069  1.00  0.00     0.000 HD 
HETATM    7  C   UNL     1     -12.475  11.386  70.406  1.00  0.00    -0.345 A  
HETATM    8  C   UNL     1     -13.868  13.293  70.932  1.00  0.00     0.958 A  
HETATM    9  C   UNL     1     -14.293  12.659  72.100  1.00  0.00     0.500 A  
HETATM   10  O   UNL     1     -14.329  10.768  73.506  1.00  0.00     2.665 OA 
HETATM   11  C   UNL     1     -12.909  10.746  71.570  1.00  0.00    -0.567 A  
HETATM   12  C   UNL     1     -13.831  11.382  72.395  1.00  0.00     0.610 A  
ENDBRANCH   3   5
BRANCH   4  13
HETATM   13  C   UNL     1     -11.672  15.139  67.468  1.00  0.00    -0.214 A  
HETATM   14  C   UNL     1     -11.962  16.489  67.242  1.00  0.00     1.301 A  
HETATM   15  C   UNL     1     -11.065  14.384  66.455  1.00  0.00    -0.331 A  
HETATM   16  C   UNL     1     -11.090  16.306  65.005  1.00  0.00    -0.254 A  
HETATM   17  H   UNL     1     -11.066  17.818  63.658  1.00  0.00     0.000 HD 
HETATM   18  C   UNL     1     -10.772  14.969  65.220  1.00  0.00    -0.406 A  
HETATM   19  O   UNL     1     -10.849  16.906  63.805  1.00  0.00     0.734 OA 
HETATM   20  C   UNL     1     -11.673  17.073  66.006  1.00  0.00     1.911 A  
ENDBRANCH   4  13
BRANCH   4  21
HETATM   21  C   UNL     1     -11.862  15.413  69.946  1.00  0.00    -0.373 C  
HETATM   22  C   UNL     1     -10.641  16.319  69.858  1.00  0.00    -0.280 C  
ENDBRANCH   4  21
ENDBRANCH   2   3
TORSDOF 4
ENDMDL
