MODEL        1
REMARK 921   NORMALIZED FREE ENERGY PREDICTED BY IDOCK:   -6.68 KCAL/MOL
REMARK 922        TOTAL FREE ENERGY PREDICTED BY IDOCK:  -13.33 KCAL/MOL
REMARK 923 INTER-LIGAND FREE ENERGY PREDICTED BY IDOCK:  -11.36 KCAL/MOL
REMARK 924 INTRA-LIGAND FREE ENERGY PREDICTED BY IDOCK:   -1.97 KCAL/MOL
REMARK 927      BINDING AFFINITY PREDICTED BY RF-SCORE:    0.00 PKD
ROOT
HETATM    1  C   UNL     1     -14.024  15.209  71.762  1.00  0.00    -0.627 C  
HETATM    2  C   UNL     1     -13.294  14.161  72.589  1.00  0.00    -0.638 C  
ENDROOT
BRANCH   2   3
HETATM    3  C   UNL     1     -13.494  12.760  72.013  1.00  0.00    -0.540 C  
BRANCH   3   4
HETATM    4  C   UNL     1     -12.418  12.407  70.977  1.00  0.00    -0.353 C  
BRANCH   4   5
HETATM    5  C   UNL     1     -12.590  10.966  70.492  1.00  0.00    -0.409 C  
BRANCH   5   6
HETATM    6  C   UNL     1     -11.534  10.527  69.484  1.00  0.00    -0.272 C  
BRANCH   6   7
HETATM    7  O   UNL     1     -11.722  11.016  68.155  1.00  0.00    -0.497 OA 
BRANCH   7   8
HETATM    8  C   UNL     1     -10.769  11.872  67.705  1.00  0.00    -0.207 C  
HETATM    9  O   UNL     1      -9.911  12.415  68.388  1.00  0.00    -0.217 OA 
BRANCH   8  10
HETATM   10  C   UNL     1     -10.700  11.789  66.218  1.00  0.00    -0.312 A  
HETATM   11  C   UNL     1     -10.072  10.625  65.727  1.00  0.00    -0.327 A  
HETATM   12  C   UNL     1      -9.988  10.369  64.357  1.00  0.00    -0.388 A  
HETATM   13  C   UNL     1     -10.490  11.297  63.453  1.00  0.00    -0.424 A  
HETATM   14  C   UNL     1     -11.103  12.460  63.918  1.00  0.00    -0.475 A  
HETATM   15  C   UNL     1     -11.265  12.694  65.297  1.00  0.00    -0.335 A  
BRANCH  15  16
HETATM   16  C   UNL     1     -11.955  13.944  65.699  1.00  0.00    -0.392 C  
HETATM   17  O   UNL     1     -13.165  14.013  65.486  1.00  0.00    -0.710 OA 
BRANCH  16  18
HETATM   18  C   UNL     1     -11.268  15.071  66.424  1.00  0.00    -0.310 A  
HETATM   19  C   UNL     1     -10.269  15.759  65.724  1.00  0.00    -0.394 A  
HETATM   20  C   UNL     1      -9.520  16.786  66.329  1.00  0.00    -0.314 A  
HETATM   21  C   UNL     1      -9.719  17.163  67.663  1.00  0.00    -0.263 A  
HETATM   22  O   UNL     1     -12.455  14.835  68.507  1.00  0.00    -0.582 OA 
HETATM   23  C   UNL     1     -10.755  16.496  68.340  1.00  0.00    -0.339 A  
HETATM   24  H   UNL     1     -12.616  15.101  69.404  1.00  0.00     0.000 HD 
HETATM   25  C   UNL     1     -11.506  15.462  67.746  1.00  0.00    -0.278 A  
BRANCH  21  26
HETATM   26  N   UNL     1      -8.955  18.136  68.302  1.00  0.00    -0.290 NA 
BRANCH  26  27
HETATM   27  C   UNL     1      -7.493  18.113  68.134  1.00  0.00    -0.258 C  
HETATM   28  C   UNL     1      -6.803  18.760  69.327  1.00  0.00    -0.266 C  
ENDBRANCH  26  27
BRANCH  26  29
HETATM   29  C   UNL     1      -9.536  19.410  68.746  1.00  0.00    -0.432 C  
HETATM   30  C   UNL     1     -10.254  20.093  67.592  1.00  0.00    -0.516 C  
ENDBRANCH  26  29
ENDBRANCH  21  26
ENDBRANCH  16  18
ENDBRANCH  15  16
ENDBRANCH   8  10
ENDBRANCH   7   8
ENDBRANCH   6   7
ENDBRANCH   5   6
ENDBRANCH   4   5
ENDBRANCH   3   4
ENDBRANCH   2   3
TORSDOF 12
ENDMDL
MODEL        2
REMARK 921   NORMALIZED FREE ENERGY PREDICTED BY IDOCK:   -6.39 KCAL/MOL
REMARK 922        TOTAL FREE ENERGY PREDICTED BY IDOCK:  -12.85 KCAL/MOL
REMARK 923 INTER-LIGAND FREE ENERGY PREDICTED BY IDOCK:  -11.05 KCAL/MOL
REMARK 924 INTRA-LIGAND FREE ENERGY PREDICTED BY IDOCK:   -1.80 KCAL/MOL
REMARK 927      BINDING AFFINITY PREDICTED BY RF-SCORE:    0.00 PKD
ROOT
HETATM    1  C   UNL     1     -13.798   8.546  71.925  1.00  0.00    -0.473 C  
HETATM    2  C   UNL     1     -13.273   9.967  72.068  1.00  0.00    -0.555 C  
ENDROOT
BRANCH   2   3
HETATM    3  C   UNL     1     -11.899  10.120  71.417  1.00  0.00    -0.414 C  
BRANCH   3   4
HETATM    4  C   UNL     1     -11.308   8.767  71.000  1.00  0.00    -0.332 C  
BRANCH   4   5
HETATM    5  C   UNL     1     -10.533   8.899  69.687  1.00  0.00    -0.218 C  
BRANCH   5   6
HETATM    6  C   UNL     1     -10.196  10.339  69.315  1.00  0.00    -0.227 C  
BRANCH   6   7
HETATM    7  O   UNL     1      -9.951  10.567  67.926  1.00  0.00    -0.164 OA 
BRANCH   7   8
HETATM    8  C   UNL     1     -11.032  10.941  67.194  1.00  0.00    -0.272 C  
HETATM    9  O   UNL     1     -12.093  11.356  67.640  1.00  0.00    -0.630 OA 
BRANCH   8  10
HETATM   10  C   UNL     1     -10.625  11.098  65.768  1.00  0.00    -0.289 A  
HETATM   11  C   UNL     1      -9.833  10.043  65.267  1.00  0.00    -0.388 A  
HETATM   12  C   UNL     1      -9.428  10.011  63.933  1.00  0.00    -0.280 A  
HETATM   13  C   UNL     1      -9.767  11.059  63.087  1.00  0.00    -0.398 A  
HETATM   14  C   UNL     1     -10.538  12.118  63.565  1.00  0.00    -0.501 A  
HETATM   15  C   UNL     1     -11.021  12.124  64.888  1.00  0.00    -0.355 A  
BRANCH  15  16
HETATM   16  C   UNL     1     -11.858  13.277  65.301  1.00  0.00    -0.357 C  
HETATM   17  O   UNL     1     -13.070  13.194  65.104  1.00  0.00    -0.703 OA 
BRANCH  16  18
HETATM   18  C   UNL     1     -11.308  14.482  66.019  1.00  0.00    -0.341 A  
HETATM   19  C   UNL     1     -10.413  15.291  65.307  1.00  0.00    -0.436 A  
HETATM   20  C   UNL     1      -9.791  16.404  65.904  1.00  0.00    -0.344 A  
HETATM   21  C   UNL     1     -10.019  16.752  67.241  1.00  0.00    -0.272 A  
HETATM   22  O   UNL     1     -12.429  14.099  68.116  1.00  0.00    -0.541 OA 
HETATM   23  C   UNL     1     -10.954  15.961  67.931  1.00  0.00    -0.327 A  
HETATM   24  H   UNL     1     -12.610  14.343  69.016  1.00  0.00     0.000 HD 
HETATM   25  C   UNL     1     -11.576  14.840  67.344  1.00  0.00    -0.360 A  
BRANCH  21  26
HETATM   26  N   UNL     1      -9.375  17.814  67.871  1.00  0.00    -0.261 NA 
BRANCH  26  27
HETATM   27  C   UNL     1     -10.171  18.979  68.290  1.00  0.00    -0.386 C  
HETATM   28  C   UNL     1     -10.563  19.824  67.085  1.00  0.00    -0.577 C  
ENDBRANCH  26  27
BRANCH  26  29
HETATM   29  C   UNL     1      -8.072  17.649  68.531  1.00  0.00    -0.283 C  
HETATM   30  C   UNL     1      -7.500  19.006  68.915  1.00  0.00    -0.364 C  
ENDBRANCH  26  29
ENDBRANCH  21  26
ENDBRANCH  16  18
ENDBRANCH  15  16
ENDBRANCH   8  10
ENDBRANCH   7   8
ENDBRANCH   6   7
ENDBRANCH   5   6
ENDBRANCH   4   5
ENDBRANCH   3   4
ENDBRANCH   2   3
TORSDOF 12
ENDMDL
MODEL        3
REMARK 921   NORMALIZED FREE ENERGY PREDICTED BY IDOCK:   -6.37 KCAL/MOL
REMARK 922        TOTAL FREE ENERGY PREDICTED BY IDOCK:  -12.80 KCAL/MOL
REMARK 923 INTER-LIGAND FREE ENERGY PREDICTED BY IDOCK:  -11.22 KCAL/MOL
REMARK 924 INTRA-LIGAND FREE ENERGY PREDICTED BY IDOCK:   -1.58 KCAL/MOL
REMARK 927      BINDING AFFINITY PREDICTED BY RF-SCORE:    0.00 PKD
ROOT
HETATM    1  C   UNL     1     -11.042   6.177  70.099  1.00  0.00    -0.448 C  
HETATM    2  C   UNL     1     -11.744   6.289  71.444  1.00  0.00    -0.316 C  
ENDROOT
BRANCH   2   3
HETATM    3  C   UNL     1     -12.780   7.412  71.438  1.00  0.00    -0.408 C  
BRANCH   3   4
HETATM    4  C   UNL     1     -12.164   8.763  71.825  1.00  0.00    -0.415 C  
BRANCH   4   5
HETATM    5  C   UNL     1     -13.168   9.896  71.603  1.00  0.00    -0.519 C  
BRANCH   5   6
HETATM    6  C   UNL     1     -12.645  11.014  70.708  1.00  0.00    -0.369 C  
BRANCH   6   7
HETATM    7  O   UNL     1     -12.298  10.619  69.380  1.00  0.00    -0.277 OA 
BRANCH   7   8
HETATM    8  C   UNL     1     -11.895  11.620  68.557  1.00  0.00    -0.292 C  
HETATM    9  O   UNL     1     -11.916  12.816  68.816  1.00  0.00    -0.305 OA 
BRANCH   8  10
HETATM   10  C   UNL     1     -11.109  11.040  67.430  1.00  0.00    -0.370 A  
HETATM   11  C   UNL     1     -10.424   9.849  67.750  1.00  0.00    -0.292 A  
HETATM   12  C   UNL     1      -9.698   9.149  66.785  1.00  0.00    -0.271 A  
HETATM   13  C   UNL     1      -9.605   9.655  65.495  1.00  0.00    -0.351 A  
HETATM   14  C   UNL     1     -10.264  10.838  65.162  1.00  0.00    -0.365 A  
HETATM   15  C   UNL     1     -11.064  11.512  66.104  1.00  0.00    -0.302 A  
BRANCH  15  16
HETATM   16  C   UNL     1     -11.751  12.747  65.652  1.00  0.00    -0.399 C  
HETATM   17  O   UNL     1     -12.931  12.646  65.319  1.00  0.00    -0.657 OA 
BRANCH  16  18
HETATM   18  C   UNL     1     -11.104  14.107  65.673  1.00  0.00    -0.307 A  
HETATM   19  C   UNL     1     -10.116  14.324  66.642  1.00  0.00    -0.274 A  
HETATM   20  C   UNL     1      -9.493  15.578  66.791  1.00  0.00    -0.257 A  
HETATM   21  C   UNL     1      -9.837  16.676  65.994  1.00  0.00    -0.309 A  
HETATM   22  O   UNL     1     -12.393  15.064  63.877  1.00  0.00    -0.977 OA 
HETATM   23  C   UNL     1     -10.795  16.433  64.995  1.00  0.00    -0.289 A  
HETATM   24  H   UNL     1     -12.614  15.795  63.314  1.00  0.00     0.000 HD 
HETATM   25  C   UNL     1     -11.430  15.184  64.843  1.00  0.00    -0.374 A  
BRANCH  21  26
HETATM   26  N   UNL     1      -9.276  17.940  66.157  1.00  0.00    -0.501 NA 
BRANCH  26  27
HETATM   27  C   UNL     1     -10.160  19.117  66.127  1.00  0.00    -0.426 C  
HETATM   28  C   UNL     1     -10.562  19.525  67.538  1.00  0.00    -0.599 C  
ENDBRANCH  26  27
BRANCH  26  29
HETATM   29  C   UNL     1      -7.964  18.131  66.791  1.00  0.00    -0.240 C  
HETATM   30  C   UNL     1      -6.893  18.340  65.731  1.00  0.00    -0.310 C  
ENDBRANCH  26  29
ENDBRANCH  21  26
ENDBRANCH  16  18
ENDBRANCH  15  16
ENDBRANCH   8  10
ENDBRANCH   7   8
ENDBRANCH   6   7
ENDBRANCH   5   6
ENDBRANCH   4   5
ENDBRANCH   3   4
ENDBRANCH   2   3
TORSDOF 12
ENDMDL
MODEL        4
REMARK 921   NORMALIZED FREE ENERGY PREDICTED BY IDOCK:   -6.29 KCAL/MOL
REMARK 922        TOTAL FREE ENERGY PREDICTED BY IDOCK:  -12.66 KCAL/MOL
REMARK 923 INTER-LIGAND FREE ENERGY PREDICTED BY IDOCK:  -10.69 KCAL/MOL
REMARK 924 INTRA-LIGAND FREE ENERGY PREDICTED BY IDOCK:   -1.97 KCAL/MOL
REMARK 927      BINDING AFFINITY PREDICTED BY RF-SCORE:    0.00 PKD
ROOT
HETATM    1  C   UNL     1     -12.627  15.395  73.821  1.00  0.00    -0.747 C  
HETATM    2  C   UNL     1     -13.357  14.610  72.742  1.00  0.00    -0.593 C  
ENDROOT
BRANCH   2   3
HETATM    3  C   UNL     1     -13.393  15.380  71.422  1.00  0.00    -0.601 C  
BRANCH   3   4
HETATM    4  C   UNL     1     -11.988  15.592  70.844  1.00  0.00    -0.440 C  
BRANCH   4   5
HETATM    5  C   UNL     1     -11.859  14.910  69.480  1.00  0.00    -0.360 C  
BRANCH   5   6
HETATM    6  C   UNL     1     -12.217  13.428  69.499  1.00  0.00    -0.205 C  
BRANCH   6   7
HETATM    7  O   UNL     1     -11.239  12.558  68.925  1.00  0.00    -0.251 OA 
BRANCH   7   8
HETATM    8  C   UNL     1     -11.673  11.308  68.621  1.00  0.00    -0.324 C  
HETATM    9  O   UNL     1     -12.684  10.773  69.054  1.00  0.00    -0.188 OA 
BRANCH   8  10
HETATM   10  C   UNL     1     -10.931  10.812  67.426  1.00  0.00    -0.361 A  
HETATM   11  C   UNL     1     -10.227   9.607  67.636  1.00  0.00    -0.267 A  
HETATM   12  C   UNL     1      -9.538   8.980  66.597  1.00  0.00    -0.274 A  
HETATM   13  C   UNL     1      -9.502   9.572  65.341  1.00  0.00    -0.336 A  
HETATM   14  C   UNL     1     -10.182  10.769  65.116  1.00  0.00    -0.365 A  
HETATM   15  C   UNL     1     -10.946  11.372  66.133  1.00  0.00    -0.294 A  
BRANCH  15  16
HETATM   16  C   UNL     1     -11.658  12.628  65.795  1.00  0.00    -0.387 C  
HETATM   17  O   UNL     1     -12.877  12.562  65.644  1.00  0.00    -0.392 OA 
BRANCH  16  18
HETATM   18  C   UNL     1     -10.977  13.970  65.721  1.00  0.00    -0.294 A  
HETATM   19  C   UNL     1      -9.785  14.116  66.443  1.00  0.00    -0.313 A  
HETATM   20  C   UNL     1      -9.102  15.346  66.494  1.00  0.00    -0.334 A  
HETATM   21  C   UNL     1      -9.582  16.489  65.844  1.00  0.00    -0.248 A  
HETATM   22  O   UNL     1     -12.611  15.041  64.313  1.00  0.00    -0.677 OA 
HETATM   23  C   UNL     1     -10.753  16.317  65.085  1.00  0.00    -0.350 A  
HETATM   24  H   UNL     1     -12.930  15.804  63.846  1.00  0.00     0.000 HD 
HETATM   25  C   UNL     1     -11.448  15.092  65.033  1.00  0.00    -0.339 A  
BRANCH  21  26
HETATM   26  N   UNL     1      -8.956  17.730  65.925  1.00  0.00    -0.506 NA 
BRANCH  26  27
HETATM   27  C   UNL     1      -9.777  18.923  66.189  1.00  0.00    -0.277 C  
HETATM   28  C   UNL     1     -10.143  19.010  67.664  1.00  0.00    -0.448 C  
ENDBRANCH  26  27
BRANCH  26  29
HETATM   29  C   UNL     1      -7.519  17.858  66.206  1.00  0.00    -0.286 C  
HETATM   30  C   UNL     1      -6.943  19.060  65.473  1.00  0.00    -0.233 C  
ENDBRANCH  26  29
ENDBRANCH  21  26
ENDBRANCH  16  18
ENDBRANCH  15  16
ENDBRANCH   8  10
ENDBRANCH   7   8
ENDBRANCH   6   7
ENDBRANCH   5   6
ENDBRANCH   4   5
ENDBRANCH   3   4
ENDBRANCH   2   3
TORSDOF 12
ENDMDL
MODEL        5
REMARK 921   NORMALIZED FREE ENERGY PREDICTED BY IDOCK:   -6.27 KCAL/MOL
REMARK 922        TOTAL FREE ENERGY PREDICTED BY IDOCK:  -12.64 KCAL/MOL
REMARK 923 INTER-LIGAND FREE ENERGY PREDICTED BY IDOCK:  -10.27 KCAL/MOL
REMARK 924 INTRA-LIGAND FREE ENERGY PREDICTED BY IDOCK:   -2.37 KCAL/MOL
REMARK 927      BINDING AFFINITY PREDICTED BY RF-SCORE:    0.00 PKD
ROOT
HETATM    1  C   UNL     1     -13.540  13.075  72.251  1.00  0.00    -0.643 C  
HETATM    2  C   UNL     1     -14.143  14.462  72.081  1.00  0.00    -0.627 C  
ENDROOT
BRANCH   2   3
HETATM    3  C   UNL     1     -13.323  15.309  71.109  1.00  0.00    -0.568 C  
BRANCH   3   4
HETATM    4  C   UNL     1     -11.815  15.140  71.333  1.00  0.00    -0.418 C  
BRANCH   4   5
HETATM    5  C   UNL     1     -11.088  14.962  69.999  1.00  0.00    -0.263 C  
BRANCH   5   6
HETATM    6  C   UNL     1     -11.830  15.564  68.810  1.00  0.00    -0.317 C  
BRANCH   6   7
HETATM    7  O   UNL     1     -12.001  14.689  67.694  1.00  0.00    -0.362 OA 
BRANCH   7   8
HETATM    8  C   UNL     1     -11.112  14.851  66.681  1.00  0.00    -0.329 C  
HETATM    9  O   UNL     1     -10.139  15.592  66.690  1.00  0.00    -0.253 OA 
BRANCH   8  10
HETATM   10  C   UNL     1     -11.293  13.749  65.692  1.00  0.00    -0.311 A  
HETATM   11  C   UNL     1     -12.044  14.106  64.552  1.00  0.00    -0.489 A  
HETATM   12  C   UNL     1     -12.245  13.205  63.505  1.00  0.00    -0.552 A  
HETATM   13  C   UNL     1     -11.738  11.915  63.602  1.00  0.00    -0.572 A  
HETATM   14  C   UNL     1     -11.003  11.539  64.726  1.00  0.00    -0.338 A  
HETATM   15  C   UNL     1     -10.726  12.461  65.753  1.00  0.00    -0.301 A  
BRANCH  15  16
HETATM   16  C   UNL     1      -9.912  11.980  66.897  1.00  0.00    -0.202 C  
HETATM   17  O   UNL     1      -8.776  12.438  67.013  1.00  0.00    -0.196 OA 
BRANCH  16  18
HETATM   18  C   UNL     1     -10.442  11.044  67.951  1.00  0.00    -0.223 A  
HETATM   19  C   UNL     1     -11.499  11.513  68.742  1.00  0.00    -0.349 A  
HETATM   20  C   UNL     1     -12.026  10.744  69.797  1.00  0.00    -0.397 A  
HETATM   21  C   UNL     1     -11.514   9.482  70.124  1.00  0.00    -0.162 A  
HETATM   22  O   UNL     1      -8.906   9.238  67.526  1.00  0.00    -0.119 OA 
HETATM   23  C   UNL     1     -10.485   9.004  69.294  1.00  0.00    -0.238 A  
HETATM   24  H   UNL     1      -8.570   8.372  67.722  1.00  0.00     0.000 HD 
HETATM   25  C   UNL     1      -9.946   9.768  68.240  1.00  0.00    -0.153 A  
BRANCH  21  26
HETATM   26  N   UNL     1     -11.980   8.726  71.197  1.00  0.00    -0.292 NA 
BRANCH  26  27
HETATM   27  C   UNL     1     -11.153   7.613  71.692  1.00  0.00    -0.239 C  
HETATM   28  C   UNL     1     -10.379   8.029  72.935  1.00  0.00    -0.397 C  
ENDBRANCH  26  27
BRANCH  26  29
HETATM   29  C   UNL     1     -12.997   9.240  72.125  1.00  0.00    -0.424 C  
HETATM   30  C   UNL     1     -14.319   8.519  71.909  1.00  0.00    -0.536 C  
ENDBRANCH  26  29
ENDBRANCH  21  26
ENDBRANCH  16  18
ENDBRANCH  15  16
ENDBRANCH   8  10
ENDBRANCH   7   8
ENDBRANCH   6   7
ENDBRANCH   5   6
ENDBRANCH   4   5
ENDBRANCH   3   4
ENDBRANCH   2   3
TORSDOF 12
ENDMDL
MODEL        6
REMARK 921   NORMALIZED FREE ENERGY PREDICTED BY IDOCK:   -6.22 KCAL/MOL
REMARK 922        TOTAL FREE ENERGY PREDICTED BY IDOCK:  -12.54 KCAL/MOL
REMARK 923 INTER-LIGAND FREE ENERGY PREDICTED BY IDOCK:  -11.26 KCAL/MOL
REMARK 924 INTRA-LIGAND FREE ENERGY PREDICTED BY IDOCK:   -1.28 KCAL/MOL
REMARK 927      BINDING AFFINITY PREDICTED BY RF-SCORE:    0.00 PKD
ROOT
HETATM    1  C   UNL     1     -13.716   8.675  71.813  1.00  0.00    -0.456 C  
HETATM    2  C   UNL     1     -12.414   9.437  71.622  1.00  0.00    -0.460 C  
ENDROOT
BRANCH   2   3
HETATM    3  C   UNL     1     -11.202   8.529  71.832  1.00  0.00    -0.397 C  
BRANCH   3   4
HETATM    4  C   UNL     1     -10.048   8.885  70.886  1.00  0.00    -0.304 C  
BRANCH   4   5
HETATM    5  C   UNL     1     -10.446  10.039  69.963  1.00  0.00    -0.337 C  
BRANCH   5   6
HETATM    6  C   UNL     1      -9.639  10.097  68.670  1.00  0.00    -0.163 C  
BRANCH   6   7
HETATM    7  O   UNL     1      -9.838  11.271  67.881  1.00  0.00    -0.170 OA 
BRANCH   7   8
HETATM    8  C   UNL     1     -10.967  11.286  67.127  1.00  0.00    -0.291 C  
HETATM    9  O   UNL     1     -12.103  11.476  67.539  1.00  0.00    -0.614 OA 
BRANCH   8  10
HETATM   10  C   UNL     1     -10.591  11.381  65.687  1.00  0.00    -0.314 A  
HETATM   11  C   UNL     1      -9.898  10.257  65.190  1.00  0.00    -0.389 A  
HETATM   12  C   UNL     1      -9.535  10.165  63.846  1.00  0.00    -0.332 A  
HETATM   13  C   UNL     1      -9.819  11.218  62.985  1.00  0.00    -0.370 A  
HETATM   14  C   UNL     1     -10.492  12.343  63.459  1.00  0.00    -0.430 A  
HETATM   15  C   UNL     1     -10.934  12.415  64.794  1.00  0.00    -0.340 A  
BRANCH  15  16
HETATM   16  C   UNL     1     -11.668  13.638  65.202  1.00  0.00    -0.331 C  
HETATM   17  O   UNL     1     -12.897  13.596  65.167  1.00  0.00    -0.687 OA 
BRANCH  16  18
HETATM   18  C   UNL     1     -10.986  14.871  65.735  1.00  0.00    -0.345 A  
HETATM   19  C   UNL     1     -10.376  14.765  66.992  1.00  0.00    -0.255 A  
HETATM   20  C   UNL     1      -9.767  15.873  67.610  1.00  0.00    -0.223 A  
HETATM   21  C   UNL     1      -9.753  17.140  67.015  1.00  0.00    -0.265 A  
HETATM   22  O   UNL     1     -11.528  16.318  63.887  1.00  0.00    -1.484 OA 
HETATM   23  C   UNL     1     -10.327  17.223  65.735  1.00  0.00    -0.245 A  
HETATM   24  H   UNL     1     -11.500  17.167  63.463  1.00  0.00     0.000 HD 
HETATM   25  C   UNL     1     -10.946  16.121  65.110  1.00  0.00    -0.316 A  
BRANCH  21  26
HETATM   26  N   UNL     1      -9.207  18.264  67.630  1.00  0.00    -0.265 NA 
BRANCH  26  27
HETATM   27  C   UNL     1      -7.757  18.496  67.526  1.00  0.00    -0.229 C  
HETATM   28  C   UNL     1      -7.144  18.702  68.904  1.00  0.00    -0.317 C  
ENDBRANCH  26  27
BRANCH  26  29
HETATM   29  C   UNL     1     -10.027  19.434  67.977  1.00  0.00    -0.387 C  
HETATM   30  C   UNL     1      -9.729  20.586  67.030  1.00  0.00    -0.548 C  
ENDBRANCH  26  29
ENDBRANCH  21  26
ENDBRANCH  16  18
ENDBRANCH  15  16
ENDBRANCH   8  10
ENDBRANCH   7   8
ENDBRANCH   6   7
ENDBRANCH   5   6
ENDBRANCH   4   5
ENDBRANCH   3   4
ENDBRANCH   2   3
TORSDOF 12
ENDMDL
MODEL        7
REMARK 921   NORMALIZED FREE ENERGY PREDICTED BY IDOCK:   -6.11 KCAL/MOL
REMARK 922        TOTAL FREE ENERGY PREDICTED BY IDOCK:  -12.35 KCAL/MOL
REMARK 923 INTER-LIGAND FREE ENERGY PREDICTED BY IDOCK:  -10.17 KCAL/MOL
REMARK 924 INTRA-LIGAND FREE ENERGY PREDICTED BY IDOCK:   -2.18 KCAL/MOL
REMARK 927      BINDING AFFINITY PREDICTED BY RF-SCORE:    0.00 PKD
ROOT
HETATM    1  C   UNL     1     -14.335  15.212  72.035  1.00  0.00    -0.682 C  
HETATM    2  C   UNL     1     -14.121  13.749  72.393  1.00  0.00    -0.593 C  
ENDROOT
BRANCH   2   3
HETATM    3  C   UNL     1     -13.087  13.097  71.476  1.00  0.00    -0.404 C  
BRANCH   3   4
HETATM    4  C   UNL     1     -13.082  11.569  71.612  1.00  0.00    -0.478 C  
BRANCH   4   5
HETATM    5  C   UNL     1     -12.337  10.927  70.441  1.00  0.00    -0.436 C  
BRANCH   5   6
HETATM    6  C   UNL     1     -11.708  11.935  69.485  1.00  0.00    -0.345 C  
BRANCH   6   7
HETATM    7  O   UNL     1     -12.232  11.922  68.156  1.00  0.00    -0.470 OA 
BRANCH   7   8
HETATM    8  C   UNL     1     -11.820  12.937  67.354  1.00  0.00    -0.360 C  
HETATM    9  O   UNL     1     -11.504  14.060  67.721  1.00  0.00    -0.287 OA 
BRANCH   8  10
HETATM   10  C   UNL     1     -11.480  12.389  66.009  1.00  0.00    -0.431 A  
HETATM   11  C   UNL     1     -12.401  12.723  64.993  1.00  0.00    -0.559 A  
HETATM   12  C   UNL     1     -12.188  12.341  63.668  1.00  0.00    -0.665 A  
HETATM   13  C   UNL     1     -11.074  11.577  63.344  1.00  0.00    -0.370 A  
HETATM   14  C   UNL     1     -10.159  11.225  64.335  1.00  0.00    -0.357 A  
HETATM   15  C   UNL     1     -10.319  11.670  65.662  1.00  0.00    -0.306 A  
BRANCH  15  16
HETATM   16  C   UNL     1      -9.280  11.272  66.643  1.00  0.00    -0.180 C  
HETATM   17  O   UNL     1      -8.270  11.971  66.711  1.00  0.00    -0.171 OA 
BRANCH  16  18
HETATM   18  C   UNL     1      -9.449  10.124  67.603  1.00  0.00    -0.166 A  
HETATM   19  C   UNL     1     -10.214   9.036  67.163  1.00  0.00    -0.334 A  
HETATM   20  C   UNL     1     -10.487   7.940  68.003  1.00  0.00    -0.245 A  
HETATM   21  C   UNL     1     -10.026   7.884  69.324  1.00  0.00    -0.190 A  
HETATM   22  O   UNL     1      -8.202  11.090  69.423  1.00  0.00    -0.365 OA 
HETATM   23  C   UNL     1      -9.221   8.960  69.739  1.00  0.00    -0.167 A  
HETATM   24  H   UNL     1      -7.862  11.049  70.309  1.00  0.00     0.000 HD 
HETATM   25  C   UNL     1      -8.948  10.065  68.908  1.00  0.00    -0.152 A  
BRANCH  21  26
HETATM   26  N   UNL     1     -10.329   6.839  70.193  1.00  0.00    -0.198 NA 
BRANCH  26  27
HETATM   27  C   UNL     1     -10.913   7.155  71.506  1.00  0.00    -0.235 C  
HETATM   28  C   UNL     1     -12.434   7.102  71.447  1.00  0.00    -0.427 C  
ENDBRANCH  26  27
BRANCH  26  29
HETATM   29  C   UNL     1     -10.518   5.462  69.714  1.00  0.00    -0.307 C  
HETATM   30  C   UNL     1      -9.804   4.483  70.633  1.00  0.00    -0.292 C  
ENDBRANCH  26  29
ENDBRANCH  21  26
ENDBRANCH  16  18
ENDBRANCH  15  16
ENDBRANCH   8  10
ENDBRANCH   7   8
ENDBRANCH   6   7
ENDBRANCH   5   6
ENDBRANCH   4   5
ENDBRANCH   3   4
ENDBRANCH   2   3
TORSDOF 12
ENDMDL
MODEL        8
REMARK 921   NORMALIZED FREE ENERGY PREDICTED BY IDOCK:   -6.09 KCAL/MOL
REMARK 922        TOTAL FREE ENERGY PREDICTED BY IDOCK:  -12.33 KCAL/MOL
REMARK 923 INTER-LIGAND FREE ENERGY PREDICTED BY IDOCK:  -10.80 KCAL/MOL
REMARK 924 INTRA-LIGAND FREE ENERGY PREDICTED BY IDOCK:   -1.52 KCAL/MOL
REMARK 927      BINDING AFFINITY PREDICTED BY RF-SCORE:    0.00 PKD
ROOT
HETATM    1  C   UNL     1     -13.747  13.223  72.263  1.00  0.00    -0.686 C  
HETATM    2  C   UNL     1     -13.690  14.520  71.470  1.00  0.00    -0.472 C  
ENDROOT
BRANCH   2   3
HETATM    3  C   UNL     1     -13.166  15.672  72.326  1.00  0.00    -0.558 C  
BRANCH   3   4
HETATM    4  C   UNL     1     -11.805  16.181  71.832  1.00  0.00    -0.605 C  
BRANCH   4   5
HETATM    5  C   UNL     1     -11.659  15.951  70.327  1.00  0.00    -0.365 C  
BRANCH   5   6
HETATM    6  C   UNL     1     -10.432  16.622  69.719  1.00  0.00    -0.182 C  
BRANCH   6   7
HETATM    7  O   UNL     1     -10.706  17.577  68.693  1.00  0.00    -0.318 OA 
BRANCH   7   8
HETATM    8  C   UNL     1     -10.008  18.739  68.771  1.00  0.00    -0.391 C  
HETATM    9  O   UNL     1     -10.190  19.632  69.587  1.00  0.00    -0.209 OA 
BRANCH   8  10
HETATM   10  C   UNL     1      -8.772  18.623  67.945  1.00  0.00    -0.309 A  
HETATM   11  C   UNL     1      -7.602  19.092  68.579  1.00  0.00    -0.369 A  
HETATM   12  C   UNL     1      -6.354  18.992  67.962  1.00  0.00    -0.231 A  
HETATM   13  C   UNL     1      -6.262  18.463  66.680  1.00  0.00    -0.201 A  
HETATM   14  C   UNL     1      -7.408  18.005  66.032  1.00  0.00    -0.298 A  
HETATM   15  C   UNL     1      -8.662  18.028  66.674  1.00  0.00    -0.276 A  
BRANCH  15  16
HETATM   16  C   UNL     1      -9.821  17.493  65.919  1.00  0.00    -0.094 C  
HETATM   17  O   UNL     1     -10.556  18.307  65.361  1.00  0.00    -0.612 OA 
BRANCH  16  18
HETATM   18  C   UNL     1     -10.078  16.020  65.734  1.00  0.00    -0.393 A  
HETATM   19  C   UNL     1      -9.426  15.147  66.614  1.00  0.00    -0.285 A  
HETATM   20  C   UNL     1      -9.545  13.750  66.490  1.00  0.00    -0.295 A  
HETATM   21  C   UNL     1     -10.305  13.158  65.474  1.00  0.00    -0.290 A  
HETATM   22  O   UNL     1     -11.536  16.222  63.827  1.00  0.00    -1.539 OA 
HETATM   23  C   UNL     1     -10.992  14.044  64.625  1.00  0.00    -0.401 A  
HETATM   24  H   UNL     1     -12.075  15.831  63.151  1.00  0.00     0.000 HD 
HETATM   25  C   UNL     1     -10.873  15.444  64.738  1.00  0.00    -0.364 A  
BRANCH  21  26
HETATM   26  N   UNL     1     -10.394  11.780  65.294  1.00  0.00    -0.262 NA 
BRANCH  26  27
HETATM   27  C   UNL     1      -9.385  11.106  64.460  1.00  0.00    -0.168 C  
HETATM   28  C   UNL     1      -9.856  11.013  63.015  1.00  0.00    -0.370 C  
ENDBRANCH  26  27
BRANCH  26  29
HETATM   29  C   UNL     1     -11.142  10.923  66.225  1.00  0.00     0.033 C  
HETATM   30  C   UNL     1     -10.285   9.745  66.661  1.00  0.00    -0.296 C  
ENDBRANCH  26  29
ENDBRANCH  21  26
ENDBRANCH  16  18
ENDBRANCH  15  16
ENDBRANCH   8  10
ENDBRANCH   7   8
ENDBRANCH   6   7
ENDBRANCH   5   6
ENDBRANCH   4   5
ENDBRANCH   3   4
ENDBRANCH   2   3
TORSDOF 12
ENDMDL
MODEL        9
REMARK 921   NORMALIZED FREE ENERGY PREDICTED BY IDOCK:   -6.08 KCAL/MOL
REMARK 922        TOTAL FREE ENERGY PREDICTED BY IDOCK:  -12.32 KCAL/MOL
REMARK 923 INTER-LIGAND FREE ENERGY PREDICTED BY IDOCK:  -10.21 KCAL/MOL
REMARK 924 INTRA-LIGAND FREE ENERGY PREDICTED BY IDOCK:   -2.10 KCAL/MOL
REMARK 927      BINDING AFFINITY PREDICTED BY RF-SCORE:    0.00 PKD
ROOT
HETATM    1  C   UNL     1     -13.216  11.412  71.770  1.00  0.00    -0.472 C  
HETATM    2  C   UNL     1     -13.096   9.899  71.881  1.00  0.00    -0.559 C  
ENDROOT
BRANCH   2   3
HETATM    3  C   UNL     1     -11.851   9.385  71.160  1.00  0.00    -0.413 C  
BRANCH   3   4
HETATM    4  C   UNL     1     -11.238  10.452  70.244  1.00  0.00    -0.395 C  
BRANCH   4   5
HETATM    5  C   UNL     1     -10.162   9.837  69.346  1.00  0.00    -0.223 C  
BRANCH   5   6
HETATM    6  C   UNL     1     -10.582   9.705  67.886  1.00  0.00    -0.255 C  
BRANCH   6   7
HETATM    7  O   UNL     1      -9.586  10.076  66.931  1.00  0.00    -0.164 OA 
BRANCH   7   8
HETATM    8  C   UNL     1      -9.456  11.408  66.709  1.00  0.00    -0.182 C  
HETATM    9  O   UNL     1      -8.472  12.088  66.970  1.00  0.00    -0.172 OA 
BRANCH   8  10
HETATM   10  C   UNL     1     -10.542  11.859  65.791  1.00  0.00    -0.309 A  
HETATM   11  C   UNL     1     -10.544  11.222  64.532  1.00  0.00    -0.401 A  
HETATM   12  C   UNL     1     -11.536  11.486  63.588  1.00  0.00    -0.323 A  
HETATM   13  C   UNL     1     -12.517  12.430  63.868  1.00  0.00    -0.573 A  
HETATM   14  C   UNL     1     -12.526  13.080  65.101  1.00  0.00    -0.552 A  
HETATM   15  C   UNL     1     -11.577  12.765  66.094  1.00  0.00    -0.431 A  
BRANCH  15  16
HETATM   16  C   UNL     1     -11.681  13.486  67.386  1.00  0.00    -0.380 C  
HETATM   17  O   UNL     1     -12.231  12.899  68.317  1.00  0.00    -0.206 OA 
BRANCH  16  18
HETATM   18  C   UNL     1     -11.071  14.843  67.626  1.00  0.00    -0.315 A  
HETATM   19  C   UNL     1      -9.984  15.201  66.818  1.00  0.00    -0.246 A  
HETATM   20  C   UNL     1      -9.301  16.418  67.002  1.00  0.00    -0.241 A  
HETATM   21  C   UNL     1      -9.657  17.325  68.007  1.00  0.00    -0.274 A  
HETATM   22  O   UNL     1     -12.508  15.482  69.450  1.00  0.00    -0.598 OA 
HETATM   23  C   UNL     1     -10.778  16.976  68.780  1.00  0.00    -0.313 A  
HETATM   24  H   UNL     1     -12.775  16.103  70.117  1.00  0.00     0.000 HD 
HETATM   25  C   UNL     1     -11.464  15.756  68.609  1.00  0.00    -0.386 A  
BRANCH  21  26
HETATM   26  N   UNL     1      -8.963  18.509  68.245  1.00  0.00    -0.302 NA 
BRANCH  26  27
HETATM   27  C   UNL     1      -7.506  18.532  68.032  1.00  0.00    -0.250 C  
HETATM   28  C   UNL     1      -6.787  19.013  69.285  1.00  0.00    -0.318 C  
ENDBRANCH  26  27
BRANCH  26  29
HETATM   29  C   UNL     1      -9.637  19.815  68.256  1.00  0.00    -0.368 C  
HETATM   30  C   UNL     1     -10.017  20.223  66.840  1.00  0.00    -0.592 C  
ENDBRANCH  26  29
ENDBRANCH  21  26
ENDBRANCH  16  18
ENDBRANCH  15  16
ENDBRANCH   8  10
ENDBRANCH   7   8
ENDBRANCH   6   7
ENDBRANCH   5   6
ENDBRANCH   4   5
ENDBRANCH   3   4
ENDBRANCH   2   3
TORSDOF 12
ENDMDL
MODEL       10
REMARK 921   NORMALIZED FREE ENERGY PREDICTED BY IDOCK:   -6.01 KCAL/MOL
REMARK 922        TOTAL FREE ENERGY PREDICTED BY IDOCK:  -12.20 KCAL/MOL
REMARK 923 INTER-LIGAND FREE ENERGY PREDICTED BY IDOCK:  -10.27 KCAL/MOL
REMARK 924 INTRA-LIGAND FREE ENERGY PREDICTED BY IDOCK:   -1.93 KCAL/MOL
REMARK 927      BINDING AFFINITY PREDICTED BY RF-SCORE:    0.00 PKD
ROOT
HETATM    1  C   UNL     1     -10.622   5.871  71.120  1.00  0.00    -0.306 C  
HETATM    2  C   UNL     1     -11.218   6.296  69.786  1.00  0.00    -0.499 C  
ENDROOT
BRANCH   2   3
HETATM    3  C   UNL     1     -10.621   7.619  69.307  1.00  0.00    -0.206 C  
BRANCH   3   4
HETATM    4  C   UNL     1      -9.763   8.286  70.390  1.00  0.00    -0.175 C  
BRANCH   4   5
HETATM    5  C   UNL     1      -9.789   9.808  70.234  1.00  0.00    -0.296 C  
BRANCH   5   6
HETATM    6  C   UNL     1      -9.156  10.304  68.939  1.00  0.00    -0.168 C  
BRANCH   6   7
HETATM    7  O   UNL     1      -9.830  11.397  68.312  1.00  0.00    -0.186 OA 
BRANCH   7   8
HETATM    8  C   UNL     1     -10.915  11.066  67.567  1.00  0.00    -0.281 C  
HETATM    9  O   UNL     1     -12.077  11.063  67.951  1.00  0.00    -0.600 OA 
BRANCH   8  10
HETATM   10  C   UNL     1     -10.530  11.039  66.127  1.00  0.00    -0.301 A  
HETATM   11  C   UNL     1      -9.772   9.911  65.747  1.00  0.00    -0.332 A  
HETATM   12  C   UNL     1      -9.390   9.707  64.420  1.00  0.00    -0.212 A  
HETATM   13  C   UNL     1      -9.719  10.654  63.458  1.00  0.00    -0.389 A  
HETATM   14  C   UNL     1     -10.457  11.782  63.815  1.00  0.00    -0.466 A  
HETATM   15  C   UNL     1     -10.916  11.961  65.134  1.00  0.00    -0.365 A  
BRANCH  15  16
HETATM   16  C   UNL     1     -11.719  13.176  65.416  1.00  0.00    -0.350 C  
HETATM   17  O   UNL     1     -12.912  13.147  65.115  1.00  0.00    -0.695 OA 
BRANCH  16  18
HETATM   18  C   UNL     1     -11.166  14.386  66.124  1.00  0.00    -0.336 A  
HETATM   19  C   UNL     1     -10.211  15.143  65.432  1.00  0.00    -0.402 A  
HETATM   20  C   UNL     1      -9.584  16.255  66.026  1.00  0.00    -0.371 A  
HETATM   21  C   UNL     1      -9.865  16.653  67.338  1.00  0.00    -0.254 A  
HETATM   22  O   UNL     1     -12.400  14.105  68.173  1.00  0.00    -0.557 OA 
HETATM   23  C   UNL     1     -10.858  15.914  68.004  1.00  0.00    -0.317 A  
HETATM   24  H   UNL     1     -12.617  14.383  69.054  1.00  0.00     0.000 HD 
HETATM   25  C   UNL     1     -11.487  14.795  67.422  1.00  0.00    -0.363 A  
BRANCH  21  26
HETATM   26  N   UNL     1      -9.218  17.713  67.967  1.00  0.00    -0.264 NA 
BRANCH  26  27
HETATM   27  C   UNL     1     -10.027  18.818  68.507  1.00  0.00    -0.400 C  
HETATM   28  C   UNL     1     -10.530  19.716  67.385  1.00  0.00    -0.596 C  
ENDBRANCH  26  27
BRANCH  26  29
HETATM   29  C   UNL     1      -7.859  17.581  68.510  1.00  0.00    -0.274 C  
HETATM   30  C   UNL     1      -7.140  18.921  68.462  1.00  0.00    -0.306 C  
ENDBRANCH  26  29
ENDBRANCH  21  26
ENDBRANCH  16  18
ENDBRANCH  15  16
ENDBRANCH   8  10
ENDBRANCH   7   8
ENDBRANCH   6   7
ENDBRANCH   5   6
ENDBRANCH   4   5
ENDBRANCH   3   4
ENDBRANCH   2   3
TORSDOF 12
ENDMDL
MODEL       11
REMARK 921   NORMALIZED FREE ENERGY PREDICTED BY IDOCK:   -5.99 KCAL/MOL
REMARK 922        TOTAL FREE ENERGY PREDICTED BY IDOCK:  -12.16 KCAL/MOL
REMARK 923 INTER-LIGAND FREE ENERGY PREDICTED BY IDOCK:  -10.29 KCAL/MOL
REMARK 924 INTRA-LIGAND FREE ENERGY PREDICTED BY IDOCK:   -1.87 KCAL/MOL
REMARK 927      BINDING AFFINITY PREDICTED BY RF-SCORE:    0.00 PKD
ROOT
HETATM    1  C   UNL     1     -12.887  15.934  73.761  1.00  0.00    -0.708 C  
HETATM    2  C   UNL     1     -13.364  15.577  72.361  1.00  0.00    -0.577 C  
ENDROOT
BRANCH   2   3
HETATM    3  C   UNL     1     -13.562  14.070  72.208  1.00  0.00    -0.622 C  
BRANCH   3   4
HETATM    4  C   UNL     1     -12.635  13.475  71.141  1.00  0.00    -0.438 C  
BRANCH   4   5
HETATM    5  C   UNL     1     -12.336  14.508  70.052  1.00  0.00    -0.376 C  
BRANCH   5   6
HETATM    6  C   UNL     1     -11.216  14.094  69.103  1.00  0.00    -0.272 C  
BRANCH   6   7
HETATM    7  O   UNL     1     -11.641  13.696  67.798  1.00  0.00    -0.299 OA 
BRANCH   7   8
HETATM    8  C   UNL     1     -11.730  12.357  67.593  1.00  0.00    -0.346 C  
HETATM    9  O   UNL     1     -12.227  11.544  68.361  1.00  0.00    -0.540 OA 
BRANCH   8  10
HETATM   10  C   UNL     1     -11.448  12.062  66.159  1.00  0.00    -0.401 A  
HETATM   11  C   UNL     1     -12.384  12.610  65.256  1.00  0.00    -0.528 A  
HETATM   12  C   UNL     1     -12.223  12.478  63.876  1.00  0.00    -0.590 A  
HETATM   13  C   UNL     1     -11.147  11.755  63.376  1.00  0.00    -0.448 A  
HETATM   14  C   UNL     1     -10.218  11.195  64.252  1.00  0.00    -0.399 A  
HETATM   15  C   UNL     1     -10.325  11.387  65.643  1.00  0.00    -0.307 A  
BRANCH  15  16
HETATM   16  C   UNL     1      -9.274  10.779  66.496  1.00  0.00    -0.168 C  
HETATM   17  O   UNL     1      -8.146  11.266  66.434  1.00  0.00    -0.165 OA 
BRANCH  16  18
HETATM   18  C   UNL     1      -9.547   9.673  67.481  1.00  0.00    -0.180 A  
HETATM   19  C   UNL     1     -10.183   8.527  66.987  1.00  0.00    -0.371 A  
HETATM   20  C   UNL     1     -10.542   7.461  67.834  1.00  0.00    -0.255 A  
HETATM   21  C   UNL     1     -10.301   7.495  69.212  1.00  0.00    -0.209 A  
HETATM   22  O   UNL     1      -8.656  10.791  69.419  1.00  0.00    -0.347 OA 
HETATM   23  C   UNL     1      -9.622   8.630  69.689  1.00  0.00    -0.170 A  
HETATM   24  H   UNL     1      -8.464  10.812  70.349  1.00  0.00     0.000 HD 
HETATM   25  C   UNL     1      -9.264   9.705  68.850  1.00  0.00    -0.147 A  
BRANCH  21  26
HETATM   26  N   UNL     1     -10.697   6.480  70.080  1.00  0.00    -0.227 NA 
BRANCH  26  27
HETATM   27  C   UNL     1     -10.143   5.129  69.890  1.00  0.00    -0.272 C  
HETATM   28  C   UNL     1      -9.754   4.514  71.227  1.00  0.00    -0.252 C  
ENDBRANCH  26  27
BRANCH  26  29
HETATM   29  C   UNL     1     -11.261   6.769  71.406  1.00  0.00    -0.268 C  
HETATM   30  C   UNL     1     -12.725   7.163  71.281  1.00  0.00    -0.412 C  
ENDBRANCH  26  29
ENDBRANCH  21  26
ENDBRANCH  16  18
ENDBRANCH  15  16
ENDBRANCH   8  10
ENDBRANCH   7   8
ENDBRANCH   6   7
ENDBRANCH   5   6
ENDBRANCH   4   5
ENDBRANCH   3   4
ENDBRANCH   2   3
TORSDOF 12
ENDMDL
MODEL       12
REMARK 921   NORMALIZED FREE ENERGY PREDICTED BY IDOCK:   -5.97 KCAL/MOL
REMARK 922        TOTAL FREE ENERGY PREDICTED BY IDOCK:  -12.12 KCAL/MOL
REMARK 923 INTER-LIGAND FREE ENERGY PREDICTED BY IDOCK:   -9.85 KCAL/MOL
REMARK 924 INTRA-LIGAND FREE ENERGY PREDICTED BY IDOCK:   -2.27 KCAL/MOL
REMARK 927      BINDING AFFINITY PREDICTED BY RF-SCORE:    0.00 PKD
ROOT
HETATM    1  C   UNL     1     -11.856  13.189  63.923  1.00  0.00    -0.533 C  
HETATM    2  C   UNL     1     -11.481  11.736  63.670  1.00  0.00    -0.524 C  
ENDROOT
BRANCH   2   3
HETATM    3  C   UNL     1     -10.025  11.608  63.224  1.00  0.00    -0.442 C  
BRANCH   3   4
HETATM    4  C   UNL     1      -9.360  10.348  63.792  1.00  0.00    -0.329 C  
BRANCH   4   5
HETATM    5  C   UNL     1      -9.857  10.071  65.213  1.00  0.00    -0.388 C  
BRANCH   5   6
HETATM    6  C   UNL     1      -8.749   9.681  66.186  1.00  0.00    -0.136 C  
BRANCH   6   7
HETATM    7  O   UNL     1      -9.185   9.371  67.511  1.00  0.00    -0.124 OA 
BRANCH   7   8
HETATM    8  C   UNL     1      -9.034  10.364  68.424  1.00  0.00    -0.137 C  
HETATM    9  O   UNL     1      -8.159  11.220  68.418  1.00  0.00    -0.128 OA 
BRANCH   8  10
HETATM   10  C   UNL     1     -10.279  10.472  69.238  1.00  0.00    -0.245 A  
HETATM   11  C   UNL     1     -10.286   9.672  70.401  1.00  0.00    -0.348 A  
HETATM   12  C   UNL     1     -11.351   9.712  71.301  1.00  0.00    -0.458 A  
HETATM   13  C   UNL     1     -12.450  10.517  71.030  1.00  0.00    -0.501 A  
HETATM   14  C   UNL     1     -12.468  11.306  69.880  1.00  0.00    -0.220 A  
HETATM   15  C   UNL     1     -11.367  11.335  69.004  1.00  0.00    -0.344 A  
BRANCH  15  16
HETATM   16  C   UNL     1     -11.462  12.226  67.821  1.00  0.00    -0.329 C  
HETATM   17  O   UNL     1     -12.084  11.805  66.847  1.00  0.00    -0.566 OA 
BRANCH  16  18
HETATM   18  C   UNL     1     -10.920  13.631  67.799  1.00  0.00    -0.276 A  
HETATM   19  C   UNL     1     -11.619  14.592  68.542  1.00  0.00    -0.344 A  
HETATM   20  C   UNL     1     -11.235  15.946  68.539  1.00  0.00    -0.362 A  
HETATM   21  C   UNL     1     -10.151  16.409  67.784  1.00  0.00    -0.262 A  
HETATM   22  O   UNL     1      -9.077  13.202  66.309  1.00  0.00    -0.441 OA 
HETATM   23  C   UNL     1      -9.430  15.428  67.081  1.00  0.00    -0.221 A  
HETATM   24  H   UNL     1      -8.324  13.501  65.815  1.00  0.00     0.000 HD 
HETATM   25  C   UNL     1      -9.810  14.071  67.072  1.00  0.00    -0.260 A  
BRANCH  21  26
HETATM   26  N   UNL     1      -9.785  17.751  67.720  1.00  0.00    -0.277 NA 
BRANCH  26  27
HETATM   27  C   UNL     1      -8.370  18.091  67.500  1.00  0.00    -0.233 C  
HETATM   28  C   UNL     1      -7.857  19.004  68.605  1.00  0.00    -0.383 C  
ENDBRANCH  26  27
BRANCH  26  29
HETATM   29  C   UNL     1     -10.760  18.807  67.412  1.00  0.00    -0.424 C  
HETATM   30  C   UNL     1     -10.384  19.510  66.117  1.00  0.00    -0.614 C  
ENDBRANCH  26  29
ENDBRANCH  21  26
ENDBRANCH  16  18
ENDBRANCH  15  16
ENDBRANCH   8  10
ENDBRANCH   7   8
ENDBRANCH   6   7
ENDBRANCH   5   6
ENDBRANCH   4   5
ENDBRANCH   3   4
ENDBRANCH   2   3
TORSDOF 12
ENDMDL
MODEL       13
REMARK 921   NORMALIZED FREE ENERGY PREDICTED BY IDOCK:   -5.95 KCAL/MOL
REMARK 922        TOTAL FREE ENERGY PREDICTED BY IDOCK:  -12.09 KCAL/MOL
REMARK 923 INTER-LIGAND FREE ENERGY PREDICTED BY IDOCK:   -8.94 KCAL/MOL
REMARK 924 INTRA-LIGAND FREE ENERGY PREDICTED BY IDOCK:   -3.15 KCAL/MOL
REMARK 927      BINDING AFFINITY PREDICTED BY RF-SCORE:    0.00 PKD
ROOT
HETATM    1  C   UNL     1     -10.436  10.602  65.617  1.00  0.00    -0.235 C  
HETATM    2  C   UNL     1      -9.602   9.499  66.250  1.00  0.00    -0.287 C  
ENDROOT
BRANCH   2   3
HETATM    3  C   UNL     1      -8.329  10.058  66.884  1.00  0.00    -0.125 C  
BRANCH   3   4
HETATM    4  C   UNL     1      -8.330  11.592  66.913  1.00  0.00    -0.166 C  
BRANCH   4   5
HETATM    5  C   UNL     1      -7.222  12.113  67.831  1.00  0.00    -0.102 C  
BRANCH   5   6
HETATM    6  C   UNL     1      -7.395  13.573  68.236  1.00  0.00    -0.116 C  
BRANCH   6   7
HETATM    7  O   UNL     1      -7.906  14.431  67.214  1.00  0.00    -0.195 OA 
BRANCH   7   8
HETATM    8  C   UNL     1      -8.987  15.176  67.561  1.00  0.00    -0.180 C  
HETATM    9  O   UNL     1      -8.966  16.220  68.197  1.00  0.00    -0.183 OA 
BRANCH   8  10
HETATM   10  C   UNL     1     -10.166  14.725  66.767  1.00  0.00    -0.266 A  
HETATM   11  C   UNL     1      -9.929  14.617  65.380  1.00  0.00    -0.365 A  
HETATM   12  C   UNL     1     -10.913  14.144  64.511  1.00  0.00    -0.340 A  
HETATM   13  C   UNL     1     -12.168  13.816  65.008  1.00  0.00    -0.448 A  
HETATM   14  C   UNL     1     -12.427  13.927  66.373  1.00  0.00    -0.414 A  
HETATM   15  C   UNL     1     -11.420  14.327  67.272  1.00  0.00    -0.371 A  
BRANCH  15  16
HETATM   16  C   UNL     1     -11.777  14.389  68.711  1.00  0.00    -0.337 C  
HETATM   17  O   UNL     1     -12.071  15.491  69.172  1.00  0.00    -0.326 OA 
BRANCH  16  18
HETATM   18  C   UNL     1     -11.883  13.169  69.589  1.00  0.00    -0.390 A  
HETATM   19  C   UNL     1     -11.213  12.017  69.156  1.00  0.00    -0.305 A  
HETATM   20  C   UNL     1     -11.299  10.806  69.867  1.00  0.00    -0.385 A  
HETATM   21  C   UNL     1     -12.067  10.680  71.031  1.00  0.00    -0.368 A  
HETATM   22  O   UNL     1     -13.318  14.144  71.259  1.00  0.00    -0.338 OA 
HETATM   23  C   UNL     1     -12.697  11.855  71.480  1.00  0.00    -0.379 A  
HETATM   24  H   UNL     1     -13.821  14.077  72.062  1.00  0.00     0.000 HD 
HETATM   25  C   UNL     1     -12.623  13.071  70.771  1.00  0.00    -0.241 A  
BRANCH  21  26
HETATM   26  N   UNL     1     -12.214   9.480  71.721  1.00  0.00    -0.382 NA 
BRANCH  26  27
HETATM   27  C   UNL     1     -13.482   9.213  72.419  1.00  0.00    -0.476 C  
HETATM   28  C   UNL     1     -14.175   7.993  71.829  1.00  0.00    -0.550 C  
ENDBRANCH  26  27
BRANCH  26  29
HETATM   29  C   UNL     1     -11.378   8.308  71.426  1.00  0.00    -0.262 C  
HETATM   30  C   UNL     1     -10.427   8.034  72.581  1.00  0.00    -0.408 C  
ENDBRANCH  26  29
ENDBRANCH  21  26
ENDBRANCH  16  18
ENDBRANCH  15  16
ENDBRANCH   8  10
ENDBRANCH   7   8
ENDBRANCH   6   7
ENDBRANCH   5   6
ENDBRANCH   4   5
ENDBRANCH   3   4
ENDBRANCH   2   3
TORSDOF 12
ENDMDL
MODEL       14
REMARK 921   NORMALIZED FREE ENERGY PREDICTED BY IDOCK:   -5.94 KCAL/MOL
REMARK 922        TOTAL FREE ENERGY PREDICTED BY IDOCK:  -12.07 KCAL/MOL
REMARK 923 INTER-LIGAND FREE ENERGY PREDICTED BY IDOCK:  -10.11 KCAL/MOL
REMARK 924 INTRA-LIGAND FREE ENERGY PREDICTED BY IDOCK:   -1.96 KCAL/MOL
REMARK 927      BINDING AFFINITY PREDICTED BY RF-SCORE:    0.00 PKD
ROOT
HETATM    1  C   UNL     1     -12.446  15.806  74.118  1.00  0.00    -0.793 C  
HETATM    2  C   UNL     1     -13.136  14.746  73.272  1.00  0.00    -0.550 C  
ENDROOT
BRANCH   2   3
HETATM    3  C   UNL     1     -13.897  15.375  72.106  1.00  0.00    -0.636 C  
BRANCH   3   4
HETATM    4  C   UNL     1     -13.013  15.529  70.862  1.00  0.00    -0.526 C  
BRANCH   4   5
HETATM    5  C   UNL     1     -12.260  14.228  70.571  1.00  0.00    -0.427 C  
BRANCH   5   6
HETATM    6  C   UNL     1     -11.376  14.294  69.331  1.00  0.00    -0.282 C  
BRANCH   6   7
HETATM    7  O   UNL     1     -12.077  14.357  68.087  1.00  0.00    -0.310 OA 
BRANCH   7   8
HETATM    8  C   UNL     1     -11.394  14.919  67.057  1.00  0.00    -0.342 C  
HETATM    9  O   UNL     1     -10.729  15.945  67.111  1.00  0.00    -0.316 OA 
BRANCH   8  10
HETATM   10  C   UNL     1     -11.287  13.931  65.945  1.00  0.00    -0.314 A  
HETATM   11  C   UNL     1     -12.086  14.230  64.821  1.00  0.00    -0.457 A  
HETATM   12  C   UNL     1     -12.047  13.438  63.673  1.00  0.00    -0.513 A  
HETATM   13  C   UNL     1     -11.243  12.305  63.647  1.00  0.00    -0.539 A  
HETATM   14  C   UNL     1     -10.455  11.985  64.752  1.00  0.00    -0.335 A  
HETATM   15  C   UNL     1     -10.425  12.819  65.887  1.00  0.00    -0.295 A  
BRANCH  15  16
HETATM   16  C   UNL     1      -9.535  12.415  67.003  1.00  0.00    -0.211 C  
HETATM   17  O   UNL     1      -8.502  13.063  67.164  1.00  0.00    -0.191 OA 
BRANCH  16  18
HETATM   18  C   UNL     1      -9.884  11.327  67.985  1.00  0.00    -0.186 A  
HETATM   19  C   UNL     1     -11.197  10.840  67.952  1.00  0.00    -0.386 A  
HETATM   20  C   UNL     1     -11.646   9.869  68.867  1.00  0.00     0.120 A  
HETATM   21  C   UNL     1     -10.814   9.351  69.867  1.00  0.00    -0.236 A  
HETATM   22  O   UNL     1      -7.733  11.217  69.064  1.00  0.00    -0.133 OA 
HETATM   23  C   UNL     1      -9.486   9.813  69.860  1.00  0.00    -0.264 A  
HETATM   24  H   UNL     1      -7.153  10.852  69.721  1.00  0.00     0.000 HD 
HETATM   25  C   UNL     1      -9.029  10.790  68.953  1.00  0.00    -0.153 A  
BRANCH  21  26
HETATM   26  N   UNL     1     -11.248   8.432  70.819  1.00  0.00    -0.262 NA 
BRANCH  26  27
HETATM   27  C   UNL     1     -10.742   7.052  70.755  1.00  0.00    -0.228 C  
HETATM   28  C   UNL     1     -11.403   6.287  69.617  1.00  0.00    -0.492 C  
ENDBRANCH  26  27
BRANCH  26  29
HETATM   29  C   UNL     1     -11.808   8.858  72.109  1.00  0.00    -0.347 C  
HETATM   30  C   UNL     1     -13.282   9.199  71.957  1.00  0.00    -0.505 C  
ENDBRANCH  26  29
ENDBRANCH  21  26
ENDBRANCH  16  18
ENDBRANCH  15  16
ENDBRANCH   8  10
ENDBRANCH   7   8
ENDBRANCH   6   7
ENDBRANCH   5   6
ENDBRANCH   4   5
ENDBRANCH   3   4
ENDBRANCH   2   3
TORSDOF 12
ENDMDL
MODEL       15
REMARK 921   NORMALIZED FREE ENERGY PREDICTED BY IDOCK:   -5.86 KCAL/MOL
REMARK 922        TOTAL FREE ENERGY PREDICTED BY IDOCK:  -11.94 KCAL/MOL
REMARK 923 INTER-LIGAND FREE ENERGY PREDICTED BY IDOCK:   -9.95 KCAL/MOL
REMARK 924 INTRA-LIGAND FREE ENERGY PREDICTED BY IDOCK:   -1.99 KCAL/MOL
REMARK 927      BINDING AFFINITY PREDICTED BY RF-SCORE:    0.00 PKD
ROOT
HETATM    1  C   UNL     1     -10.270  19.815  66.134  1.00  0.00    -0.618 C  
HETATM    2  C   UNL     1      -9.599  19.960  67.492  1.00  0.00    -0.493 C  
ENDROOT
BRANCH   2   3
HETATM    3  C   UNL     1      -8.615  18.820  67.750  1.00  0.00    -0.305 C  
BRANCH   3   4
HETATM    4  C   UNL     1      -8.003  18.285  66.449  1.00  0.00    -0.290 C  
BRANCH   4   5
HETATM    5  C   UNL     1      -8.099  16.758  66.397  1.00  0.00    -0.355 C  
BRANCH   5   6
HETATM    6  C   UNL     1      -9.287  16.191  67.167  1.00  0.00    -0.215 C  
BRANCH   6   7
HETATM    7  O   UNL     1     -10.435  15.884  66.373  1.00  0.00    -0.296 OA 
BRANCH   7   8
HETATM    8  C   UNL     1     -11.215  14.874  66.836  1.00  0.00    -0.343 C  
HETATM    9  O   UNL     1     -12.014  14.949  67.759  1.00  0.00    -0.321 OA 
BRANCH   8  10
HETATM   10  C   UNL     1     -11.210  13.760  65.846  1.00  0.00    -0.305 A  
HETATM   11  C   UNL     1     -11.937  14.025  64.666  1.00  0.00    -0.449 A  
HETATM   12  C   UNL     1     -11.973  13.108  63.615  1.00  0.00    -0.580 A  
HETATM   13  C   UNL     1     -11.322  11.887  63.746  1.00  0.00    -0.532 A  
HETATM   14  C   UNL     1     -10.608  11.601  64.909  1.00  0.00    -0.349 A  
HETATM   15  C   UNL     1     -10.497  12.549  65.945  1.00  0.00    -0.289 A  
BRANCH  15  16
HETATM   16  C   UNL     1      -9.694  12.168  67.132  1.00  0.00    -0.199 C  
HETATM   17  O   UNL     1      -8.570  12.658  67.233  1.00  0.00    -0.180 OA 
BRANCH  16  18
HETATM   18  C   UNL     1     -10.222  11.297  68.242  1.00  0.00    -0.198 A  
HETATM   19  C   UNL     1     -11.513  11.580  68.709  1.00  0.00    -0.349 A  
HETATM   20  C   UNL     1     -12.077  10.869  69.786  1.00  0.00    -0.409 A  
HETATM   21  C   UNL     1     -11.378   9.859  70.456  1.00  0.00    -0.327 A  
HETATM   22  O   UNL     1      -8.256   9.929  68.492  1.00  0.00    -0.103 OA 
HETATM   23  C   UNL     1     -10.103   9.553  69.948  1.00  0.00    -0.262 A  
HETATM   24  H   UNL     1      -7.784   9.227  68.922  1.00  0.00     0.000 HD 
HETATM   25  C   UNL     1      -9.526  10.263  68.876  1.00  0.00    -0.188 A  
BRANCH  21  26
HETATM   26  N   UNL     1     -11.892   9.180  71.558  1.00  0.00    -0.331 NA 
BRANCH  26  27
HETATM   27  C   UNL     1     -13.173   9.624  72.132  1.00  0.00    -0.444 C  
HETATM   28  C   UNL     1     -14.230   8.538  71.994  1.00  0.00    -0.535 C  
ENDBRANCH  26  27
BRANCH  26  29
HETATM   29  C   UNL     1     -11.474   7.810  71.890  1.00  0.00    -0.275 C  
HETATM   30  C   UNL     1     -10.597   7.813  73.133  1.00  0.00    -0.415 C  
ENDBRANCH  26  29
ENDBRANCH  21  26
ENDBRANCH  16  18
ENDBRANCH  15  16
ENDBRANCH   8  10
ENDBRANCH   7   8
ENDBRANCH   6   7
ENDBRANCH   5   6
ENDBRANCH   4   5
ENDBRANCH   3   4
ENDBRANCH   2   3
TORSDOF 12
ENDMDL
MODEL       16
REMARK 921   NORMALIZED FREE ENERGY PREDICTED BY IDOCK:   -5.86 KCAL/MOL
REMARK 922        TOTAL FREE ENERGY PREDICTED BY IDOCK:  -11.93 KCAL/MOL
REMARK 923 INTER-LIGAND FREE ENERGY PREDICTED BY IDOCK:  -10.14 KCAL/MOL
REMARK 924 INTRA-LIGAND FREE ENERGY PREDICTED BY IDOCK:   -1.79 KCAL/MOL
REMARK 927      BINDING AFFINITY PREDICTED BY RF-SCORE:    0.00 PKD
ROOT
HETATM    1  C   UNL     1     -12.407  11.971  63.431  1.00  0.00    -0.635 C  
HETATM    2  C   UNL     1     -10.909  12.123  63.650  1.00  0.00    -0.523 C  
ENDROOT
BRANCH   2   3
HETATM    3  C   UNL     1     -10.612  12.943  64.905  1.00  0.00    -0.342 C  
BRANCH   3   4
HETATM    4  C   UNL     1     -11.568  14.134  65.051  1.00  0.00    -0.362 C  
BRANCH   4   5
HETATM    5  C   UNL     1     -10.791  15.452  65.043  1.00  0.00    -0.462 C  
BRANCH   5   6
HETATM    6  C   UNL     1      -9.699  15.529  66.105  1.00  0.00    -0.319 C  
BRANCH   6   7
HETATM    7  O   UNL     1     -10.167  15.633  67.451  1.00  0.00    -0.255 OA 
BRANCH   7   8
HETATM    8  C   UNL     1      -9.971  14.536  68.226  1.00  0.00    -0.229 C  
HETATM    9  O   UNL     1      -9.029  13.759  68.146  1.00  0.00    -0.178 OA 
BRANCH   8  10
HETATM   10  C   UNL     1     -10.879  14.602  69.407  1.00  0.00    -0.261 A  
HETATM   11  C   UNL     1     -10.864  15.840  70.085  1.00  0.00    -0.360 A  
HETATM   12  C   UNL     1     -11.707  16.082  71.170  1.00  0.00    -0.487 A  
HETATM   13  C   UNL     1     -12.547  15.073  71.626  1.00  0.00    -0.409 A  
HETATM   14  C   UNL     1     -12.568  13.839  70.977  1.00  0.00    -0.446 A  
HETATM   15  C   UNL     1     -11.780  13.607  69.833  1.00  0.00    -0.346 A  
BRANCH  15  16
HETATM   16  C   UNL     1     -11.889  12.274  69.191  1.00  0.00    -0.301 C  
HETATM   17  O   UNL     1     -12.221  12.243  68.007  1.00  0.00    -0.383 OA 
BRANCH  16  18
HETATM   18  C   UNL     1     -11.528  10.989  69.890  1.00  0.00    -0.400 A  
HETATM   19  C   UNL     1     -12.549  10.347  70.603  1.00  0.00    -0.435 A  
HETATM   20  C   UNL     1     -12.304   9.175  71.344  1.00  0.00    -0.404 A  
HETATM   21  C   UNL     1     -11.030   8.600  71.424  1.00  0.00    -0.271 A  
HETATM   22  O   UNL     1      -9.200  10.972  69.270  1.00  0.00    -0.389 OA 
HETATM   23  C   UNL     1     -10.025   9.227  70.667  1.00  0.00    -0.336 A  
HETATM   24  H   UNL     1      -8.338  10.575  69.296  1.00  0.00     0.000 HD 
HETATM   25  C   UNL     1     -10.258  10.405  69.928  1.00  0.00    -0.141 A  
BRANCH  21  26
HETATM   26  N   UNL     1     -10.750   7.474  72.194  1.00  0.00    -0.224 NA 
BRANCH  26  27
HETATM   27  C   UNL     1     -10.275   7.660  73.575  1.00  0.00    -0.272 C  
HETATM   28  C   UNL     1      -8.775   7.919  73.599  1.00  0.00    -0.329 C  
ENDBRANCH  26  27
BRANCH  26  29
HETATM   29  C   UNL     1     -11.314   6.156  71.875  1.00  0.00    -0.296 C  
HETATM   30  C   UNL     1     -10.899   5.729  70.476  1.00  0.00    -0.348 C  
ENDBRANCH  26  29
ENDBRANCH  21  26
ENDBRANCH  16  18
ENDBRANCH  15  16
ENDBRANCH   8  10
ENDBRANCH   7   8
ENDBRANCH   6   7
ENDBRANCH   5   6
ENDBRANCH   4   5
ENDBRANCH   3   4
ENDBRANCH   2   3
TORSDOF 12
ENDMDL
MODEL       17
REMARK 921   NORMALIZED FREE ENERGY PREDICTED BY IDOCK:   -5.85 KCAL/MOL
REMARK 922        TOTAL FREE ENERGY PREDICTED BY IDOCK:  -11.92 KCAL/MOL
REMARK 923 INTER-LIGAND FREE ENERGY PREDICTED BY IDOCK:   -9.16 KCAL/MOL
REMARK 924 INTRA-LIGAND FREE ENERGY PREDICTED BY IDOCK:   -2.76 KCAL/MOL
REMARK 927      BINDING AFFINITY PREDICTED BY RF-SCORE:    0.00 PKD
ROOT
HETATM    1  C   UNL     1      -9.950   9.884  66.281  1.00  0.00    -0.322 C  
HETATM    2  C   UNL     1      -9.531  11.340  66.150  1.00  0.00    -0.232 C  
ENDROOT
BRANCH   2   3
HETATM    3  C   UNL     1      -8.905  11.857  67.444  1.00  0.00    -0.171 C  
BRANCH   3   4
HETATM    4  C   UNL     1      -8.256  13.235  67.257  1.00  0.00    -0.164 C  
BRANCH   4   5
HETATM    5  C   UNL     1      -7.943  13.871  68.613  1.00  0.00    -0.109 C  
BRANCH   5   6
HETATM    6  C   UNL     1      -6.935  15.012  68.538  1.00  0.00    -0.106 C  
BRANCH   6   7
HETATM    7  O   UNL     1      -7.502  16.324  68.509  1.00  0.00    -0.159 OA 
BRANCH   7   8
HETATM    8  C   UNL     1      -7.392  16.984  67.328  1.00  0.00    -0.161 C  
HETATM    9  O   UNL     1      -6.778  16.597  66.343  1.00  0.00    -0.201 OA 
BRANCH   8  10
HETATM   10  C   UNL     1      -8.403  18.080  67.286  1.00  0.00    -0.234 A  
HETATM   11  C   UNL     1      -7.888  19.360  67.583  1.00  0.00    -0.309 A  
HETATM   12  C   UNL     1      -8.694  20.497  67.520  1.00  0.00    -0.331 A  
HETATM   13  C   UNL     1     -10.041  20.368  67.205  1.00  0.00    -0.502 A  
HETATM   14  C   UNL     1     -10.572  19.110  66.921  1.00  0.00    -0.540 A  
HETATM   15  C   UNL     1      -9.753  17.965  66.903  1.00  0.00    -0.309 A  
BRANCH  15  16
HETATM   16  C   UNL     1     -10.399  16.673  66.561  1.00  0.00    -0.299 C  
HETATM   17  O   UNL     1     -10.330  16.300  65.391  1.00  0.00    -0.499 OA 
BRANCH  16  18
HETATM   18  C   UNL     1     -11.041  15.775  67.585  1.00  0.00    -0.283 A  
HETATM   19  C   UNL     1     -11.027  16.217  68.915  1.00  0.00    -0.334 A  
HETATM   20  C   UNL     1     -11.543  15.426  69.959  1.00  0.00    -0.343 A  
HETATM   21  C   UNL     1     -12.079  14.154  69.731  1.00  0.00    -0.354 A  
HETATM   22  O   UNL     1     -11.655  14.007  66.069  1.00  0.00    -0.335 OA 
HETATM   23  C   UNL     1     -12.130  13.741  68.388  1.00  0.00    -0.324 A  
HETATM   24  H   UNL     1     -12.041  13.156  65.900  1.00  0.00     0.000 HD 
HETATM   25  C   UNL     1     -11.610  14.522  67.336  1.00  0.00    -0.385 A  
BRANCH  21  26
HETATM   26  N   UNL     1     -12.544  13.329  70.752  1.00  0.00    -0.315 NA 
BRANCH  26  27
HETATM   27  C   UNL     1     -12.238  11.890  70.697  1.00  0.00    -0.331 C  
HETATM   28  C   UNL     1     -13.035  11.129  71.747  1.00  0.00    -0.526 C  
ENDBRANCH  26  27
BRANCH  26  29
HETATM   29  C   UNL     1     -12.918  13.861  72.070  1.00  0.00    -0.349 C  
HETATM   30  C   UNL     1     -14.325  14.437  72.026  1.00  0.00    -0.636 C  
ENDBRANCH  26  29
ENDBRANCH  21  26
ENDBRANCH  16  18
ENDBRANCH  15  16
ENDBRANCH   8  10
ENDBRANCH   7   8
ENDBRANCH   6   7
ENDBRANCH   5   6
ENDBRANCH   4   5
ENDBRANCH   3   4
ENDBRANCH   2   3
TORSDOF 12
ENDMDL
MODEL       18
REMARK 921   NORMALIZED FREE ENERGY PREDICTED BY IDOCK:   -5.84 KCAL/MOL
REMARK 922        TOTAL FREE ENERGY PREDICTED BY IDOCK:  -11.90 KCAL/MOL
REMARK 923 INTER-LIGAND FREE ENERGY PREDICTED BY IDOCK:   -9.89 KCAL/MOL
REMARK 924 INTRA-LIGAND FREE ENERGY PREDICTED BY IDOCK:   -2.01 KCAL/MOL
REMARK 927      BINDING AFFINITY PREDICTED BY RF-SCORE:    0.00 PKD
ROOT
HETATM    1  C   UNL     1     -14.397   7.797  71.699  1.00  0.00    -0.607 C  
HETATM    2  C   UNL     1     -13.567   8.852  72.414  1.00  0.00    -0.500 C  
ENDROOT
BRANCH   2   3
HETATM    3  C   UNL     1     -12.071   8.581  72.260  1.00  0.00    -0.455 C  
BRANCH   3   4
HETATM    4  C   UNL     1     -11.700   8.224  70.815  1.00  0.00    -0.213 C  
BRANCH   4   5
HETATM    5  C   UNL     1     -10.251   8.616  70.519  1.00  0.00    -0.229 C  
BRANCH   5   6
HETATM    6  C   UNL     1     -10.116   9.784  69.547  1.00  0.00    -0.217 C  
BRANCH   6   7
HETATM    7  O   UNL     1     -10.600  11.037  70.033  1.00  0.00    -0.047 OA 
BRANCH   7   8
HETATM    8  C   UNL     1     -11.658  11.558  69.360  1.00  0.00    -0.321 C  
HETATM    9  O   UNL     1     -12.204  11.060  68.385  1.00  0.00    -0.586 OA 
BRANCH   8  10
HETATM   10  C   UNL     1     -12.273  12.641  70.180  1.00  0.00    -0.310 A  
HETATM   11  C   UNL     1     -12.858  12.198  71.386  1.00  0.00    -0.378 A  
HETATM   12  C   UNL     1     -13.416  13.099  72.294  1.00  0.00    -0.665 A  
HETATM   13  C   UNL     1     -13.442  14.454  71.989  1.00  0.00    -0.490 A  
HETATM   14  C   UNL     1     -12.881  14.910  70.797  1.00  0.00    -0.428 A  
HETATM   15  C   UNL     1     -12.244  14.022  69.909  1.00  0.00    -0.399 A  
BRANCH  15  16
HETATM   16  C   UNL     1     -11.649  14.601  68.679  1.00  0.00    -0.314 C  
HETATM   17  O   UNL     1     -12.225  14.379  67.615  1.00  0.00    -0.328 OA 
BRANCH  16  18
HETATM   18  C   UNL     1     -10.445  15.507  68.691  1.00  0.00    -0.237 A  
HETATM   19  C   UNL     1     -10.681  16.876  68.510  1.00  0.00    -0.359 A  
HETATM   20  C   UNL     1      -9.622  17.802  68.441  1.00  0.00    -0.323 A  
HETATM   21  C   UNL     1      -8.283  17.406  68.531  1.00  0.00    -0.268 A  
HETATM   22  O   UNL     1      -8.793  13.780  68.990  1.00  0.00    -0.376 OA 
HETATM   23  C   UNL     1      -8.061  16.036  68.759  1.00  0.00    -0.212 A  
HETATM   24  H   UNL     1      -7.888  13.505  69.080  1.00  0.00     0.000 HD 
HETATM   25  C   UNL     1      -9.114  15.100  68.823  1.00  0.00    -0.200 A  
BRANCH  21  26
HETATM   26  N   UNL     1      -7.216  18.293  68.410  1.00  0.00    -0.258 NA 
BRANCH  26  27
HETATM   27  C   UNL     1      -6.177  18.020  67.403  1.00  0.00    -0.159 C  
HETATM   28  C   UNL     1      -6.641  18.453  66.019  1.00  0.00    -0.287 C  
ENDBRANCH  26  27
BRANCH  26  29
HETATM   29  C   UNL     1      -7.300  19.678  68.895  1.00  0.00    -0.338 C  
HETATM   30  C   UNL     1      -6.212  19.942  69.925  1.00  0.00    -0.388 C  
ENDBRANCH  26  29
ENDBRANCH  21  26
ENDBRANCH  16  18
ENDBRANCH  15  16
ENDBRANCH   8  10
ENDBRANCH   7   8
ENDBRANCH   6   7
ENDBRANCH   5   6
ENDBRANCH   4   5
ENDBRANCH   3   4
ENDBRANCH   2   3
TORSDOF 12
ENDMDL
MODEL       19
REMARK 921   NORMALIZED FREE ENERGY PREDICTED BY IDOCK:   -5.84 KCAL/MOL
REMARK 922        TOTAL FREE ENERGY PREDICTED BY IDOCK:  -11.90 KCAL/MOL
REMARK 923 INTER-LIGAND FREE ENERGY PREDICTED BY IDOCK:   -9.75 KCAL/MOL
REMARK 924 INTRA-LIGAND FREE ENERGY PREDICTED BY IDOCK:   -2.15 KCAL/MOL
REMARK 927      BINDING AFFINITY PREDICTED BY RF-SCORE:    0.00 PKD
ROOT
HETATM    1  C   UNL     1     -11.215  13.020  64.228  1.00  0.00    -0.411 C  
HETATM    2  C   UNL     1     -12.123  13.054  65.449  1.00  0.00    -0.490 C  
ENDROOT
BRANCH   2   3
HETATM    3  C   UNL     1     -11.599  12.140  66.556  1.00  0.00    -0.425 C  
BRANCH   3   4
HETATM    4  C   UNL     1     -10.541  11.159  66.038  1.00  0.00    -0.298 C  
BRANCH   4   5
HETATM    5  C   UNL     1     -10.028  10.271  67.173  1.00  0.00    -0.243 C  
BRANCH   5   6
HETATM    6  C   UNL     1     -10.351   8.792  66.991  1.00  0.00    -0.283 C  
BRANCH   6   7
HETATM    7  O   UNL     1      -9.693   7.909  67.901  1.00  0.00    -0.147 OA 
BRANCH   7   8
HETATM    8  C   UNL     1     -10.507   7.080  68.604  1.00  0.00    -0.204 C  
HETATM    9  O   UNL     1     -11.335   6.314  68.131  1.00  0.00    -0.278 OA 
BRANCH   8  10
HETATM   10  C   UNL     1     -10.012   6.984  70.008  1.00  0.00    -0.188 A  
HETATM   11  C   UNL     1      -8.690   6.506  70.129  1.00  0.00    -0.140 A  
HETATM   12  C   UNL     1      -8.060   6.423  71.371  1.00  0.00    -0.113 A  
HETATM   13  C   UNL     1      -8.760   6.770  72.521  1.00  0.00    -0.129 A  
HETATM   14  C   UNL     1     -10.072   7.233  72.424  1.00  0.00    -0.218 A  
HETATM   15  C   UNL     1     -10.692   7.397  71.170  1.00  0.00    -0.246 A  
BRANCH  15  16
HETATM   16  C   UNL     1     -12.079   7.923  71.162  1.00  0.00    -0.276 C  
HETATM   17  O   UNL     1     -12.994   7.101  71.195  1.00  0.00    -0.366 OA 
BRANCH  16  18
HETATM   18  C   UNL     1     -12.406   9.393  71.208  1.00  0.00    -0.422 A  
HETATM   19  C   UNL     1     -11.700  10.226  70.330  1.00  0.00    -0.404 A  
HETATM   20  C   UNL     1     -11.882  11.622  70.335  1.00  0.00    -0.385 A  
HETATM   21  C   UNL     1     -12.760  12.253  71.224  1.00  0.00    -0.251 A  
HETATM   22  O   UNL     1     -14.039   9.267  72.973  1.00  0.00    -1.016 OA 
HETATM   23  C   UNL     1     -13.496  11.403  72.067  1.00  0.00    -0.289 A  
HETATM   24  H   UNL     1     -14.658   9.683  73.562  1.00  0.00     0.000 HD 
HETATM   25  C   UNL     1     -13.317  10.005  72.075  1.00  0.00    -0.409 A  
BRANCH  21  26
HETATM   26  N   UNL     1     -12.916  13.636  71.288  1.00  0.00    -0.339 NA 
BRANCH  26  27
HETATM   27  C   UNL     1     -12.499  14.451  70.135  1.00  0.00    -0.339 C  
HETATM   28  C   UNL     1     -11.186  15.164  70.426  1.00  0.00    -0.310 C  
ENDBRANCH  26  27
BRANCH  26  29
HETATM   29  C   UNL     1     -13.860  14.268  72.220  1.00  0.00    -0.524 C  
HETATM   30  C   UNL     1     -13.105  15.043  73.289  1.00  0.00    -0.607 C  
ENDBRANCH  26  29
ENDBRANCH  21  26
ENDBRANCH  16  18
ENDBRANCH  15  16
ENDBRANCH   8  10
ENDBRANCH   7   8
ENDBRANCH   6   7
ENDBRANCH   5   6
ENDBRANCH   4   5
ENDBRANCH   3   4
ENDBRANCH   2   3
TORSDOF 12
ENDMDL
MODEL       20
REMARK 921   NORMALIZED FREE ENERGY PREDICTED BY IDOCK:   -5.84 KCAL/MOL
REMARK 922        TOTAL FREE ENERGY PREDICTED BY IDOCK:  -11.90 KCAL/MOL
REMARK 923 INTER-LIGAND FREE ENERGY PREDICTED BY IDOCK:   -9.74 KCAL/MOL
REMARK 924 INTRA-LIGAND FREE ENERGY PREDICTED BY IDOCK:   -2.16 KCAL/MOL
REMARK 927      BINDING AFFINITY PREDICTED BY RF-SCORE:    0.00 PKD
ROOT
HETATM    1  C   UNL     1     -11.052   6.072  69.582  1.00  0.00    -0.474 C  
HETATM    2  C   UNL     1     -11.300   6.259  71.072  1.00  0.00    -0.378 C  
ENDROOT
BRANCH   2   3
HETATM    3  C   UNL     1     -12.534   7.125  71.325  1.00  0.00    -0.425 C  
BRANCH   3   4
HETATM    4  C   UNL     1     -12.188   8.401  72.102  1.00  0.00    -0.434 C  
BRANCH   4   5
HETATM    5  C   UNL     1     -13.392   9.344  72.151  1.00  0.00    -0.545 C  
BRANCH   5   6
HETATM    6  C   UNL     1     -13.131  10.707  71.520  1.00  0.00    -0.424 C  
BRANCH   6   7
HETATM    7  O   UNL     1     -12.849  10.684  70.119  1.00  0.00    -0.276 OA 
BRANCH   7   8
HETATM    8  C   UNL     1     -11.994  11.643  69.678  1.00  0.00    -0.324 C  
HETATM    9  O   UNL     1     -11.810  12.735  70.197  1.00  0.00    -0.319 OA 
BRANCH   8  10
HETATM   10  C   UNL     1     -11.065  11.045  68.676  1.00  0.00    -0.294 A  
HETATM   11  C   UNL     1     -10.437   9.855  69.100  1.00  0.00    -0.235 A  
HETATM   12  C   UNL     1      -9.591   9.140  68.251  1.00  0.00    -0.161 A  
HETATM   13  C   UNL     1      -9.320   9.629  66.979  1.00  0.00    -0.180 A  
HETATM   14  C   UNL     1      -9.921  10.811  66.546  1.00  0.00    -0.260 A  
HETATM   15  C   UNL     1     -10.838  11.500  67.362  1.00  0.00    -0.294 A  
BRANCH  15  16
HETATM   16  C   UNL     1     -11.450  12.732  66.807  1.00  0.00    -0.343 C  
HETATM   17  O   UNL     1     -12.547  12.620  66.260  1.00  0.00    -0.358 OA 
BRANCH  16  18
HETATM   18  C   UNL     1     -10.840  14.100  66.964  1.00  0.00    -0.295 A  
HETATM   19  C   UNL     1      -9.694  14.374  66.205  1.00  0.00    -0.330 A  
HETATM   20  C   UNL     1      -9.008  15.597  66.324  1.00  0.00    -0.377 A  
HETATM   21  C   UNL     1      -9.420  16.596  67.213  1.00  0.00    -0.232 A  
HETATM   22  O   UNL     1     -12.391  14.917  68.614  1.00  0.00    -0.585 OA 
HETATM   23  C   UNL     1     -10.597  16.329  67.934  1.00  0.00    -0.318 A  
HETATM   24  H   UNL     1     -12.695  15.600  69.201  1.00  0.00     0.000 HD 
HETATM   25  C   UNL     1     -11.287  15.105  67.828  1.00  0.00    -0.328 A  
BRANCH  21  26
HETATM   26  N   UNL     1      -8.728  17.792  67.390  1.00  0.00    -0.233 NA 
BRANCH  26  27
HETATM   27  C   UNL     1      -8.418  18.613  66.208  1.00  0.00    -0.224 C  
HETATM   28  C   UNL     1      -6.929  18.562  65.892  1.00  0.00    -0.308 C  
ENDBRANCH  26  27
BRANCH  26  29
HETATM   29  C   UNL     1      -8.689  18.482  68.687  1.00  0.00    -0.298 C  
HETATM   30  C   UNL     1      -9.724  19.596  68.722  1.00  0.00    -0.488 C  
ENDBRANCH  26  29
ENDBRANCH  21  26
ENDBRANCH  16  18
ENDBRANCH  15  16
ENDBRANCH   8  10
ENDBRANCH   7   8
ENDBRANCH   6   7
ENDBRANCH   5   6
ENDBRANCH   4   5
ENDBRANCH   3   4
ENDBRANCH   2   3
TORSDOF 12
ENDMDL
MODEL       21
REMARK 921   NORMALIZED FREE ENERGY PREDICTED BY IDOCK:   -5.80 KCAL/MOL
REMARK 922        TOTAL FREE ENERGY PREDICTED BY IDOCK:  -11.83 KCAL/MOL
REMARK 923 INTER-LIGAND FREE ENERGY PREDICTED BY IDOCK:   -9.51 KCAL/MOL
REMARK 924 INTRA-LIGAND FREE ENERGY PREDICTED BY IDOCK:   -2.32 KCAL/MOL
REMARK 927      BINDING AFFINITY PREDICTED BY RF-SCORE:    0.00 PKD
ROOT
HETATM    1  C   UNL     1     -10.827   5.978  70.664  1.00  0.00    -0.364 C  
HETATM    2  C   UNL     1     -11.405   6.345  69.305  1.00  0.00    -0.405 C  
ENDROOT
BRANCH   2   3
HETATM    3  C   UNL     1     -10.436   5.997  68.176  1.00  0.00    -0.292 C  
BRANCH   3   4
HETATM    4  C   UNL     1     -10.547   6.979  67.003  1.00  0.00    -0.412 C  
BRANCH   4   5
HETATM    5  C   UNL     1      -9.158   7.437  66.552  1.00  0.00    -0.195 C  
BRANCH   5   6
HETATM    6  C   UNL     1      -9.184   8.617  65.586  1.00  0.00    -0.139 C  
BRANCH   6   7
HETATM    7  O   UNL     1      -9.965   9.735  66.013  1.00  0.00    -0.256 OA 
BRANCH   7   8
HETATM    8  C   UNL     1      -9.381  10.540  66.936  1.00  0.00    -0.159 C  
HETATM    9  O   UNL     1      -8.362  11.197  66.774  1.00  0.00    -0.140 OA 
BRANCH   8  10
HETATM   10  C   UNL     1     -10.338  10.776  68.055  1.00  0.00    -0.211 A  
HETATM   11  C   UNL     1     -10.159   9.925  69.166  1.00  0.00    -0.210 A  
HETATM   12  C   UNL     1     -10.933  10.065  70.319  1.00  0.00    -0.377 A  
HETATM   13  C   UNL     1     -11.933  11.028  70.361  1.00  0.00    -0.459 A  
HETATM   14  C   UNL     1     -12.135  11.871  69.269  1.00  0.00    -0.270 A  
HETATM   15  C   UNL     1     -11.310  11.793  68.131  1.00  0.00    -0.348 A  
BRANCH  15  16
HETATM   16  C   UNL     1     -11.580  12.749  67.029  1.00  0.00    -0.360 C  
HETATM   17  O   UNL     1     -12.391  12.406  66.170  1.00  0.00    -0.606 OA 
BRANCH  16  18
HETATM   18  C   UNL     1     -10.983  14.131  66.970  1.00  0.00    -0.303 A  
HETATM   19  C   UNL     1     -11.224  14.973  68.064  1.00  0.00    -0.324 A  
HETATM   20  C   UNL     1     -10.767  16.304  68.083  1.00  0.00    -0.322 A  
HETATM   21  C   UNL     1     -10.066  16.864  67.008  1.00  0.00    -0.289 A  
HETATM   22  O   UNL     1      -9.979  13.916  64.792  1.00  0.00    -0.609 OA 
HETATM   23  C   UNL     1      -9.791  15.996  65.937  1.00  0.00    -0.380 A  
HETATM   24  H   UNL     1      -9.481  14.278  64.069  1.00  0.00     0.000 HD 
HETATM   25  C   UNL     1     -10.250  14.664  65.905  1.00  0.00    -0.326 A  
BRANCH  21  26
HETATM   26  N   UNL     1      -9.653  18.193  66.978  1.00  0.00    -0.278 NA 
BRANCH  26  27
HETATM   27  C   UNL     1     -10.670  19.254  67.050  1.00  0.00    -0.464 C  
HETATM   28  C   UNL     1     -10.747  20.017  65.735  1.00  0.00    -0.357 C  
ENDBRANCH  26  27
BRANCH  26  29
HETATM   29  C   UNL     1      -8.280  18.587  67.327  1.00  0.00    -0.249 C  
HETATM   30  C   UNL     1      -8.262  19.299  68.671  1.00  0.00    -0.408 C  
ENDBRANCH  26  29
ENDBRANCH  21  26
ENDBRANCH  16  18
ENDBRANCH  15  16
ENDBRANCH   8  10
ENDBRANCH   7   8
ENDBRANCH   6   7
ENDBRANCH   5   6
ENDBRANCH   4   5
ENDBRANCH   3   4
ENDBRANCH   2   3
TORSDOF 12
ENDMDL
MODEL       22
REMARK 921   NORMALIZED FREE ENERGY PREDICTED BY IDOCK:   -5.76 KCAL/MOL
REMARK 922        TOTAL FREE ENERGY PREDICTED BY IDOCK:  -11.77 KCAL/MOL
REMARK 923 INTER-LIGAND FREE ENERGY PREDICTED BY IDOCK:   -9.71 KCAL/MOL
REMARK 924 INTRA-LIGAND FREE ENERGY PREDICTED BY IDOCK:   -2.06 KCAL/MOL
REMARK 927      BINDING AFFINITY PREDICTED BY RF-SCORE:    0.00 PKD
ROOT
HETATM    1  C   UNL     1      -6.950  10.038  67.458  1.00  0.00    -0.086 C  
HETATM    2  C   UNL     1      -7.495   8.743  68.040  1.00  0.00    -0.093 C  
ENDROOT
BRANCH   2   3
HETATM    3  C   UNL     1      -8.299   9.001  69.314  1.00  0.00    -0.122 C  
BRANCH   3   4
HETATM    4  C   UNL     1      -9.692   8.361  69.253  1.00  0.00    -0.177 C  
BRANCH   4   5
HETATM    5  C   UNL     1     -10.769   9.433  69.077  1.00  0.00    -0.209 C  
BRANCH   5   6
HETATM    6  C   UNL     1     -10.252  10.858  69.250  1.00  0.00    -0.166 C  
BRANCH   6   7
HETATM    7  O   UNL     1     -10.049  11.582  68.035  1.00  0.00    -0.177 OA 
BRANCH   7   8
HETATM    8  C   UNL     1     -11.072  11.530  67.144  1.00  0.00    -0.297 C  
HETATM    9  O   UNL     1     -12.228  11.870  67.356  1.00  0.00    -0.502 OA 
BRANCH   8  10
HETATM   10  C   UNL     1     -10.517  11.325  65.775  1.00  0.00    -0.310 A  
HETATM   11  C   UNL     1      -9.857  10.091  65.592  1.00  0.00    -0.363 A  
HETATM   12  C   UNL     1      -9.342   9.722  64.349  1.00  0.00    -0.278 A  
HETATM   13  C   UNL     1      -9.435  10.603  63.278  1.00  0.00    -0.360 A  
HETATM   14  C   UNL     1     -10.073  11.832  63.441  1.00  0.00    -0.470 A  
HETATM   15  C   UNL     1     -10.667  12.184  64.668  1.00  0.00    -0.346 A  
BRANCH  15  16
HETATM   16  C   UNL     1     -11.349  13.499  64.741  1.00  0.00    -0.347 C  
HETATM   17  O   UNL     1     -12.540  13.535  64.433  1.00  0.00    -0.618 OA 
BRANCH  16  18
HETATM   18  C   UNL     1     -10.682  14.748  65.255  1.00  0.00    -0.406 A  
HETATM   19  C   UNL     1      -9.704  14.583  66.245  1.00  0.00    -0.330 A  
HETATM   20  C   UNL     1      -9.065  15.687  66.840  1.00  0.00    -0.260 A  
HETATM   21  C   UNL     1      -9.381  17.005  66.489  1.00  0.00    -0.269 A  
HETATM   22  O   UNL     1     -11.930  16.311  63.914  1.00  0.00    -1.357 OA 
HETATM   23  C   UNL     1     -10.329  17.156  65.462  1.00  0.00    -0.132 A  
HETATM   24  H   UNL     1     -12.132  17.200  63.649  1.00  0.00     0.000 HD 
HETATM   25  C   UNL     1     -10.980  16.057  64.865  1.00  0.00    -0.384 A  
BRANCH  21  26
HETATM   26  N   UNL     1      -8.804  18.115  67.100  1.00  0.00    -0.254 NA 
BRANCH  26  27
HETATM   27  C   UNL     1      -7.933  17.908  68.269  1.00  0.00    -0.291 C  
HETATM   28  C   UNL     1      -6.471  18.110  67.894  1.00  0.00    -0.187 C  
ENDBRANCH  26  27
BRANCH  26  29
HETATM   29  C   UNL     1      -8.651  19.397  66.397  1.00  0.00    -0.354 C  
HETATM   30  C   UNL     1      -9.671  20.403  66.909  1.00  0.00    -0.567 C  
ENDBRANCH  26  29
ENDBRANCH  21  26
ENDBRANCH  16  18
ENDBRANCH  15  16
ENDBRANCH   8  10
ENDBRANCH   7   8
ENDBRANCH   6   7
ENDBRANCH   5   6
ENDBRANCH   4   5
ENDBRANCH   3   4
ENDBRANCH   2   3
TORSDOF 12
ENDMDL
MODEL       23
REMARK 921   NORMALIZED FREE ENERGY PREDICTED BY IDOCK:   -5.75 KCAL/MOL
REMARK 922        TOTAL FREE ENERGY PREDICTED BY IDOCK:  -11.75 KCAL/MOL
REMARK 923 INTER-LIGAND FREE ENERGY PREDICTED BY IDOCK:   -9.69 KCAL/MOL
REMARK 924 INTRA-LIGAND FREE ENERGY PREDICTED BY IDOCK:   -2.06 KCAL/MOL
REMARK 927      BINDING AFFINITY PREDICTED BY RF-SCORE:    0.00 PKD
ROOT
HETATM    1  C   UNL     1     -12.869  15.724  73.540  1.00  0.00    -0.702 C  
HETATM    2  C   UNL     1     -13.321  15.106  72.225  1.00  0.00    -0.507 C  
ENDROOT
BRANCH   2   3
HETATM    3  C   UNL     1     -13.746  13.650  72.412  1.00  0.00    -0.697 C  
BRANCH   3   4
HETATM    4  C   UNL     1     -12.988  12.706  71.470  1.00  0.00    -0.380 C  
BRANCH   4   5
HETATM    5  C   UNL     1     -13.168  11.251  71.907  1.00  0.00    -0.491 C  
BRANCH   5   6
HETATM    6  C   UNL     1     -12.971  10.242  70.780  1.00  0.00    -0.330 C  
BRANCH   6   7
HETATM    7  O   UNL     1     -12.600   8.928  71.199  1.00  0.00    -0.279 OA 
BRANCH   7   8
HETATM    8  C   UNL     1     -11.266   8.685  71.256  1.00  0.00    -0.276 C  
HETATM    9  O   UNL     1     -10.567   8.747  72.258  1.00  0.00    -0.337 OA 
BRANCH   8  10
HETATM   10  C   UNL     1     -10.839   8.003  70.000  1.00  0.00    -0.235 A  
HETATM   11  C   UNL     1     -11.393   6.719  69.817  1.00  0.00    -0.350 A  
HETATM   12  C   UNL     1     -11.143   5.980  68.660  1.00  0.00    -0.293 A  
HETATM   13  C   UNL     1     -10.294   6.494  67.687  1.00  0.00    -0.239 A  
HETATM   14  C   UNL     1      -9.726   7.756  67.855  1.00  0.00    -0.181 A  
HETATM   15  C   UNL     1     -10.032   8.545  68.981  1.00  0.00    -0.197 A  
BRANCH  15  16
HETATM   16  C   UNL     1      -9.404   9.887  69.061  1.00  0.00    -0.174 C  
HETATM   17  O   UNL     1      -8.461  10.022  69.839  1.00  0.00    -0.189 OA 
BRANCH  16  18
HETATM   18  C   UNL     1      -9.806  11.042  68.181  1.00  0.00    -0.185 A  
HETATM   19  C   UNL     1     -11.165  11.382  68.164  1.00  0.00    -0.343 A  
HETATM   20  C   UNL     1     -11.658  12.402  67.328  1.00  0.00    -0.435 A  
HETATM   21  C   UNL     1     -10.824  13.118  66.461  1.00  0.00    -0.280 A  
HETATM   22  O   UNL     1      -7.615  11.501  67.295  1.00  0.00    -0.126 OA 
HETATM   23  C   UNL     1      -9.457  12.799  66.521  1.00  0.00    -0.253 A  
HETATM   24  H   UNL     1      -7.037  11.999  66.729  1.00  0.00     0.000 HD 
HETATM   25  C   UNL     1      -8.955  11.775  67.349  1.00  0.00    -0.173 A  
BRANCH  21  26
HETATM   26  N   UNL     1     -11.295  14.092  65.584  1.00  0.00    -0.313 NA 
BRANCH  26  27
HETATM   27  C   UNL     1     -10.382  15.168  65.163  1.00  0.00    -0.385 C  
HETATM   28  C   UNL     1     -10.380  16.302  66.178  1.00  0.00    -0.352 C  
ENDBRANCH  26  27
BRANCH  26  29
HETATM   29  C   UNL     1     -12.467  13.865  64.727  1.00  0.00    -0.354 C  
HETATM   30  C   UNL     1     -12.105  12.940  63.574  1.00  0.00    -0.633 C  
ENDBRANCH  26  29
ENDBRANCH  21  26
ENDBRANCH  16  18
ENDBRANCH  15  16
ENDBRANCH   8  10
ENDBRANCH   7   8
ENDBRANCH   6   7
ENDBRANCH   5   6
ENDBRANCH   4   5
ENDBRANCH   3   4
ENDBRANCH   2   3
TORSDOF 12
ENDMDL
MODEL       24
REMARK 921   NORMALIZED FREE ENERGY PREDICTED BY IDOCK:   -5.72 KCAL/MOL
REMARK 922        TOTAL FREE ENERGY PREDICTED BY IDOCK:  -11.70 KCAL/MOL
REMARK 923 INTER-LIGAND FREE ENERGY PREDICTED BY IDOCK:  -10.49 KCAL/MOL
REMARK 924 INTRA-LIGAND FREE ENERGY PREDICTED BY IDOCK:   -1.21 KCAL/MOL
REMARK 927      BINDING AFFINITY PREDICTED BY RF-SCORE:    0.00 PKD
ROOT
HETATM    1  C   UNL     1      -6.703  17.694  69.069  1.00  0.00    -0.250 C  
HETATM    2  C   UNL     1      -7.006  19.112  68.608  1.00  0.00    -0.336 C  
ENDROOT
BRANCH   2   3
HETATM    3  C   UNL     1      -8.150  19.135  67.596  1.00  0.00    -0.299 C  
BRANCH   3   4
HETATM    4  C   UNL     1      -9.521  19.197  68.281  1.00  0.00    -0.408 C  
BRANCH   4   5
HETATM    5  C   UNL     1     -10.560  18.409  67.480  1.00  0.00    -0.447 C  
BRANCH   5   6
HETATM    6  C   UNL     1     -10.845  17.020  68.043  1.00  0.00    -0.330 C  
BRANCH   6   7
HETATM    7  O   UNL     1     -10.753  16.909  69.464  1.00  0.00    -0.326 OA 
BRANCH   7   8
HETATM    8  C   UNL     1     -10.453  15.673  69.937  1.00  0.00    -0.320 C  
HETATM    9  O   UNL     1      -9.380  15.097  69.813  1.00  0.00    -0.157 OA 
BRANCH   8  10
HETATM   10  C   UNL     1     -11.495  15.259  70.921  1.00  0.00    -0.377 A  
HETATM   11  C   UNL     1     -11.738  16.201  71.943  1.00  0.00    -0.575 A  
HETATM   12  C   UNL     1     -12.731  15.991  72.901  1.00  0.00    -0.563 A  
HETATM   13  C   UNL     1     -13.465  14.811  72.882  1.00  0.00    -0.541 A  
HETATM   14  C   UNL     1     -13.231  13.862  71.887  1.00  0.00    -0.480 A  
HETATM   15  C   UNL     1     -12.288  14.096  70.868  1.00  0.00    -0.438 A  
BRANCH  15  16
HETATM   16  C   UNL     1     -12.127  13.044  69.836  1.00  0.00    -0.277 C  
HETATM   17  O   UNL     1     -12.190  13.394  68.658  1.00  0.00    -0.298 OA 
BRANCH  16  18
HETATM   18  C   UNL     1     -11.803  11.609  70.162  1.00  0.00    -0.428 A  
HETATM   19  C   UNL     1     -12.741  10.907  70.931  1.00  0.00    -0.464 A  
HETATM   20  C   UNL     1     -12.509   9.582  71.346  1.00  0.00    -0.450 A  
HETATM   21  C   UNL     1     -11.326   8.902  71.031  1.00  0.00    -0.291 A  
HETATM   22  O   UNL     1      -9.659  11.543  69.067  1.00  0.00    -0.397 OA 
HETATM   23  C   UNL     1     -10.414   9.601  70.221  1.00  0.00    -0.338 A  
HETATM   24  H   UNL     1      -8.866  11.082  68.825  1.00  0.00     0.000 HD 
HETATM   25  C   UNL     1     -10.634  10.929  69.806  1.00  0.00    -0.074 A  
BRANCH  21  26
HETATM   26  N   UNL     1     -11.048   7.612  71.476  1.00  0.00    -0.234 NA 
BRANCH  26  27
HETATM   27  C   UNL     1     -11.692   6.474  70.801  1.00  0.00    -0.366 C  
HETATM   28  C   UNL     1     -10.922   6.085  69.547  1.00  0.00    -0.467 C  
ENDBRANCH  26  27
BRANCH  26  29
HETATM   29  C   UNL     1      -9.840   7.305  72.255  1.00  0.00    -0.154 C  
HETATM   30  C   UNL     1     -10.199   7.079  73.716  1.00  0.00    -0.401 C  
ENDBRANCH  26  29
ENDBRANCH  21  26
ENDBRANCH  16  18
ENDBRANCH  15  16
ENDBRANCH   8  10
ENDBRANCH   7   8
ENDBRANCH   6   7
ENDBRANCH   5   6
ENDBRANCH   4   5
ENDBRANCH   3   4
ENDBRANCH   2   3
TORSDOF 12
ENDMDL
MODEL       25
REMARK 921   NORMALIZED FREE ENERGY PREDICTED BY IDOCK:   -5.70 KCAL/MOL
REMARK 922        TOTAL FREE ENERGY PREDICTED BY IDOCK:  -11.67 KCAL/MOL
REMARK 923 INTER-LIGAND FREE ENERGY PREDICTED BY IDOCK:   -9.31 KCAL/MOL
REMARK 924 INTRA-LIGAND FREE ENERGY PREDICTED BY IDOCK:   -2.35 KCAL/MOL
REMARK 927      BINDING AFFINITY PREDICTED BY RF-SCORE:    0.00 PKD
ROOT
HETATM    1  C   UNL     1      -5.948  11.578  66.687  1.00  0.00    -0.135 C  
HETATM    2  C   UNL     1      -5.524  11.633  68.148  1.00  0.00    -0.043 C  
ENDROOT
BRANCH   2   3
HETATM    3  C   UNL     1      -6.691  11.308  69.078  1.00  0.00    -0.089 C  
BRANCH   3   4
HETATM    4  C   UNL     1      -6.958   9.799  69.157  1.00  0.00    -0.055 C  
BRANCH   4   5
HETATM    5  C   UNL     1      -8.340   9.466  68.592  1.00  0.00    -0.117 C  
BRANCH   5   6
HETATM    6  C   UNL     1      -9.424  10.461  68.992  1.00  0.00    -0.197 C  
BRANCH   6   7
HETATM    7  O   UNL     1      -9.776  11.413  67.987  1.00  0.00    -0.174 OA 
BRANCH   7   8
HETATM    8  C   UNL     1     -10.889  11.120  67.266  1.00  0.00    -0.274 C  
HETATM    9  O   UNL     1     -12.032  11.074  67.698  1.00  0.00    -0.583 OA 
BRANCH   8  10
HETATM   10  C   UNL     1     -10.564  11.199  65.813  1.00  0.00    -0.289 A  
HETATM   11  C   UNL     1      -9.790  10.122  65.329  1.00  0.00    -0.388 A  
HETATM   12  C   UNL     1      -9.460  10.017  63.978  1.00  0.00    -0.299 A  
HETATM   13  C   UNL     1      -9.858  11.013  63.094  1.00  0.00    -0.398 A  
HETATM   14  C   UNL     1     -10.612  12.091  63.554  1.00  0.00    -0.514 A  
HETATM   15  C   UNL     1     -11.020  12.169  64.900  1.00  0.00    -0.355 A  
BRANCH  15  16
HETATM   16  C   UNL     1     -11.845  13.337  65.293  1.00  0.00    -0.357 C  
HETATM   17  O   UNL     1     -13.050  13.286  65.047  1.00  0.00    -0.737 OA 
BRANCH  16  18
HETATM   18  C   UNL     1     -11.296  14.520  66.048  1.00  0.00    -0.341 A  
HETATM   19  C   UNL     1     -10.400  15.350  65.362  1.00  0.00    -0.422 A  
HETATM   20  C   UNL     1      -9.780  16.444  65.993  1.00  0.00    -0.356 A  
HETATM   21  C   UNL     1     -10.009  16.752  67.339  1.00  0.00    -0.267 A  
HETATM   22  O   UNL     1     -12.419  14.074  68.132  1.00  0.00    -0.497 OA 
HETATM   23  C   UNL     1     -10.945  15.941  68.004  1.00  0.00    -0.336 A  
HETATM   24  H   UNL     1     -12.602  14.290  69.038  1.00  0.00     0.000 HD 
HETATM   25  C   UNL     1     -11.566  14.838  67.383  1.00  0.00    -0.360 A  
BRANCH  21  26
HETATM   26  N   UNL     1      -9.365  17.794  68.002  1.00  0.00    -0.269 NA 
BRANCH  26  27
HETATM   27  C   UNL     1     -10.160  18.952  68.444  1.00  0.00    -0.392 C  
HETATM   28  C   UNL     1     -10.647  19.759  67.249  1.00  0.00    -0.565 C  
ENDBRANCH  26  27
BRANCH  26  29
HETATM   29  C   UNL     1      -8.068  17.607  68.667  1.00  0.00    -0.269 C  
HETATM   30  C   UNL     1      -7.010  18.485  68.015  1.00  0.00    -0.236 C  
ENDBRANCH  26  29
ENDBRANCH  21  26
ENDBRANCH  16  18
ENDBRANCH  15  16
ENDBRANCH   8  10
ENDBRANCH   7   8
ENDBRANCH   6   7
ENDBRANCH   5   6
ENDBRANCH   4   5
ENDBRANCH   3   4
ENDBRANCH   2   3
TORSDOF 12
ENDMDL
MODEL       26
REMARK 921   NORMALIZED FREE ENERGY PREDICTED BY IDOCK:   -5.70 KCAL/MOL
REMARK 922        TOTAL FREE ENERGY PREDICTED BY IDOCK:  -11.66 KCAL/MOL
REMARK 923 INTER-LIGAND FREE ENERGY PREDICTED BY IDOCK:   -9.31 KCAL/MOL
REMARK 924 INTRA-LIGAND FREE ENERGY PREDICTED BY IDOCK:   -2.35 KCAL/MOL
REMARK 927      BINDING AFFINITY PREDICTED BY RF-SCORE:    0.00 PKD
ROOT
HETATM    1  C   UNL     1     -10.074   9.914  65.348  1.00  0.00    -0.270 C  
HETATM    2  C   UNL     1      -9.606  10.411  63.988  1.00  0.00    -0.376 C  
ENDROOT
BRANCH   2   3
HETATM    3  C   UNL     1     -10.072  11.843  63.729  1.00  0.00    -0.423 C  
BRANCH   3   4
HETATM    4  C   UNL     1     -11.602  11.956  63.725  1.00  0.00    -0.555 C  
BRANCH   4   5
HETATM    5  C   UNL     1     -12.037  13.373  64.105  1.00  0.00    -0.491 C  
BRANCH   5   6
HETATM    6  C   UNL     1     -12.687  13.468  65.481  1.00  0.00    -0.440 C  
BRANCH   6   7
HETATM    7  O   UNL     1     -12.204  12.532  66.448  1.00  0.00    -0.584 OA 
BRANCH   7   8
HETATM    8  C   UNL     1     -11.773  13.069  67.618  1.00  0.00    -0.366 C  
HETATM    9  O   UNL     1     -12.195  14.093  68.138  1.00  0.00    -0.306 OA 
BRANCH   8  10
HETATM   10  C   UNL     1     -10.956  12.057  68.347  1.00  0.00    -0.276 A  
HETATM   11  C   UNL     1     -11.704  11.188  69.171  1.00  0.00    -0.408 A  
HETATM   12  C   UNL     1     -11.092  10.145  69.868  1.00  0.00    -0.346 A  
HETATM   13  C   UNL     1      -9.714   9.982  69.790  1.00  0.00    -0.259 A  
HETATM   14  C   UNL     1      -8.956  10.838  68.992  1.00  0.00    -0.141 A  
HETATM   15  C   UNL     1      -9.569  11.845  68.221  1.00  0.00    -0.201 A  
BRANCH  15  16
HETATM   16  C   UNL     1      -8.687  12.688  67.379  1.00  0.00    -0.191 C  
HETATM   17  O   UNL     1      -7.947  12.112  66.582  1.00  0.00    -0.079 OA 
BRANCH  16  18
HETATM   18  C   UNL     1      -8.725  14.194  67.393  1.00  0.00    -0.217 A  
HETATM   19  C   UNL     1      -9.148  14.829  66.218  1.00  0.00    -0.231 A  
HETATM   20  C   UNL     1      -9.160  16.232  66.102  1.00  0.00    -0.377 A  
HETATM   21  C   UNL     1      -8.735  17.066  67.143  1.00  0.00    -0.210 A  
HETATM   22  O   UNL     1      -7.896  14.479  69.637  1.00  0.00    -0.382 OA 
HETATM   23  C   UNL     1      -8.357  16.419  68.333  1.00  0.00    -0.191 A  
HETATM   24  H   UNL     1      -7.632  15.037  70.358  1.00  0.00     0.000 HD 
HETATM   25  C   UNL     1      -8.335  15.015  68.456  1.00  0.00    -0.161 A  
BRANCH  21  26
HETATM   26  N   UNL     1      -8.684  18.453  67.035  1.00  0.00    -0.263 NA 
BRANCH  26  27
HETATM   27  C   UNL     1      -9.729  19.143  66.261  1.00  0.00    -0.365 C  
HETATM   28  C   UNL     1     -10.900  19.522  67.156  1.00  0.00    -0.555 C  
ENDBRANCH  26  27
BRANCH  26  29
HETATM   29  C   UNL     1      -7.935  19.279  67.992  1.00  0.00    -0.304 C  
HETATM   30  C   UNL     1      -7.139  20.347  67.257  1.00  0.00    -0.343 C  
ENDBRANCH  26  29
ENDBRANCH  21  26
ENDBRANCH  16  18
ENDBRANCH  15  16
ENDBRANCH   8  10
ENDBRANCH   7   8
ENDBRANCH   6   7
ENDBRANCH   5   6
ENDBRANCH   4   5
ENDBRANCH   3   4
ENDBRANCH   2   3
TORSDOF 12
ENDMDL
MODEL       27
REMARK 921   NORMALIZED FREE ENERGY PREDICTED BY IDOCK:   -5.69 KCAL/MOL
REMARK 922        TOTAL FREE ENERGY PREDICTED BY IDOCK:  -11.65 KCAL/MOL
REMARK 923 INTER-LIGAND FREE ENERGY PREDICTED BY IDOCK:   -9.77 KCAL/MOL
REMARK 924 INTRA-LIGAND FREE ENERGY PREDICTED BY IDOCK:   -1.88 KCAL/MOL
REMARK 927      BINDING AFFINITY PREDICTED BY RF-SCORE:    0.00 PKD
ROOT
HETATM    1  C   UNL     1     -10.385  20.040  65.768  1.00  0.00    -0.474 C  
HETATM    2  C   UNL     1      -9.621  20.159  67.079  1.00  0.00    -0.558 C  
ENDROOT
BRANCH   2   3
HETATM    3  C   UNL     1      -9.700  18.864  67.887  1.00  0.00    -0.376 C  
BRANCH   3   4
HETATM    4  C   UNL     1     -10.528  17.790  67.170  1.00  0.00    -0.338 C  
BRANCH   4   5
HETATM    5  C   UNL     1      -9.804  16.442  67.200  1.00  0.00    -0.249 C  
BRANCH   5   6
HETATM    6  C   UNL     1      -9.790  15.722  65.856  1.00  0.00    -0.349 C  
BRANCH   6   7
HETATM    7  O   UNL     1     -11.037  15.146  65.462  1.00  0.00    -0.336 OA 
BRANCH   7   8
HETATM    8  C   UNL     1     -11.462  14.098  66.213  1.00  0.00    -0.352 C  
HETATM    9  O   UNL     1     -12.388  14.117  67.013  1.00  0.00    -0.396 OA 
BRANCH   8  10
HETATM   10  C   UNL     1     -10.868  12.840  65.677  1.00  0.00    -0.300 A  
HETATM   11  C   UNL     1     -11.168  12.584  64.322  1.00  0.00    -0.407 A  
HETATM   12  C   UNL     1     -10.632  11.481  63.657  1.00  0.00    -0.491 A  
HETATM   13  C   UNL     1      -9.824  10.587  64.349  1.00  0.00    -0.405 A  
HETATM   14  C   UNL     1      -9.526  10.815  65.692  1.00  0.00    -0.250 A  
HETATM   15  C   UNL     1      -9.995  11.966  66.354  1.00  0.00    -0.237 A  
BRANCH  15  16
HETATM   16  C   UNL     1      -9.603  12.141  67.774  1.00  0.00    -0.195 C  
HETATM   17  O   UNL     1      -8.806  13.041  68.033  1.00  0.00    -0.177 OA 
BRANCH  16  18
HETATM   18  C   UNL     1     -10.200  11.338  68.901  1.00  0.00    -0.195 A  
HETATM   19  C   UNL     1      -9.535  10.158  69.259  1.00  0.00    -0.231 A  
HETATM   20  C   UNL     1     -10.043   9.301  70.254  1.00  0.00    -0.262 A  
HETATM   21  C   UNL     1     -11.242   9.569  70.924  1.00  0.00    -0.341 A  
HETATM   22  O   UNL     1     -12.099  12.766  69.295  1.00  0.00    -0.262 OA 
HETATM   23  C   UNL     1     -11.875  10.779  70.589  1.00  0.00    -0.460 A  
HETATM   24  H   UNL     1     -12.899  12.971  69.762  1.00  0.00     0.000 HD 
HETATM   25  C   UNL     1     -11.379  11.640  69.589  1.00  0.00    -0.236 A  
BRANCH  21  26
HETATM   26  N   UNL     1     -11.794   8.711  71.872  1.00  0.00    -0.325 NA 
BRANCH  26  27
HETATM   27  C   UNL     1     -10.894   8.006  72.800  1.00  0.00    -0.369 C  
HETATM   28  C   UNL     1     -10.942   6.504  72.562  1.00  0.00    -0.281 C  
ENDBRANCH  26  27
BRANCH  26  29
HETATM   29  C   UNL     1     -13.201   8.812  72.285  1.00  0.00    -0.412 C  
HETATM   30  C   UNL     1     -14.050   7.815  71.510  1.00  0.00    -0.509 C  
ENDBRANCH  26  29
ENDBRANCH  21  26
ENDBRANCH  16  18
ENDBRANCH  15  16
ENDBRANCH   8  10
ENDBRANCH   7   8
ENDBRANCH   6   7
ENDBRANCH   5   6
ENDBRANCH   4   5
ENDBRANCH   3   4
ENDBRANCH   2   3
TORSDOF 12
ENDMDL
MODEL       28
REMARK 921   NORMALIZED FREE ENERGY PREDICTED BY IDOCK:   -5.69 KCAL/MOL
REMARK 922        TOTAL FREE ENERGY PREDICTED BY IDOCK:  -11.64 KCAL/MOL
REMARK 923 INTER-LIGAND FREE ENERGY PREDICTED BY IDOCK:   -9.42 KCAL/MOL
REMARK 924 INTRA-LIGAND FREE ENERGY PREDICTED BY IDOCK:   -2.22 KCAL/MOL
REMARK 927      BINDING AFFINITY PREDICTED BY RF-SCORE:    0.00 PKD
ROOT
HETATM    1  C   UNL     1      -8.298   8.103  74.274  1.00  0.00    -0.252 C  
HETATM    2  C   UNL     1      -9.470   7.611  73.437  1.00  0.00    -0.330 C  
ENDROOT
BRANCH   2   3
HETATM    3  C   UNL     1     -10.211   6.472  74.135  1.00  0.00    -0.380 C  
BRANCH   3   4
HETATM    4  C   UNL     1     -10.313   5.225  73.247  1.00  0.00    -0.239 C  
BRANCH   4   5
HETATM    5  C   UNL     1      -9.189   5.210  72.209  1.00  0.00    -0.155 C  
BRANCH   5   6
HETATM    6  C   UNL     1      -9.684   5.240  70.767  1.00  0.00    -0.185 C  
BRANCH   6   7
HETATM    7  O   UNL     1     -11.032   5.680  70.596  1.00  0.00    -0.262 OA 
BRANCH   7   8
HETATM    8  C   UNL     1     -11.190   6.816  69.870  1.00  0.00    -0.326 C  
HETATM    9  O   UNL     1     -10.902   6.961  68.690  1.00  0.00    -0.219 OA 
BRANCH   8  10
HETATM   10  C   UNL     1     -12.078   7.754  70.617  1.00  0.00    -0.030 A  
HETATM   11  C   UNL     1     -13.156   7.132  71.281  1.00  0.00    -0.361 A  
HETATM   12  C   UNL     1     -14.037   7.865  72.077  1.00  0.00    -0.403 A  
HETATM   13  C   UNL     1     -13.883   9.242  72.183  1.00  0.00    -0.478 A  
HETATM   14  C   UNL     1     -12.831   9.878  71.524  1.00  0.00    -0.522 A  
HETATM   15  C   UNL     1     -11.888   9.140  70.782  1.00  0.00    -0.280 A  
BRANCH  15  16
HETATM   16  C   UNL     1     -10.786   9.897  70.140  1.00  0.00    -0.304 C  
HETATM   17  O   UNL     1      -9.647   9.701  70.560  1.00  0.00    -0.258 OA 
BRANCH  16  18
HETATM   18  C   UNL     1     -10.990  10.807  68.957  1.00  0.00    -0.289 A  
HETATM   19  C   UNL     1     -10.704  10.276  67.692  1.00  0.00    -0.339 A  
HETATM   20  C   UNL     1     -10.799  11.060  66.526  1.00  0.00    -0.269 A  
HETATM   21  C   UNL     1     -11.164  12.410  66.568  1.00  0.00    -0.319 A  
HETATM   22  O   UNL     1     -11.682  12.747  70.205  1.00  0.00    -0.521 OA 
HETATM   23  C   UNL     1     -11.494  12.918  67.836  1.00  0.00    -0.362 A  
HETATM   24  H   UNL     1     -11.958  13.655  70.241  1.00  0.00     0.000 HD 
HETATM   25  C   UNL     1     -11.395  12.144  69.010  1.00  0.00    -0.276 A  
BRANCH  21  26
HETATM   26  N   UNL     1     -11.211  13.222  65.437  1.00  0.00    -0.286 NA 
BRANCH  26  27
HETATM   27  C   UNL     1     -11.119  12.593  64.109  1.00  0.00    -0.382 C  
HETATM   28  C   UNL     1     -12.500  12.433  63.491  1.00  0.00    -0.605 C  
ENDBRANCH  26  27
BRANCH  26  29
HETATM   29  C   UNL     1     -11.786  14.574  65.475  1.00  0.00    -0.343 C  
HETATM   30  C   UNL     1     -10.822  15.573  64.854  1.00  0.00    -0.447 C  
ENDBRANCH  26  29
ENDBRANCH  21  26
ENDBRANCH  16  18
ENDBRANCH  15  16
ENDBRANCH   8  10
ENDBRANCH   7   8
ENDBRANCH   6   7
ENDBRANCH   5   6
ENDBRANCH   4   5
ENDBRANCH   3   4
ENDBRANCH   2   3
TORSDOF 12
ENDMDL
MODEL       29
REMARK 921   NORMALIZED FREE ENERGY PREDICTED BY IDOCK:   -5.68 KCAL/MOL
REMARK 922        TOTAL FREE ENERGY PREDICTED BY IDOCK:  -11.63 KCAL/MOL
REMARK 923 INTER-LIGAND FREE ENERGY PREDICTED BY IDOCK:   -9.50 KCAL/MOL
REMARK 924 INTRA-LIGAND FREE ENERGY PREDICTED BY IDOCK:   -2.13 KCAL/MOL
REMARK 927      BINDING AFFINITY PREDICTED BY RF-SCORE:    0.00 PKD
ROOT
HETATM    1  C   UNL     1      -7.086  11.382  67.037  1.00  0.00    -0.138 C  
HETATM    2  C   UNL     1      -6.502  10.673  65.824  1.00  0.00    -0.107 C  
ENDROOT
BRANCH   2   3
HETATM    3  C   UNL     1      -7.018   9.238  65.718  1.00  0.00    -0.085 C  
BRANCH   3   4
HETATM    4  C   UNL     1      -7.406   8.873  64.280  1.00  0.00    -0.100 C  
BRANCH   4   5
HETATM    5  C   UNL     1      -7.543  10.133  63.423  1.00  0.00    -0.141 C  
BRANCH   5   6
HETATM    6  C   UNL     1      -8.928  10.315  62.813  1.00  0.00    -0.259 C  
BRANCH   6   7
HETATM    7  O   UNL     1     -10.006  10.348  63.751  1.00  0.00    -0.301 OA 
BRANCH   7   8
HETATM    8  C   UNL     1     -10.357  11.581  64.197  1.00  0.00    -0.334 C  
HETATM    9  O   UNL     1     -10.564  12.565  63.501  1.00  0.00    -0.432 OA 
BRANCH   8  10
HETATM   10  C   UNL     1     -10.785  11.481  65.622  1.00  0.00    -0.323 A  
HETATM   11  C   UNL     1     -10.331  10.323  66.288  1.00  0.00    -0.256 A  
HETATM   12  C   UNL     1     -10.593  10.116  67.643  1.00  0.00    -0.316 A  
HETATM   13  C   UNL     1     -11.355  11.043  68.344  1.00  0.00    -0.363 A  
HETATM   14  C   UNL     1     -11.824  12.188  67.702  1.00  0.00    -0.316 A  
HETATM   15  C   UNL     1     -11.500  12.448  66.356  1.00  0.00    -0.427 A  
BRANCH  15  16
HETATM   16  C   UNL     1     -12.018  13.705  65.763  1.00  0.00    -0.395 C  
HETATM   17  O   UNL     1     -13.142  13.673  65.263  1.00  0.00    -0.735 OA 
BRANCH  16  18
HETATM   18  C   UNL     1     -11.278  15.016  65.830  1.00  0.00    -0.318 A  
HETATM   19  C   UNL     1     -10.451  15.221  66.942  1.00  0.00    -0.289 A  
HETATM   20  C   UNL     1      -9.765  16.435  67.135  1.00  0.00    -0.241 A  
HETATM   21  C   UNL     1      -9.883  17.505  66.239  1.00  0.00    -0.285 A  
HETATM   22  O   UNL     1     -12.170  15.950  63.797  1.00  0.00    -1.213 OA 
HETATM   23  C   UNL     1     -10.678  17.270  65.104  1.00  0.00     0.053 A  
HETATM   24  H   UNL     1     -12.236  16.660  63.170  1.00  0.00     0.000 HD 
HETATM   25  C   UNL     1     -11.375  16.061  64.906  1.00  0.00    -0.229 A  
BRANCH  21  26
HETATM   26  N   UNL     1      -9.260  18.735  66.436  1.00  0.00    -0.361 NA 
BRANCH  26  27
HETATM   27  C   UNL     1     -10.070  19.875  66.895  1.00  0.00    -0.450 C  
HETATM   28  C   UNL     1     -10.225  19.851  68.409  1.00  0.00    -0.557 C  
ENDBRANCH  26  27
BRANCH  26  29
HETATM   29  C   UNL     1      -7.809  18.845  66.644  1.00  0.00    -0.259 C  
HETATM   30  C   UNL     1      -7.192  19.748  65.587  1.00  0.00    -0.322 C  
ENDBRANCH  26  29
ENDBRANCH  21  26
ENDBRANCH  16  18
ENDBRANCH  15  16
ENDBRANCH   8  10
ENDBRANCH   7   8
ENDBRANCH   6   7
ENDBRANCH   5   6
ENDBRANCH   4   5
ENDBRANCH   3   4
ENDBRANCH   2   3
TORSDOF 12
ENDMDL
MODEL       30
REMARK 921   NORMALIZED FREE ENERGY PREDICTED BY IDOCK:   -5.67 KCAL/MOL
REMARK 922        TOTAL FREE ENERGY PREDICTED BY IDOCK:  -11.61 KCAL/MOL
REMARK 923 INTER-LIGAND FREE ENERGY PREDICTED BY IDOCK:   -8.96 KCAL/MOL
REMARK 924 INTRA-LIGAND FREE ENERGY PREDICTED BY IDOCK:   -2.65 KCAL/MOL
REMARK 927      BINDING AFFINITY PREDICTED BY RF-SCORE:    0.00 PKD
ROOT
HETATM    1  C   UNL     1      -9.743   9.182  65.745  1.00  0.00    -0.299 C  
HETATM    2  C   UNL     1      -9.589   8.128  66.832  1.00  0.00    -0.269 C  
ENDROOT
BRANCH   2   3
HETATM    3  C   UNL     1     -10.160   8.615  68.163  1.00  0.00    -0.236 C  
BRANCH   3   4
HETATM    4  C   UNL     1     -10.987   9.896  67.998  1.00  0.00    -0.269 C  
BRANCH   4   5
HETATM    5  C   UNL     1     -10.772  10.833  69.188  1.00  0.00    -0.265 C  
BRANCH   5   6
HETATM    6  C   UNL     1     -11.447  12.192  69.030  1.00  0.00    -0.297 C  
BRANCH   6   7
HETATM    7  O   UNL     1     -12.391  12.281  67.962  1.00  0.00    -0.260 OA 
BRANCH   7   8
HETATM    8  C   UNL     1     -12.245  13.350  67.138  1.00  0.00    -0.256 C  
HETATM    9  O   UNL     1     -12.306  14.526  67.469  1.00  0.00    -0.240 OA 
BRANCH   8  10
HETATM   10  C   UNL     1     -11.661  12.893  65.844  1.00  0.00    -0.449 A  
HETATM   11  C   UNL     1     -12.616  12.547  64.864  1.00  0.00    -0.469 A  
HETATM   12  C   UNL     1     -12.229  12.164  63.579  1.00  0.00    -0.670 A  
HETATM   13  C   UNL     1     -10.878  12.074  63.267  1.00  0.00    -0.400 A  
HETATM   14  C   UNL     1      -9.919  12.399  64.226  1.00  0.00    -0.232 A  
HETATM   15  C   UNL     1     -10.296  12.863  65.501  1.00  0.00    -0.304 A  
BRANCH  15  16
HETATM   16  C   UNL     1      -9.207  13.214  66.446  1.00  0.00    -0.122 C  
HETATM   17  O   UNL     1      -8.412  12.324  66.745  1.00  0.00    -0.183 OA 
BRANCH  16  18
HETATM   18  C   UNL     1      -8.986  14.608  66.970  1.00  0.00    -0.258 A  
HETATM   19  C   UNL     1      -9.122  15.659  66.054  1.00  0.00    -0.346 A  
HETATM   20  C   UNL     1      -8.875  16.995  66.423  1.00  0.00    -0.313 A  
HETATM   21  C   UNL     1      -8.465  17.344  67.716  1.00  0.00    -0.223 A  
HETATM   22  O   UNL     1      -8.449  13.980  69.232  1.00  0.00    -0.346 OA 
HETATM   23  C   UNL     1      -8.378  16.286  68.638  1.00  0.00    -0.220 A  
HETATM   24  H   UNL     1      -8.197  14.209  70.119  1.00  0.00     0.000 HD 
HETATM   25  C   UNL     1      -8.616  14.945  68.276  1.00  0.00    -0.160 A  
BRANCH  21  26
HETATM   26  N   UNL     1      -8.160  18.650  68.091  1.00  0.00    -0.285 NA 
BRANCH  26  27
HETATM   27  C   UNL     1      -9.173  19.434  68.817  1.00  0.00    -0.369 C  
HETATM   28  C   UNL     1     -10.403  19.660  67.949  1.00  0.00    -0.583 C  
ENDBRANCH  26  27
BRANCH  26  29
HETATM   29  C   UNL     1      -6.773  19.120  68.205  1.00  0.00    -0.250 C  
HETATM   30  C   UNL     1      -6.568  19.840  69.530  1.00  0.00    -0.388 C  
ENDBRANCH  26  29
ENDBRANCH  21  26
ENDBRANCH  16  18
ENDBRANCH  15  16
ENDBRANCH   8  10
ENDBRANCH   7   8
ENDBRANCH   6   7
ENDBRANCH   5   6
ENDBRANCH   4   5
ENDBRANCH   3   4
ENDBRANCH   2   3
TORSDOF 12
ENDMDL
MODEL       31
REMARK 921   NORMALIZED FREE ENERGY PREDICTED BY IDOCK:   -5.65 KCAL/MOL
REMARK 922        TOTAL FREE ENERGY PREDICTED BY IDOCK:  -11.58 KCAL/MOL
REMARK 923 INTER-LIGAND FREE ENERGY PREDICTED BY IDOCK:   -9.09 KCAL/MOL
REMARK 924 INTRA-LIGAND FREE ENERGY PREDICTED BY IDOCK:   -2.48 KCAL/MOL
REMARK 927      BINDING AFFINITY PREDICTED BY RF-SCORE:    0.00 PKD
ROOT
HETATM    1  C   UNL     1     -12.381  12.255  70.748  1.00  0.00    -0.383 C  
HETATM    2  C   UNL     1     -13.266  12.519  71.957  1.00  0.00    -0.524 C  
ENDROOT
BRANCH   2   3
HETATM    3  C   UNL     1     -13.732  13.974  71.998  1.00  0.00    -0.569 C  
BRANCH   3   4
HETATM    4  C   UNL     1     -13.117  14.740  73.175  1.00  0.00    -0.598 C  
BRANCH   4   5
HETATM    5  C   UNL     1     -11.876  15.515  72.724  1.00  0.00    -0.575 C  
BRANCH   5   6
HETATM    6  C   UNL     1     -11.930  15.967  71.269  1.00  0.00    -0.424 C  
BRANCH   6   7
HETATM    7  O   UNL     1     -10.811  15.579  70.470  1.00  0.00    -0.316 OA 
BRANCH   7   8
HETATM    8  C   UNL     1     -11.065  15.415  69.146  1.00  0.00    -0.266 C  
HETATM    9  O   UNL     1     -12.158  15.185  68.648  1.00  0.00    -0.264 OA 
BRANCH   8  10
HETATM   10  C   UNL     1      -9.891  15.892  68.361  1.00  0.00    -0.214 A  
HETATM   11  C   UNL     1      -9.242  17.019  68.908  1.00  0.00    -0.215 A  
HETATM   12  C   UNL     1      -8.088  17.545  68.326  1.00  0.00    -0.268 A  
HETATM   13  C   UNL     1      -7.589  16.980  67.158  1.00  0.00    -0.205 A  
HETATM   14  C   UNL     1      -8.223  15.873  66.595  1.00  0.00    -0.317 A  
HETATM   15  C   UNL     1      -9.342  15.284  67.215  1.00  0.00    -0.212 A  
BRANCH  15  16
HETATM   16  C   UNL     1      -9.933  14.091  66.559  1.00  0.00    -0.284 C  
HETATM   17  O   UNL     1     -10.279  14.207  65.384  1.00  0.00    -0.329 OA 
BRANCH  16  18
HETATM   18  C   UNL     1     -10.039  12.747  67.232  1.00  0.00    -0.226 A  
HETATM   19  C   UNL     1      -8.960  12.352  68.032  1.00  0.00    -0.194 A  
HETATM   20  C   UNL     1      -8.928  11.089  68.653  1.00  0.00    -0.167 A  
HETATM   21  C   UNL     1      -9.961  10.157  68.494  1.00  0.00    -0.163 A  
HETATM   22  O   UNL     1     -12.186  12.143  66.322  1.00  0.00    -0.604 OA 
HETATM   23  C   UNL     1     -11.059  10.584  67.727  1.00  0.00    -0.382 A  
HETATM   24  H   UNL     1     -12.904  11.529  66.229  1.00  0.00     0.000 HD 
HETATM   25  C   UNL     1     -11.097  11.843  67.095  1.00  0.00    -0.293 A  
BRANCH  21  26
HETATM   26  N   UNL     1      -9.929   8.882  69.052  1.00  0.00    -0.184 NA 
BRANCH  26  27
HETATM   27  C   UNL     1      -8.689   8.094  68.951  1.00  0.00    -0.137 C  
HETATM   28  C   UNL     1      -8.978   6.610  69.120  1.00  0.00    -0.131 C  
ENDBRANCH  26  27
BRANCH  26  29
HETATM   29  C   UNL     1     -10.876   8.468  70.096  1.00  0.00    -0.233 C  
HETATM   30  C   UNL     1     -10.509   9.110  71.425  1.00  0.00    -0.414 C  
ENDBRANCH  26  29
ENDBRANCH  21  26
ENDBRANCH  16  18
ENDBRANCH  15  16
ENDBRANCH   8  10
ENDBRANCH   7   8
ENDBRANCH   6   7
ENDBRANCH   5   6
ENDBRANCH   4   5
ENDBRANCH   3   4
ENDBRANCH   2   3
TORSDOF 12
ENDMDL
MODEL       32
REMARK 921   NORMALIZED FREE ENERGY PREDICTED BY IDOCK:   -5.64 KCAL/MOL
REMARK 922        TOTAL FREE ENERGY PREDICTED BY IDOCK:  -11.56 KCAL/MOL
REMARK 923 INTER-LIGAND FREE ENERGY PREDICTED BY IDOCK:  -10.28 KCAL/MOL
REMARK 924 INTRA-LIGAND FREE ENERGY PREDICTED BY IDOCK:   -1.28 KCAL/MOL
REMARK 927      BINDING AFFINITY PREDICTED BY RF-SCORE:    0.00 PKD
ROOT
HETATM    1  C   UNL     1      -9.573  19.483  68.652  1.00  0.00    -0.483 C  
HETATM    2  C   UNL     1     -10.643  19.528  67.571  1.00  0.00    -0.599 C  
ENDROOT
BRANCH   2   3
HETATM    3  C   UNL     1     -10.517  18.344  66.614  1.00  0.00    -0.415 C  
BRANCH   3   4
HETATM    4  C   UNL     1     -10.520  17.003  67.359  1.00  0.00    -0.322 C  
BRANCH   4   5
HETATM    5  C   UNL     1     -10.488  15.837  66.369  1.00  0.00    -0.307 C  
BRANCH   5   6
HETATM    6  C   UNL     1     -11.407  14.682  66.749  1.00  0.00    -0.356 C  
BRANCH   6   7
HETATM    7  O   UNL     1     -11.826  14.662  68.115  1.00  0.00    -0.325 OA 
BRANCH   7   8
HETATM    8  C   UNL     1     -11.267  13.694  68.886  1.00  0.00    -0.270 C  
HETATM    9  O   UNL     1     -10.190  13.150  68.687  1.00  0.00    -0.234 OA 
BRANCH   8  10
HETATM   10  C   UNL     1     -11.988  13.631  70.190  1.00  0.00    -0.407 A  
HETATM   11  C   UNL     1     -12.209  14.886  70.796  1.00  0.00    -0.387 A  
HETATM   12  C   UNL     1     -12.927  14.999  71.986  1.00  0.00    -0.427 A  
HETATM   13  C   UNL     1     -13.397  13.854  72.617  1.00  0.00    -0.640 A  
HETATM   14  C   UNL     1     -13.179  12.603  72.041  1.00  0.00    -0.531 A  
HETATM   15  C   UNL     1     -12.524  12.480  70.800  1.00  0.00    -0.357 A  
BRANCH  15  16
HETATM   16  C   UNL     1     -12.363  11.112  70.249  1.00  0.00    -0.315 C  
HETATM   17  O   UNL     1     -12.724  10.925  69.088  1.00  0.00    -0.262 OA 
BRANCH  16  18
HETATM   18  C   UNL     1     -11.703   9.989  71.007  1.00  0.00    -0.479 A  
HETATM   19  C   UNL     1     -10.349   9.752  70.736  1.00  0.00    -0.298 A  
HETATM   20  C   UNL     1      -9.654   8.687  71.340  1.00  0.00    -0.313 A  
HETATM   21  C   UNL     1     -10.278   7.802  72.227  1.00  0.00    -0.228 A  
HETATM   22  O   UNL     1     -13.654   9.290  72.234  1.00  0.00    -0.438 OA 
HETATM   23  C   UNL     1     -11.623   8.078  72.526  1.00  0.00    -0.464 A  
HETATM   24  H   UNL     1     -14.079   8.711  72.855  1.00  0.00     0.000 HD 
HETATM   25  C   UNL     1     -12.330   9.137  71.921  1.00  0.00    -0.385 A  
BRANCH  21  26
HETATM   26  N   UNL     1      -9.628   6.708  72.795  1.00  0.00    -0.146 NA 
BRANCH  26  27
HETATM   27  C   UNL     1     -10.105   5.354  72.472  1.00  0.00    -0.175 C  
HETATM   28  C   UNL     1     -10.748   4.705  73.690  1.00  0.00    -0.346 C  
ENDBRANCH  26  27
BRANCH  26  29
HETATM   29  C   UNL     1      -8.257   6.806  73.316  1.00  0.00    -0.110 C  
HETATM   30  C   UNL     1      -8.212   7.752  74.506  1.00  0.00    -0.259 C  
ENDBRANCH  26  29
ENDBRANCH  21  26
ENDBRANCH  16  18
ENDBRANCH  15  16
ENDBRANCH   8  10
ENDBRANCH   7   8
ENDBRANCH   6   7
ENDBRANCH   5   6
ENDBRANCH   4   5
ENDBRANCH   3   4
ENDBRANCH   2   3
TORSDOF 12
ENDMDL
MODEL       33
REMARK 921   NORMALIZED FREE ENERGY PREDICTED BY IDOCK:   -5.63 KCAL/MOL
REMARK 922        TOTAL FREE ENERGY PREDICTED BY IDOCK:  -11.55 KCAL/MOL
REMARK 923 INTER-LIGAND FREE ENERGY PREDICTED BY IDOCK:   -9.17 KCAL/MOL
REMARK 924 INTRA-LIGAND FREE ENERGY PREDICTED BY IDOCK:   -2.38 KCAL/MOL
REMARK 927      BINDING AFFINITY PREDICTED BY RF-SCORE:    0.00 PKD
ROOT
HETATM    1  C   UNL     1      -9.666  19.538  66.578  1.00  0.00    -0.478 C  
HETATM    2  C   UNL     1     -10.505  18.280  66.745  1.00  0.00    -0.387 C  
ENDROOT
BRANCH   2   3
HETATM    3  C   UNL     1     -10.517  17.447  65.464  1.00  0.00    -0.112 C  
BRANCH   3   4
HETATM    4  C   UNL     1     -10.266  15.960  65.745  1.00  0.00    -0.389 C  
BRANCH   4   5
HETATM    5  C   UNL     1      -9.653  15.771  67.134  1.00  0.00    -0.224 C  
BRANCH   5   6
HETATM    6  C   UNL     1     -10.262  14.616  67.922  1.00  0.00    -0.226 C  
BRANCH   6   7
HETATM    7  O   UNL     1     -11.550  14.187  67.476  1.00  0.00    -0.326 OA 
BRANCH   7   8
HETATM    8  C   UNL     1     -11.728  12.843  67.404  1.00  0.00    -0.372 C  
HETATM    9  O   UNL     1     -12.274  12.145  68.247  1.00  0.00    -0.356 OA 
BRANCH   8  10
HETATM   10  C   UNL     1     -11.472  12.390  66.007  1.00  0.00    -0.431 A  
HETATM   11  C   UNL     1     -12.380  12.900  65.053  1.00  0.00    -0.541 A  
HETATM   12  C   UNL     1     -12.234  12.621  63.694  1.00  0.00    -0.624 A  
HETATM   13  C   UNL     1     -11.206  11.789  63.269  1.00  0.00    -0.357 A  
HETATM   14  C   UNL     1     -10.306  11.265  64.197  1.00  0.00    -0.410 A  
HETATM   15  C   UNL     1     -10.394  11.601  65.561  1.00  0.00    -0.309 A  
BRANCH  15  16
HETATM   16  C   UNL     1      -9.376  11.020  66.471  1.00  0.00    -0.180 C  
HETATM   17  O   UNL     1      -8.261  11.541  66.476  1.00  0.00    -0.167 OA 
BRANCH  16  18
HETATM   18  C   UNL     1      -9.672   9.902  67.435  1.00  0.00    -0.199 A  
HETATM   19  C   UNL     1     -10.009   8.660  66.880  1.00  0.00    -0.330 A  
HETATM   20  C   UNL     1     -10.367   7.565  67.690  1.00  0.00    -0.295 A  
HETATM   21  C   UNL     1     -10.421   7.660  69.085  1.00  0.00    -0.214 A  
HETATM   22  O   UNL     1      -9.379  11.180  69.455  1.00  0.00    -0.397 OA 
HETATM   23  C   UNL     1     -10.036   8.897  69.632  1.00  0.00    -0.193 A  
HETATM   24  H   UNL     1      -9.387  11.248  70.402  1.00  0.00     0.000 HD 
HETATM   25  C   UNL     1      -9.683  10.001  68.830  1.00  0.00    -0.171 A  
BRANCH  21  26
HETATM   26  N   UNL     1     -10.825   6.610  69.905  1.00  0.00    -0.254 NA 
BRANCH  26  27
HETATM   27  C   UNL     1     -10.336   5.253  69.613  1.00  0.00    -0.278 C  
HETATM   28  C   UNL     1      -9.997   4.513  70.899  1.00  0.00    -0.263 C  
ENDBRANCH  26  27
BRANCH  26  29
HETATM   29  C   UNL     1     -11.327   6.837  71.268  1.00  0.00    -0.289 C  
HETATM   30  C   UNL     1     -12.825   7.097  71.241  1.00  0.00    -0.399 C  
ENDBRANCH  26  29
ENDBRANCH  21  26
ENDBRANCH  16  18
ENDBRANCH  15  16
ENDBRANCH   8  10
ENDBRANCH   7   8
ENDBRANCH   6   7
ENDBRANCH   5   6
ENDBRANCH   4   5
ENDBRANCH   3   4
ENDBRANCH   2   3
TORSDOF 12
ENDMDL
MODEL       34
REMARK 921   NORMALIZED FREE ENERGY PREDICTED BY IDOCK:   -5.63 KCAL/MOL
REMARK 922        TOTAL FREE ENERGY PREDICTED BY IDOCK:  -11.54 KCAL/MOL
REMARK 923 INTER-LIGAND FREE ENERGY PREDICTED BY IDOCK:   -9.56 KCAL/MOL
REMARK 924 INTRA-LIGAND FREE ENERGY PREDICTED BY IDOCK:   -1.99 KCAL/MOL
REMARK 927      BINDING AFFINITY PREDICTED BY RF-SCORE:    0.00 PKD
ROOT
HETATM    1  C   UNL     1      -9.384  15.064  66.033  1.00  0.00    -0.304 C  
HETATM    2  C   UNL     1     -10.770  15.689  65.990  1.00  0.00    -0.322 C  
ENDROOT
BRANCH   2   3
HETATM    3  C   UNL     1     -11.620  15.081  64.875  1.00  0.00    -0.374 C  
BRANCH   3   4
HETATM    4  C   UNL     1     -12.668  14.103  65.421  1.00  0.00    -0.453 C  
BRANCH   4   5
HETATM    5  C   UNL     1     -12.219  12.656  65.203  1.00  0.00    -0.539 C  
BRANCH   5   6
HETATM    6  C   UNL     1     -11.628  12.002  66.448  1.00  0.00    -0.313 C  
BRANCH   6   7
HETATM    7  O   UNL     1     -12.141  12.486  67.691  1.00  0.00    -0.436 OA 
BRANCH   7   8
HETATM    8  C   UNL     1     -11.229  12.623  68.687  1.00  0.00    -0.282 C  
HETATM    9  O   UNL     1     -10.019  12.725  68.544  1.00  0.00    -0.222 OA 
BRANCH   8  10
HETATM   10  C   UNL     1     -11.937  12.974  69.952  1.00  0.00    -0.381 A  
HETATM   11  C   UNL     1     -11.944  14.352  70.253  1.00  0.00    -0.388 A  
HETATM   12  C   UNL     1     -12.622  14.847  71.367  1.00  0.00    -0.402 A  
HETATM   13  C   UNL     1     -13.266  13.966  72.227  1.00  0.00    -0.568 A  
HETATM   14  C   UNL     1     -13.260  12.598  71.955  1.00  0.00    -0.504 A  
HETATM   15  C   UNL     1     -12.647  12.093  70.791  1.00  0.00    -0.305 A  
BRANCH  15  16
HETATM   16  C   UNL     1     -12.716  10.628  70.568  1.00  0.00    -0.313 C  
HETATM   17  O   UNL     1     -13.520  10.222  69.731  1.00  0.00     0.267 OA 
BRANCH  16  18
HETATM   18  C   UNL     1     -11.795   9.646  71.244  1.00  0.00    -0.460 A  
HETATM   19  C   UNL     1     -10.503   9.522  70.716  1.00  0.00    -0.384 A  
HETATM   20  C   UNL     1      -9.584   8.588  71.231  1.00  0.00    -0.264 A  
HETATM   21  C   UNL     1      -9.914   7.724  72.282  1.00  0.00    -0.203 A  
HETATM   22  O   UNL     1     -13.370   8.864  72.889  1.00  0.00    -0.743 OA 
HETATM   23  C   UNL     1     -11.197   7.890  72.833  1.00  0.00    -0.429 A  
HETATM   24  H   UNL     1     -13.595   8.301  73.620  1.00  0.00     0.000 HD 
HETATM   25  C   UNL     1     -12.126   8.817  72.320  1.00  0.00    -0.353 A  
BRANCH  21  26
HETATM   26  N   UNL     1      -9.044   6.753  72.772  1.00  0.00    -0.135 NA 
BRANCH  26  27
HETATM   27  C   UNL     1      -8.379   5.850  71.818  1.00  0.00    -0.119 C  
HETATM   28  C   UNL     1      -9.372   4.854  71.237  1.00  0.00    -0.202 C  
ENDBRANCH  26  27
BRANCH  26  29
HETATM   29  C   UNL     1      -8.420   6.869  74.098  1.00  0.00    -0.148 C  
HETATM   30  C   UNL     1      -7.685   8.195  74.220  1.00  0.00    -0.277 C  
ENDBRANCH  26  29
ENDBRANCH  21  26
ENDBRANCH  16  18
ENDBRANCH  15  16
ENDBRANCH   8  10
ENDBRANCH   7   8
ENDBRANCH   6   7
ENDBRANCH   5   6
ENDBRANCH   4   5
ENDBRANCH   3   4
ENDBRANCH   2   3
TORSDOF 12
ENDMDL
MODEL       35
REMARK 921   NORMALIZED FREE ENERGY PREDICTED BY IDOCK:   -5.62 KCAL/MOL
REMARK 922        TOTAL FREE ENERGY PREDICTED BY IDOCK:  -11.52 KCAL/MOL
REMARK 923 INTER-LIGAND FREE ENERGY PREDICTED BY IDOCK:  -10.02 KCAL/MOL
REMARK 924 INTRA-LIGAND FREE ENERGY PREDICTED BY IDOCK:   -1.50 KCAL/MOL
REMARK 927      BINDING AFFINITY PREDICTED BY RF-SCORE:    0.00 PKD
ROOT
HETATM    1  C   UNL     1     -11.586   6.366  70.265  1.00  0.00    -0.451 C  
HETATM    2  C   UNL     1     -12.360   6.735  71.522  1.00  0.00    -0.407 C  
ENDROOT
BRANCH   2   3
HETATM    3  C   UNL     1     -11.776   7.980  72.188  1.00  0.00    -0.399 C  
BRANCH   3   4
HETATM    4  C   UNL     1     -11.830   9.204  71.265  1.00  0.00    -0.396 C  
BRANCH   4   5
HETATM    5  C   UNL     1     -10.418   9.658  70.890  1.00  0.00    -0.359 C  
BRANCH   5   6
HETATM    6  C   UNL     1     -10.255  10.003  69.414  1.00  0.00    -0.222 C  
BRANCH   6   7
HETATM    7  O   UNL     1     -10.240  11.400  69.114  1.00  0.00    -0.169 OA 
BRANCH   7   8
HETATM    8  C   UNL     1     -11.363  11.884  68.523  1.00  0.00    -0.276 C  
HETATM    9  O   UNL     1     -12.072  11.284  67.727  1.00  0.00    -0.631 OA 
BRANCH   8  10
HETATM   10  C   UNL     1     -11.799  13.117  69.240  1.00  0.00    -0.377 A  
HETATM   11  C   UNL     1     -12.169  12.910  70.585  1.00  0.00    -0.386 A  
HETATM   12  C   UNL     1     -12.537  13.975  71.408  1.00  0.00    -0.451 A  
HETATM   13  C   UNL     1     -12.587  15.262  70.885  1.00  0.00    -0.471 A  
HETATM   14  C   UNL     1     -12.236  15.486  69.554  1.00  0.00    -0.264 A  
HETATM   15  C   UNL     1     -11.787  14.432  68.735  1.00  0.00    -0.360 A  
BRANCH  15  16
HETATM   16  C   UNL     1     -11.408  14.769  67.341  1.00  0.00    -0.351 C  
HETATM   17  O   UNL     1     -12.086  14.280  66.438  1.00  0.00    -0.422 OA 
BRANCH  16  18
HETATM   18  C   UNL     1     -10.308  15.739  66.996  1.00  0.00    -0.292 A  
HETATM   19  C   UNL     1     -10.656  17.095  66.930  1.00  0.00    -0.209 A  
HETATM   20  C   UNL     1      -9.721  18.077  66.554  1.00  0.00    -0.338 A  
HETATM   21  C   UNL     1      -8.403  17.754  66.209  1.00  0.00    -0.205 A  
HETATM   22  O   UNL     1      -8.563  14.103  66.719  1.00  0.00    -0.387 OA 
HETATM   23  C   UNL     1      -8.054  16.397  66.323  1.00  0.00    -0.311 A  
HETATM   24  H   UNL     1      -7.664  13.877  66.513  1.00  0.00     0.000 HD 
HETATM   25  C   UNL     1      -8.985  15.405  66.692  1.00  0.00    -0.286 A  
BRANCH  21  26
HETATM   26  N   UNL     1      -7.475  18.699  65.780  1.00  0.00    -0.498 NA 
BRANCH  26  27
HETATM   27  C   UNL     1      -7.589  20.081  66.274  1.00  0.00    -0.303 C  
HETATM   28  C   UNL     1      -7.052  20.191  67.694  1.00  0.00    -0.317 C  
ENDBRANCH  26  27
BRANCH  26  29
HETATM   29  C   UNL     1      -6.164  18.310  65.241  1.00  0.00    -0.163 C  
HETATM   30  C   UNL     1      -5.743  19.268  64.137  1.00  0.00    -0.326 C  
ENDBRANCH  26  29
ENDBRANCH  21  26
ENDBRANCH  16  18
ENDBRANCH  15  16
ENDBRANCH   8  10
ENDBRANCH   7   8
ENDBRANCH   6   7
ENDBRANCH   5   6
ENDBRANCH   4   5
ENDBRANCH   3   4
ENDBRANCH   2   3
TORSDOF 12
ENDMDL
MODEL       36
REMARK 921   NORMALIZED FREE ENERGY PREDICTED BY IDOCK:   -5.61 KCAL/MOL
REMARK 922        TOTAL FREE ENERGY PREDICTED BY IDOCK:  -11.52 KCAL/MOL
REMARK 923 INTER-LIGAND FREE ENERGY PREDICTED BY IDOCK:   -9.16 KCAL/MOL
REMARK 924 INTRA-LIGAND FREE ENERGY PREDICTED BY IDOCK:   -2.36 KCAL/MOL
REMARK 927      BINDING AFFINITY PREDICTED BY RF-SCORE:    0.00 PKD
ROOT
HETATM    1  C   UNL     1     -14.116  15.094  72.196  1.00  0.00    -0.654 C  
HETATM    2  C   UNL     1     -13.425  13.746  72.333  1.00  0.00    -0.672 C  
ENDROOT
BRANCH   2   3
HETATM    3  C   UNL     1     -12.341  13.567  71.271  1.00  0.00    -0.325 C  
BRANCH   3   4
HETATM    4  C   UNL     1     -12.434  12.199  70.583  1.00  0.00    -0.330 C  
BRANCH   4   5
HETATM    5  C   UNL     1     -13.049  11.162  71.526  1.00  0.00    -0.489 C  
BRANCH   5   6
HETATM    6  C   UNL     1     -12.209   9.900  71.684  1.00  0.00    -0.395 C  
BRANCH   6   7
HETATM    7  O   UNL     1     -10.953   9.916  71.002  1.00  0.00    -0.335 OA 
BRANCH   7   8
HETATM    8  C   UNL     1     -10.119   8.883  71.285  1.00  0.00    -0.295 C  
HETATM    9  O   UNL     1      -9.618   8.642  72.375  1.00  0.00    -0.288 OA 
BRANCH   8  10
HETATM   10  C   UNL     1     -10.172   7.893  70.172  1.00  0.00    -0.202 A  
HETATM   11  C   UNL     1     -10.929   6.736  70.456  1.00  0.00    -0.327 A  
HETATM   12  C   UNL     1     -11.129   5.746  69.493  1.00  0.00    -0.287 A  
HETATM   13  C   UNL     1     -10.535   5.874  68.243  1.00  0.00    -0.293 A  
HETATM   14  C   UNL     1      -9.773   7.003  67.947  1.00  0.00    -0.141 A  
HETATM   15  C   UNL     1      -9.628   8.046  68.882  1.00  0.00    -0.152 A  
BRANCH  15  16
HETATM   16  C   UNL     1      -8.824   9.222  68.469  1.00  0.00    -0.129 C  
HETATM   17  O   UNL     1      -7.609   9.064  68.358  1.00  0.00    -0.088 OA 
BRANCH  16  18
HETATM   18  C   UNL     1      -9.432  10.550  68.099  1.00  0.00    -0.157 A  
HETATM   19  C   UNL     1     -10.589  10.519  67.310  1.00  0.00    -0.317 A  
HETATM   20  C   UNL     1     -11.201  11.703  66.855  1.00  0.00    -0.376 A  
HETATM   21  C   UNL     1     -10.680  12.968  67.149  1.00  0.00    -0.254 A  
HETATM   22  O   UNL     1      -7.788  11.930  69.191  1.00  0.00    -0.338 OA 
HETATM   23  C   UNL     1      -9.546  12.987  67.979  1.00  0.00    -0.224 A  
HETATM   24  H   UNL     1      -7.442  12.785  69.418  1.00  0.00     0.000 HD 
HETATM   25  C   UNL     1      -8.922  11.808  68.434  1.00  0.00    -0.168 A  
BRANCH  21  26
HETATM   26  N   UNL     1     -11.234  14.151  66.665  1.00  0.00    -0.316 NA 
BRANCH  26  27
HETATM   27  C   UNL     1     -12.482  14.084  65.888  1.00  0.00    -0.481 C  
HETATM   28  C   UNL     1     -12.271  14.625  64.481  1.00  0.00    -0.473 C  
ENDBRANCH  26  27
BRANCH  26  29
HETATM   29  C   UNL     1     -10.904  15.458  67.249  1.00  0.00    -0.316 C  
HETATM   30  C   UNL     1     -11.726  15.695  68.507  1.00  0.00    -0.339 C  
ENDBRANCH  26  29
ENDBRANCH  21  26
ENDBRANCH  16  18
ENDBRANCH  15  16
ENDBRANCH   8  10
ENDBRANCH   7   8
ENDBRANCH   6   7
ENDBRANCH   5   6
ENDBRANCH   4   5
ENDBRANCH   3   4
ENDBRANCH   2   3
TORSDOF 12
ENDMDL
MODEL       37
REMARK 921   NORMALIZED FREE ENERGY PREDICTED BY IDOCK:   -5.61 KCAL/MOL
REMARK 922        TOTAL FREE ENERGY PREDICTED BY IDOCK:  -11.52 KCAL/MOL
REMARK 923 INTER-LIGAND FREE ENERGY PREDICTED BY IDOCK:   -9.73 KCAL/MOL
REMARK 924 INTRA-LIGAND FREE ENERGY PREDICTED BY IDOCK:   -1.79 KCAL/MOL
REMARK 927      BINDING AFFINITY PREDICTED BY RF-SCORE:    0.00 PKD
ROOT
HETATM    1  C   UNL     1     -12.593  15.871  72.168  1.00  0.00    -0.522 C  
HETATM    2  C   UNL     1     -11.678  14.922  71.408  1.00  0.00    -0.387 C  
ENDROOT
BRANCH   2   3
HETATM    3  C   UNL     1     -12.393  13.615  71.066  1.00  0.00    -0.436 C  
BRANCH   3   4
HETATM    4  C   UNL     1     -11.914  13.032  69.731  1.00  0.00    -0.377 C  
BRANCH   4   5
HETATM    5  C   UNL     1     -11.766  11.512  69.829  1.00  0.00    -0.426 C  
BRANCH   5   6
HETATM    6  C   UNL     1     -11.764  10.806  68.477  1.00  0.00    -0.189 C  
BRANCH   6   7
HETATM    7  O   UNL     1     -10.481  10.378  68.016  1.00  0.00    -0.172 OA 
BRANCH   7   8
HETATM    8  C   UNL     1      -9.704  11.346  67.465  1.00  0.00    -0.178 C  
HETATM    9  O   UNL     1      -8.838  11.987  68.043  1.00  0.00    -0.165 OA 
BRANCH   8  10
HETATM   10  C   UNL     1      -9.819  11.277  65.980  1.00  0.00    -0.267 A  
HETATM   11  C   UNL     1      -9.106  10.213  65.388  1.00  0.00    -0.227 A  
HETATM   12  C   UNL     1      -9.167   9.974  64.015  1.00  0.00    -0.318 A  
HETATM   13  C   UNL     1      -9.904  10.827  63.202  1.00  0.00    -0.378 A  
HETATM   14  C   UNL     1     -10.606  11.892  63.765  1.00  0.00    -0.475 A  
HETATM   15  C   UNL     1     -10.618  12.097  65.158  1.00  0.00    -0.324 A  
BRANCH  15  16
HETATM   16  C   UNL     1     -11.415  13.237  65.671  1.00  0.00    -0.318 C  
HETATM   17  O   UNL     1     -12.604  13.031  65.912  1.00  0.00    -0.480 OA 
BRANCH  16  18
HETATM   18  C   UNL     1     -10.821  14.585  65.988  1.00  0.00    -0.310 A  
HETATM   19  C   UNL     1     -10.163  14.713  67.219  1.00  0.00    -0.241 A  
HETATM   20  C   UNL     1      -9.627  15.944  67.642  1.00  0.00    -0.221 A  
HETATM   21  C   UNL     1      -9.737  17.106  66.869  1.00  0.00    -0.268 A  
HETATM   22  O   UNL     1     -11.541  15.695  63.976  1.00  0.00    -0.859 OA 
HETATM   23  C   UNL     1     -10.359  16.954  65.617  1.00  0.00    -0.254 A  
HETATM   24  H   UNL     1     -11.597  16.472  63.433  1.00  0.00     0.000 HD 
HETATM   25  C   UNL     1     -10.904  15.728  65.188  1.00  0.00    -0.428 A  
BRANCH  21  26
HETATM   26  N   UNL     1      -9.266  18.348  67.290  1.00  0.00    -0.267 NA 
BRANCH  26  27
HETATM   27  C   UNL     1     -10.031  19.554  66.933  1.00  0.00    -0.386 C  
HETATM   28  C   UNL     1     -10.021  20.556  68.079  1.00  0.00    -0.286 C  
ENDBRANCH  26  27
BRANCH  26  29
HETATM   29  C   UNL     1      -8.332  18.482  68.416  1.00  0.00    -0.332 C  
HETATM   30  C   UNL     1      -6.937  18.813  67.907  1.00  0.00    -0.236 C  
ENDBRANCH  26  29
ENDBRANCH  21  26
ENDBRANCH  16  18
ENDBRANCH  15  16
ENDBRANCH   8  10
ENDBRANCH   7   8
ENDBRANCH   6   7
ENDBRANCH   5   6
ENDBRANCH   4   5
ENDBRANCH   3   4
ENDBRANCH   2   3
TORSDOF 12
ENDMDL
MODEL       38
REMARK 921   NORMALIZED FREE ENERGY PREDICTED BY IDOCK:   -5.59 KCAL/MOL
REMARK 922        TOTAL FREE ENERGY PREDICTED BY IDOCK:  -11.48 KCAL/MOL
REMARK 923 INTER-LIGAND FREE ENERGY PREDICTED BY IDOCK:   -9.78 KCAL/MOL
REMARK 924 INTRA-LIGAND FREE ENERGY PREDICTED BY IDOCK:   -1.70 KCAL/MOL
REMARK 927      BINDING AFFINITY PREDICTED BY RF-SCORE:    0.00 PKD
ROOT
HETATM    1  C   UNL     1      -8.560  20.191  67.304  1.00  0.00    -0.414 C  
HETATM    2  C   UNL     1      -9.727  19.747  66.435  1.00  0.00    -0.530 C  
ENDROOT
BRANCH   2   3
HETATM    3  C   UNL     1     -10.796  19.034  67.262  1.00  0.00    -0.494 C  
BRANCH   3   4
HETATM    4  C   UNL     1     -10.503  17.536  67.410  1.00  0.00    -0.342 C  
BRANCH   4   5
HETATM    5  C   UNL     1     -10.095  16.932  66.064  1.00  0.00    -0.336 C  
BRANCH   5   6
HETATM    6  C   UNL     1      -9.516  15.526  66.172  1.00  0.00    -0.341 C  
BRANCH   6   7
HETATM    7  O   UNL     1      -9.971  14.603  65.180  1.00  0.00    -0.358 OA 
BRANCH   7   8
HETATM    8  C   UNL     1     -10.842  13.657  65.615  1.00  0.00    -0.279 C  
HETATM    9  O   UNL     1     -12.012  13.843  65.918  1.00  0.00    -0.366 OA 
BRANCH   8  10
HETATM   10  C   UNL     1     -10.270  12.306  65.345  1.00  0.00    -0.297 A  
HETATM   11  C   UNL     1     -10.418  11.866  64.013  1.00  0.00    -0.417 A  
HETATM   12  C   UNL     1      -9.878  10.652  63.587  1.00  0.00    -0.392 A  
HETATM   13  C   UNL     1      -9.222   9.834  64.499  1.00  0.00    -0.310 A  
HETATM   14  C   UNL     1      -9.077  10.245  65.824  1.00  0.00    -0.202 A  
HETATM   15  C   UNL     1      -9.547  11.503  66.248  1.00  0.00    -0.239 A  
BRANCH  15  16
HETATM   16  C   UNL     1      -9.322  11.869  67.668  1.00  0.00    -0.183 C  
HETATM   17  O   UNL     1      -8.552  12.802  67.896  1.00  0.00    -0.160 OA 
BRANCH  16  18
HETATM   18  C   UNL     1     -10.052  11.219  68.814  1.00  0.00    -0.204 A  
HETATM   19  C   UNL     1      -9.397  10.168  69.469  1.00  0.00    -0.230 A  
HETATM   20  C   UNL     1     -10.015   9.450  70.510  1.00  0.00    -0.328 A  
HETATM   21  C   UNL     1     -11.318   9.734  70.935  1.00  0.00    -0.365 A  
HETATM   22  O   UNL     1     -12.057  12.544  68.663  1.00  0.00    -0.266 OA 
HETATM   23  C   UNL     1     -11.948  10.820  70.303  1.00  0.00    -0.438 A  
HETATM   24  H   UNL     1     -12.932  12.762  68.962  1.00  0.00     0.000 HD 
HETATM   25  C   UNL     1     -11.340  11.540  69.254  1.00  0.00    -0.288 A  
BRANCH  21  26
HETATM   26  N   UNL     1     -11.973   9.003  71.924  1.00  0.00    -0.360 NA 
BRANCH  26  27
HETATM   27  C   UNL     1     -13.259   9.500  72.439  1.00  0.00    -0.368 C  
HETATM   28  C   UNL     1     -14.364   8.480  72.205  1.00  0.00    -0.529 C  
ENDBRANCH  26  27
BRANCH  26  29
HETATM   29  C   UNL     1     -11.691   7.578  72.151  1.00  0.00    -0.303 C  
HETATM   30  C   UNL     1     -10.658   7.415  73.255  1.00  0.00    -0.442 C  
ENDBRANCH  26  29
ENDBRANCH  21  26
ENDBRANCH  16  18
ENDBRANCH  15  16
ENDBRANCH   8  10
ENDBRANCH   7   8
ENDBRANCH   6   7
ENDBRANCH   5   6
ENDBRANCH   4   5
ENDBRANCH   3   4
ENDBRANCH   2   3
TORSDOF 12
ENDMDL
MODEL       39
REMARK 921   NORMALIZED FREE ENERGY PREDICTED BY IDOCK:   -5.58 KCAL/MOL
REMARK 922        TOTAL FREE ENERGY PREDICTED BY IDOCK:  -11.45 KCAL/MOL
REMARK 923 INTER-LIGAND FREE ENERGY PREDICTED BY IDOCK:   -9.67 KCAL/MOL
REMARK 924 INTRA-LIGAND FREE ENERGY PREDICTED BY IDOCK:   -1.78 KCAL/MOL
REMARK 927      BINDING AFFINITY PREDICTED BY RF-SCORE:    0.00 PKD
ROOT
HETATM    1  C   UNL     1     -14.335  15.044  71.628  1.00  0.00    -0.680 C  
HETATM    2  C   UNL     1     -13.165  14.091  71.437  1.00  0.00    -0.404 C  
ENDROOT
BRANCH   2   3
HETATM    3  C   UNL     1     -13.353  12.810  72.249  1.00  0.00    -0.563 C  
BRANCH   3   4
HETATM    4  C   UNL     1     -12.866  11.571  71.486  1.00  0.00    -0.485 C  
BRANCH   4   5
HETATM    5  C   UNL     1     -13.417  10.295  72.124  1.00  0.00    -0.332 C  
BRANCH   5   6
HETATM    6  C   UNL     1     -12.451   9.116  72.075  1.00  0.00    -0.382 C  
BRANCH   6   7
HETATM    7  O   UNL     1     -11.703   8.993  70.864  1.00  0.00    -0.281 OA 
BRANCH   7   8
HETATM    8  C   UNL     1     -10.952   7.868  70.751  1.00  0.00    -0.252 C  
HETATM    9  O   UNL     1     -10.811   7.009  71.610  1.00  0.00    -0.221 OA 
BRANCH   8  10
HETATM   10  C   UNL     1     -10.599   7.658  69.317  1.00  0.00    -0.206 A  
HETATM   11  C   UNL     1     -11.097   6.459  68.764  1.00  0.00    -0.404 A  
HETATM   12  C   UNL     1     -10.909   6.150  67.417  1.00  0.00    -0.431 A  
HETATM   13  C   UNL     1     -10.177   7.012  66.610  1.00  0.00    -0.218 A  
HETATM   14  C   UNL     1      -9.666   8.196  67.140  1.00  0.00    -0.259 A  
HETATM   15  C   UNL     1      -9.916   8.559  68.478  1.00  0.00    -0.201 A  
BRANCH  15  16
HETATM   16  C   UNL     1      -9.357   9.850  68.947  1.00  0.00    -0.170 C  
HETATM   17  O   UNL     1      -8.375   9.805  69.688  1.00  0.00    -0.139 OA 
BRANCH  16  18
HETATM   18  C   UNL     1      -9.874  11.189  68.490  1.00  0.00    -0.199 A  
HETATM   19  C   UNL     1      -8.926  12.202  68.293  1.00  0.00    -0.186 A  
HETATM   20  C   UNL     1      -9.308  13.507  67.929  1.00  0.00    -0.215 A  
HETATM   21  C   UNL     1     -10.650  13.868  67.761  1.00  0.00    -0.246 A  
HETATM   22  O   UNL     1     -12.210  10.601  68.471  1.00  0.00    -0.822 OA 
HETATM   23  C   UNL     1     -11.588  12.833  67.916  1.00  0.00    -0.400 A  
HETATM   24  H   UNL     1     -13.121  10.829  68.333  1.00  0.00     0.000 HD 
HETATM   25  C   UNL     1     -11.217  11.525  68.288  1.00  0.00    -0.261 A  
BRANCH  21  26
HETATM   26  N   UNL     1     -11.057  15.164  67.456  1.00  0.00    -0.312 NA 
BRANCH  26  27
HETATM   27  C   UNL     1     -11.646  15.992  68.522  1.00  0.00    -0.316 C  
HETATM   28  C   UNL     1     -10.574  16.823  69.213  1.00  0.00    -0.336 C  
ENDBRANCH  26  27
BRANCH  26  29
HETATM   29  C   UNL     1     -10.534  15.887  66.288  1.00  0.00    -0.318 C  
HETATM   30  C   UNL     1     -11.132  15.322  65.008  1.00  0.00    -0.436 C  
ENDBRANCH  26  29
ENDBRANCH  21  26
ENDBRANCH  16  18
ENDBRANCH  15  16
ENDBRANCH   8  10
ENDBRANCH   7   8
ENDBRANCH   6   7
ENDBRANCH   5   6
ENDBRANCH   4   5
ENDBRANCH   3   4
ENDBRANCH   2   3
TORSDOF 12
ENDMDL
MODEL       40
REMARK 921   NORMALIZED FREE ENERGY PREDICTED BY IDOCK:   -5.56 KCAL/MOL
REMARK 922        TOTAL FREE ENERGY PREDICTED BY IDOCK:  -11.42 KCAL/MOL
REMARK 923 INTER-LIGAND FREE ENERGY PREDICTED BY IDOCK:   -9.40 KCAL/MOL
REMARK 924 INTRA-LIGAND FREE ENERGY PREDICTED BY IDOCK:   -2.02 KCAL/MOL
REMARK 927      BINDING AFFINITY PREDICTED BY RF-SCORE:    0.00 PKD
ROOT
HETATM    1  C   UNL     1     -12.526  15.575  74.119  1.00  0.00    -0.805 C  
HETATM    2  C   UNL     1     -13.329  15.761  72.840  1.00  0.00    -0.661 C  
ENDROOT
BRANCH   2   3
HETATM    3  C   UNL     1     -13.880  14.430  72.331  1.00  0.00    -0.595 C  
BRANCH   3   4
HETATM    4  C   UNL     1     -12.861  13.683  71.461  1.00  0.00    -0.445 C  
BRANCH   4   5
HETATM    5  C   UNL     1     -12.308  14.603  70.370  1.00  0.00    -0.399 C  
BRANCH   5   6
HETATM    6  C   UNL     1     -12.158  13.925  69.013  1.00  0.00    -0.329 C  
BRANCH   6   7
HETATM    7  O   UNL     1     -11.771  14.788  67.941  1.00  0.00    -0.342 OA 
BRANCH   7   8
HETATM    8  C   UNL     1     -11.346  14.167  66.812  1.00  0.00    -0.343 C  
HETATM    9  O   UNL     1     -11.928  14.154  65.736  1.00  0.00    -0.370 OA 
BRANCH   8  10
HETATM   10  C   UNL     1      -9.911  13.793  66.971  1.00  0.00    -0.251 A  
HETATM   11  C   UNL     1      -9.037  14.888  67.136  1.00  0.00    -0.236 A  
HETATM   12  C   UNL     1      -7.674  14.700  67.362  1.00  0.00    -0.226 A  
HETATM   13  C   UNL     1      -7.152  13.413  67.380  1.00  0.00    -0.108 A  
HETATM   14  C   UNL     1      -7.996  12.317  67.207  1.00  0.00    -0.177 A  
HETATM   15  C   UNL     1      -9.386  12.488  67.057  1.00  0.00    -0.210 A  
BRANCH  15  16
HETATM   16  C   UNL     1     -10.210  11.264  66.908  1.00  0.00    -0.219 C  
HETATM   17  O   UNL     1     -10.598  10.980  65.776  1.00  0.00    -0.247 OA 
BRANCH  16  18
HETATM   18  C   UNL     1     -10.506  10.324  68.047  1.00  0.00    -0.234 A  
HETATM   19  C   UNL     1     -10.932  10.902  69.251  1.00  0.00    -0.295 A  
HETATM   20  C   UNL     1     -11.174  10.121  70.397  1.00  0.00    -0.402 A  
HETATM   21  C   UNL     1     -10.988   8.734  70.402  1.00  0.00    -0.235 A  
HETATM   22  O   UNL     1      -9.931   8.289  66.896  1.00  0.00    -0.220 OA 
HETATM   23  C   UNL     1     -10.606   8.161  69.177  1.00  0.00    -0.179 A  
HETATM   24  H   UNL     1      -9.827   7.345  66.882  1.00  0.00     0.000 HD 
HETATM   25  C   UNL     1     -10.354   8.935  68.026  1.00  0.00    -0.219 A  
BRANCH  21  26
HETATM   26  N   UNL     1     -11.166   7.946  71.537  1.00  0.00    -0.244 NA 
BRANCH  26  27
HETATM   27  C   UNL     1     -12.163   6.864  71.499  1.00  0.00    -0.371 C  
HETATM   28  C   UNL     1     -13.575   7.432  71.464  1.00  0.00    -0.454 C  
ENDBRANCH  26  27
BRANCH  26  29
HETATM   29  C   UNL     1     -10.135   7.841  72.579  1.00  0.00    -0.242 C  
HETATM   30  C   UNL     1     -10.541   6.810  73.620  1.00  0.00    -0.347 C  
ENDBRANCH  26  29
ENDBRANCH  21  26
ENDBRANCH  16  18
ENDBRANCH  15  16
ENDBRANCH   8  10
ENDBRANCH   7   8
ENDBRANCH   6   7
ENDBRANCH   5   6
ENDBRANCH   4   5
ENDBRANCH   3   4
ENDBRANCH   2   3
TORSDOF 12
ENDMDL
MODEL       41
REMARK 921   NORMALIZED FREE ENERGY PREDICTED BY IDOCK:   -5.55 KCAL/MOL
REMARK 922        TOTAL FREE ENERGY PREDICTED BY IDOCK:  -11.41 KCAL/MOL
REMARK 923 INTER-LIGAND FREE ENERGY PREDICTED BY IDOCK:   -8.87 KCAL/MOL
REMARK 924 INTRA-LIGAND FREE ENERGY PREDICTED BY IDOCK:   -2.54 KCAL/MOL
REMARK 927      BINDING AFFINITY PREDICTED BY RF-SCORE:    0.00 PKD
ROOT
HETATM    1  C   UNL     1      -8.593   6.690  65.973  1.00  0.00    -0.152 C  
HETATM    2  C   UNL     1      -9.750   5.786  66.374  1.00  0.00    -0.175 C  
ENDROOT
BRANCH   2   3
HETATM    3  C   UNL     1     -10.863   6.579  67.058  1.00  0.00    -0.465 C  
BRANCH   3   4
HETATM    4  C   UNL     1     -10.547   8.079  67.116  1.00  0.00    -0.367 C  
BRANCH   4   5
HETATM    5  C   UNL     1     -10.549   8.575  68.563  1.00  0.00    -0.154 C  
BRANCH   5   6
HETATM    6  C   UNL     1      -9.748   9.854  68.776  1.00  0.00    -0.160 C  
BRANCH   6   7
HETATM    7  O   UNL     1      -8.613  10.010  67.922  1.00  0.00    -0.121 OA 
BRANCH   7   8
HETATM    8  C   UNL     1      -8.505  11.214  67.304  1.00  0.00    -0.137 C  
HETATM    9  O   UNL     1      -7.838  12.163  67.692  1.00  0.00    -0.131 OA 
BRANCH   8  10
HETATM   10  C   UNL     1      -9.038  11.100  65.916  1.00  0.00    -0.218 A  
HETATM   11  C   UNL     1      -8.249  10.312  65.051  1.00  0.00    -0.154 A  
HETATM   12  C   UNL     1      -8.648  10.055  63.739  1.00  0.00    -0.202 A  
HETATM   13  C   UNL     1      -9.820  10.623  63.254  1.00  0.00    -0.364 A  
HETATM   14  C   UNL     1     -10.607  11.415  64.088  1.00  0.00    -0.430 A  
HETATM   15  C   UNL     1     -10.258  11.617  65.438  1.00  0.00    -0.306 A  
BRANCH  15  16
HETATM   16  C   UNL     1     -11.171  12.450  66.258  1.00  0.00    -0.317 C  
HETATM   17  O   UNL     1     -12.115  11.882  66.805  1.00  0.00    -0.593 OA 
BRANCH  16  18
HETATM   18  C   UNL     1     -10.941  13.916  66.520  1.00  0.00    -0.300 A  
HETATM   19  C   UNL     1     -10.061  14.583  65.657  1.00  0.00    -0.384 A  
HETATM   20  C   UNL     1      -9.726  15.936  65.850  1.00  0.00    -0.386 A  
HETATM   21  C   UNL     1     -10.237  16.682  66.918  1.00  0.00    -0.291 A  
HETATM   22  O   UNL     1     -12.350  14.084  68.465  1.00  0.00    -0.533 OA 
HETATM   23  C   UNL     1     -11.154  16.016  67.749  1.00  0.00    -0.273 A  
HETATM   24  H   UNL     1     -12.723  14.588  69.178  1.00  0.00     0.000 HD 
HETATM   25  C   UNL     1     -11.491  14.659  67.569  1.00  0.00    -0.361 A  
BRANCH  21  26
HETATM   26  N   UNL     1      -9.878  18.006  67.163  1.00  0.00    -0.304 NA 
BRANCH  26  27
HETATM   27  C   UNL     1     -10.526  19.072  66.383  1.00  0.00    -0.446 C  
HETATM   28  C   UNL     1      -9.958  20.434  66.757  1.00  0.00    -0.525 C  
ENDBRANCH  26  27
BRANCH  26  29
HETATM   29  C   UNL     1      -9.249  18.418  68.426  1.00  0.00    -0.322 C  
HETATM   30  C   UNL     1      -7.823  17.891  68.500  1.00  0.00    -0.301 C  
ENDBRANCH  26  29
ENDBRANCH  21  26
ENDBRANCH  16  18
ENDBRANCH  15  16
ENDBRANCH   8  10
ENDBRANCH   7   8
ENDBRANCH   6   7
ENDBRANCH   5   6
ENDBRANCH   4   5
ENDBRANCH   3   4
ENDBRANCH   2   3
TORSDOF 12
ENDMDL
MODEL       42
REMARK 921   NORMALIZED FREE ENERGY PREDICTED BY IDOCK:   -5.55 KCAL/MOL
REMARK 922        TOTAL FREE ENERGY PREDICTED BY IDOCK:  -11.41 KCAL/MOL
REMARK 923 INTER-LIGAND FREE ENERGY PREDICTED BY IDOCK:   -7.99 KCAL/MOL
REMARK 924 INTRA-LIGAND FREE ENERGY PREDICTED BY IDOCK:   -3.42 KCAL/MOL
REMARK 927      BINDING AFFINITY PREDICTED BY RF-SCORE:    0.00 PKD
ROOT
HETATM    1  C   UNL     1      -8.651   7.630  74.099  1.00  0.00    -0.296 C  
HETATM    2  C   UNL     1      -8.198   7.024  72.778  1.00  0.00    -0.118 C  
ENDROOT
BRANCH   2   3
HETATM    3  C   UNL     1      -8.770   5.620  72.586  1.00  0.00    -0.123 C  
BRANCH   3   4
HETATM    4  C   UNL     1      -8.280   4.975  71.284  1.00  0.00    -0.116 C  
BRANCH   4   5
HETATM    5  C   UNL     1      -7.458   5.973  70.465  1.00  0.00    -0.090 C  
BRANCH   5   6
HETATM    6  C   UNL     1      -8.021   6.237  69.072  1.00  0.00    -0.110 C  
BRANCH   6   7
HETATM    7  O   UNL     1      -9.410   5.941  68.912  1.00  0.00    -0.124 OA 
BRANCH   7   8
HETATM    8  C   UNL     1     -10.206   7.005  68.635  1.00  0.00    -0.176 C  
HETATM    9  O   UNL     1     -10.615   7.327  67.527  1.00  0.00    -0.238 OA 
BRANCH   8  10
HETATM   10  C   UNL     1     -10.791   7.522  69.905  1.00  0.00    -0.250 A  
HETATM   11  C   UNL     1     -11.672   6.626  70.549  1.00  0.00    -0.453 A  
HETATM   12  C   UNL     1     -12.249   6.937  71.781  1.00  0.00    -0.396 A  
HETATM   13  C   UNL     1     -11.992   8.170  72.368  1.00  0.00    -0.431 A  
HETATM   14  C   UNL     1     -11.135   9.074  71.742  1.00  0.00    -0.444 A  
HETATM   15  C   UNL     1     -10.484   8.742  70.538  1.00  0.00    -0.246 A  
BRANCH  15  16
HETATM   16  C   UNL     1      -9.567   9.755  69.960  1.00  0.00    -0.241 C  
HETATM   17  O   UNL     1      -8.385   9.703  70.296  1.00  0.00    -0.181 OA 
BRANCH  16  18
HETATM   18  C   UNL     1      -9.997  10.765  68.928  1.00  0.00    -0.213 A  
HETATM   19  C   UNL     1     -11.299  10.642  68.425  1.00  0.00    -0.348 A  
HETATM   20  C   UNL     1     -11.780  11.493  67.412  1.00  0.00    -0.231 A  
HETATM   21  C   UNL     1     -10.982  12.492  66.842  1.00  0.00    -0.257 A  
HETATM   22  O   UNL     1      -7.913  11.968  68.821  1.00  0.00    -0.268 OA 
HETATM   23  C   UNL     1      -9.695  12.636  67.387  1.00  0.00    -0.199 A  
HETATM   24  H   UNL     1      -7.373  12.660  68.460  1.00  0.00     0.000 HD 
HETATM   25  C   UNL     1      -9.201  11.784  68.396  1.00  0.00    -0.175 A  
BRANCH  21  26
HETATM   26  N   UNL     1     -11.415  13.310  65.801  1.00  0.00    -0.315 NA 
BRANCH  26  27
HETATM   27  C   UNL     1     -10.440  14.194  65.141  1.00  0.00    -0.402 C  
HETATM   28  C   UNL     1     -11.022  15.586  64.944  1.00  0.00    -0.452 C  
ENDBRANCH  26  27
BRANCH  26  29
HETATM   29  C   UNL     1     -12.642  13.020  65.045  1.00  0.00    -0.454 C  
HETATM   30  C   UNL     1     -12.311  12.238  63.783  1.00  0.00    -0.637 C  
ENDBRANCH  26  29
ENDBRANCH  21  26
ENDBRANCH  16  18
ENDBRANCH  15  16
ENDBRANCH   8  10
ENDBRANCH   7   8
ENDBRANCH   6   7
ENDBRANCH   5   6
ENDBRANCH   4   5
ENDBRANCH   3   4
ENDBRANCH   2   3
TORSDOF 12
ENDMDL
MODEL       43
REMARK 921   NORMALIZED FREE ENERGY PREDICTED BY IDOCK:   -5.55 KCAL/MOL
REMARK 922        TOTAL FREE ENERGY PREDICTED BY IDOCK:  -11.40 KCAL/MOL
REMARK 923 INTER-LIGAND FREE ENERGY PREDICTED BY IDOCK:   -9.76 KCAL/MOL
REMARK 924 INTRA-LIGAND FREE ENERGY PREDICTED BY IDOCK:   -1.64 KCAL/MOL
REMARK 927      BINDING AFFINITY PREDICTED BY RF-SCORE:    0.00 PKD
ROOT
HETATM    1  C   UNL     1     -10.630  19.653  65.883  1.00  0.00    -0.566 C  
HETATM    2  C   UNL     1      -9.977  20.180  67.152  1.00  0.00    -0.595 C  
ENDROOT
BRANCH   2   3
HETATM    3  C   UNL     1     -10.070  19.163  68.289  1.00  0.00    -0.499 C  
BRANCH   3   4
HETATM    4  C   UNL     1     -10.416  17.760  67.776  1.00  0.00    -0.402 C  
BRANCH   4   5
HETATM    5  C   UNL     1     -10.609  16.791  68.945  1.00  0.00    -0.350 C  
BRANCH   5   6
HETATM    6  C   UNL     1      -9.995  15.415  68.710  1.00  0.00    -0.208 C  
BRANCH   6   7
HETATM    7  O   UNL     1     -10.335  14.802  67.464  1.00  0.00    -0.237 OA 
BRANCH   7   8
HETATM    8  C   UNL     1     -11.290  13.839  67.527  1.00  0.00    -0.309 C  
HETATM    9  O   UNL     1     -12.148  13.733  68.392  1.00  0.00    -0.368 OA 
BRANCH   8  10
HETATM   10  C   UNL     1     -11.359  13.135  66.214  1.00  0.00    -0.348 A  
HETATM   11  C   UNL     1     -12.214  13.743  65.270  1.00  0.00    -0.461 A  
HETATM   12  C   UNL     1     -12.336  13.242  63.974  1.00  0.00    -0.415 A  
HETATM   13  C   UNL     1     -11.641  12.093  63.614  1.00  0.00    -0.575 A  
HETATM   14  C   UNL     1     -10.801  11.470  64.536  1.00  0.00    -0.390 A  
HETATM   15  C   UNL     1     -10.608  12.010  65.822  1.00  0.00    -0.301 A  
BRANCH  15  16
HETATM   16  C   UNL     1      -9.673  11.296  66.725  1.00  0.00    -0.193 C  
HETATM   17  O   UNL     1      -8.497  11.655  66.719  1.00  0.00    -0.169 OA 
BRANCH  16  18
HETATM   18  C   UNL     1     -10.115  10.233  67.697  1.00  0.00    -0.229 A  
HETATM   19  C   UNL     1     -10.378  10.645  69.010  1.00  0.00    -0.237 A  
HETATM   20  C   UNL     1     -10.735   9.723  70.013  1.00  0.00    -0.326 A  
HETATM   21  C   UNL     1     -10.829   8.350  69.760  1.00  0.00    -0.183 A  
HETATM   22  O   UNL     1      -9.993   8.378  66.166  1.00  0.00    -0.448 OA 
HETATM   23  C   UNL     1     -10.608   7.955  68.429  1.00  0.00    -0.154 A  
HETATM   24  H   UNL     1     -10.080   7.451  65.978  1.00  0.00     0.000 HD 
HETATM   25  C   UNL     1     -10.243   8.869  67.419  1.00  0.00    -0.249 A  
BRANCH  21  26
HETATM   26  N   UNL     1     -11.125   7.412  70.746  1.00  0.00    -0.259 NA 
BRANCH  26  27
HETATM   27  C   UNL     1     -12.072   7.777  71.811  1.00  0.00    -0.298 C  
HETATM   28  C   UNL     1     -13.479   7.308  71.466  1.00  0.00    -0.439 C  
ENDBRANCH  26  27
BRANCH  26  29
HETATM   29  C   UNL     1     -10.906   5.973  70.538  1.00  0.00    -0.314 C  
HETATM   30  C   UNL     1      -9.923   5.436  71.567  1.00  0.00    -0.237 C  
ENDBRANCH  26  29
ENDBRANCH  21  26
ENDBRANCH  16  18
ENDBRANCH  15  16
ENDBRANCH   8  10
ENDBRANCH   7   8
ENDBRANCH   6   7
ENDBRANCH   5   6
ENDBRANCH   4   5
ENDBRANCH   3   4
ENDBRANCH   2   3
TORSDOF 12
ENDMDL
MODEL       44
REMARK 921   NORMALIZED FREE ENERGY PREDICTED BY IDOCK:   -5.54 KCAL/MOL
REMARK 922        TOTAL FREE ENERGY PREDICTED BY IDOCK:  -11.40 KCAL/MOL
REMARK 923 INTER-LIGAND FREE ENERGY PREDICTED BY IDOCK:   -9.30 KCAL/MOL
REMARK 924 INTRA-LIGAND FREE ENERGY PREDICTED BY IDOCK:   -2.10 KCAL/MOL
REMARK 927      BINDING AFFINITY PREDICTED BY RF-SCORE:    0.00 PKD
ROOT
HETATM    1  C   UNL     1      -7.522  20.273  67.137  1.00  0.00    -0.337 C  
HETATM    2  C   UNL     1      -8.534  19.729  66.140  1.00  0.00    -0.367 C  
ENDROOT
BRANCH   2   3
HETATM    3  C   UNL     1      -9.953  19.776  66.705  1.00  0.00    -0.545 C  
BRANCH   3   4
HETATM    4  C   UNL     1     -10.459  18.383  67.102  1.00  0.00    -0.434 C  
BRANCH   4   5
HETATM    5  C   UNL     1     -10.254  18.142  68.599  1.00  0.00    -0.382 C  
BRANCH   5   6
HETATM    6  C   UNL     1      -9.673  16.771  68.927  1.00  0.00    -0.257 C  
BRANCH   6   7
HETATM    7  O   UNL     1      -9.003  16.120  67.846  1.00  0.00    -0.182 OA 
BRANCH   7   8
HETATM    8  C   UNL     1      -9.103  14.766  67.825  1.00  0.00    -0.186 C  
HETATM    9  O   UNL     1      -8.569  13.994  68.609  1.00  0.00    -0.163 OA 
BRANCH   8  10
HETATM   10  C   UNL     1     -10.225  14.373  66.925  1.00  0.00    -0.265 A  
HETATM   11  C   UNL     1      -9.968  14.570  65.551  1.00  0.00    -0.373 A  
HETATM   12  C   UNL     1     -10.893  14.189  64.579  1.00  0.00    -0.336 A  
HETATM   13  C   UNL     1     -12.113  13.649  64.966  1.00  0.00    -0.418 A  
HETATM   14  C   UNL     1     -12.393  13.458  66.319  1.00  0.00    -0.410 A  
HETATM   15  C   UNL     1     -11.437  13.764  67.307  1.00  0.00    -0.367 A  
BRANCH  15  16
HETATM   16  C   UNL     1     -11.810  13.501  68.718  1.00  0.00    -0.355 C  
HETATM   17  O   UNL     1     -12.401  14.395  69.321  1.00  0.00    -0.273 OA 
BRANCH  16  18
HETATM   18  C   UNL     1     -11.581  12.177  69.400  1.00  0.00    -0.381 A  
HETATM   19  C   UNL     1     -10.625  11.327  68.828  1.00  0.00    -0.234 A  
HETATM   20  C   UNL     1     -10.379  10.042  69.347  1.00  0.00    -0.245 A  
HETATM   21  C   UNL     1     -11.084   9.538  70.447  1.00  0.00    -0.277 A  
HETATM   22  O   UNL     1     -13.224  12.463  71.137  1.00  0.00    -0.125 OA 
HETATM   23  C   UNL     1     -12.007  10.418  71.040  1.00  0.00    -0.481 A  
HETATM   24  H   UNL     1     -13.689  12.141  71.900  1.00  0.00     0.000 HD 
HETATM   25  C   UNL     1     -12.265  11.703  70.523  1.00  0.00    -0.361 A  
BRANCH  21  26
HETATM   26  N   UNL     1     -10.900   8.251  70.945  1.00  0.00    -0.225 NA 
BRANCH  26  27
HETATM   27  C   UNL     1     -10.269   7.239  70.081  1.00  0.00    -0.203 C  
HETATM   28  C   UNL     1     -11.323   6.352  69.433  1.00  0.00    -0.443 C  
ENDBRANCH  26  27
BRANCH  26  29
HETATM   29  C   UNL     1     -10.881   7.972  72.388  1.00  0.00    -0.327 C  
HETATM   30  C   UNL     1      -9.479   8.167  72.944  1.00  0.00    -0.345 C  
ENDBRANCH  26  29
ENDBRANCH  21  26
ENDBRANCH  16  18
ENDBRANCH  15  16
ENDBRANCH   8  10
ENDBRANCH   7   8
ENDBRANCH   6   7
ENDBRANCH   5   6
ENDBRANCH   4   5
ENDBRANCH   3   4
ENDBRANCH   2   3
TORSDOF 12
ENDMDL
MODEL       45
REMARK 921   NORMALIZED FREE ENERGY PREDICTED BY IDOCK:   -5.54 KCAL/MOL
REMARK 922        TOTAL FREE ENERGY PREDICTED BY IDOCK:  -11.38 KCAL/MOL
REMARK 923 INTER-LIGAND FREE ENERGY PREDICTED BY IDOCK:   -8.85 KCAL/MOL
REMARK 924 INTRA-LIGAND FREE ENERGY PREDICTED BY IDOCK:   -2.53 KCAL/MOL
REMARK 927      BINDING AFFINITY PREDICTED BY RF-SCORE:    0.00 PKD
ROOT
HETATM    1  C   UNL     1     -12.558  15.583  74.060  1.00  0.00    -0.766 C  
HETATM    2  C   UNL     1     -13.344  15.441  72.765  1.00  0.00    -0.617 C  
ENDROOT
BRANCH   2   3
HETATM    3  C   UNL     1     -13.086  14.087  72.105  1.00  0.00    -0.501 C  
BRANCH   3   4
HETATM    4  C   UNL     1     -12.687  14.234  70.631  1.00  0.00    -0.409 C  
BRANCH   4   5
HETATM    5  C   UNL     1     -11.464  15.143  70.493  1.00  0.00    -0.342 C  
BRANCH   5   6
HETATM    6  C   UNL     1     -11.635  16.251  69.459  1.00  0.00    -0.169 C  
BRANCH   6   7
HETATM    7  O   UNL     1     -10.590  17.225  69.434  1.00  0.00    -0.300 OA 
BRANCH   7   8
HETATM    8  C   UNL     1     -10.446  17.899  68.264  1.00  0.00    -0.354 C  
HETATM    9  O   UNL     1     -11.193  18.770  67.840  1.00  0.00    -0.062 OA 
BRANCH   8  10
HETATM   10  C   UNL     1      -9.069  17.673  67.736  1.00  0.00    -0.247 A  
HETATM   11  C   UNL     1      -8.093  18.546  68.262  1.00  0.00    -0.324 A  
HETATM   12  C   UNL     1      -6.747  18.418  67.917  1.00  0.00    -0.216 A  
HETATM   13  C   UNL     1      -6.361  17.446  67.003  1.00  0.00    -0.202 A  
HETATM   14  C   UNL     1      -7.313  16.582  66.462  1.00  0.00    -0.229 A  
HETATM   15  C   UNL     1      -8.661  16.647  66.861  1.00  0.00    -0.241 A  
BRANCH  15  16
HETATM   16  C   UNL     1      -9.598  15.669  66.256  1.00  0.00    -0.308 C  
HETATM   17  O   UNL     1      -9.959  15.876  65.098  1.00  0.00    -0.420 OA 
BRANCH  16  18
HETATM   18  C   UNL     1     -10.043  14.411  66.954  1.00  0.00    -0.259 A  
HETATM   19  C   UNL     1      -9.109  13.786  67.791  1.00  0.00    -0.193 A  
HETATM   20  C   UNL     1      -9.400  12.571  68.440  1.00  0.00    -0.149 A  
HETATM   21  C   UNL     1     -10.625  11.915  68.273  1.00  0.00    -0.213 A  
HETATM   22  O   UNL     1     -12.253  14.323  66.001  1.00  0.00    -0.421 OA 
HETATM   23  C   UNL     1     -11.570  12.575  67.469  1.00  0.00    -0.424 A  
HETATM   24  H   UNL     1     -13.097  13.899  65.902  1.00  0.00     0.000 HD 
HETATM   25  C   UNL     1     -11.286  13.788  66.809  1.00  0.00    -0.330 A  
BRANCH  21  26
HETATM   26  N   UNL     1     -10.916  10.686  68.859  1.00  0.00    -0.231 NA 
BRANCH  26  27
HETATM   27  C   UNL     1     -11.441  10.662  70.234  1.00  0.00    -0.337 C  
HETATM   28  C   UNL     1     -11.685   9.231  70.693  1.00  0.00    -0.276 C  
ENDBRANCH  26  27
BRANCH  26  29
HETATM   29  C   UNL     1     -11.154   9.479  68.054  1.00  0.00     0.005 C  
HETATM   30  C   UNL     1     -10.185   9.428  66.883  1.00  0.00    -0.318 C  
ENDBRANCH  26  29
ENDBRANCH  21  26
ENDBRANCH  16  18
ENDBRANCH  15  16
ENDBRANCH   8  10
ENDBRANCH   7   8
ENDBRANCH   6   7
ENDBRANCH   5   6
ENDBRANCH   4   5
ENDBRANCH   3   4
ENDBRANCH   2   3
TORSDOF 12
ENDMDL
MODEL       46
REMARK 921   NORMALIZED FREE ENERGY PREDICTED BY IDOCK:   -5.53 KCAL/MOL
REMARK 922        TOTAL FREE ENERGY PREDICTED BY IDOCK:  -11.38 KCAL/MOL
REMARK 923 INTER-LIGAND FREE ENERGY PREDICTED BY IDOCK:   -8.31 KCAL/MOL
REMARK 924 INTRA-LIGAND FREE ENERGY PREDICTED BY IDOCK:   -3.07 KCAL/MOL
REMARK 927      BINDING AFFINITY PREDICTED BY RF-SCORE:    0.00 PKD
ROOT
HETATM    1  C   UNL     1      -6.983   9.600  65.892  1.00  0.00    -0.097 C  
HETATM    2  C   UNL     1      -6.823   8.350  66.745  1.00  0.00    -0.069 C  
ENDROOT
BRANCH   2   3
HETATM    3  C   UNL     1      -8.158   7.914  67.348  1.00  0.00    -0.123 C  
BRANCH   3   4
HETATM    4  C   UNL     1      -9.325   8.136  66.378  1.00  0.00    -0.269 C  
BRANCH   4   5
HETATM    5  C   UNL     1     -10.642   7.673  67.005  1.00  0.00    -0.406 C  
BRANCH   5   6
HETATM    6  C   UNL     1     -10.461   6.694  68.161  1.00  0.00    -0.214 C  
BRANCH   6   7
HETATM    7  O   UNL     1     -11.616   6.500  68.979  1.00  0.00    -0.235 OA 
BRANCH   7   8
HETATM    8  C   UNL     1     -11.391   6.490  70.318  1.00  0.00    -0.395 C  
HETATM    9  O   UNL     1     -10.457   5.939  70.885  1.00  0.00    -0.220 OA 
BRANCH   8  10
HETATM   10  C   UNL     1     -12.246   7.526  70.965  1.00  0.00    -0.288 A  
HETATM   11  C   UNL     1     -13.507   7.058  71.390  1.00  0.00    -0.323 A  
HETATM   12  C   UNL     1     -14.396   7.890  72.073  1.00  0.00    -0.490 A  
HETATM   13  C   UNL     1     -14.058   9.218  72.300  1.00  0.00    -0.374 A  
HETATM   14  C   UNL     1     -12.821   9.703  71.876  1.00  0.00    -0.515 A  
HETATM   15  C   UNL     1     -11.882   8.855  71.257  1.00  0.00    -0.371 A  
BRANCH  15  16
HETATM   16  C   UNL     1     -10.581   9.451  70.867  1.00  0.00    -0.320 C  
HETATM   17  O   UNL     1      -9.597   9.148  71.540  1.00  0.00    -0.283 OA 
BRANCH  16  18
HETATM   18  C   UNL     1     -10.403  10.321  69.650  1.00  0.00    -0.281 A  
HETATM   19  C   UNL     1     -11.560  10.653  68.934  1.00  0.00    -0.320 A  
HETATM   20  C   UNL     1     -11.500  11.407  67.746  1.00  0.00    -0.353 A  
HETATM   21  C   UNL     1     -10.285  11.850  67.209  1.00  0.00    -0.200 A  
HETATM   22  O   UNL     1      -8.005  10.502  69.777  1.00  0.00    -0.326 OA 
HETATM   23  C   UNL     1      -9.136  11.550  67.962  1.00  0.00    -0.174 A  
HETATM   24  H   UNL     1      -7.178  10.821  69.436  1.00  0.00     0.000 HD 
HETATM   25  C   UNL     1      -9.185  10.790  69.147  1.00  0.00    -0.116 A  
BRANCH  21  26
HETATM   26  N   UNL     1     -10.193  12.549  66.008  1.00  0.00    -0.246 NA 
BRANCH  26  27
HETATM   27  C   UNL     1     -10.939  12.052  64.840  1.00  0.00    -0.306 C  
HETATM   28  C   UNL     1     -10.272  10.811  64.262  1.00  0.00    -0.422 C  
ENDBRANCH  26  27
BRANCH  26  29
HETATM   29  C   UNL     1      -9.776  13.957  65.960  1.00  0.00    -0.250 C  
HETATM   30  C   UNL     1     -10.909  14.858  66.426  1.00  0.00    -0.325 C  
ENDBRANCH  26  29
ENDBRANCH  21  26
ENDBRANCH  16  18
ENDBRANCH  15  16
ENDBRANCH   8  10
ENDBRANCH   7   8
ENDBRANCH   6   7
ENDBRANCH   5   6
ENDBRANCH   4   5
ENDBRANCH   3   4
ENDBRANCH   2   3
TORSDOF 12
ENDMDL
MODEL       47
REMARK 921   NORMALIZED FREE ENERGY PREDICTED BY IDOCK:   -5.53 KCAL/MOL
REMARK 922        TOTAL FREE ENERGY PREDICTED BY IDOCK:  -11.37 KCAL/MOL
REMARK 923 INTER-LIGAND FREE ENERGY PREDICTED BY IDOCK:   -8.31 KCAL/MOL
REMARK 924 INTRA-LIGAND FREE ENERGY PREDICTED BY IDOCK:   -3.06 KCAL/MOL
REMARK 927      BINDING AFFINITY PREDICTED BY RF-SCORE:    0.00 PKD
ROOT
HETATM    1  C   UNL     1     -10.260  11.907  63.188  1.00  0.00    -0.334 C  
HETATM    2  C   UNL     1     -11.750  12.212  63.244  1.00  0.00    -0.441 C  
ENDROOT
BRANCH   2   3
HETATM    3  C   UNL     1     -12.018  13.558  63.914  1.00  0.00    -0.491 C  
BRANCH   3   4
HETATM    4  C   UNL     1     -10.836  14.012  64.781  1.00  0.00    -0.430 C  
BRANCH   4   5
HETATM    5  C   UNL     1     -11.232  15.211  65.645  1.00  0.00    -0.296 C  
BRANCH   5   6
HETATM    6  C   UNL     1     -11.709  14.831  67.042  1.00  0.00    -0.315 C  
BRANCH   6   7
HETATM    7  O   UNL     1     -11.997  13.444  67.230  1.00  0.00    -0.362 OA 
BRANCH   7   8
HETATM    8  C   UNL     1     -11.250  12.814  68.173  1.00  0.00    -0.272 C  
HETATM    9  O   UNL     1     -11.523  12.722  69.362  1.00  0.00    -0.271 OA 
BRANCH   8  10
HETATM   10  C   UNL     1     -10.231  11.959  67.498  1.00  0.00    -0.212 A  
HETATM   11  C   UNL     1     -10.771  10.946  66.677  1.00  0.00    -0.289 A  
HETATM   12  C   UNL     1      -9.947  10.107  65.926  1.00  0.00    -0.334 A  
HETATM   13  C   UNL     1      -8.567  10.234  66.021  1.00  0.00    -0.153 A  
HETATM   14  C   UNL     1      -8.014  11.220  66.837  1.00  0.00    -0.155 A  
HETATM   15  C   UNL     1      -8.833  12.126  67.538  1.00  0.00    -0.175 A  
BRANCH  15  16
HETATM   16  C   UNL     1      -8.157  13.160  68.358  1.00  0.00    -0.130 C  
HETATM   17  O   UNL     1      -7.325  12.775  69.179  1.00  0.00    -0.006 OA 
BRANCH  16  18
HETATM   18  C   UNL     1      -8.375  14.638  68.167  1.00  0.00    -0.144 A  
HETATM   19  C   UNL     1      -7.845  15.212  67.004  1.00  0.00    -0.197 A  
HETATM   20  C   UNL     1      -7.936  16.595  66.758  1.00  0.00    -0.284 A  
HETATM   21  C   UNL     1      -8.542  17.472  67.666  1.00  0.00    -0.219 A  
HETATM   22  O   UNL     1      -9.553  15.022  70.233  1.00  0.00    -0.422 OA 
HETATM   23  C   UNL     1      -9.110  16.878  68.807  1.00  0.00    -0.254 A  
HETATM   24  H   UNL     1      -9.990  15.604  70.842  1.00  0.00     0.000 HD 
HETATM   25  C   UNL     1      -9.018  15.496  69.065  1.00  0.00    -0.237 A  
BRANCH  21  26
HETATM   26  N   UNL     1      -8.596  18.850  67.473  1.00  0.00    -0.273 NA 
BRANCH  26  27
HETATM   27  C   UNL     1      -7.745  19.716  68.306  1.00  0.00    -0.321 C  
HETATM   28  C   UNL     1      -7.113  20.818  67.466  1.00  0.00    -0.397 C  
ENDBRANCH  26  27
BRANCH  26  29
HETATM   29  C   UNL     1      -9.093  19.440  66.222  1.00  0.00    -0.346 C  
HETATM   30  C   UNL     1     -10.610  19.338  66.159  1.00  0.00    -0.549 C  
ENDBRANCH  26  29
ENDBRANCH  21  26
ENDBRANCH  16  18
ENDBRANCH  15  16
ENDBRANCH   8  10
ENDBRANCH   7   8
ENDBRANCH   6   7
ENDBRANCH   5   6
ENDBRANCH   4   5
ENDBRANCH   3   4
ENDBRANCH   2   3
TORSDOF 12
ENDMDL
MODEL       48
REMARK 921   NORMALIZED FREE ENERGY PREDICTED BY IDOCK:   -5.51 KCAL/MOL
REMARK 922        TOTAL FREE ENERGY PREDICTED BY IDOCK:  -11.35 KCAL/MOL
REMARK 923 INTER-LIGAND FREE ENERGY PREDICTED BY IDOCK:   -8.98 KCAL/MOL
REMARK 924 INTRA-LIGAND FREE ENERGY PREDICTED BY IDOCK:   -2.36 KCAL/MOL
REMARK 927      BINDING AFFINITY PREDICTED BY RF-SCORE:    0.00 PKD
ROOT
HETATM    1  C   UNL     1      -9.937   8.319  72.683  1.00  0.00    -0.357 C  
HETATM    2  C   UNL     1     -11.360   7.783  72.728  1.00  0.00    -0.446 C  
ENDROOT
BRANCH   2   3
HETATM    3  C   UNL     1     -12.289   8.598  71.829  1.00  0.00    -0.402 C  
BRANCH   3   4
HETATM    4  C   UNL     1     -11.518   9.620  70.984  1.00  0.00    -0.444 C  
BRANCH   4   5
HETATM    5  C   UNL     1     -12.467  10.684  70.428  1.00  0.00    -0.421 C  
BRANCH   5   6
HETATM    6  C   UNL     1     -11.783  11.707  69.528  1.00  0.00    -0.344 C  
BRANCH   6   7
HETATM    7  O   UNL     1     -12.253  11.741  68.179  1.00  0.00    -0.507 OA 
BRANCH   7   8
HETATM    8  C   UNL     1     -11.983  12.881  67.493  1.00  0.00    -0.296 C  
HETATM    9  O   UNL     1     -11.788  13.985  67.982  1.00  0.00    -0.338 OA 
BRANCH   8  10
HETATM   10  C   UNL     1     -11.619  12.532  66.089  1.00  0.00    -0.448 A  
HETATM   11  C   UNL     1     -12.583  12.902  65.128  1.00  0.00    -0.536 A  
HETATM   12  C   UNL     1     -12.361  12.704  63.765  1.00  0.00    -0.568 A  
HETATM   13  C   UNL     1     -11.190  12.086  63.343  1.00  0.00    -0.481 A  
HETATM   14  C   UNL     1     -10.230  11.701  64.278  1.00  0.00    -0.357 A  
HETATM   15  C   UNL     1     -10.406  11.967  65.650  1.00  0.00    -0.285 A  
BRANCH  15  16
HETATM   16  C   UNL     1      -9.319  11.547  66.568  1.00  0.00    -0.197 C  
HETATM   17  O   UNL     1      -8.495  12.400  66.894  1.00  0.00    -0.190 OA 
BRANCH  16  18
HETATM   18  C   UNL     1      -9.239  10.172  67.179  1.00  0.00    -0.157 A  
HETATM   19  C   UNL     1      -9.723   9.107  66.408  1.00  0.00    -0.330 A  
HETATM   20  C   UNL     1      -9.754   7.792  66.908  1.00  0.00    -0.282 A  
HETATM   21  C   UNL     1      -9.321   7.479  68.202  1.00  0.00    -0.136 A  
HETATM   22  O   UNL     1      -8.287  10.851  69.284  1.00  0.00    -0.318 OA 
HETATM   23  C   UNL     1      -8.795   8.548  68.948  1.00  0.00    -0.139 A  
HETATM   24  H   UNL     1      -7.966  10.645  70.154  1.00  0.00     0.000 HD 
HETATM   25  C   UNL     1      -8.766   9.870  68.459  1.00  0.00    -0.121 A  
BRANCH  21  26
HETATM   26  N   UNL     1      -9.393   6.196  68.740  1.00  0.00    -0.123 NA 
BRANCH  26  27
HETATM   27  C   UNL     1      -8.946   5.982  70.126  1.00  0.00    -0.147 C  
HETATM   28  C   UNL     1      -9.838   4.970  70.830  1.00  0.00    -0.279 C  
ENDBRANCH  26  27
BRANCH  26  29
HETATM   29  C   UNL     1     -10.283   5.169  68.181  1.00  0.00    -0.111 C  
HETATM   30  C   UNL     1      -9.479   4.150  67.388  1.00  0.00    -0.223 C  
ENDBRANCH  26  29
ENDBRANCH  21  26
ENDBRANCH  16  18
ENDBRANCH  15  16
ENDBRANCH   8  10
ENDBRANCH   7   8
ENDBRANCH   6   7
ENDBRANCH   5   6
ENDBRANCH   4   5
ENDBRANCH   3   4
ENDBRANCH   2   3
TORSDOF 12
ENDMDL
MODEL       49
REMARK 921   NORMALIZED FREE ENERGY PREDICTED BY IDOCK:   -5.51 KCAL/MOL
REMARK 922        TOTAL FREE ENERGY PREDICTED BY IDOCK:  -11.34 KCAL/MOL
REMARK 923 INTER-LIGAND FREE ENERGY PREDICTED BY IDOCK:   -9.10 KCAL/MOL
REMARK 924 INTRA-LIGAND FREE ENERGY PREDICTED BY IDOCK:   -2.24 KCAL/MOL
REMARK 927      BINDING AFFINITY PREDICTED BY RF-SCORE:    0.00 PKD
ROOT
HETATM    1  C   UNL     1     -12.198  16.204  72.878  1.00  0.00    -0.640 C  
HETATM    2  C   UNL     1     -11.845  15.582  71.535  1.00  0.00    -0.472 C  
ENDROOT
BRANCH   2   3
HETATM    3  C   UNL     1     -12.992  14.726  71.000  1.00  0.00    -0.423 C  
BRANCH   3   4
HETATM    4  C   UNL     1     -12.622  13.238  70.950  1.00  0.00    -0.386 C  
BRANCH   4   5
HETATM    5  C   UNL     1     -13.353  12.465  72.050  1.00  0.00    -0.511 C  
BRANCH   5   6
HETATM    6  C   UNL     1     -13.221  10.950  71.928  1.00  0.00    -0.403 C  
BRANCH   6   7
HETATM    7  O   UNL     1     -12.018  10.493  71.307  1.00  0.00    -0.345 OA 
BRANCH   7   8
HETATM    8  C   UNL     1     -11.801   9.154  71.367  1.00  0.00    -0.345 C  
HETATM    9  O   UNL     1     -12.651   8.282  71.247  1.00  0.00    -0.296 OA 
BRANCH   8  10
HETATM   10  C   UNL     1     -10.337   8.891  71.255  1.00  0.00    -0.355 A  
HETATM   11  C   UNL     1      -9.677   8.738  72.493  1.00  0.00    -0.126 A  
HETATM   12  C   UNL     1      -8.319   8.422  72.556  1.00  0.00    -0.213 A  
HETATM   13  C   UNL     1      -7.587   8.302  71.381  1.00  0.00    -0.095 A  
HETATM   14  C   UNL     1      -8.218   8.463  70.148  1.00  0.00    -0.117 A  
HETATM   15  C   UNL     1      -9.603   8.703  70.068  1.00  0.00    -0.175 A  
BRANCH  15  16
HETATM   16  C   UNL     1     -10.194   8.831  68.713  1.00  0.00    -0.206 C  
HETATM   17  O   UNL     1     -10.742   7.836  68.240  1.00  0.00    -0.148 OA 
BRANCH  16  18
HETATM   18  C   UNL     1     -10.231  10.128  67.948  1.00  0.00    -0.217 A  
HETATM   19  C   UNL     1      -9.049  10.518  67.305  1.00  0.00    -0.152 A  
HETATM   20  C   UNL     1      -8.956  11.743  66.616  1.00  0.00    -0.195 A  
HETATM   21  C   UNL     1     -10.027  12.641  66.550  1.00  0.00    -0.251 A  
HETATM   22  O   UNL     1     -12.513  10.700  68.466  1.00  0.00    -0.719 OA 
HETATM   23  C   UNL     1     -11.221  12.217  67.159  1.00  0.00    -0.365 A  
HETATM   24  H   UNL     1     -13.254  11.290  68.404  1.00  0.00     0.000 HD 
HETATM   25  C   UNL     1     -11.323  10.997  67.857  1.00  0.00    -0.311 A  
BRANCH  21  26
HETATM   26  N   UNL     1      -9.943  13.882  65.924  1.00  0.00    -0.307 NA 
BRANCH  26  27
HETATM   27  C   UNL     1     -10.875  14.187  64.826  1.00  0.00    -0.413 C  
HETATM   28  C   UNL     1     -11.137  15.684  64.741  1.00  0.00    -0.426 C  
ENDBRANCH  26  27
BRANCH  26  29
HETATM   29  C   UNL     1      -9.306  15.037  66.572  1.00  0.00    -0.281 C  
HETATM   30  C   UNL     1      -9.598  15.030  68.065  1.00  0.00    -0.208 C  
ENDBRANCH  26  29
ENDBRANCH  21  26
ENDBRANCH  16  18
ENDBRANCH  15  16
ENDBRANCH   8  10
ENDBRANCH   7   8
ENDBRANCH   6   7
ENDBRANCH   5   6
ENDBRANCH   4   5
ENDBRANCH   3   4
ENDBRANCH   2   3
TORSDOF 12
ENDMDL
MODEL       50
REMARK 921   NORMALIZED FREE ENERGY PREDICTED BY IDOCK:   -5.49 KCAL/MOL
REMARK 922        TOTAL FREE ENERGY PREDICTED BY IDOCK:  -11.30 KCAL/MOL
REMARK 923 INTER-LIGAND FREE ENERGY PREDICTED BY IDOCK:   -9.44 KCAL/MOL
REMARK 924 INTRA-LIGAND FREE ENERGY PREDICTED BY IDOCK:   -1.86 KCAL/MOL
REMARK 927      BINDING AFFINITY PREDICTED BY RF-SCORE:    0.00 PKD
ROOT
HETATM    1  C   UNL     1      -9.183   4.160  68.277  1.00  0.00    -0.195 C  
HETATM    2  C   UNL     1      -9.588   4.716  66.920  1.00  0.00    -0.197 C  
ENDROOT
BRANCH   2   3
HETATM    3  C   UNL     1     -10.561   5.884  67.066  1.00  0.00    -0.376 C  
BRANCH   3   4
HETATM    4  C   UNL     1      -9.848   7.239  66.976  1.00  0.00    -0.265 C  
BRANCH   4   5
HETATM    5  C   UNL     1     -10.776   8.368  67.429  1.00  0.00    -0.225 C  
BRANCH   5   6
HETATM    6  C   UNL     1     -10.046   9.658  67.786  1.00  0.00    -0.187 C  
BRANCH   6   7
HETATM    7  O   UNL     1      -9.129  10.131  66.797  1.00  0.00    -0.138 OA 
BRANCH   7   8
HETATM    8  C   UNL     1      -9.114  11.474  66.605  1.00  0.00    -0.190 C  
HETATM    9  O   UNL     1      -8.207  12.235  66.914  1.00  0.00    -0.172 OA 
BRANCH   8  10
HETATM   10  C   UNL     1     -10.207  11.844  65.659  1.00  0.00    -0.280 A  
HETATM   11  C   UNL     1     -10.165  11.161  64.425  1.00  0.00    -0.390 A  
HETATM   12  C   UNL     1     -11.155  11.348  63.460  1.00  0.00    -0.373 A  
HETATM   13  C   UNL     1     -12.179  12.258  63.693  1.00  0.00    -0.665 A  
HETATM   14  C   UNL     1     -12.231  12.953  64.901  1.00  0.00    -0.504 A  
HETATM   15  C   UNL     1     -11.283  12.716  65.916  1.00  0.00    -0.350 A  
BRANCH  15  16
HETATM   16  C   UNL     1     -11.434  13.479  67.179  1.00  0.00    -0.338 C  
HETATM   17  O   UNL     1     -11.898  12.880  68.148  1.00  0.00    -0.336 OA 
BRANCH  16  18
HETATM   18  C   UNL     1     -10.966  14.901  67.345  1.00  0.00    -0.314 A  
HETATM   19  C   UNL     1     -10.009  15.364  66.433  1.00  0.00    -0.295 A  
HETATM   20  C   UNL     1      -9.457  16.655  66.537  1.00  0.00    -0.288 A  
HETATM   21  C   UNL     1      -9.819  17.536  67.562  1.00  0.00    -0.293 A  
HETATM   22  O   UNL     1     -12.287  15.410  69.294  1.00  0.00    -0.577 OA 
HETATM   23  C   UNL     1     -10.813  17.077  68.444  1.00  0.00    -0.333 A  
HETATM   24  H   UNL     1     -12.559  16.010  69.977  1.00  0.00     0.000 HD 
HETATM   25  C   UNL     1     -11.366  15.784  68.353  1.00  0.00    -0.372 A  
BRANCH  21  26
HETATM   26  N   UNL     1      -9.247  18.796  67.721  1.00  0.00    -0.286 NA 
BRANCH  26  27
HETATM   27  C   UNL     1      -8.323  19.020  68.845  1.00  0.00    -0.263 C  
HETATM   28  C   UNL     1      -7.170  18.028  68.800  1.00  0.00    -0.283 C  
ENDBRANCH  26  27
BRANCH  26  29
HETATM   29  C   UNL     1      -9.158  19.753  66.609  1.00  0.00    -0.374 C  
HETATM   30  C   UNL     1     -10.530  19.966  65.986  1.00  0.00    -0.580 C  
ENDBRANCH  26  29
ENDBRANCH  21  26
ENDBRANCH  16  18
ENDBRANCH  15  16
ENDBRANCH   8  10
ENDBRANCH   7   8
ENDBRANCH   6   7
ENDBRANCH   5   6
ENDBRANCH   4   5
ENDBRANCH   3   4
ENDBRANCH   2   3
TORSDOF 12
ENDMDL
MODEL       51
REMARK 921   NORMALIZED FREE ENERGY PREDICTED BY IDOCK:   -5.47 KCAL/MOL
REMARK 922        TOTAL FREE ENERGY PREDICTED BY IDOCK:  -11.27 KCAL/MOL
REMARK 923 INTER-LIGAND FREE ENERGY PREDICTED BY IDOCK:   -9.66 KCAL/MOL
REMARK 924 INTRA-LIGAND FREE ENERGY PREDICTED BY IDOCK:   -1.61 KCAL/MOL
REMARK 927      BINDING AFFINITY PREDICTED BY RF-SCORE:    0.00 PKD
ROOT
HETATM    1  C   UNL     1     -12.406  15.964  74.318  1.00  0.00    -0.755 C  
HETATM    2  C   UNL     1     -13.402  15.868  73.172  1.00  0.00    -0.681 C  
ENDROOT
BRANCH   2   3
HETATM    3  C   UNL     1     -13.426  14.462  72.572  1.00  0.00    -0.593 C  
BRANCH   3   4
HETATM    4  C   UNL     1     -13.514  14.494  71.041  1.00  0.00    -0.345 C  
BRANCH   4   5
HETATM    5  C   UNL     1     -12.529  15.514  70.466  1.00  0.00    -0.472 C  
BRANCH   5   6
HETATM    6  C   UNL     1     -11.978  15.131  69.097  1.00  0.00    -0.274 C  
BRANCH   6   7
HETATM    7  O   UNL     1     -12.530  13.941  68.530  1.00  0.00    -0.128 OA 
BRANCH   7   8
HETATM    8  C   UNL     1     -11.637  12.959  68.244  1.00  0.00    -0.335 C  
HETATM    9  O   UNL     1     -11.330  12.030  68.979  1.00  0.00    -0.236 OA 
BRANCH   8  10
HETATM   10  C   UNL     1     -11.340  12.980  66.783  1.00  0.00    -0.365 A  
HETATM   11  C   UNL     1     -12.404  12.544  65.965  1.00  0.00    -0.083 A  
HETATM   12  C   UNL     1     -12.305  12.568  64.573  1.00  0.00    -0.545 A  
HETATM   13  C   UNL     1     -11.121  12.982  63.976  1.00  0.00    -0.433 A  
HETATM   14  C   UNL     1     -10.053  13.403  64.767  1.00  0.00    -0.262 A  
HETATM   15  C   UNL     1     -10.167  13.460  66.169  1.00  0.00    -0.301 A  
BRANCH  15  16
HETATM   16  C   UNL     1      -8.989  13.950  66.927  1.00  0.00    -0.222 C  
HETATM   17  O   UNL     1      -8.111  13.131  67.196  1.00  0.00    -0.168 OA 
BRANCH  16  18
HETATM   18  C   UNL     1      -8.785  15.397  67.293  1.00  0.00    -0.215 A  
HETATM   19  C   UNL     1      -8.663  16.307  66.235  1.00  0.00    -0.370 A  
HETATM   20  C   UNL     1      -8.407  17.672  66.464  1.00  0.00    -0.300 A  
HETATM   21  C   UNL     1      -8.243  18.190  67.754  1.00  0.00    -0.242 A  
HETATM   22  O   UNL     1      -8.758  15.086  69.681  1.00  0.00    -0.430 OA 
HETATM   23  C   UNL     1      -8.414  17.276  68.809  1.00  0.00    -0.233 A  
HETATM   24  H   UNL     1      -8.676  15.432  70.561  1.00  0.00     0.000 HD 
HETATM   25  C   UNL     1      -8.664  15.906  68.589  1.00  0.00    -0.199 A  
BRANCH  21  26
HETATM   26  N   UNL     1      -7.934  19.524  68.005  1.00  0.00    -0.299 NA 
BRANCH  26  27
HETATM   27  C   UNL     1      -8.839  20.569  67.502  1.00  0.00    -0.242 C  
HETATM   28  C   UNL     1     -10.268  20.311  67.960  1.00  0.00    -0.424 C  
ENDBRANCH  26  27
BRANCH  26  29
HETATM   29  C   UNL     1      -7.031  19.919  69.096  1.00  0.00    -0.283 C  
HETATM   30  C   UNL     1      -5.711  19.171  68.985  1.00  0.00    -0.226 C  
ENDBRANCH  26  29
ENDBRANCH  21  26
ENDBRANCH  16  18
ENDBRANCH  15  16
ENDBRANCH   8  10
ENDBRANCH   7   8
ENDBRANCH   6   7
ENDBRANCH   5   6
ENDBRANCH   4   5
ENDBRANCH   3   4
ENDBRANCH   2   3
TORSDOF 12
ENDMDL
MODEL       52
REMARK 921   NORMALIZED FREE ENERGY PREDICTED BY IDOCK:   -5.45 KCAL/MOL
REMARK 922        TOTAL FREE ENERGY PREDICTED BY IDOCK:  -11.25 KCAL/MOL
REMARK 923 INTER-LIGAND FREE ENERGY PREDICTED BY IDOCK:   -8.27 KCAL/MOL
REMARK 924 INTRA-LIGAND FREE ENERGY PREDICTED BY IDOCK:   -2.98 KCAL/MOL
REMARK 927      BINDING AFFINITY PREDICTED BY RF-SCORE:    0.00 PKD
ROOT
HETATM    1  C   UNL     1      -6.899  10.983  69.663  1.00  0.00    -0.129 C  
HETATM    2  C   UNL     1      -7.702  11.697  68.586  1.00  0.00    -0.134 C  
ENDROOT
BRANCH   2   3
HETATM    3  C   UNL     1      -6.914  12.861  67.985  1.00  0.00    -0.108 C  
BRANCH   3   4
HETATM    4  C   UNL     1      -7.834  13.898  67.329  1.00  0.00    -0.134 C  
BRANCH   4   5
HETATM    5  C   UNL     1      -7.146  15.263  67.265  1.00  0.00    -0.187 C  
BRANCH   5   6
HETATM    6  C   UNL     1      -7.914  16.301  66.453  1.00  0.00    -0.264 C  
BRANCH   6   7
HETATM    7  O   UNL     1      -9.050  15.800  65.746  1.00  0.00    -0.308 OA 
BRANCH   7   8
HETATM    8  C   UNL     1     -10.216  16.459  65.969  1.00  0.00    -0.356 C  
HETATM    9  O   UNL     1     -10.856  17.088  65.138  1.00  0.00    -0.617 OA 
BRANCH   8  10
HETATM   10  C   UNL     1     -10.781  16.023  67.279  1.00  0.00    -0.295 A  
HETATM   11  C   UNL     1     -10.484  16.883  68.357  1.00  0.00    -0.355 A  
HETATM   12  C   UNL     1     -10.995  16.648  69.634  1.00  0.00    -0.222 A  
HETATM   13  C   UNL     1     -11.774  15.521  69.865  1.00  0.00    -0.368 A  
HETATM   14  C   UNL     1     -12.069  14.651  68.816  1.00  0.00    -0.237 A  
HETATM   15  C   UNL     1     -11.625  14.918  67.506  1.00  0.00    -0.355 A  
BRANCH  15  16
HETATM   16  C   UNL     1     -12.011  13.953  66.448  1.00  0.00    -0.438 C  
HETATM   17  O   UNL     1     -12.935  14.274  65.701  1.00  0.00    -0.535 OA 
BRANCH  16  18
HETATM   18  C   UNL     1     -11.273  12.665  66.196  1.00  0.00    -0.350 A  
HETATM   19  C   UNL     1     -11.464  11.633  67.124  1.00  0.00    -0.344 A  
HETATM   20  C   UNL     1     -10.774  10.411  67.019  1.00  0.00    -0.298 A  
HETATM   21  C   UNL     1      -9.850  10.166  65.997  1.00  0.00    -0.246 A  
HETATM   22  O   UNL     1     -10.127  13.377  64.201  1.00  0.00    -0.734 OA 
HETATM   23  C   UNL     1      -9.701  11.191  65.045  1.00  0.00    -0.298 A  
HETATM   24  H   UNL     1      -9.522  13.211  63.488  1.00  0.00     0.000 HD 
HETATM   25  C   UNL     1     -10.383  12.420  65.146  1.00  0.00    -0.287 A  
BRANCH  21  26
HETATM   26  N   UNL     1      -9.112   8.988  65.902  1.00  0.00    -0.197 NA 
BRANCH  26  27
HETATM   27  C   UNL     1      -9.722   7.731  66.363  1.00  0.00    -0.149 C  
HETATM   28  C   UNL     1      -9.107   7.285  67.682  1.00  0.00    -0.124 C  
ENDBRANCH  26  27
BRANCH  26  29
HETATM   29  C   UNL     1      -7.975   8.857  64.981  1.00  0.00    -0.125 C  
HETATM   30  C   UNL     1      -6.679   9.224  65.688  1.00  0.00    -0.073 C  
ENDBRANCH  26  29
ENDBRANCH  21  26
ENDBRANCH  16  18
ENDBRANCH  15  16
ENDBRANCH   8  10
ENDBRANCH   7   8
ENDBRANCH   6   7
ENDBRANCH   5   6
ENDBRANCH   4   5
ENDBRANCH   3   4
ENDBRANCH   2   3
TORSDOF 12
ENDMDL
MODEL       53
REMARK 921   NORMALIZED FREE ENERGY PREDICTED BY IDOCK:   -5.43 KCAL/MOL
REMARK 922        TOTAL FREE ENERGY PREDICTED BY IDOCK:  -11.21 KCAL/MOL
REMARK 923 INTER-LIGAND FREE ENERGY PREDICTED BY IDOCK:   -8.00 KCAL/MOL
REMARK 924 INTRA-LIGAND FREE ENERGY PREDICTED BY IDOCK:   -3.22 KCAL/MOL
REMARK 927      BINDING AFFINITY PREDICTED BY RF-SCORE:    0.00 PKD
ROOT
HETATM    1  C   UNL     1      -7.154   7.026  71.060  1.00  0.00    -0.070 C  
HETATM    2  C   UNL     1      -7.592   5.605  70.737  1.00  0.00    -0.091 C  
ENDROOT
BRANCH   2   3
HETATM    3  C   UNL     1      -8.514   5.048  71.820  1.00  0.00    -0.124 C  
BRANCH   3   4
HETATM    4  C   UNL     1      -8.887   6.112  72.860  1.00  0.00    -0.125 C  
BRANCH   4   5
HETATM    5  C   UNL     1     -10.369   6.012  73.224  1.00  0.00    -0.238 C  
BRANCH   5   6
HETATM    6  C   UNL     1     -11.103   7.348  73.188  1.00  0.00    -0.309 C  
BRANCH   6   7
HETATM    7  O   UNL     1     -10.701   8.234  72.142  1.00  0.00    -0.269 OA 
BRANCH   7   8
HETATM    8  C   UNL     1     -11.527   8.282  71.066  1.00  0.00    -0.275 C  
HETATM    9  O   UNL     1     -12.540   8.962  70.967  1.00  0.00    -0.234 OA 
BRANCH   8  10
HETATM   10  C   UNL     1     -10.844   7.656  69.897  1.00  0.00    -0.241 A  
HETATM   11  C   UNL     1     -11.178   6.302  69.684  1.00  0.00    -0.506 A  
HETATM   12  C   UNL     1     -10.673   5.594  68.592  1.00  0.00    -0.249 A  
HETATM   13  C   UNL     1      -9.787   6.216  67.721  1.00  0.00    -0.131 A  
HETATM   14  C   UNL     1      -9.434   7.550  67.922  1.00  0.00    -0.153 A  
HETATM   15  C   UNL     1      -9.998   8.299  68.973  1.00  0.00    -0.193 A  
BRANCH  15  16
HETATM   16  C   UNL     1      -9.587   9.720  69.092  1.00  0.00    -0.188 C  
HETATM   17  O   UNL     1      -8.772  10.000  69.970  1.00  0.00    -0.191 OA 
BRANCH  16  18
HETATM   18  C   UNL     1     -10.047  10.795  68.142  1.00  0.00    -0.183 A  
HETATM   19  C   UNL     1      -9.071  11.377  67.323  1.00  0.00    -0.162 A  
HETATM   20  C   UNL     1      -9.381  12.434  66.446  1.00  0.00    -0.219 A  
HETATM   21  C   UNL     1     -10.670  12.970  66.357  1.00  0.00    -0.282 A  
HETATM   22  O   UNL     1     -12.362  10.791  68.807  1.00  0.00    -0.812 OA 
HETATM   23  C   UNL     1     -11.650  12.347  67.149  1.00  0.00    -0.435 A  
HETATM   24  H   UNL     1     -13.246  11.130  68.734  1.00  0.00     0.000 HD 
HETATM   25  C   UNL     1     -11.349  11.293  68.036  1.00  0.00    -0.304 A  
BRANCH  21  26
HETATM   26  N   UNL     1     -10.991  14.051  65.540  1.00  0.00    -0.301 NA 
BRANCH  26  27
HETATM   27  C   UNL     1     -12.237  14.004  64.758  1.00  0.00    -0.433 C  
HETATM   28  C   UNL     1     -12.086  13.080  63.558  1.00  0.00    -0.617 C  
ENDBRANCH  26  27
BRANCH  26  29
HETATM   29  C   UNL     1     -10.409  15.384  65.753  1.00  0.00    -0.361 C  
HETATM   30  C   UNL     1     -10.736  15.883  67.152  1.00  0.00    -0.301 C  
ENDBRANCH  26  29
ENDBRANCH  21  26
ENDBRANCH  16  18
ENDBRANCH  15  16
ENDBRANCH   8  10
ENDBRANCH   7   8
ENDBRANCH   6   7
ENDBRANCH   5   6
ENDBRANCH   4   5
ENDBRANCH   3   4
ENDBRANCH   2   3
TORSDOF 12
ENDMDL
MODEL       54
REMARK 921   NORMALIZED FREE ENERGY PREDICTED BY IDOCK:   -5.43 KCAL/MOL
REMARK 922        TOTAL FREE ENERGY PREDICTED BY IDOCK:  -11.21 KCAL/MOL
REMARK 923 INTER-LIGAND FREE ENERGY PREDICTED BY IDOCK:  -10.39 KCAL/MOL
REMARK 924 INTRA-LIGAND FREE ENERGY PREDICTED BY IDOCK:   -0.82 KCAL/MOL
REMARK 927      BINDING AFFINITY PREDICTED BY RF-SCORE:    0.00 PKD
ROOT
HETATM    1  C   UNL     1      -9.499  19.951  66.432  1.00  0.00    -0.513 C  
HETATM    2  C   UNL     1     -10.716  19.370  67.136  1.00  0.00    -0.593 C  
ENDROOT
BRANCH   2   3
HETATM    3  C   UNL     1     -10.554  17.871  67.379  1.00  0.00    -0.370 C  
BRANCH   3   4
HETATM    4  C   UNL     1     -10.430  17.087  66.066  1.00  0.00    -0.280 C  
BRANCH   4   5
HETATM    5  C   UNL     1      -9.401  15.964  66.205  1.00  0.00    -0.385 C  
BRANCH   5   6
HETATM    6  C   UNL     1      -9.940  14.587  65.832  1.00  0.00    -0.329 C  
BRANCH   6   7
HETATM    7  O   UNL     1     -10.422  13.805  66.926  1.00  0.00    -0.269 OA 
BRANCH   7   8
HETATM    8  C   UNL     1     -11.748  13.924  67.192  1.00  0.00    -0.388 C  
HETATM    9  O   UNL     1     -12.661  13.710  66.406  1.00  0.00    -0.364 OA 
BRANCH   8  10
HETATM   10  C   UNL     1     -11.944  14.019  68.668  1.00  0.00    -0.389 A  
HETATM   11  C   UNL     1     -12.106  15.335  69.151  1.00  0.00    -0.266 A  
HETATM   12  C   UNL     1     -12.364  15.586  70.499  1.00  0.00    -0.461 A  
HETATM   13  C   UNL     1     -12.418  14.526  71.396  1.00  0.00    -0.423 A  
HETATM   14  C   UNL     1     -12.248  13.219  70.941  1.00  0.00    -0.346 A  
HETATM   15  C   UNL     1     -12.066  12.946  69.572  1.00  0.00    -0.274 A  
BRANCH  15  16
HETATM   16  C   UNL     1     -11.923  11.524  69.175  1.00  0.00    -0.320 C  
HETATM   17  O   UNL     1     -12.112  11.246  67.992  1.00  0.00    -0.638 OA 
BRANCH  16  18
HETATM   18  C   UNL     1     -11.476  10.443  70.125  1.00  0.00    -0.396 A  
HETATM   19  C   UNL     1     -12.452   9.898  70.970  1.00  0.00    -0.441 A  
HETATM   20  C   UNL     1     -12.129   8.929  71.938  1.00  0.00    -0.443 A  
HETATM   21  C   UNL     1     -10.820   8.470  72.121  1.00  0.00    -0.357 A  
HETATM   22  O   UNL     1      -9.153  10.450  69.492  1.00  0.00    -0.310 OA 
HETATM   23  C   UNL     1      -9.858   8.989  71.236  1.00  0.00    -0.376 A  
HETATM   24  H   UNL     1      -8.266  10.126  69.590  1.00  0.00     0.000 HD 
HETATM   25  C   UNL     1     -10.170   9.965  70.268  1.00  0.00    -0.264 A  
BRANCH  21  26
HETATM   26  N   UNL     1     -10.464   7.554  73.108  1.00  0.00    -0.335 NA 
BRANCH  26  27
HETATM   27  C   UNL     1     -11.061   6.208  73.075  1.00  0.00    -0.218 C  
HETATM   28  C   UNL     1     -11.006   5.629  71.668  1.00  0.00    -0.277 C  
ENDBRANCH  26  27
BRANCH  26  29
HETATM   29  C   UNL     1      -9.227   7.695  73.888  1.00  0.00    -0.247 C  
HETATM   30  C   UNL     1      -8.265   6.563  73.560  1.00  0.00    -0.122 C  
ENDBRANCH  26  29
ENDBRANCH  21  26
ENDBRANCH  16  18
ENDBRANCH  15  16
ENDBRANCH   8  10
ENDBRANCH   7   8
ENDBRANCH   6   7
ENDBRANCH   5   6
ENDBRANCH   4   5
ENDBRANCH   3   4
ENDBRANCH   2   3
TORSDOF 12
ENDMDL
MODEL       55
REMARK 921   NORMALIZED FREE ENERGY PREDICTED BY IDOCK:   -5.39 KCAL/MOL
REMARK 922        TOTAL FREE ENERGY PREDICTED BY IDOCK:  -11.14 KCAL/MOL
REMARK 923 INTER-LIGAND FREE ENERGY PREDICTED BY IDOCK:   -8.43 KCAL/MOL
REMARK 924 INTRA-LIGAND FREE ENERGY PREDICTED BY IDOCK:   -2.71 KCAL/MOL
REMARK 927      BINDING AFFINITY PREDICTED BY RF-SCORE:    0.00 PKD
ROOT
HETATM    1  C   UNL     1      -8.715   8.087  66.632  1.00  0.00    -0.153 C  
HETATM    2  C   UNL     1      -8.737   8.436  68.113  1.00  0.00    -0.143 C  
ENDROOT
BRANCH   2   3
HETATM    3  C   UNL     1      -8.004   9.749  68.384  1.00  0.00    -0.089 C  
BRANCH   3   4
HETATM    4  C   UNL     1      -8.182  10.215  69.835  1.00  0.00    -0.128 C  
BRANCH   4   5
HETATM    5  C   UNL     1      -7.907   9.067  70.807  1.00  0.00    -0.156 C  
BRANCH   5   6
HETATM    6  C   UNL     1      -8.939   8.945  71.923  1.00  0.00    -0.084 C  
BRANCH   6   7
HETATM    7  O   UNL     1      -8.780   7.811  72.778  1.00  0.00    -0.128 OA 
BRANCH   7   8
HETATM    8  C   UNL     1      -9.822   6.941  72.798  1.00  0.00    -0.167 C  
HETATM    9  O   UNL     1     -10.591   6.762  73.733  1.00  0.00    -0.337 OA 
BRANCH   8  10
HETATM   10  C   UNL     1     -10.106   6.486  71.406  1.00  0.00    -0.213 A  
HETATM   11  C   UNL     1      -9.066   5.738  70.814  1.00  0.00    -0.161 A  
HETATM   12  C   UNL     1      -9.205   5.185  69.541  1.00  0.00    -0.163 A  
HETATM   13  C   UNL     1     -10.369   5.413  68.817  1.00  0.00    -0.240 A  
HETATM   14  C   UNL     1     -11.403   6.161  69.379  1.00  0.00    -0.401 A  
HETATM   15  C   UNL     1     -11.308   6.657  70.693  1.00  0.00    -0.401 A  
BRANCH  15  16
HETATM   16  C   UNL     1     -12.469   7.417  71.218  1.00  0.00    -0.346 C  
HETATM   17  O   UNL     1     -13.346   6.778  71.798  1.00  0.00    -0.296 OA 
BRANCH  16  18
HETATM   18  C   UNL     1     -12.571   8.919  71.153  1.00  0.00    -0.228 A  
HETATM   19  C   UNL     1     -11.839   9.560  70.145  1.00  0.00    -0.036 A  
HETATM   20  C   UNL     1     -11.813  10.964  70.035  1.00  0.00    -0.428 A  
HETATM   21  C   UNL     1     -12.498  11.792  70.931  1.00  0.00    -0.318 A  
HETATM   22  O   UNL     1     -14.026   9.189  73.053  1.00  0.00    -1.026 OA 
HETATM   23  C   UNL     1     -13.266  11.135  71.909  1.00  0.00    -0.488 A  
HETATM   24  H   UNL     1     -14.516   9.741  73.650  1.00  0.00     0.000 HD 
HETATM   25  C   UNL     1     -13.293   9.731  72.032  1.00  0.00    -0.451 A  
BRANCH  21  26
HETATM   26  N   UNL     1     -12.443  13.182  70.878  1.00  0.00    -0.359 NA 
BRANCH  26  27
HETATM   27  C   UNL     1     -12.267  13.836  69.571  1.00  0.00    -0.293 C  
HETATM   28  C   UNL     1     -11.130  14.847  69.623  1.00  0.00    -0.298 C  
ENDBRANCH  26  27
BRANCH  26  29
HETATM   29  C   UNL     1     -12.990  14.022  71.954  1.00  0.00    -0.360 C  
HETATM   30  C   UNL     1     -14.283  14.682  71.501  1.00  0.00    -0.540 C  
ENDBRANCH  26  29
ENDBRANCH  21  26
ENDBRANCH  16  18
ENDBRANCH  15  16
ENDBRANCH   8  10
ENDBRANCH   7   8
ENDBRANCH   6   7
ENDBRANCH   5   6
ENDBRANCH   4   5
ENDBRANCH   3   4
ENDBRANCH   2   3
TORSDOF 12
ENDMDL
MODEL       56
REMARK 921   NORMALIZED FREE ENERGY PREDICTED BY IDOCK:   -5.37 KCAL/MOL
REMARK 922        TOTAL FREE ENERGY PREDICTED BY IDOCK:  -11.11 KCAL/MOL
REMARK 923 INTER-LIGAND FREE ENERGY PREDICTED BY IDOCK:   -8.98 KCAL/MOL
REMARK 924 INTRA-LIGAND FREE ENERGY PREDICTED BY IDOCK:   -2.13 KCAL/MOL
REMARK 927      BINDING AFFINITY PREDICTED BY RF-SCORE:    0.00 PKD
ROOT
HETATM    1  C   UNL     1     -12.776   9.696  71.503  1.00  0.00    -0.480 C  
HETATM    2  C   UNL     1     -12.647  11.161  71.111  1.00  0.00    -0.513 C  
ENDROOT
BRANCH   2   3
HETATM    3  C   UNL     1     -11.717  11.335  69.911  1.00  0.00    -0.430 C  
BRANCH   3   4
HETATM    4  C   UNL     1     -11.673  12.790  69.427  1.00  0.00    -0.380 C  
BRANCH   4   5
HETATM    5  C   UNL     1     -12.228  13.731  70.498  1.00  0.00    -0.440 C  
BRANCH   5   6
HETATM    6  C   UNL     1     -11.461  15.043  70.621  1.00  0.00    -0.293 C  
BRANCH   6   7
HETATM    7  O   UNL     1     -10.506  15.288  69.587  1.00  0.00    -0.245 OA 
BRANCH   7   8
HETATM    8  C   UNL     1     -10.908  16.135  68.605  1.00  0.00    -0.311 C  
HETATM    9  O   UNL     1     -12.033  16.598  68.472  1.00  0.00     0.176 OA 
BRANCH   8  10
HETATM   10  C   UNL     1      -9.707  16.690  67.916  1.00  0.00    -0.244 A  
HETATM   11  C   UNL     1      -8.877  17.482  68.738  1.00  0.00    -0.215 A  
HETATM   12  C   UNL     1      -7.681  18.018  68.259  1.00  0.00    -0.285 A  
HETATM   13  C   UNL     1      -7.319  17.810  66.933  1.00  0.00    -0.229 A  
HETATM   14  C   UNL     1      -8.131  17.041  66.101  1.00  0.00    -0.292 A  
HETATM   15  C   UNL     1      -9.300  16.429  66.594  1.00  0.00    -0.282 A  
BRANCH  15  16
HETATM   16  C   UNL     1     -10.087  15.605  65.644  1.00  0.00    -0.365 C  
HETATM   17  O   UNL     1     -10.625  16.187  64.703  1.00  0.00    -0.597 OA 
BRANCH  16  18
HETATM   18  C   UNL     1     -10.177  14.103  65.731  1.00  0.00    -0.347 A  
HETATM   19  C   UNL     1      -9.307  13.467  66.626  1.00  0.00    -0.254 A  
HETATM   20  C   UNL     1      -9.263  12.065  66.739  1.00  0.00    -0.201 A  
HETATM   21  C   UNL     1     -10.070  11.232  65.956  1.00  0.00    -0.239 A  
HETATM   22  O   UNL     1     -11.891  13.823  64.062  1.00  0.00    -0.527 OA 
HETATM   23  C   UNL     1     -10.972  11.883  65.095  1.00  0.00    -0.365 A  
HETATM   24  H   UNL     1     -12.461  13.267  63.545  1.00  0.00     0.000 HD 
HETATM   25  C   UNL     1     -11.018  13.286  64.970  1.00  0.00    -0.313 A  
BRANCH  21  26
HETATM   26  N   UNL     1     -10.007   9.841  66.008  1.00  0.00    -0.273 NA 
BRANCH  26  27
HETATM   27  C   UNL     1      -8.927   9.153  65.282  1.00  0.00    -0.198 C  
HETATM   28  C   UNL     1      -8.886   9.599  63.827  1.00  0.00    -0.257 C  
ENDBRANCH  26  27
BRANCH  26  29
HETATM   29  C   UNL     1     -10.660   9.075  67.078  1.00  0.00    -0.200 C  
HETATM   30  C   UNL     1     -10.363   7.591  66.920  1.00  0.00    -0.379 C  
ENDBRANCH  26  29
ENDBRANCH  21  26
ENDBRANCH  16  18
ENDBRANCH  15  16
ENDBRANCH   8  10
ENDBRANCH   7   8
ENDBRANCH   6   7
ENDBRANCH   5   6
ENDBRANCH   4   5
ENDBRANCH   3   4
ENDBRANCH   2   3
TORSDOF 12
ENDMDL
MODEL       57
REMARK 921   NORMALIZED FREE ENERGY PREDICTED BY IDOCK:   -5.37 KCAL/MOL
REMARK 922        TOTAL FREE ENERGY PREDICTED BY IDOCK:  -11.10 KCAL/MOL
REMARK 923 INTER-LIGAND FREE ENERGY PREDICTED BY IDOCK:   -8.79 KCAL/MOL
REMARK 924 INTRA-LIGAND FREE ENERGY PREDICTED BY IDOCK:   -2.31 KCAL/MOL
REMARK 927      BINDING AFFINITY PREDICTED BY RF-SCORE:    0.00 PKD
ROOT
HETATM    1  C   UNL     1     -11.310   6.105  69.523  1.00  0.00    -0.426 C  
HETATM    2  C   UNL     1     -10.349   5.651  68.434  1.00  0.00    -0.258 C  
ENDROOT
BRANCH   2   3
HETATM    3  C   UNL     1      -8.930   6.150  68.702  1.00  0.00    -0.126 C  
BRANCH   3   4
HETATM    4  C   UNL     1      -8.184   6.482  67.403  1.00  0.00    -0.121 C  
BRANCH   4   5
HETATM    5  C   UNL     1      -9.136   7.109  66.382  1.00  0.00    -0.189 C  
BRANCH   5   6
HETATM    6  C   UNL     1      -8.681   8.474  65.876  1.00  0.00    -0.174 C  
BRANCH   6   7
HETATM    7  O   UNL     1      -9.731   9.347  65.454  1.00  0.00    -0.280 OA 
BRANCH   7   8
HETATM    8  C   UNL     1      -9.331  10.503  64.866  1.00  0.00    -0.232 C  
HETATM    9  O   UNL     1      -8.327  10.652  64.183  1.00  0.00    -0.132 OA 
BRANCH   8  10
HETATM   10  C   UNL     1     -10.460  11.477  64.885  1.00  0.00    -0.345 A  
HETATM   11  C   UNL     1     -11.236  11.493  63.706  1.00  0.00    -0.456 A  
HETATM   12  C   UNL     1     -12.368  12.302  63.594  1.00  0.00    -0.664 A  
HETATM   13  C   UNL     1     -12.715  13.146  64.643  1.00  0.00    -0.326 A  
HETATM   14  C   UNL     1     -11.954  13.154  65.811  1.00  0.00    -0.473 A  
HETATM   15  C   UNL     1     -10.857  12.286  65.968  1.00  0.00    -0.310 A  
BRANCH  15  16
HETATM   16  C   UNL     1     -10.123  12.343  67.256  1.00  0.00    -0.208 C  
HETATM   17  O   UNL     1      -9.170  13.118  67.329  1.00  0.00    -0.204 OA 
BRANCH  16  18
HETATM   18  C   UNL     1     -10.545  11.575  68.482  1.00  0.00    -0.236 A  
HETATM   19  C   UNL     1      -9.915  10.344  68.706  1.00  0.00    -0.196 A  
HETATM   20  C   UNL     1     -10.280   9.517  69.786  1.00  0.00    -0.249 A  
HETATM   21  C   UNL     1     -11.297   9.870  70.680  1.00  0.00    -0.339 A  
HETATM   22  O   UNL     1     -12.211  13.141  69.239  1.00  0.00    -0.249 OA 
HETATM   23  C   UNL     1     -11.889  11.128  70.472  1.00  0.00    -0.448 A  
HETATM   24  H   UNL     1     -12.884  13.401  69.856  1.00  0.00     0.000 HD 
HETATM   25  C   UNL     1     -11.536  11.960  69.390  1.00  0.00    -0.325 A  
BRANCH  21  26
HETATM   26  N   UNL     1     -11.715   9.045  71.722  1.00  0.00    -0.347 NA 
BRANCH  26  27
HETATM   27  C   UNL     1     -10.697   8.380  72.551  1.00  0.00    -0.302 C  
HETATM   28  C   UNL     1     -11.159   6.987  72.957  1.00  0.00    -0.295 C  
ENDBRANCH  26  27
BRANCH  26  29
HETATM   29  C   UNL     1     -13.058   9.157  72.309  1.00  0.00    -0.438 C  
HETATM   30  C   UNL     1     -14.051   8.321  71.516  1.00  0.00    -0.446 C  
ENDBRANCH  26  29
ENDBRANCH  21  26
ENDBRANCH  16  18
ENDBRANCH  15  16
ENDBRANCH   8  10
ENDBRANCH   7   8
ENDBRANCH   6   7
ENDBRANCH   5   6
ENDBRANCH   4   5
ENDBRANCH   3   4
ENDBRANCH   2   3
TORSDOF 12
ENDMDL
MODEL       58
REMARK 921   NORMALIZED FREE ENERGY PREDICTED BY IDOCK:   -5.37 KCAL/MOL
REMARK 922        TOTAL FREE ENERGY PREDICTED BY IDOCK:  -11.10 KCAL/MOL
REMARK 923 INTER-LIGAND FREE ENERGY PREDICTED BY IDOCK:  -10.07 KCAL/MOL
REMARK 924 INTRA-LIGAND FREE ENERGY PREDICTED BY IDOCK:   -1.03 KCAL/MOL
REMARK 927      BINDING AFFINITY PREDICTED BY RF-SCORE:    0.00 PKD
ROOT
HETATM    1  C   UNL     1      -9.178   9.812  62.910  1.00  0.00    -0.241 C  
HETATM    2  C   UNL     1      -9.879  11.156  63.046  1.00  0.00    -0.368 C  
ENDROOT
BRANCH   2   3
HETATM    3  C   UNL     1     -10.698  11.227  64.335  1.00  0.00    -0.407 C  
BRANCH   3   4
HETATM    4  C   UNL     1     -11.900  12.169  64.198  1.00  0.00    -0.490 C  
BRANCH   4   5
HETATM    5  C   UNL     1     -11.437  13.626  64.125  1.00  0.00    -0.359 C  
BRANCH   5   6
HETATM    6  C   UNL     1     -11.948  14.491  65.273  1.00  0.00    -0.353 C  
BRANCH   6   7
HETATM    7  O   UNL     1     -12.163  13.801  66.505  1.00  0.00    -0.435 OA 
BRANCH   7   8
HETATM    8  C   UNL     1     -11.103  13.772  67.353  1.00  0.00    -0.296 C  
HETATM    9  O   UNL     1      -9.927  13.897  67.038  1.00  0.00    -0.248 OA 
BRANCH   8  10
HETATM   10  C   UNL     1     -11.594  13.909  68.755  1.00  0.00    -0.370 A  
HETATM   11  C   UNL     1     -11.738  15.243  69.194  1.00  0.00    -0.355 A  
HETATM   12  C   UNL     1     -12.250  15.538  70.458  1.00  0.00    -0.444 A  
HETATM   13  C   UNL     1     -12.583  14.503  71.323  1.00  0.00    -0.415 A  
HETATM   14  C   UNL     1     -12.436  13.178  70.913  1.00  0.00    -0.407 A  
HETATM   15  C   UNL     1     -11.995  12.866  69.612  1.00  0.00    -0.358 A  
BRANCH  15  16
HETATM   16  C   UNL     1     -11.898  11.430  69.253  1.00  0.00    -0.349 C  
HETATM   17  O   UNL     1     -12.229  11.110  68.112  1.00  0.00    -0.612 OA 
BRANCH  16  18
HETATM   18  C   UNL     1     -11.334  10.384  70.179  1.00  0.00    -0.397 A  
HETATM   19  C   UNL     1      -9.980  10.060  70.020  1.00  0.00    -0.273 A  
HETATM   20  C   UNL     1      -9.370   9.052  70.790  1.00  0.00    -0.305 A  
HETATM   21  C   UNL     1     -10.082   8.309  71.739  1.00  0.00    -0.224 A  
HETATM   22  O   UNL     1     -13.379   9.921  71.364  1.00  0.00    -0.383 OA 
HETATM   23  C   UNL     1     -11.427   8.674  71.921  1.00  0.00    -0.419 A  
HETATM   24  H   UNL     1     -13.864   9.441  72.024  1.00  0.00     0.000 HD 
HETATM   25  C   UNL     1     -12.049   9.678  71.151  1.00  0.00    -0.362 A  
BRANCH  21  26
HETATM   26  N   UNL     1      -9.516   7.269  72.472  1.00  0.00    -0.145 NA 
BRANCH  26  27
HETATM   27  C   UNL     1      -9.605   7.307  73.941  1.00  0.00    -0.276 C  
HETATM   28  C   UNL     1     -10.109   5.978  74.485  1.00  0.00    -0.328 C  
ENDBRANCH  26  27
BRANCH  26  29
HETATM   29  C   UNL     1      -9.246   5.954  71.873  1.00  0.00    -0.147 C  
HETATM   30  C   UNL     1     -10.347   5.588  70.889  1.00  0.00    -0.310 C  
ENDBRANCH  26  29
ENDBRANCH  21  26
ENDBRANCH  16  18
ENDBRANCH  15  16
ENDBRANCH   8  10
ENDBRANCH   7   8
ENDBRANCH   6   7
ENDBRANCH   5   6
ENDBRANCH   4   5
ENDBRANCH   3   4
ENDBRANCH   2   3
TORSDOF 12
ENDMDL
MODEL       59
REMARK 921   NORMALIZED FREE ENERGY PREDICTED BY IDOCK:   -5.35 KCAL/MOL
REMARK 922        TOTAL FREE ENERGY PREDICTED BY IDOCK:  -11.08 KCAL/MOL
REMARK 923 INTER-LIGAND FREE ENERGY PREDICTED BY IDOCK:   -8.40 KCAL/MOL
REMARK 924 INTRA-LIGAND FREE ENERGY PREDICTED BY IDOCK:   -2.68 KCAL/MOL
REMARK 927      BINDING AFFINITY PREDICTED BY RF-SCORE:    0.00 PKD
ROOT
HETATM    1  C   UNL     1     -12.823  15.654  73.829  1.00  0.00    -0.695 C  
HETATM    2  C   UNL     1     -12.685  14.757  72.607  1.00  0.00    -0.473 C  
ENDROOT
BRANCH   2   3
HETATM    3  C   UNL     1     -12.675  15.574  71.316  1.00  0.00    -0.526 C  
BRANCH   3   4
HETATM    4  C   UNL     1     -11.285  15.605  70.668  1.00  0.00    -0.382 C  
BRANCH   4   5
HETATM    5  C   UNL     1     -11.394  15.430  69.152  1.00  0.00    -0.323 C  
BRANCH   5   6
HETATM    6  C   UNL     1     -12.241  14.234  68.731  1.00  0.00    -0.190 C  
BRANCH   6   7
HETATM    7  O   UNL     1     -11.904  12.997  69.363  1.00  0.00    -0.306 OA 
BRANCH   7   8
HETATM    8  C   UNL     1     -11.737  11.939  68.530  1.00  0.00    -0.330 C  
HETATM    9  O   UNL     1     -12.348  11.741  67.489  1.00  0.00    -0.290 OA 
BRANCH   8  10
HETATM   10  C   UNL     1     -10.472  11.233  68.884  1.00  0.00    -0.232 A  
HETATM   11  C   UNL     1     -10.592  10.324  69.956  1.00  0.00    -0.321 A  
HETATM   12  C   UNL     1      -9.513   9.538  70.363  1.00  0.00    -0.317 A  
HETATM   13  C   UNL     1      -8.282   9.683  69.736  1.00  0.00    -0.168 A  
HETATM   14  C   UNL     1      -8.139  10.586  68.683  1.00  0.00    -0.127 A  
HETATM   15  C   UNL     1      -9.239  11.328  68.209  1.00  0.00    -0.176 A  
BRANCH  15  16
HETATM   16  C   UNL     1      -9.001  12.242  67.066  1.00  0.00    -0.204 C  
HETATM   17  O   UNL     1      -9.155  11.783  65.935  1.00  0.00    -0.205 OA 
BRANCH  16  18
HETATM   18  C   UNL     1      -8.674  13.703  67.231  1.00  0.00    -0.223 A  
HETATM   19  C   UNL     1      -8.015  14.076  68.410  1.00  0.00    -0.143 A  
HETATM   20  C   UNL     1      -7.720  15.423  68.693  1.00  0.00    -0.143 A  
HETATM   21  C   UNL     1      -8.083  16.461  67.827  1.00  0.00    -0.157 A  
HETATM   22  O   UNL     1      -9.664  14.452  65.167  1.00  0.00    -0.529 OA 
HETATM   23  C   UNL     1      -8.702  16.070  66.627  1.00  0.00    -0.309 A  
HETATM   24  H   UNL     1      -9.890  15.146  64.560  1.00  0.00     0.000 HD 
HETATM   25  C   UNL     1      -9.008  14.725  66.336  1.00  0.00    -0.188 A  
BRANCH  21  26
HETATM   26  N   UNL     1      -7.853  17.805  68.110  1.00  0.00    -0.254 NA 
BRANCH  26  27
HETATM   27  C   UNL     1      -8.870  18.795  67.722  1.00  0.00    -0.290 C  
HETATM   28  C   UNL     1      -9.978  18.867  68.764  1.00  0.00    -0.466 C  
ENDBRANCH  26  27
BRANCH  26  29
HETATM   29  C   UNL     1      -6.898  18.228  69.144  1.00  0.00    -0.236 C  
HETATM   30  C   UNL     1      -5.644  18.801  68.501  1.00  0.00    -0.193 C  
ENDBRANCH  26  29
ENDBRANCH  21  26
ENDBRANCH  16  18
ENDBRANCH  15  16
ENDBRANCH   8  10
ENDBRANCH   7   8
ENDBRANCH   6   7
ENDBRANCH   5   6
ENDBRANCH   4   5
ENDBRANCH   3   4
ENDBRANCH   2   3
TORSDOF 12
ENDMDL
MODEL       60
REMARK 921   NORMALIZED FREE ENERGY PREDICTED BY IDOCK:   -5.34 KCAL/MOL
REMARK 922        TOTAL FREE ENERGY PREDICTED BY IDOCK:  -11.06 KCAL/MOL
REMARK 923 INTER-LIGAND FREE ENERGY PREDICTED BY IDOCK:   -9.23 KCAL/MOL
REMARK 924 INTRA-LIGAND FREE ENERGY PREDICTED BY IDOCK:   -1.83 KCAL/MOL
REMARK 927      BINDING AFFINITY PREDICTED BY RF-SCORE:    0.00 PKD
ROOT
HETATM    1  C   UNL     1     -10.430  15.878  65.436  1.00  0.00    -0.429 C  
HETATM    2  C   UNL     1     -10.565  14.514  64.774  1.00  0.00    -0.401 C  
ENDROOT
BRANCH   2   3
HETATM    3  C   UNL     1     -12.018  14.213  64.412  1.00  0.00    -0.478 C  
BRANCH   3   4
HETATM    4  C   UNL     1     -12.551  12.981  65.155  1.00  0.00    -0.530 C  
BRANCH   4   5
HETATM    5  C   UNL     1     -12.246  13.081  66.651  1.00  0.00    -0.285 C  
BRANCH   5   6
HETATM    6  C   UNL     1     -11.581  11.836  67.227  1.00  0.00    -0.269 C  
BRANCH   6   7
HETATM    7  O   UNL     1     -12.264  11.239  68.332  1.00  0.00    -0.604 OA 
BRANCH   7   8
HETATM    8  C   UNL     1     -11.850  11.639  69.561  1.00  0.00    -0.348 C  
HETATM    9  O   UNL     1     -11.675  12.795  69.920  1.00  0.00    -0.302 OA 
BRANCH   8  10
HETATM   10  C   UNL     1     -11.968  10.496  70.512  1.00  0.00    -0.436 A  
HETATM   11  C   UNL     1     -13.232  10.378  71.128  1.00  0.00    -0.399 A  
HETATM   12  C   UNL     1     -13.522   9.322  71.993  1.00  0.00    -0.519 A  
HETATM   13  C   UNL     1     -12.536   8.391  72.294  1.00  0.00    -0.417 A  
HETATM   14  C   UNL     1     -11.276   8.497  71.706  1.00  0.00    -0.379 A  
HETATM   15  C   UNL     1     -10.995   9.511  70.771  1.00  0.00    -0.389 A  
BRANCH  15  16
HETATM   16  C   UNL     1      -9.637   9.529  70.174  1.00  0.00    -0.248 C  
HETATM   17  O   UNL     1      -8.684   9.645  70.943  1.00  0.00    -0.220 OA 
BRANCH  16  18
HETATM   18  C   UNL     1      -9.378   9.321  68.705  1.00  0.00    -0.139 A  
HETATM   19  C   UNL     1      -8.396  10.128  68.114  1.00  0.00    -0.117 A  
HETATM   20  C   UNL     1      -8.120  10.060  66.735  1.00  0.00    -0.118 A  
HETATM   21  C   UNL     1      -8.819   9.201  65.880  1.00  0.00    -0.175 A  
HETATM   22  O   UNL     1     -11.039   7.612  68.361  1.00  0.00    -0.434 OA 
HETATM   23  C   UNL     1      -9.768   8.364  66.491  1.00  0.00    -0.330 A  
HETATM   24  H   UNL     1     -11.500   7.006  67.793  1.00  0.00     0.000 HD 
HETATM   25  C   UNL     1     -10.057   8.429  67.870  1.00  0.00    -0.203 A  
BRANCH  21  26
HETATM   26  N   UNL     1      -8.604   9.155  64.504  1.00  0.00    -0.181 NA 
BRANCH  26  27
HETATM   27  C   UNL     1      -8.644  10.412  63.738  1.00  0.00    -0.177 C  
HETATM   28  C   UNL     1     -10.067  10.945  63.651  1.00  0.00    -0.414 C  
ENDBRANCH  26  27
BRANCH  26  29
HETATM   29  C   UNL     1      -7.912   8.028  63.864  1.00  0.00    -0.128 C  
HETATM   30  C   UNL     1      -8.141   8.054  62.361  1.00  0.00    -0.163 C  
ENDBRANCH  26  29
ENDBRANCH  21  26
ENDBRANCH  16  18
ENDBRANCH  15  16
ENDBRANCH   8  10
ENDBRANCH   7   8
ENDBRANCH   6   7
ENDBRANCH   5   6
ENDBRANCH   4   5
ENDBRANCH   3   4
ENDBRANCH   2   3
TORSDOF 12
ENDMDL
MODEL       61
REMARK 921   NORMALIZED FREE ENERGY PREDICTED BY IDOCK:   -5.34 KCAL/MOL
REMARK 922        TOTAL FREE ENERGY PREDICTED BY IDOCK:  -11.05 KCAL/MOL
REMARK 923 INTER-LIGAND FREE ENERGY PREDICTED BY IDOCK:   -8.76 KCAL/MOL
REMARK 924 INTRA-LIGAND FREE ENERGY PREDICTED BY IDOCK:   -2.29 KCAL/MOL
REMARK 927      BINDING AFFINITY PREDICTED BY RF-SCORE:    0.00 PKD
ROOT
HETATM    1  C   UNL     1      -9.289  10.334  62.484  1.00  0.00    -0.322 C  
HETATM    2  C   UNL     1      -8.311  10.023  63.607  1.00  0.00    -0.166 C  
ENDROOT
BRANCH   2   3
HETATM    3  C   UNL     1      -8.712   8.754  64.359  1.00  0.00    -0.053 C  
BRANCH   3   4
HETATM    4  C   UNL     1      -9.150   9.055  65.798  1.00  0.00    -0.272 C  
BRANCH   4   5
HETATM    5  C   UNL     1      -8.627  10.422  66.244  1.00  0.00    -0.147 C  
BRANCH   5   6
HETATM    6  C   UNL     1      -9.147  10.863  67.608  1.00  0.00    -0.148 C  
BRANCH   6   7
HETATM    7  O   UNL     1      -9.998  12.011  67.592  1.00  0.00    -0.186 OA 
BRANCH   7   8
HETATM    8  C   UNL     1     -11.288  11.780  67.239  1.00  0.00    -0.315 C  
HETATM    9  O   UNL     1     -12.154  11.297  67.956  1.00  0.00    -0.638 OA 
BRANCH   8  10
HETATM   10  C   UNL     1     -11.587  12.509  65.973  1.00  0.00    -0.456 A  
HETATM   11  C   UNL     1     -11.895  11.675  64.878  1.00  0.00    -0.018 A  
HETATM   12  C   UNL     1     -12.262  12.207  63.641  1.00  0.00    -0.663 A  
HETATM   13  C   UNL     1     -12.279  13.586  63.465  1.00  0.00    -0.410 A  
HETATM   14  C   UNL     1     -11.966  14.428  64.532  1.00  0.00    -0.487 A  
HETATM   15  C   UNL     1     -11.671  13.905  65.806  1.00  0.00    -0.369 A  
BRANCH  15  16
HETATM   16  C   UNL     1     -11.378  14.877  66.888  1.00  0.00    -0.337 C  
HETATM   17  O   UNL     1     -12.072  14.818  67.902  1.00  0.00    -0.288 OA 
BRANCH  16  18
HETATM   18  C   UNL     1     -10.230  15.852  66.834  1.00  0.00    -0.277 A  
HETATM   19  C   UNL     1     -10.537  17.204  67.036  1.00  0.00    -0.227 A  
HETATM   20  C   UNL     1      -9.551  18.204  66.943  1.00  0.00    -0.299 A  
HETATM   21  C   UNL     1      -8.220  17.906  66.629  1.00  0.00    -0.258 A  
HETATM   22  O   UNL     1      -8.511  14.240  66.336  1.00  0.00    -0.392 OA 
HETATM   23  C   UNL     1      -7.915  16.542  66.475  1.00  0.00    -0.345 A  
HETATM   24  H   UNL     1      -7.606  14.025  66.149  1.00  0.00     0.000 HD 
HETATM   25  C   UNL     1      -8.897  15.534  66.558  1.00  0.00    -0.313 A  
BRANCH  21  26
HETATM   26  N   UNL     1      -7.237  18.881  66.476  1.00  0.00    -0.220 NA 
BRANCH  26  27
HETATM   27  C   UNL     1      -6.012  18.544  65.733  1.00  0.00    -0.210 C  
HETATM   28  C   UNL     1      -6.014  19.204  64.362  1.00  0.00    -0.268 C  
ENDBRANCH  26  27
BRANCH  26  29
HETATM   29  C   UNL     1      -7.537  20.314  66.613  1.00  0.00    -0.265 C  
HETATM   30  C   UNL     1      -6.593  20.956  67.618  1.00  0.00    -0.409 C  
ENDBRANCH  26  29
ENDBRANCH  21  26
ENDBRANCH  16  18
ENDBRANCH  15  16
ENDBRANCH   8  10
ENDBRANCH   7   8
ENDBRANCH   6   7
ENDBRANCH   5   6
ENDBRANCH   4   5
ENDBRANCH   3   4
ENDBRANCH   2   3
TORSDOF 12
ENDMDL
MODEL       62
REMARK 921   NORMALIZED FREE ENERGY PREDICTED BY IDOCK:   -5.32 KCAL/MOL
REMARK 922        TOTAL FREE ENERGY PREDICTED BY IDOCK:  -11.02 KCAL/MOL
REMARK 923 INTER-LIGAND FREE ENERGY PREDICTED BY IDOCK:   -8.56 KCAL/MOL
REMARK 924 INTRA-LIGAND FREE ENERGY PREDICTED BY IDOCK:   -2.46 KCAL/MOL
REMARK 927      BINDING AFFINITY PREDICTED BY RF-SCORE:    0.00 PKD
ROOT
HETATM    1  C   UNL     1     -10.383  12.305  64.006  1.00  0.00    -0.423 C  
HETATM    2  C   UNL     1     -10.864  11.594  65.262  1.00  0.00    -0.340 C  
ENDROOT
BRANCH   2   3
HETATM    3  C   UNL     1      -9.745  10.768  65.895  1.00  0.00    -0.272 C  
BRANCH   3   4
HETATM    4  C   UNL     1     -10.215   9.355  66.266  1.00  0.00    -0.284 C  
BRANCH   4   5
HETATM    5  C   UNL     1      -9.040   8.510  66.761  1.00  0.00    -0.186 C  
BRANCH   5   6
HETATM    6  C   UNL     1      -9.446   7.129  67.265  1.00  0.00    -0.140 C  
BRANCH   6   7
HETATM    7  O   UNL     1      -9.242   6.907  68.662  1.00  0.00    -0.132 OA 
BRANCH   7   8
HETATM    8  C   UNL     1     -10.368   6.697  69.392  1.00  0.00    -0.199 C  
HETATM    9  O   UNL     1     -11.379   6.128  69.005  1.00  0.00    -0.390 OA 
BRANCH   8  10
HETATM   10  C   UNL     1     -10.071   6.952  70.831  1.00  0.00    -0.207 A  
HETATM   11  C   UNL     1      -8.874   6.365  71.293  1.00  0.00    -0.138 A  
HETATM   12  C   UNL     1      -8.424   6.568  72.598  1.00  0.00    -0.121 A  
HETATM   13  C   UNL     1      -9.189   7.322  73.479  1.00  0.00    -0.241 A  
HETATM   14  C   UNL     1     -10.382   7.900  73.046  1.00  0.00    -0.401 A  
HETATM   15  C   UNL     1     -10.808   7.770  71.710  1.00  0.00    -0.277 A  
BRANCH  15  16
HETATM   16  C   UNL     1     -12.074   8.443  71.332  1.00  0.00    -0.301 C  
HETATM   17  O   UNL     1     -13.120   7.819  71.509  1.00  0.00    -0.332 OA 
BRANCH  16  18
HETATM   18  C   UNL     1     -12.138   9.864  70.836  1.00  0.00    -0.431 A  
HETATM   19  C   UNL     1     -11.327  10.191  69.742  1.00  0.00    -0.312 A  
HETATM   20  C   UNL     1     -11.262  11.505  69.240  1.00  0.00    -0.336 A  
HETATM   21  C   UNL     1     -11.987  12.555  69.815  1.00  0.00    -0.289 A  
HETATM   22  O   UNL     1     -13.710  10.667  72.475  1.00  0.00    -0.477 OA 
HETATM   23  C   UNL     1     -12.833  12.206  70.882  1.00  0.00    -0.190 A  
HETATM   24  H   UNL     1     -14.227  11.367  72.855  1.00  0.00     0.000 HD 
HETATM   25  C   UNL     1     -12.900  10.895  71.396  1.00  0.00    -0.449 A  
BRANCH  21  26
HETATM   26  N   UNL     1     -11.898  13.873  69.373  1.00  0.00    -0.313 NA 
BRANCH  26  27
HETATM   27  C   UNL     1     -11.731  14.129  67.933  1.00  0.00    -0.367 C  
HETATM   28  C   UNL     1     -10.351  14.703  67.645  1.00  0.00    -0.233 C  
ENDBRANCH  26  27
BRANCH  26  29
HETATM   29  C   UNL     1     -12.401  14.996  70.177  1.00  0.00    -0.333 C  
HETATM   30  C   UNL     1     -11.305  15.520  71.093  1.00  0.00    -0.442 C  
ENDBRANCH  26  29
ENDBRANCH  21  26
ENDBRANCH  16  18
ENDBRANCH  15  16
ENDBRANCH   8  10
ENDBRANCH   7   8
ENDBRANCH   6   7
ENDBRANCH   5   6
ENDBRANCH   4   5
ENDBRANCH   3   4
ENDBRANCH   2   3
TORSDOF 12
ENDMDL
MODEL       63
REMARK 921   NORMALIZED FREE ENERGY PREDICTED BY IDOCK:   -5.31 KCAL/MOL
REMARK 922        TOTAL FREE ENERGY PREDICTED BY IDOCK:  -11.00 KCAL/MOL
REMARK 923 INTER-LIGAND FREE ENERGY PREDICTED BY IDOCK:   -9.04 KCAL/MOL
REMARK 924 INTRA-LIGAND FREE ENERGY PREDICTED BY IDOCK:   -1.96 KCAL/MOL
REMARK 927      BINDING AFFINITY PREDICTED BY RF-SCORE:    0.00 PKD
ROOT
HETATM    1  C   UNL     1     -11.366  14.714  66.347  1.00  0.00    -0.348 C  
HETATM    2  C   UNL     1     -10.653  14.991  67.662  1.00  0.00    -0.267 C  
ENDROOT
BRANCH   2   3
HETATM    3  C   UNL     1     -11.527  15.817  68.605  1.00  0.00    -0.389 C  
BRANCH   3   4
HETATM    4  C   UNL     1     -10.986  15.813  70.040  1.00  0.00    -0.344 C  
BRANCH   4   5
HETATM    5  C   UNL     1     -12.100  15.479  71.034  1.00  0.00    -0.438 C  
BRANCH   5   6
HETATM    6  C   UNL     1     -12.728  14.107  70.815  1.00  0.00    -0.344 C  
BRANCH   6   7
HETATM    7  O   UNL     1     -11.807  13.015  70.780  1.00  0.00    -0.167 OA 
BRANCH   7   8
HETATM    8  C   UNL     1     -12.129  12.004  69.932  1.00  0.00    -0.263 C  
HETATM    9  O   UNL     1     -12.225  12.090  68.716  1.00  0.00    -0.259 OA 
BRANCH   8  10
HETATM   10  C   UNL     1     -12.012  10.705  70.655  1.00  0.00    -0.466 A  
HETATM   11  C   UNL     1     -13.142  10.364  71.428  1.00  0.00    -0.512 A  
HETATM   12  C   UNL     1     -13.214   9.149  72.110  1.00  0.00    -0.524 A  
HETATM   13  C   UNL     1     -12.136   8.274  72.069  1.00  0.00    -0.402 A  
HETATM   14  C   UNL     1     -11.005   8.597  71.321  1.00  0.00    -0.333 A  
HETATM   15  C   UNL     1     -10.950   9.784  70.564  1.00  0.00    -0.384 A  
BRANCH  15  16
HETATM   16  C   UNL     1      -9.719  10.031  69.775  1.00  0.00    -0.226 C  
HETATM   17  O   UNL     1      -8.641   9.832  70.335  1.00  0.00    -0.188 OA 
BRANCH  16  18
HETATM   18  C   UNL     1      -9.734  10.419  68.320  1.00  0.00    -0.162 A  
HETATM   19  C   UNL     1     -10.385   9.546  67.438  1.00  0.00    -0.319 A  
HETATM   20  C   UNL     1     -10.403   9.781  66.050  1.00  0.00    -0.184 A  
HETATM   21  C   UNL     1      -9.761  10.884  65.475  1.00  0.00    -0.233 A  
HETATM   22  O   UNL     1      -8.453  12.445  68.552  1.00  0.00    -0.270 OA 
HETATM   23  C   UNL     1      -9.151  11.777  66.375  1.00  0.00    -0.215 A  
HETATM   24  H   UNL     1      -8.037  13.211  68.175  1.00  0.00     0.000 HD 
HETATM   25  C   UNL     1      -9.122  11.547  67.765  1.00  0.00    -0.165 A  
BRANCH  21  26
HETATM   26  N   UNL     1      -9.716  11.109  64.102  1.00  0.00    -0.256 NA 
BRANCH  26  27
HETATM   27  C   UNL     1      -9.209  10.041  63.224  1.00  0.00    -0.284 C  
HETATM   28  C   UNL     1      -7.719  10.215  62.969  1.00  0.00    -0.149 C  
ENDBRANCH  26  27
BRANCH  26  29
HETATM   29  C   UNL     1     -10.541  12.140  63.457  1.00  0.00    -0.458 C  
HETATM   30  C   UNL     1     -12.018  11.816  63.627  1.00  0.00    -0.490 C  
ENDBRANCH  26  29
ENDBRANCH  21  26
ENDBRANCH  16  18
ENDBRANCH  15  16
ENDBRANCH   8  10
ENDBRANCH   7   8
ENDBRANCH   6   7
ENDBRANCH   5   6
ENDBRANCH   4   5
ENDBRANCH   3   4
ENDBRANCH   2   3
TORSDOF 12
ENDMDL
MODEL       64
REMARK 921   NORMALIZED FREE ENERGY PREDICTED BY IDOCK:   -5.30 KCAL/MOL
REMARK 922        TOTAL FREE ENERGY PREDICTED BY IDOCK:  -10.99 KCAL/MOL
REMARK 923 INTER-LIGAND FREE ENERGY PREDICTED BY IDOCK:   -9.36 KCAL/MOL
REMARK 924 INTRA-LIGAND FREE ENERGY PREDICTED BY IDOCK:   -1.63 KCAL/MOL
REMARK 927      BINDING AFFINITY PREDICTED BY RF-SCORE:    0.00 PKD
ROOT
HETATM    1  C   UNL     1     -12.410  14.970  73.965  1.00  0.00    -0.646 C  
HETATM    2  C   UNL     1     -13.512  15.069  72.921  1.00  0.00    -0.565 C  
ENDROOT
BRANCH   2   3
HETATM    3  C   UNL     1     -13.029  15.803  71.670  1.00  0.00    -0.509 C  
BRANCH   3   4
HETATM    4  C   UNL     1     -11.678  15.268  71.178  1.00  0.00    -0.409 C  
BRANCH   4   5
HETATM    5  C   UNL     1     -11.840  14.552  69.835  1.00  0.00    -0.373 C  
BRANCH   5   6
HETATM    6  C   UNL     1     -11.759  13.033  69.935  1.00  0.00    -0.256 C  
BRANCH   6   7
HETATM    7  O   UNL     1     -10.871  12.408  69.007  1.00  0.00    -0.216 OA 
BRANCH   7   8
HETATM    8  C   UNL     1     -11.401  11.390  68.283  1.00  0.00    -0.286 C  
HETATM    9  O   UNL     1     -12.405  10.752  68.568  1.00  0.00    -0.417 OA 
BRANCH   8  10
HETATM   10  C   UNL     1     -10.788  11.386  66.923  1.00  0.00    -0.335 A  
HETATM   11  C   UNL     1     -10.301  10.128  66.507  1.00  0.00    -0.270 A  
HETATM   12  C   UNL     1      -9.759   9.946  65.234  1.00  0.00    -0.383 A  
HETATM   13  C   UNL     1      -9.649  11.031  64.373  1.00  0.00    -0.301 A  
HETATM   14  C   UNL     1     -10.112  12.285  64.770  1.00  0.00    -0.271 A  
HETATM   15  C   UNL     1     -10.734  12.466  66.021  1.00  0.00    -0.294 A  
BRANCH  15  16
HETATM   16  C   UNL     1     -11.222  13.828  66.347  1.00  0.00    -0.316 C  
HETATM   17  O   UNL     1     -12.432  13.967  66.522  1.00  0.00    -0.442 OA 
BRANCH  16  18
HETATM   18  C   UNL     1     -10.305  15.005  66.558  1.00  0.00    -0.287 A  
HETATM   19  C   UNL     1     -10.616  16.182  65.864  1.00  0.00    -0.322 A  
HETATM   20  C   UNL     1      -9.790  17.320  65.939  1.00  0.00    -0.148 A  
HETATM   21  C   UNL     1      -8.611  17.333  66.693  1.00  0.00    -0.257 A  
HETATM   22  O   UNL     1      -8.767  13.905  68.049  1.00  0.00    -0.164 OA 
HETATM   23  C   UNL     1      -8.336  16.163  67.422  1.00  0.00    -0.191 A  
HETATM   24  H   UNL     1      -7.984  13.913  68.585  1.00  0.00     0.000 HD 
HETATM   25  C   UNL     1      -9.152  15.016  67.347  1.00  0.00    -0.186 A  
BRANCH  21  26
HETATM   26  N   UNL     1      -7.749  18.426  66.740  1.00  0.00    -0.221 NA 
BRANCH  26  27
HETATM   27  C   UNL     1      -6.691  18.538  65.723  1.00  0.00    -0.281 C  
HETATM   28  C   UNL     1      -6.525  19.984  65.275  1.00  0.00    -0.310 C  
ENDBRANCH  26  27
BRANCH  26  29
HETATM   29  C   UNL     1      -8.105  19.666  67.444  1.00  0.00    -0.288 C  
HETATM   30  C   UNL     1      -8.934  19.350  68.680  1.00  0.00    -0.419 C  
ENDBRANCH  26  29
ENDBRANCH  21  26
ENDBRANCH  16  18
ENDBRANCH  15  16
ENDBRANCH   8  10
ENDBRANCH   7   8
ENDBRANCH   6   7
ENDBRANCH   5   6
ENDBRANCH   4   5
ENDBRANCH   3   4
ENDBRANCH   2   3
TORSDOF 12
ENDMDL
MODEL       65
REMARK 921   NORMALIZED FREE ENERGY PREDICTED BY IDOCK:   -5.30 KCAL/MOL
REMARK 922        TOTAL FREE ENERGY PREDICTED BY IDOCK:  -10.98 KCAL/MOL
REMARK 923 INTER-LIGAND FREE ENERGY PREDICTED BY IDOCK:   -7.90 KCAL/MOL
REMARK 924 INTRA-LIGAND FREE ENERGY PREDICTED BY IDOCK:   -3.08 KCAL/MOL
REMARK 927      BINDING AFFINITY PREDICTED BY RF-SCORE:    0.00 PKD
ROOT
HETATM    1  C   UNL     1     -10.477   7.715  67.263  1.00  0.00    -0.396 C  
HETATM    2  C   UNL     1      -9.171   8.277  67.805  1.00  0.00    -0.144 C  
ENDROOT
BRANCH   2   3
HETATM    3  C   UNL     1      -9.409   9.145  69.040  1.00  0.00    -0.151 C  
BRANCH   3   4
HETATM    4  C   UNL     1     -10.903   9.292  69.358  1.00  0.00    -0.184 C  
BRANCH   4   5
HETATM    5  C   UNL     1     -11.151  10.539  70.209  1.00  0.00    -0.359 C  
BRANCH   5   6
HETATM    6  C   UNL     1     -11.601  11.753  69.402  1.00  0.00    -0.322 C  
BRANCH   6   7
HETATM    7  O   UNL     1     -12.037  11.471  68.071  1.00  0.00    -0.617 OA 
BRANCH   7   8
HETATM    8  C   UNL     1     -11.582  12.320  67.114  1.00  0.00    -0.353 C  
HETATM    9  O   UNL     1     -11.853  13.509  67.020  1.00  0.00    -0.365 OA 
BRANCH   8  10
HETATM   10  C   UNL     1     -10.440  11.681  66.397  1.00  0.00    -0.283 A  
HETATM   11  C   UNL     1     -10.818  10.853  65.319  1.00  0.00    -0.123 A  
HETATM   12  C   UNL     1      -9.864  10.237  64.509  1.00  0.00    -0.384 A  
HETATM   13  C   UNL     1      -8.514  10.400  64.793  1.00  0.00    -0.176 A  
HETATM   14  C   UNL     1      -8.119  11.204  65.862  1.00  0.00    -0.017 A  
HETATM   15  C   UNL     1      -9.069  11.895  66.639  1.00  0.00    -0.203 A  
BRANCH  15  16
HETATM   16  C   UNL     1      -8.557  12.751  67.737  1.00  0.00    -0.184 C  
HETATM   17  O   UNL     1      -8.040  12.185  68.699  1.00  0.00    -0.127 OA 
BRANCH  16  18
HETATM   18  C   UNL     1      -8.560  14.256  67.681  1.00  0.00    -0.186 A  
HETATM   19  C   UNL     1      -8.902  14.844  66.456  1.00  0.00    -0.256 A  
HETATM   20  C   UNL     1      -8.874  16.240  66.277  1.00  0.00    -0.367 A  
HETATM   21  C   UNL     1      -8.488  17.113  67.301  1.00  0.00    -0.196 A  
HETATM   22  O   UNL     1      -7.850  14.628  69.952  1.00  0.00    -0.409 OA 
HETATM   23  C   UNL     1      -8.192  16.514  68.538  1.00  0.00    -0.212 A  
HETATM   24  H   UNL     1      -7.613  15.212  70.662  1.00  0.00     0.000 HD 
HETATM   25  C   UNL     1      -8.210  15.117  68.726  1.00  0.00    -0.169 A  
BRANCH  21  26
HETATM   26  N   UNL     1      -8.398  18.492  67.133  1.00  0.00    -0.246 NA 
BRANCH  26  27
HETATM   27  C   UNL     1      -7.103  19.152  67.365  1.00  0.00    -0.208 C  
HETATM   28  C   UNL     1      -7.049  20.499  66.657  1.00  0.00    -0.313 C  
ENDBRANCH  26  27
BRANCH  26  29
HETATM   29  C   UNL     1      -9.370  19.240  66.324  1.00  0.00    -0.339 C  
HETATM   30  C   UNL     1     -10.538  19.692  67.187  1.00  0.00    -0.611 C  
ENDBRANCH  26  29
ENDBRANCH  21  26
ENDBRANCH  16  18
ENDBRANCH  15  16
ENDBRANCH   8  10
ENDBRANCH   7   8
ENDBRANCH   6   7
ENDBRANCH   5   6
ENDBRANCH   4   5
ENDBRANCH   3   4
ENDBRANCH   2   3
TORSDOF 12
ENDMDL
MODEL       66
REMARK 921   NORMALIZED FREE ENERGY PREDICTED BY IDOCK:   -5.26 KCAL/MOL
REMARK 922        TOTAL FREE ENERGY PREDICTED BY IDOCK:  -10.92 KCAL/MOL
REMARK 923 INTER-LIGAND FREE ENERGY PREDICTED BY IDOCK:   -8.74 KCAL/MOL
REMARK 924 INTRA-LIGAND FREE ENERGY PREDICTED BY IDOCK:   -2.18 KCAL/MOL
REMARK 927      BINDING AFFINITY PREDICTED BY RF-SCORE:    0.00 PKD
ROOT
HETATM    1  C   UNL     1     -10.813   8.791  71.617  1.00  0.00    -0.399 C  
HETATM    2  C   UNL     1     -12.289   8.778  71.248  1.00  0.00    -0.313 C  
ENDROOT
BRANCH   2   3
HETATM    3  C   UNL     1     -13.023   9.975  71.851  1.00  0.00    -0.547 C  
BRANCH   3   4
HETATM    4  C   UNL     1     -12.665  11.285  71.138  1.00  0.00    -0.492 C  
BRANCH   4   5
HETATM    5  C   UNL     1     -13.214  12.486  71.912  1.00  0.00    -0.495 C  
BRANCH   5   6
HETATM    6  C   UNL     1     -12.645  13.825  71.453  1.00  0.00    -0.348 C  
BRANCH   6   7
HETATM    7  O   UNL     1     -11.707  13.750  70.377  1.00  0.00    -0.264 OA 
BRANCH   7   8
HETATM    8  C   UNL     1     -11.696  14.814  69.535  1.00  0.00    -0.321 C  
HETATM    9  O   UNL     1     -12.485  15.749  69.548  1.00  0.00    -0.199 OA 
BRANCH   8  10
HETATM   10  C   UNL     1     -10.390  14.855  68.816  1.00  0.00    -0.245 A  
HETATM   11  C   UNL     1      -9.412  15.668  69.429  1.00  0.00    -0.279 A  
HETATM   12  C   UNL     1      -8.119  15.758  68.915  1.00  0.00    -0.207 A  
HETATM   13  C   UNL     1      -7.793  15.074  67.750  1.00  0.00    -0.161 A  
HETATM   14  C   UNL     1      -8.749  14.276  67.122  1.00  0.00    -0.243 A  
HETATM   15  C   UNL     1     -10.034  14.113  67.673  1.00  0.00    -0.233 A  
BRANCH  15  16
HETATM   16  C   UNL     1     -10.976  13.221  66.952  1.00  0.00    -0.283 C  
HETATM   17  O   UNL     1     -11.954  13.745  66.421  1.00  0.00    -0.389 OA 
BRANCH  16  18
HETATM   18  C   UNL     1     -10.739  11.745  66.768  1.00  0.00    -0.289 A  
HETATM   19  C   UNL     1     -11.114  10.907  67.826  1.00  0.00    -0.371 A  
HETATM   20  C   UNL     1     -10.878   9.519  67.785  1.00  0.00    -0.258 A  
HETATM   21  C   UNL     1     -10.244   8.906  66.698  1.00  0.00    -0.268 A  
HETATM   22  O   UNL     1      -9.730  11.887  64.586  1.00  0.00    -0.377 OA 
HETATM   23  C   UNL     1      -9.914   9.751  65.624  1.00  0.00    -0.352 A  
HETATM   24  H   UNL     1      -9.323  11.477  63.833  1.00  0.00     0.000 HD 
HETATM   25  C   UNL     1     -10.139  11.142  65.659  1.00  0.00    -0.253 A  
BRANCH  21  26
HETATM   26  N   UNL     1      -9.949   7.546  66.657  1.00  0.00    -0.222 NA 
BRANCH  26  27
HETATM   27  C   UNL     1      -8.540   7.128  66.576  1.00  0.00    -0.129 C  
HETATM   28  C   UNL     1      -7.834   7.350  67.906  1.00  0.00    -0.118 C  
ENDBRANCH  26  27
BRANCH  26  29
HETATM   29  C   UNL     1     -10.899   6.531  67.134  1.00  0.00    -0.401 C  
HETATM   30  C   UNL     1     -10.700   5.226  66.378  1.00  0.00    -0.290 C  
ENDBRANCH  26  29
ENDBRANCH  21  26
ENDBRANCH  16  18
ENDBRANCH  15  16
ENDBRANCH   8  10
ENDBRANCH   7   8
ENDBRANCH   6   7
ENDBRANCH   5   6
ENDBRANCH   4   5
ENDBRANCH   3   4
ENDBRANCH   2   3
TORSDOF 12
ENDMDL
MODEL       67
REMARK 921   NORMALIZED FREE ENERGY PREDICTED BY IDOCK:   -5.26 KCAL/MOL
REMARK 922        TOTAL FREE ENERGY PREDICTED BY IDOCK:  -10.92 KCAL/MOL
REMARK 923 INTER-LIGAND FREE ENERGY PREDICTED BY IDOCK:   -8.88 KCAL/MOL
REMARK 924 INTRA-LIGAND FREE ENERGY PREDICTED BY IDOCK:   -2.04 KCAL/MOL
REMARK 927      BINDING AFFINITY PREDICTED BY RF-SCORE:    0.00 PKD
ROOT
HETATM    1  C   UNL     1     -11.253   6.331  70.299  1.00  0.00    -0.455 C  
HETATM    2  C   UNL     1     -10.707   6.976  69.034  1.00  0.00    -0.234 C  
ENDROOT
BRANCH   2   3
HETATM    3  C   UNL     1      -9.730   8.104  69.364  1.00  0.00    -0.170 C  
BRANCH   3   4
HETATM    4  C   UNL     1     -10.106   9.413  68.658  1.00  0.00    -0.208 C  
BRANCH   4   5
HETATM    5  C   UNL     1     -10.726  10.400  69.650  1.00  0.00    -0.304 C  
BRANCH   5   6
HETATM    6  C   UNL     1     -11.670  11.408  69.004  1.00  0.00    -0.343 C  
BRANCH   6   7
HETATM    7  O   UNL     1     -11.059  12.630  68.584  1.00  0.00    -0.239 OA 
BRANCH   7   8
HETATM    8  C   UNL     1     -11.864  13.723  68.597  1.00  0.00    -0.374 C  
HETATM    9  O   UNL     1     -12.648  14.026  69.486  1.00  0.00    -0.222 OA 
BRANCH   8  10
HETATM   10  C   UNL     1     -11.412  14.676  67.543  1.00  0.00    -0.378 A  
HETATM   11  C   UNL     1     -10.977  15.925  68.034  1.00  0.00    -0.336 A  
HETATM   12  C   UNL     1     -10.462  16.900  67.179  1.00  0.00    -0.296 A  
HETATM   13  C   UNL     1     -10.418  16.660  65.811  1.00  0.00    -0.324 A  
HETATM   14  C   UNL     1     -10.856  15.437  65.305  1.00  0.00    -0.423 A  
HETATM   15  C   UNL     1     -11.304  14.415  66.163  1.00  0.00    -0.350 A  
BRANCH  15  16
HETATM   16  C   UNL     1     -11.723  13.137  65.538  1.00  0.00    -0.357 C  
HETATM   17  O   UNL     1     -12.925  12.977  65.330  1.00  0.00    -0.697 OA 
BRANCH  16  18
HETATM   18  C   UNL     1     -10.748  12.087  65.072  1.00  0.00    -0.341 A  
HETATM   19  C   UNL     1      -9.649  11.829  65.903  1.00  0.00    -0.249 A  
HETATM   20  C   UNL     1      -8.645  10.914  65.533  1.00  0.00    -0.149 A  
HETATM   21  C   UNL     1      -8.680  10.228  64.313  1.00  0.00    -0.206 A  
HETATM   22  O   UNL     1     -11.849  11.578  62.991  1.00  0.00    -0.898 OA 
HETATM   23  C   UNL     1      -9.810  10.460  63.510  1.00  0.00    -0.268 A  
HETATM   24  H   UNL     1     -11.895  11.097  62.174  1.00  0.00     0.000 HD 
HETATM   25  C   UNL     1     -10.817  11.379  63.868  1.00  0.00    -0.393 A  
BRANCH  21  26
HETATM   26  N   UNL     1      -7.672   9.360  63.899  1.00  0.00    -0.115 NA 
BRANCH  26  27
HETATM   27  C   UNL     1      -6.286   9.853  63.856  1.00  0.00    -0.125 C  
HETATM   28  C   UNL     1      -6.013  10.585  62.550  1.00  0.00    -0.145 C  
ENDBRANCH  26  27
BRANCH  26  29
HETATM   29  C   UNL     1      -7.841   7.901  63.937  1.00  0.00    -0.141 C  
HETATM   30  C   UNL     1      -8.251   7.454  65.331  1.00  0.00    -0.135 C  
ENDBRANCH  26  29
ENDBRANCH  21  26
ENDBRANCH  16  18
ENDBRANCH  15  16
ENDBRANCH   8  10
ENDBRANCH   7   8
ENDBRANCH   6   7
ENDBRANCH   5   6
ENDBRANCH   4   5
ENDBRANCH   3   4
ENDBRANCH   2   3
TORSDOF 12
ENDMDL
MODEL       68
REMARK 921   NORMALIZED FREE ENERGY PREDICTED BY IDOCK:   -5.25 KCAL/MOL
REMARK 922        TOTAL FREE ENERGY PREDICTED BY IDOCK:  -10.89 KCAL/MOL
REMARK 923 INTER-LIGAND FREE ENERGY PREDICTED BY IDOCK:   -9.72 KCAL/MOL
REMARK 924 INTRA-LIGAND FREE ENERGY PREDICTED BY IDOCK:   -1.17 KCAL/MOL
REMARK 927      BINDING AFFINITY PREDICTED BY RF-SCORE:    0.00 PKD
ROOT
HETATM    1  C   UNL     1      -6.331  19.235  69.444  1.00  0.00    -0.337 C  
HETATM    2  C   UNL     1      -7.472  19.022  68.461  1.00  0.00    -0.352 C  
ENDROOT
BRANCH   2   3
HETATM    3  C   UNL     1      -7.709  20.266  67.606  1.00  0.00    -0.328 C  
BRANCH   3   4
HETATM    4  C   UNL     1      -9.194  20.457  67.272  1.00  0.00    -0.525 C  
BRANCH   4   5
HETATM    5  C   UNL     1     -10.050  19.431  68.018  1.00  0.00    -0.516 C  
BRANCH   5   6
HETATM    6  C   UNL     1     -10.768  18.446  67.101  1.00  0.00    -0.330 C  
BRANCH   6   7
HETATM    7  O   UNL     1     -10.986  17.148  67.656  1.00  0.00    -0.285 OA 
BRANCH   7   8
HETATM    8  C   UNL     1     -10.188  16.162  67.172  1.00  0.00    -0.281 C  
HETATM    9  O   UNL     1      -9.025  15.958  67.492  1.00  0.00    -0.190 OA 
BRANCH   8  10
HETATM   10  C   UNL     1     -11.028  15.159  66.457  1.00  0.00    -0.318 A  
HETATM   11  C   UNL     1     -11.129  15.370  65.065  1.00  0.00    -0.428 A  
HETATM   12  C   UNL     1     -11.826  14.481  64.246  1.00  0.00    -0.368 A  
HETATM   13  C   UNL     1     -12.474  13.390  64.811  1.00  0.00    -0.416 A  
HETATM   14  C   UNL     1     -12.397  13.171  66.186  1.00  0.00    -0.385 A  
HETATM   15  C   UNL     1     -11.632  14.015  67.014  1.00  0.00    -0.394 A  
BRANCH  15  16
HETATM   16  C   UNL     1     -11.584  13.688  68.460  1.00  0.00    -0.335 C  
HETATM   17  O   UNL     1     -11.839  14.594  69.252  1.00  0.00    -0.294 OA 
BRANCH  16  18
HETATM   18  C   UNL     1     -11.331  12.299  68.984  1.00  0.00    -0.333 A  
HETATM   19  C   UNL     1     -12.231  11.809  69.940  1.00  0.00    -0.293 A  
HETATM   20  C   UNL     1     -12.051  10.549  70.542  1.00  0.00    -0.437 A  
HETATM   21  C   UNL     1     -10.960   9.728  70.234  1.00  0.00    -0.298 A  
HETATM   22  O   UNL     1      -9.324  11.878  67.721  1.00  0.00    -0.173 OA 
HETATM   23  C   UNL     1     -10.090  10.211  69.241  1.00  0.00    -0.237 A  
HETATM   24  H   UNL     1      -8.595  11.317  67.486  1.00  0.00     0.000 HD 
HETATM   25  C   UNL     1     -10.257  11.473  68.637  1.00  0.00    -0.208 A  
BRANCH  21  26
HETATM   26  N   UNL     1     -10.728   8.504  70.856  1.00  0.00    -0.217 NA 
BRANCH  26  27
HETATM   27  C   UNL     1     -11.364   8.237  72.156  1.00  0.00    -0.352 C  
HETATM   28  C   UNL     1     -10.333   7.770  73.174  1.00  0.00    -0.403 C  
ENDBRANCH  26  27
BRANCH  26  29
HETATM   29  C   UNL     1     -10.272   7.326  70.104  1.00  0.00    -0.203 C  
HETATM   30  C   UNL     1     -11.438   6.385  69.841  1.00  0.00    -0.483 C  
ENDBRANCH  26  29
ENDBRANCH  21  26
ENDBRANCH  16  18
ENDBRANCH  15  16
ENDBRANCH   8  10
ENDBRANCH   7   8
ENDBRANCH   6   7
ENDBRANCH   5   6
ENDBRANCH   4   5
ENDBRANCH   3   4
ENDBRANCH   2   3
TORSDOF 12
ENDMDL
MODEL       69
REMARK 921   NORMALIZED FREE ENERGY PREDICTED BY IDOCK:   -5.23 KCAL/MOL
REMARK 922        TOTAL FREE ENERGY PREDICTED BY IDOCK:  -10.87 KCAL/MOL
REMARK 923 INTER-LIGAND FREE ENERGY PREDICTED BY IDOCK:   -9.02 KCAL/MOL
REMARK 924 INTRA-LIGAND FREE ENERGY PREDICTED BY IDOCK:   -1.85 KCAL/MOL
REMARK 927      BINDING AFFINITY PREDICTED BY RF-SCORE:    0.00 PKD
ROOT
HETATM    1  C   UNL     1      -9.362   8.557  66.397  1.00  0.00    -0.273 C  
HETATM    2  C   UNL     1      -8.865   9.560  65.366  1.00  0.00    -0.213 C  
ENDROOT
BRANCH   2   3
HETATM    3  C   UNL     1      -9.816  10.751  65.246  1.00  0.00    -0.329 C  
BRANCH   3   4
HETATM    4  C   UNL     1     -10.321  10.938  63.809  1.00  0.00    -0.384 C  
BRANCH   4   5
HETATM    5  C   UNL     1     -10.552  12.421  63.509  1.00  0.00    -0.451 C  
BRANCH   5   6
HETATM    6  C   UNL     1     -11.950  12.910  63.871  1.00  0.00    -0.480 C  
BRANCH   6   7
HETATM    7  O   UNL     1     -12.009  13.833  64.961  1.00  0.00    -0.350 OA 
BRANCH   7   8
HETATM    8  C   UNL     1     -11.887  13.287  66.198  1.00  0.00    -0.390 C  
HETATM    9  O   UNL     1     -12.403  12.244  66.577  1.00  0.00    -0.504 OA 
BRANCH   8  10
HETATM   10  C   UNL     1     -10.766  13.956  66.918  1.00  0.00    -0.284 A  
HETATM   11  C   UNL     1      -9.811  14.564  66.076  1.00  0.00    -0.342 A  
HETATM   12  C   UNL     1      -8.738  15.286  66.599  1.00  0.00    -0.327 A  
HETATM   13  C   UNL     1      -8.574  15.372  67.976  1.00  0.00    -0.151 A  
HETATM   14  C   UNL     1      -9.500  14.768  68.826  1.00  0.00    -0.206 A  
HETATM   15  C   UNL     1     -10.630  14.103  68.313  1.00  0.00    -0.254 A  
BRANCH  15  16
HETATM   16  C   UNL     1     -11.577  13.515  69.292  1.00  0.00    -0.316 C  
HETATM   17  O   UNL     1     -12.531  14.209  69.641  1.00  0.00    -0.310 OA 
BRANCH  16  18
HETATM   18  C   UNL     1     -11.470  12.100  69.797  1.00  0.00    -0.261 A  
HETATM   19  C   UNL     1     -10.548  11.265  69.151  1.00  0.00    -0.222 A  
HETATM   20  C   UNL     1     -10.415   9.908  69.501  1.00  0.00    -0.261 A  
HETATM   21  C   UNL     1     -11.203   9.316  70.495  1.00  0.00    -0.265 A  
HETATM   22  O   UNL     1     -13.171  12.273  71.493  1.00  0.00    -0.339 OA 
HETATM   23  C   UNL     1     -12.091  10.175  71.166  1.00  0.00    -0.485 A  
HETATM   24  H   UNL     1     -13.691  11.888  72.188  1.00  0.00     0.000 HD 
HETATM   25  C   UNL     1     -12.237  11.533  70.819  1.00  0.00    -0.363 A  
BRANCH  21  26
HETATM   26  N   UNL     1     -11.130   7.964  70.820  1.00  0.00    -0.253 NA 
BRANCH  26  27
HETATM   27  C   UNL     1     -11.095   6.973  69.732  1.00  0.00    -0.241 C  
HETATM   28  C   UNL     1      -9.830   6.131  69.810  1.00  0.00    -0.199 C  
ENDBRANCH  26  27
BRANCH  26  29
HETATM   29  C   UNL     1     -10.642   7.506  72.129  1.00  0.00    -0.221 C  
HETATM   30  C   UNL     1      -9.353   8.227  72.492  1.00  0.00    -0.350 C  
ENDBRANCH  26  29
ENDBRANCH  21  26
ENDBRANCH  16  18
ENDBRANCH  15  16
ENDBRANCH   8  10
ENDBRANCH   7   8
ENDBRANCH   6   7
ENDBRANCH   5   6
ENDBRANCH   4   5
ENDBRANCH   3   4
ENDBRANCH   2   3
TORSDOF 12
ENDMDL
MODEL       70
REMARK 921   NORMALIZED FREE ENERGY PREDICTED BY IDOCK:   -5.23 KCAL/MOL
REMARK 922        TOTAL FREE ENERGY PREDICTED BY IDOCK:  -10.87 KCAL/MOL
REMARK 923 INTER-LIGAND FREE ENERGY PREDICTED BY IDOCK:   -9.09 KCAL/MOL
REMARK 924 INTRA-LIGAND FREE ENERGY PREDICTED BY IDOCK:   -1.77 KCAL/MOL
REMARK 927      BINDING AFFINITY PREDICTED BY RF-SCORE:    0.00 PKD
ROOT
HETATM    1  C   UNL     1     -12.171   7.060  71.065  1.00  0.00    -0.419 C  
HETATM    2  C   UNL     1     -10.857   7.376  71.764  1.00  0.00    -0.253 C  
ENDROOT
BRANCH   2   3
HETATM    3  C   UNL     1     -10.649   8.884  71.900  1.00  0.00    -0.419 C  
BRANCH   3   4
HETATM    4  C   UNL     1     -11.439   9.669  70.846  1.00  0.00    -0.427 C  
BRANCH   4   5
HETATM    5  C   UNL     1     -10.531  10.068  69.680  1.00  0.00    -0.275 C  
BRANCH   5   6
HETATM    6  C   UNL     1     -11.290  10.430  68.407  1.00  0.00    -0.227 C  
BRANCH   6   7
HETATM    7  O   UNL     1     -10.547  10.284  67.195  1.00  0.00    -0.247 OA 
BRANCH   7   8
HETATM    8  C   UNL     1      -9.892  11.395  66.773  1.00  0.00    -0.206 C  
HETATM    9  O   UNL     1      -8.715  11.659  66.982  1.00  0.00    -0.160 OA 
BRANCH   8  10
HETATM   10  C   UNL     1     -10.711  12.081  65.732  1.00  0.00    -0.319 A  
HETATM   11  C   UNL     1     -10.825  11.371  64.518  1.00  0.00    -0.375 A  
HETATM   12  C   UNL     1     -11.613  11.848  63.470  1.00  0.00    -0.537 A  
HETATM   13  C   UNL     1     -12.263  13.069  63.601  1.00  0.00    -0.568 A  
HETATM   14  C   UNL     1     -12.153  13.792  64.788  1.00  0.00    -0.438 A  
HETATM   15  C   UNL     1     -11.427  13.285  65.882  1.00  0.00    -0.359 A  
BRANCH  15  16
HETATM   16  C   UNL     1     -11.389  14.110  67.114  1.00  0.00    -0.332 C  
HETATM   17  O   UNL     1     -12.234  13.874  67.977  1.00  0.00    -0.326 OA 
BRANCH  16  18
HETATM   18  C   UNL     1     -10.324  15.140  67.387  1.00  0.00    -0.244 A  
HETATM   19  C   UNL     1      -9.860  15.877  66.290  1.00  0.00    -0.325 A  
HETATM   20  C   UNL     1      -8.823  16.819  66.422  1.00  0.00    -0.331 A  
HETATM   21  C   UNL     1      -8.188  17.057  67.646  1.00  0.00    -0.185 A  
HETATM   22  O   UNL     1     -10.110  14.711  69.747  1.00  0.00    -0.434 OA 
HETATM   23  C   UNL     1      -8.693  16.346  68.748  1.00  0.00    -0.246 A  
HETATM   24  H   UNL     1      -9.705  14.885  70.588  1.00  0.00     0.000 HD 
HETATM   25  C   UNL     1      -9.727  15.395  68.625  1.00  0.00    -0.210 A  
BRANCH  21  26
HETATM   26  N   UNL     1      -7.123  17.942  67.793  1.00  0.00    -0.201 NA 
BRANCH  26  27
HETATM   27  C   UNL     1      -7.310  19.150  68.614  1.00  0.00    -0.330 C  
HETATM   28  C   UNL     1      -7.168  20.405  67.765  1.00  0.00    -0.334 C  
ENDBRANCH  26  27
BRANCH  26  29
HETATM   29  C   UNL     1      -5.732  17.527  67.560  1.00  0.00    -0.136 C  
HETATM   30  C   UNL     1      -5.379  17.670  66.087  1.00  0.00    -0.231 C  
ENDBRANCH  26  29
ENDBRANCH  21  26
ENDBRANCH  16  18
ENDBRANCH  15  16
ENDBRANCH   8  10
ENDBRANCH   7   8
ENDBRANCH   6   7
ENDBRANCH   5   6
ENDBRANCH   4   5
ENDBRANCH   3   4
ENDBRANCH   2   3
TORSDOF 12
ENDMDL
MODEL       71
REMARK 921   NORMALIZED FREE ENERGY PREDICTED BY IDOCK:   -5.20 KCAL/MOL
REMARK 922        TOTAL FREE ENERGY PREDICTED BY IDOCK:  -10.81 KCAL/MOL
REMARK 923 INTER-LIGAND FREE ENERGY PREDICTED BY IDOCK:   -8.01 KCAL/MOL
REMARK 924 INTRA-LIGAND FREE ENERGY PREDICTED BY IDOCK:   -2.81 KCAL/MOL
REMARK 927      BINDING AFFINITY PREDICTED BY RF-SCORE:    0.00 PKD
ROOT
HETATM    1  C   UNL     1      -6.837   5.435  71.153  1.00  0.00    -0.052 C  
HETATM    2  C   UNL     1      -7.647   5.981  72.320  1.00  0.00    -0.100 C  
ENDROOT
BRANCH   2   3
HETATM    3  C   UNL     1      -7.573   7.506  72.383  1.00  0.00    -0.095 C  
BRANCH   3   4
HETATM    4  C   UNL     1      -8.570   8.086  73.394  1.00  0.00    -0.308 C  
BRANCH   4   5
HETATM    5  C   UNL     1      -9.571   7.018  73.837  1.00  0.00    -0.299 C  
BRANCH   5   6
HETATM    6  C   UNL     1     -11.011   7.320  73.435  1.00  0.00    -0.244 C  
BRANCH   6   7
HETATM    7  O   UNL     1     -11.190   8.511  72.666  1.00  0.00    -0.331 OA 
BRANCH   7   8
HETATM    8  C   UNL     1     -11.858   8.357  71.494  1.00  0.00    -0.297 C  
HETATM    9  O   UNL     1     -12.877   8.949  71.165  1.00  0.00    -0.261 OA 
BRANCH   8  10
HETATM   10  C   UNL     1     -10.990   7.623  70.530  1.00  0.00    -0.259 A  
HETATM   11  C   UNL     1     -11.237   6.235  70.462  1.00  0.00    -0.420 A  
HETATM   12  C   UNL     1     -10.553   5.420  69.560  1.00  0.00    -0.316 A  
HETATM   13  C   UNL     1      -9.574   5.972  68.742  1.00  0.00    -0.148 A  
HETATM   14  C   UNL     1      -9.306   7.339  68.802  1.00  0.00    -0.143 A  
HETATM   15  C   UNL     1     -10.044   8.186  69.651  1.00  0.00    -0.199 A  
BRANCH  15  16
HETATM   16  C   UNL     1      -9.709   9.631  69.628  1.00  0.00    -0.213 C  
HETATM   17  O   UNL     1      -9.090  10.082  70.590  1.00  0.00     0.042 OA 
BRANCH  16  18
HETATM   18  C   UNL     1     -10.010  10.529  68.457  1.00  0.00    -0.181 A  
HETATM   19  C   UNL     1      -8.917  10.968  67.697  1.00  0.00    -0.142 A  
HETATM   20  C   UNL     1      -9.079  11.861  66.621  1.00  0.00    -0.203 A  
HETATM   21  C   UNL     1     -10.332  12.371  66.263  1.00  0.00    -0.244 A  
HETATM   22  O   UNL     1     -12.394  10.632  68.780  1.00  0.00    -0.814 OA 
HETATM   23  C   UNL     1     -11.426  11.888  67.002  1.00  0.00    -0.384 A  
HETATM   24  H   UNL     1     -13.252  10.951  68.528  1.00  0.00     0.000 HD 
HETATM   25  C   UNL     1     -11.273  10.999  68.086  1.00  0.00    -0.302 A  
BRANCH  21  26
HETATM   26  N   UNL     1     -10.513  13.298  65.239  1.00  0.00    -0.303 NA 
BRANCH  26  27
HETATM   27  C   UNL     1     -10.115  14.696  65.470  1.00  0.00    -0.377 C  
HETATM   28  C   UNL     1     -11.093  15.652  64.802  1.00  0.00    -0.426 C  
ENDBRANCH  26  27
BRANCH  26  29
HETATM   29  C   UNL     1     -10.648  12.886  63.835  1.00  0.00    -0.336 C  
HETATM   30  C   UNL     1     -12.065  12.407  63.560  1.00  0.00    -0.651 C  
ENDBRANCH  26  29
ENDBRANCH  21  26
ENDBRANCH  16  18
ENDBRANCH  15  16
ENDBRANCH   8  10
ENDBRANCH   7   8
ENDBRANCH   6   7
ENDBRANCH   5   6
ENDBRANCH   4   5
ENDBRANCH   3   4
ENDBRANCH   2   3
TORSDOF 12
ENDMDL
MODEL       72
REMARK 921   NORMALIZED FREE ENERGY PREDICTED BY IDOCK:   -5.19 KCAL/MOL
REMARK 922        TOTAL FREE ENERGY PREDICTED BY IDOCK:  -10.80 KCAL/MOL
REMARK 923 INTER-LIGAND FREE ENERGY PREDICTED BY IDOCK:   -8.38 KCAL/MOL
REMARK 924 INTRA-LIGAND FREE ENERGY PREDICTED BY IDOCK:   -2.42 KCAL/MOL
REMARK 927      BINDING AFFINITY PREDICTED BY RF-SCORE:    0.00 PKD
ROOT
HETATM    1  C   UNL     1     -12.059  11.118  70.464  1.00  0.00    -0.474 C  
HETATM    2  C   UNL     1     -13.076  11.107  71.596  1.00  0.00    -0.529 C  
ENDROOT
BRANCH   2   3
HETATM    3  C   UNL     1     -13.368   9.683  72.068  1.00  0.00    -0.547 C  
BRANCH   3   4
HETATM    4  C   UNL     1     -12.351   8.677  71.515  1.00  0.00    -0.370 C  
BRANCH   4   5
HETATM    5  C   UNL     1     -11.516   8.077  72.648  1.00  0.00    -0.465 C  
BRANCH   5   6
HETATM    6  C   UNL     1     -10.017   8.316  72.500  1.00  0.00    -0.303 C  
BRANCH   6   7
HETATM    7  O   UNL     1      -9.611   8.873  71.248  1.00  0.00    -0.227 OA 
BRANCH   7   8
HETATM    8  C   UNL     1      -8.764   8.108  70.513  1.00  0.00    -0.135 C  
HETATM    9  O   UNL     1      -7.674   7.690  70.878  1.00  0.00    -0.085 OA 
BRANCH   8  10
HETATM   10  C   UNL     1      -9.496   7.567  69.332  1.00  0.00    -0.155 A  
HETATM   11  C   UNL     1     -10.218   6.382  69.587  1.00  0.00    -0.229 A  
HETATM   12  C   UNL     1     -11.007   5.788  68.601  1.00  0.00    -0.198 A  
HETATM   13  C   UNL     1     -11.049   6.343  67.328  1.00  0.00    -0.416 A  
HETATM   14  C   UNL     1     -10.332   7.507  67.052  1.00  0.00    -0.395 A  
HETATM   15  C   UNL     1      -9.595   8.160  68.059  1.00  0.00    -0.174 A  
BRANCH  15  16
HETATM   16  C   UNL     1      -8.888   9.408  67.681  1.00  0.00    -0.115 C  
HETATM   17  O   UNL     1      -7.728   9.301  67.285  1.00  0.00    -0.094 OA 
BRANCH  16  18
HETATM   18  C   UNL     1      -9.547  10.763  67.676  1.00  0.00    -0.174 A  
HETATM   19  C   UNL     1     -10.732  10.887  66.938  1.00  0.00    -0.318 A  
HETATM   20  C   UNL     1     -11.395  12.123  66.813  1.00  0.00    -0.398 A  
HETATM   21  C   UNL     1     -10.900  13.293  67.403  1.00  0.00    -0.267 A  
HETATM   22  O   UNL     1      -7.906  11.885  69.034  1.00  0.00    -0.322 OA 
HETATM   23  C   UNL     1      -9.738  13.145  68.179  1.00  0.00    -0.228 A  
HETATM   24  H   UNL     1      -7.577  12.667  69.460  1.00  0.00     0.000 HD 
HETATM   25  C   UNL     1      -9.063  11.914  68.303  1.00  0.00    -0.183 A  
BRANCH  21  26
HETATM   26  N   UNL     1     -11.506  14.538  67.248  1.00  0.00    -0.350 NA 
BRANCH  26  27
HETATM   27  C   UNL     1     -11.660  15.403  68.429  1.00  0.00    -0.354 C  
HETATM   28  C   UNL     1     -10.830  16.670  68.282  1.00  0.00    -0.356 C  
ENDBRANCH  26  27
BRANCH  26  29
HETATM   29  C   UNL     1     -11.585  15.205  65.942  1.00  0.00    -0.086 C  
HETATM   30  C   UNL     1     -10.333  14.919  65.127  1.00  0.00    -0.431 C  
ENDBRANCH  26  29
ENDBRANCH  21  26
ENDBRANCH  16  18
ENDBRANCH  15  16
ENDBRANCH   8  10
ENDBRANCH   7   8
ENDBRANCH   6   7
ENDBRANCH   5   6
ENDBRANCH   4   5
ENDBRANCH   3   4
ENDBRANCH   2   3
TORSDOF 12
ENDMDL
MODEL       73
REMARK 921   NORMALIZED FREE ENERGY PREDICTED BY IDOCK:   -5.18 KCAL/MOL
REMARK 922        TOTAL FREE ENERGY PREDICTED BY IDOCK:  -10.77 KCAL/MOL
REMARK 923 INTER-LIGAND FREE ENERGY PREDICTED BY IDOCK:   -9.11 KCAL/MOL
REMARK 924 INTRA-LIGAND FREE ENERGY PREDICTED BY IDOCK:   -1.66 KCAL/MOL
REMARK 927      BINDING AFFINITY PREDICTED BY RF-SCORE:    0.00 PKD
ROOT
HETATM    1  C   UNL     1      -7.972  19.747  66.356  1.00  0.00    -0.335 C  
HETATM    2  C   UNL     1      -9.043  20.652  66.946  1.00  0.00    -0.296 C  
ENDROOT
BRANCH   2   3
HETATM    3  C   UNL     1     -10.294  19.859  67.323  1.00  0.00    -0.574 C  
BRANCH   3   4
HETATM    4  C   UNL     1      -9.989  18.762  68.350  1.00  0.00    -0.441 C  
BRANCH   4   5
HETATM    5  C   UNL     1     -10.829  17.514  68.071  1.00  0.00    -0.260 C  
BRANCH   5   6
HETATM    6  C   UNL     1     -10.836  16.508  69.217  1.00  0.00    -0.326 C  
BRANCH   6   7
HETATM    7  O   UNL     1     -10.837  15.135  68.822  1.00  0.00    -0.231 OA 
BRANCH   7   8
HETATM    8  C   UNL     1      -9.978  14.813  67.821  1.00  0.00    -0.223 C  
HETATM    9  O   UNL     1      -8.765  14.967  67.838  1.00  0.00    -0.157 OA 
BRANCH   8  10
HETATM   10  C   UNL     1     -10.678  13.934  66.840  1.00  0.00    -0.284 A  
HETATM   11  C   UNL     1     -11.473  14.625  65.901  1.00  0.00    -0.338 A  
HETATM   12  C   UNL     1     -12.139  13.949  64.878  1.00  0.00    -0.434 A  
HETATM   13  C   UNL     1     -12.060  12.564  64.805  1.00  0.00    -0.497 A  
HETATM   14  C   UNL     1     -11.290  11.861  65.731  1.00  0.00    -0.354 A  
HETATM   15  C   UNL     1     -10.549  12.536  66.720  1.00  0.00    -0.253 A  
BRANCH  15  16
HETATM   16  C   UNL     1      -9.735  11.709  67.644  1.00  0.00    -0.180 C  
HETATM   17  O   UNL     1      -8.515  11.863  67.613  1.00  0.00    -0.142 OA 
BRANCH  16  18
HETATM   18  C   UNL     1     -10.335  10.773  68.661  1.00  0.00    -0.208 A  
HETATM   19  C   UNL     1     -11.342  11.294  69.485  1.00  0.00    -0.362 A  
HETATM   20  C   UNL     1     -11.925  10.525  70.510  1.00  0.00    -0.436 A  
HETATM   21  C   UNL     1     -11.521   9.210  70.773  1.00  0.00    -0.282 A  
HETATM   22  O   UNL     1      -8.965   8.864  68.135  1.00  0.00    -0.137 OA 
HETATM   23  C   UNL     1     -10.544   8.684  69.910  1.00  0.00    -0.227 A  
HETATM   24  H   UNL     1      -8.703   7.964  68.288  1.00  0.00     0.000 HD 
HETATM   25  C   UNL     1      -9.949   9.448  68.885  1.00  0.00    -0.179 A  
BRANCH  21  26
HETATM   26  N   UNL     1     -12.041   8.448  71.816  1.00  0.00    -0.307 NA 
BRANCH  26  27
HETATM   27  C   UNL     1     -11.110   7.800  72.754  1.00  0.00    -0.398 C  
HETATM   28  C   UNL     1     -11.253   6.286  72.695  1.00  0.00    -0.302 C  
ENDBRANCH  26  27
BRANCH  26  29
HETATM   29  C   UNL     1     -13.422   8.620  72.288  1.00  0.00    -0.374 C  
HETATM   30  C   UNL     1     -14.372   7.768  71.460  1.00  0.00    -0.574 C  
ENDBRANCH  26  29
ENDBRANCH  21  26
ENDBRANCH  16  18
ENDBRANCH  15  16
ENDBRANCH   8  10
ENDBRANCH   7   8
ENDBRANCH   6   7
ENDBRANCH   5   6
ENDBRANCH   4   5
ENDBRANCH   3   4
ENDBRANCH   2   3
TORSDOF 12
ENDMDL
MODEL       74
REMARK 921   NORMALIZED FREE ENERGY PREDICTED BY IDOCK:   -5.17 KCAL/MOL
REMARK 922        TOTAL FREE ENERGY PREDICTED BY IDOCK:  -10.76 KCAL/MOL
REMARK 923 INTER-LIGAND FREE ENERGY PREDICTED BY IDOCK:   -8.79 KCAL/MOL
REMARK 924 INTRA-LIGAND FREE ENERGY PREDICTED BY IDOCK:   -1.96 KCAL/MOL
REMARK 927      BINDING AFFINITY PREDICTED BY RF-SCORE:    0.00 PKD
ROOT
HETATM    1  C   UNL     1      -9.392   3.059  69.639  1.00  0.00    -0.214 C  
HETATM    2  C   UNL     1      -9.319   2.610  68.187  1.00  0.00    -0.258 C  
ENDROOT
BRANCH   2   3
HETATM    3  C   UNL     1      -8.797   3.727  67.285  1.00  0.00    -0.137 C  
BRANCH   3   4
HETATM    4  C   UNL     1      -9.633   3.870  66.006  1.00  0.00    -0.189 C  
BRANCH   4   5
HETATM    5  C   UNL     1     -10.589   5.059  66.118  1.00  0.00    -0.321 C  
BRANCH   5   6
HETATM    6  C   UNL     1     -10.009   6.244  66.884  1.00  0.00    -0.169 C  
BRANCH   6   7
HETATM    7  O   UNL     1     -10.840   6.759  67.927  1.00  0.00    -0.238 OA 
BRANCH   7   8
HETATM    8  C   UNL     1     -10.289   6.761  69.168  1.00  0.00    -0.194 C  
HETATM    9  O   UNL     1      -9.127   6.490  69.438  1.00  0.00    -0.141 OA 
BRANCH   8  10
HETATM   10  C   UNL     1     -11.205   7.469  70.107  1.00  0.00    -0.213 A  
HETATM   11  C   UNL     1     -12.155   6.635  70.735  1.00  0.00    -0.364 A  
HETATM   12  C   UNL     1     -13.040   7.136  71.691  1.00  0.00    -0.410 A  
HETATM   13  C   UNL     1     -13.022   8.490  72.000  1.00  0.00    -0.406 A  
HETATM   14  C   UNL     1     -12.100   9.334  71.382  1.00  0.00    -0.424 A  
HETATM   15  C   UNL     1     -11.149   8.828  70.474  1.00  0.00    -0.278 A  
BRANCH  15  16
HETATM   16  C   UNL     1     -10.188   9.794  69.888  1.00  0.00    -0.254 C  
HETATM   17  O   UNL     1      -9.046   9.802  70.345  1.00  0.00    -0.229 OA 
BRANCH  16  18
HETATM   18  C   UNL     1     -10.520  10.681  68.717  1.00  0.00    -0.215 A  
HETATM   19  C   UNL     1     -10.154  10.218  67.446  1.00  0.00    -0.246 A  
HETATM   20  C   UNL     1     -10.360  10.997  66.292  1.00  0.00    -0.304 A  
HETATM   21  C   UNL     1     -10.923  12.277  66.350  1.00  0.00    -0.287 A  
HETATM   22  O   UNL     1     -11.499  12.477  69.989  1.00  0.00    -0.508 OA 
HETATM   23  C   UNL     1     -11.329  12.711  67.624  1.00  0.00    -0.362 A  
HETATM   24  H   UNL     1     -11.907  13.333  70.037  1.00  0.00     0.000 HD 
HETATM   25  C   UNL     1     -11.121  11.942  68.787  1.00  0.00    -0.245 A  
BRANCH  21  26
HETATM   26  N   UNL     1     -11.086  13.090  65.231  1.00  0.00    -0.283 NA 
BRANCH  26  27
HETATM   27  C   UNL     1     -10.973  12.486  63.894  1.00  0.00    -0.424 C  
HETATM   28  C   UNL     1     -12.338  12.047  63.383  1.00  0.00    -0.635 C  
ENDBRANCH  26  27
BRANCH  26  29
HETATM   29  C   UNL     1     -11.792  14.377  65.303  1.00  0.00    -0.373 C  
HETATM   30  C   UNL     1     -10.835  15.520  64.999  1.00  0.00    -0.468 C  
ENDBRANCH  26  29
ENDBRANCH  21  26
ENDBRANCH  16  18
ENDBRANCH  15  16
ENDBRANCH   8  10
ENDBRANCH   7   8
ENDBRANCH   6   7
ENDBRANCH   5   6
ENDBRANCH   4   5
ENDBRANCH   3   4
ENDBRANCH   2   3
TORSDOF 12
ENDMDL
MODEL       75
REMARK 921   NORMALIZED FREE ENERGY PREDICTED BY IDOCK:   -5.16 KCAL/MOL
REMARK 922        TOTAL FREE ENERGY PREDICTED BY IDOCK:  -10.74 KCAL/MOL
REMARK 923 INTER-LIGAND FREE ENERGY PREDICTED BY IDOCK:   -7.47 KCAL/MOL
REMARK 924 INTRA-LIGAND FREE ENERGY PREDICTED BY IDOCK:   -3.26 KCAL/MOL
REMARK 927      BINDING AFFINITY PREDICTED BY RF-SCORE:    0.00 PKD
ROOT
HETATM    1  C   UNL     1     -10.695   6.729  66.954  1.00  0.00    -0.394 C  
HETATM    2  C   UNL     1     -11.031   6.094  68.296  1.00  0.00    -0.397 C  
ENDROOT
BRANCH   2   3
HETATM    3  C   UNL     1     -11.377   7.154  69.341  1.00  0.00    -0.011 C  
BRANCH   3   4
HETATM    4  C   UNL     1     -11.930   6.530  70.628  1.00  0.00    -0.345 C  
BRANCH   4   5
HETATM    5  C   UNL     1     -12.259   7.616  71.655  1.00  0.00    -0.346 C  
BRANCH   5   6
HETATM    6  C   UNL     1     -11.121   7.906  72.627  1.00  0.00    -0.385 C  
BRANCH   6   7
HETATM    7  O   UNL     1     -10.156   8.856  72.168  1.00  0.00    -0.325 OA 
BRANCH   7   8
HETATM    8  C   UNL     1      -8.858   8.523  72.385  1.00  0.00    -0.198 C  
HETATM    9  O   UNL     1      -8.277   8.559  73.461  1.00  0.00    -0.381 OA 
BRANCH   8  10
HETATM   10  C   UNL     1      -8.338   7.786  71.197  1.00  0.00    -0.112 A  
HETATM   11  C   UNL     1      -8.212   6.393  71.385  1.00  0.00    -0.121 A  
HETATM   12  C   UNL     1      -7.802   5.556  70.347  1.00  0.00    -0.101 A  
HETATM   13  C   UNL     1      -7.464   6.104  69.116  1.00  0.00    -0.090 A  
HETATM   14  C   UNL     1      -7.569   7.479  68.913  1.00  0.00    -0.105 A  
HETATM   15  C   UNL     1      -8.057   8.326  69.927  1.00  0.00    -0.117 A  
BRANCH  15  16
HETATM   16  C   UNL     1      -8.163   9.772  69.613  1.00  0.00    -0.157 C  
HETATM   17  O   UNL     1      -7.317  10.519  70.103  1.00  0.00    -0.164 OA 
BRANCH  16  18
HETATM   18  C   UNL     1      -9.186  10.338  68.663  1.00  0.00    -0.159 A  
HETATM   19  C   UNL     1      -8.812  10.444  67.318  1.00  0.00    -0.135 A  
HETATM   20  C   UNL     1      -9.668  11.018  66.359  1.00  0.00    -0.235 A  
HETATM   21  C   UNL     1     -10.927  11.528  66.698  1.00  0.00    -0.296 A  
HETATM   22  O   UNL     1     -10.899  10.753  70.305  1.00  0.00    -0.458 OA 
HETATM   23  C   UNL     1     -11.310  11.373  68.042  1.00  0.00    -0.372 A  
HETATM   24  H   UNL     1     -11.762  11.071  70.540  1.00  0.00     0.000 HD 
HETATM   25  C   UNL     1     -10.457  10.807  69.011  1.00  0.00    -0.215 A  
BRANCH  21  26
HETATM   26  N   UNL     1     -11.769  12.151  65.780  1.00  0.00    -0.449 NA 
BRANCH  26  27
HETATM   27  C   UNL     1     -12.258  13.508  66.073  1.00  0.00    -0.445 C  
HETATM   28  C   UNL     1     -11.129  14.387  66.592  1.00  0.00    -0.326 C  
ENDBRANCH  26  27
BRANCH  26  29
HETATM   29  C   UNL     1     -11.829  11.730  64.373  1.00  0.00    -0.188 C  
HETATM   30  C   UNL     1     -11.040  12.695  63.500  1.00  0.00    -0.449 C  
ENDBRANCH  26  29
ENDBRANCH  21  26
ENDBRANCH  16  18
ENDBRANCH  15  16
ENDBRANCH   8  10
ENDBRANCH   7   8
ENDBRANCH   6   7
ENDBRANCH   5   6
ENDBRANCH   4   5
ENDBRANCH   3   4
ENDBRANCH   2   3
TORSDOF 12
ENDMDL
MODEL       76
REMARK 921   NORMALIZED FREE ENERGY PREDICTED BY IDOCK:   -5.15 KCAL/MOL
REMARK 922        TOTAL FREE ENERGY PREDICTED BY IDOCK:  -10.73 KCAL/MOL
REMARK 923 INTER-LIGAND FREE ENERGY PREDICTED BY IDOCK:   -8.47 KCAL/MOL
REMARK 924 INTRA-LIGAND FREE ENERGY PREDICTED BY IDOCK:   -2.27 KCAL/MOL
REMARK 927      BINDING AFFINITY PREDICTED BY RF-SCORE:    0.00 PKD
ROOT
HETATM    1  C   UNL     1      -7.607   8.333  74.378  1.00  0.00    -0.275 C  
HETATM    2  C   UNL     1      -7.971   6.993  73.756  1.00  0.00    -0.127 C  
ENDROOT
BRANCH   2   3
HETATM    3  C   UNL     1      -9.184   6.371  74.447  1.00  0.00    -0.204 C  
BRANCH   3   4
HETATM    4  C   UNL     1     -10.501   6.801  73.789  1.00  0.00    -0.383 C  
BRANCH   4   5
HETATM    5  C   UNL     1     -11.083   5.660  72.952  1.00  0.00    -0.337 C  
BRANCH   5   6
HETATM    6  C   UNL     1     -12.151   6.109  71.960  1.00  0.00    -0.198 C  
BRANCH   6   7
HETATM    7  O   UNL     1     -11.774   7.193  71.110  1.00  0.00    -0.284 OA 
BRANCH   7   8
HETATM    8  C   UNL     1     -10.945   6.873  70.083  1.00  0.00    -0.281 C  
HETATM    9  O   UNL     1     -11.273   6.325  69.040  1.00  0.00    -0.375 OA 
BRANCH   8  10
HETATM   10  C   UNL     1      -9.648   7.588  70.261  1.00  0.00    -0.165 A  
HETATM   11  C   UNL     1      -8.513   6.750  70.235  1.00  0.00    -0.135 A  
HETATM   12  C   UNL     1      -7.223   7.275  70.322  1.00  0.00    -0.067 A  
HETATM   13  C   UNL     1      -7.048   8.644  70.483  1.00  0.00    -0.044 A  
HETATM   14  C   UNL     1      -8.158   9.488  70.523  1.00  0.00    -0.199 A  
HETATM   15  C   UNL     1      -9.461   8.980  70.358  1.00  0.00    -0.247 A  
BRANCH  15  16
HETATM   16  C   UNL     1     -10.579   9.955  70.386  1.00  0.00    -0.302 C  
HETATM   17  O   UNL     1     -11.191  10.082  71.445  1.00  0.00    -0.306 OA 
BRANCH  16  18
HETATM   18  C   UNL     1     -10.929  10.844  69.220  1.00  0.00    -0.295 A  
HETATM   19  C   UNL     1     -10.679  10.336  67.939  1.00  0.00    -0.310 A  
HETATM   20  C   UNL     1     -10.909  11.107  66.784  1.00  0.00    -0.322 A  
HETATM   21  C   UNL     1     -11.381  12.424  66.852  1.00  0.00    -0.333 A  
HETATM   22  O   UNL     1     -11.698  12.723  70.516  1.00  0.00    -0.531 OA 
HETATM   23  C   UNL     1     -11.671  12.905  68.141  1.00  0.00    -0.395 A  
HETATM   24  H   UNL     1     -12.044  13.605  70.572  1.00  0.00     0.000 HD 
HETATM   25  C   UNL     1     -11.438  12.144  69.303  1.00  0.00    -0.302 A  
BRANCH  21  26
HETATM   26  N   UNL     1     -11.563  13.227  65.729  1.00  0.00    -0.325 NA 
BRANCH  26  27
HETATM   27  C   UNL     1     -12.188  12.641  64.532  1.00  0.00    -0.443 C  
HETATM   28  C   UNL     1     -11.128  12.134  63.564  1.00  0.00    -0.525 C  
ENDBRANCH  26  27
BRANCH  26  29
HETATM   29  C   UNL     1     -11.585  14.693  65.819  1.00  0.00    -0.328 C  
HETATM   30  C   UNL     1     -10.297  15.275  65.259  1.00  0.00    -0.430 C  
ENDBRANCH  26  29
ENDBRANCH  21  26
ENDBRANCH  16  18
ENDBRANCH  15  16
ENDBRANCH   8  10
ENDBRANCH   7   8
ENDBRANCH   6   7
ENDBRANCH   5   6
ENDBRANCH   4   5
ENDBRANCH   3   4
ENDBRANCH   2   3
TORSDOF 12
ENDMDL
MODEL       77
REMARK 921   NORMALIZED FREE ENERGY PREDICTED BY IDOCK:   -5.14 KCAL/MOL
REMARK 922        TOTAL FREE ENERGY PREDICTED BY IDOCK:  -10.71 KCAL/MOL
REMARK 923 INTER-LIGAND FREE ENERGY PREDICTED BY IDOCK:   -8.99 KCAL/MOL
REMARK 924 INTRA-LIGAND FREE ENERGY PREDICTED BY IDOCK:   -1.71 KCAL/MOL
REMARK 927      BINDING AFFINITY PREDICTED BY RF-SCORE:    0.00 PKD
ROOT
HETATM    1  C   UNL     1     -11.979  13.892  64.154  1.00  0.00    -0.464 C  
HETATM    2  C   UNL     1     -11.905  12.415  64.514  1.00  0.00    -0.452 C  
ENDROOT
BRANCH   2   3
HETATM    3  C   UNL     1     -10.458  11.962  64.706  1.00  0.00    -0.333 C  
BRANCH   3   4
HETATM    4  C   UNL     1     -10.029  12.024  66.178  1.00  0.00    -0.254 C  
BRANCH   4   5
HETATM    5  C   UNL     1     -10.502  10.777  66.928  1.00  0.00    -0.304 C  
BRANCH   5   6
HETATM    6  C   UNL     1     -10.068  10.738  68.390  1.00  0.00    -0.169 C  
BRANCH   6   7
HETATM    7  O   UNL     1     -10.566  11.803  69.201  1.00  0.00    -0.172 OA 
BRANCH   7   8
HETATM    8  C   UNL     1     -11.904  11.788  69.430  1.00  0.00    -0.334 C  
HETATM    9  O   UNL     1     -12.648  10.828  69.280  1.00  0.00    -0.324 OA 
BRANCH   8  10
HETATM   10  C   UNL     1     -12.280  13.001  70.212  1.00  0.00    -0.368 A  
HETATM   11  C   UNL     1     -12.760  12.731  71.511  1.00  0.00    -0.330 A  
HETATM   12  C   UNL     1     -13.090  13.762  72.391  1.00  0.00    -0.520 A  
HETATM   13  C   UNL     1     -12.991  15.082  71.970  1.00  0.00    -0.427 A  
HETATM   14  C   UNL     1     -12.530  15.370  70.685  1.00  0.00    -0.478 A  
HETATM   15  C   UNL     1     -12.119  14.342  69.815  1.00  0.00    -0.386 A  
BRANCH  15  16
HETATM   16  C   UNL     1     -11.615  14.744  68.479  1.00  0.00    -0.321 C  
HETATM   17  O   UNL     1     -12.280  14.407  67.500  1.00  0.00    -0.342 OA 
BRANCH  16  18
HETATM   18  C   UNL     1     -10.398  15.609  68.281  1.00  0.00    -0.244 A  
HETATM   19  C   UNL     1     -10.601  16.864  67.691  1.00  0.00    -0.325 A  
HETATM   20  C   UNL     1      -9.525  17.724  67.402  1.00  0.00    -0.254 A  
HETATM   21  C   UNL     1      -8.198  17.368  67.671  1.00  0.00    -0.206 A  
HETATM   22  O   UNL     1      -8.791  14.044  69.157  1.00  0.00    -0.370 OA 
HETATM   23  C   UNL     1      -8.011  16.127  68.304  1.00  0.00    -0.152 A  
HETATM   24  H   UNL     1      -7.896  13.805  69.368  1.00  0.00     0.000 HD 
HETATM   25  C   UNL     1      -9.081  15.256  68.591  1.00  0.00    -0.193 A  
BRANCH  21  26
HETATM   26  N   UNL     1      -7.112  18.177  67.344  1.00  0.00    -0.196 NA 
BRANCH  26  27
HETATM   27  C   UNL     1      -6.898  18.542  65.934  1.00  0.00    -0.283 C  
HETATM   28  C   UNL     1      -6.799  20.053  65.778  1.00  0.00    -0.304 C  
ENDBRANCH  26  27
BRANCH  26  29
HETATM   29  C   UNL     1      -6.452  19.031  68.342  1.00  0.00    -0.234 C  
HETATM   30  C   UNL     1      -7.491  19.771  69.170  1.00  0.00    -0.256 C  
ENDBRANCH  26  29
ENDBRANCH  21  26
ENDBRANCH  16  18
ENDBRANCH  15  16
ENDBRANCH   8  10
ENDBRANCH   7   8
ENDBRANCH   6   7
ENDBRANCH   5   6
ENDBRANCH   4   5
ENDBRANCH   3   4
ENDBRANCH   2   3
TORSDOF 12
ENDMDL
MODEL       78
REMARK 921   NORMALIZED FREE ENERGY PREDICTED BY IDOCK:   -5.13 KCAL/MOL
REMARK 922        TOTAL FREE ENERGY PREDICTED BY IDOCK:  -10.70 KCAL/MOL
REMARK 923 INTER-LIGAND FREE ENERGY PREDICTED BY IDOCK:   -8.70 KCAL/MOL
REMARK 924 INTRA-LIGAND FREE ENERGY PREDICTED BY IDOCK:   -2.00 KCAL/MOL
REMARK 927      BINDING AFFINITY PREDICTED BY RF-SCORE:    0.00 PKD
ROOT
HETATM    1  C   UNL     1     -13.598  13.256  72.127  1.00  0.00    -0.655 C  
HETATM    2  C   UNL     1     -12.456  13.973  71.422  1.00  0.00    -0.438 C  
ENDROOT
BRANCH   2   3
HETATM    3  C   UNL     1     -12.954  15.208  70.673  1.00  0.00    -0.420 C  
BRANCH   3   4
HETATM    4  C   UNL     1     -11.813  15.945  69.960  1.00  0.00    -0.322 C  
BRANCH   4   5
HETATM    5  C   UNL     1     -10.696  14.969  69.582  1.00  0.00    -0.270 C  
BRANCH   5   6
HETATM    6  C   UNL     1     -10.537  14.770  68.079  1.00  0.00    -0.244 C  
BRANCH   6   7
HETATM    7  O   UNL     1     -11.684  14.240  67.411  1.00  0.00    -0.354 OA 
BRANCH   7   8
HETATM    8  C   UNL     1     -11.780  12.886  67.396  1.00  0.00    -0.372 C  
HETATM    9  O   UNL     1     -12.208  12.186  68.303  1.00  0.00    -0.356 OA 
BRANCH   8  10
HETATM   10  C   UNL     1     -11.613  12.401  65.996  1.00  0.00    -0.455 A  
HETATM   11  C   UNL     1     -12.569  12.900  65.087  1.00  0.00    -0.536 A  
HETATM   12  C   UNL     1     -12.508  12.592  63.727  1.00  0.00    -0.552 A  
HETATM   13  C   UNL     1     -11.516  11.739  63.261  1.00  0.00    -0.332 A  
HETATM   14  C   UNL     1     -10.568  11.224  64.145  1.00  0.00    -0.437 A  
HETATM   15  C   UNL     1     -10.571  11.590  65.505  1.00  0.00    -0.334 A  
BRANCH  15  16
HETATM   16  C   UNL     1      -9.507  11.017  66.365  1.00  0.00    -0.193 C  
HETATM   17  O   UNL     1      -8.680  11.797  66.835  1.00  0.00    -0.176 OA 
BRANCH  16  18
HETATM   18  C   UNL     1      -9.453   9.562  66.753  1.00  0.00    -0.217 A  
HETATM   19  C   UNL     1      -8.394   8.807  66.233  1.00  0.00    -0.120 A  
HETATM   20  C   UNL     1      -8.285   7.425  66.481  1.00  0.00    -0.120 A  
HETATM   21  C   UNL     1      -9.232   6.730  67.241  1.00  0.00    -0.133 A  
HETATM   22  O   UNL     1     -11.459   9.548  68.086  1.00  0.00    -0.444 OA 
HETATM   23  C   UNL     1     -10.264   7.507  67.796  1.00  0.00    -0.257 A  
HETATM   24  H   UNL     1     -12.092   9.091  68.626  1.00  0.00     0.000 HD 
HETATM   25  C   UNL     1     -10.386   8.890  67.548  1.00  0.00    -0.263 A  
BRANCH  21  26
HETATM   26  N   UNL     1      -9.178   5.355  67.454  1.00  0.00    -0.111 NA 
BRANCH  26  27
HETATM   27  C   UNL     1     -10.115   4.748  68.413  1.00  0.00    -0.041 C  
HETATM   28  C   UNL     1      -9.424   4.475  69.742  1.00  0.00    -0.247 C  
ENDBRANCH  26  27
BRANCH  26  29
HETATM   29  C   UNL     1      -8.571   4.442  66.475  1.00  0.00    -0.112 C  
HETATM   30  C   UNL     1      -9.594   4.043  65.422  1.00  0.00    -0.188 C  
ENDBRANCH  26  29
ENDBRANCH  21  26
ENDBRANCH  16  18
ENDBRANCH  15  16
ENDBRANCH   8  10
ENDBRANCH   7   8
ENDBRANCH   6   7
ENDBRANCH   5   6
ENDBRANCH   4   5
ENDBRANCH   3   4
ENDBRANCH   2   3
TORSDOF 12
ENDMDL
MODEL       79
REMARK 921   NORMALIZED FREE ENERGY PREDICTED BY IDOCK:   -5.12 KCAL/MOL
REMARK 922        TOTAL FREE ENERGY PREDICTED BY IDOCK:  -10.68 KCAL/MOL
REMARK 923 INTER-LIGAND FREE ENERGY PREDICTED BY IDOCK:   -9.02 KCAL/MOL
REMARK 924 INTRA-LIGAND FREE ENERGY PREDICTED BY IDOCK:   -1.66 KCAL/MOL
REMARK 927      BINDING AFFINITY PREDICTED BY RF-SCORE:    0.00 PKD
ROOT
HETATM    1  C   UNL     1     -10.975   6.288  68.505  1.00  0.00    -0.421 C  
HETATM    2  C   UNL     1     -10.785   6.901  67.125  1.00  0.00    -0.436 C  
ENDROOT
BRANCH   2   3
HETATM    3  C   UNL     1     -10.657   8.422  67.206  1.00  0.00    -0.328 C  
BRANCH   3   4
HETATM    4  C   UNL     1      -9.213   8.888  66.981  1.00  0.00    -0.171 C  
BRANCH   4   5
HETATM    5  C   UNL     1      -8.972  10.239  67.658  1.00  0.00    -0.137 C  
BRANCH   5   6
HETATM    6  C   UNL     1      -9.729  10.413  68.970  1.00  0.00    -0.206 C  
BRANCH   6   7
HETATM    7  O   UNL     1     -10.262  11.719  69.196  1.00  0.00    -0.083 OA 
BRANCH   7   8
HETATM    8  C   UNL     1     -11.586  11.864  68.934  1.00  0.00    -0.311 C  
HETATM    9  O   UNL     1     -12.278  11.096  68.279  1.00  0.00    -0.613 OA 
BRANCH   8  10
HETATM   10  C   UNL     1     -12.152  12.907  69.838  1.00  0.00    -0.335 A  
HETATM   11  C   UNL     1     -12.693  12.404  71.041  1.00  0.00    -0.315 A  
HETATM   12  C   UNL     1     -13.200  13.259  72.020  1.00  0.00    -0.541 A  
HETATM   13  C   UNL     1     -13.219  14.629  71.793  1.00  0.00    -0.434 A  
HETATM   14  C   UNL     1     -12.700  15.145  70.606  1.00  0.00    -0.451 A  
HETATM   15  C   UNL     1     -12.114  14.301  69.643  1.00  0.00    -0.396 A  
BRANCH  15  16
HETATM   16  C   UNL     1     -11.561  14.941  68.424  1.00  0.00    -0.325 C  
HETATM   17  O   UNL     1     -12.150  14.735  67.363  1.00  0.00    -0.303 OA 
BRANCH  16  18
HETATM   18  C   UNL     1     -10.389  15.887  68.447  1.00  0.00    -0.240 A  
HETATM   19  C   UNL     1     -10.664  17.242  68.226  1.00  0.00    -0.349 A  
HETATM   20  C   UNL     1      -9.636  18.201  68.163  1.00  0.00    -0.312 A  
HETATM   21  C   UNL     1      -8.287  17.853  68.298  1.00  0.00    -0.284 A  
HETATM   22  O   UNL     1      -8.689  14.224  68.831  1.00  0.00    -0.311 OA 
HETATM   23  C   UNL     1      -8.027  16.497  68.565  1.00  0.00    -0.216 A  
HETATM   24  H   UNL     1      -7.779  13.982  68.951  1.00  0.00     0.000 HD 
HETATM   25  C   UNL     1      -9.049  15.528  68.623  1.00  0.00    -0.202 A  
BRANCH  21  26
HETATM   26  N   UNL     1      -7.247  18.773  68.184  1.00  0.00    -0.246 NA 
BRANCH  26  27
HETATM   27  C   UNL     1      -6.449  18.790  66.947  1.00  0.00    -0.184 C  
HETATM   28  C   UNL     1      -7.219  19.458  65.817  1.00  0.00    -0.302 C  
ENDBRANCH  26  27
BRANCH  26  29
HETATM   29  C   UNL     1      -7.193  19.989  69.007  1.00  0.00    -0.172 C  
HETATM   30  C   UNL     1      -5.823  20.640  68.895  1.00  0.00    -0.392 C  
ENDBRANCH  26  29
ENDBRANCH  21  26
ENDBRANCH  16  18
ENDBRANCH  15  16
ENDBRANCH   8  10
ENDBRANCH   7   8
ENDBRANCH   6   7
ENDBRANCH   5   6
ENDBRANCH   4   5
ENDBRANCH   3   4
ENDBRANCH   2   3
TORSDOF 12
ENDMDL
MODEL       80
REMARK 921   NORMALIZED FREE ENERGY PREDICTED BY IDOCK:   -5.11 KCAL/MOL
REMARK 922        TOTAL FREE ENERGY PREDICTED BY IDOCK:  -10.66 KCAL/MOL
REMARK 923 INTER-LIGAND FREE ENERGY PREDICTED BY IDOCK:   -9.04 KCAL/MOL
REMARK 924 INTRA-LIGAND FREE ENERGY PREDICTED BY IDOCK:   -1.62 KCAL/MOL
REMARK 927      BINDING AFFINITY PREDICTED BY RF-SCORE:    0.00 PKD
ROOT
HETATM    1  C   UNL     1     -13.421  14.073  72.467  1.00  0.00    -0.661 C  
HETATM    2  C   UNL     1     -13.271  14.447  71.000  1.00  0.00    -0.395 C  
ENDROOT
BRANCH   2   3
HETATM    3  C   UNL     1     -12.100  13.707  70.355  1.00  0.00    -0.421 C  
BRANCH   3   4
HETATM    4  C   UNL     1     -11.396  14.563  69.294  1.00  0.00    -0.317 C  
BRANCH   4   5
HETATM    5  C   UNL     1     -10.521  15.629  69.956  1.00  0.00    -0.333 C  
BRANCH   5   6
HETATM    6  C   UNL     1     -10.841  17.051  69.508  1.00  0.00    -0.039 C  
BRANCH   6   7
HETATM    7  O   UNL     1      -9.744  17.774  68.947  1.00  0.00    -0.308 OA 
BRANCH   7   8
HETATM    8  C   UNL     1      -9.985  18.371  67.751  1.00  0.00    -0.346 C  
HETATM    9  O   UNL     1     -11.018  18.943  67.430  1.00  0.00    -0.437 OA 
BRANCH   8  10
HETATM   10  C   UNL     1      -8.698  18.528  67.015  1.00  0.00    -0.278 A  
HETATM   11  C   UNL     1      -8.541  19.777  66.377  1.00  0.00    -0.398 A  
HETATM   12  C   UNL     1      -7.363  20.103  65.703  1.00  0.00    -0.283 A  
HETATM   13  C   UNL     1      -6.340  19.167  65.615  1.00  0.00    -0.273 A  
HETATM   14  C   UNL     1      -6.481  17.922  66.228  1.00  0.00    -0.279 A  
HETATM   15  C   UNL     1      -7.631  17.609  66.979  1.00  0.00    -0.230 A  
BRANCH  15  16
HETATM   16  C   UNL     1      -7.681  16.273  67.620  1.00  0.00    -0.143 C  
HETATM   17  O   UNL     1      -7.132  16.151  68.714  1.00  0.00    -0.137 OA 
BRANCH  16  18
HETATM   18  C   UNL     1      -8.441  15.107  67.042  1.00  0.00    -0.259 A  
HETATM   19  C   UNL     1      -9.318  15.384  65.985  1.00  0.00    -0.364 A  
HETATM   20  C   UNL     1     -10.123  14.379  65.415  1.00  0.00    -0.388 A  
HETATM   21  C   UNL     1     -10.104  13.060  65.882  1.00  0.00    -0.288 A  
HETATM   22  O   UNL     1      -7.562  13.429  68.529  1.00  0.00    -0.124 OA 
HETATM   23  C   UNL     1      -9.187  12.785  66.911  1.00  0.00    -0.229 A  
HETATM   24  H   UNL     1      -7.522  12.531  68.835  1.00  0.00     0.000 HD 
HETATM   25  C   UNL     1      -8.382  13.785  67.493  1.00  0.00    -0.192 A  
BRANCH  21  26
HETATM   26  N   UNL     1     -10.931  12.060  65.373  1.00  0.00    -0.292 NA 
BRANCH  26  27
HETATM   27  C   UNL     1     -12.321  12.398  65.026  1.00  0.00    -0.369 C  
HETATM   28  C   UNL     1     -12.555  12.248  63.530  1.00  0.00    -0.589 C  
ENDBRANCH  26  27
BRANCH  26  29
HETATM   29  C   UNL     1     -10.386  10.843  64.755  1.00  0.00    -0.323 C  
HETATM   30  C   UNL     1      -9.971   9.848  65.828  1.00  0.00    -0.347 C  
ENDBRANCH  26  29
ENDBRANCH  21  26
ENDBRANCH  16  18
ENDBRANCH  15  16
ENDBRANCH   8  10
ENDBRANCH   7   8
ENDBRANCH   6   7
ENDBRANCH   5   6
ENDBRANCH   4   5
ENDBRANCH   3   4
ENDBRANCH   2   3
TORSDOF 12
ENDMDL
MODEL       81
REMARK 921   NORMALIZED FREE ENERGY PREDICTED BY IDOCK:   -5.11 KCAL/MOL
REMARK 922        TOTAL FREE ENERGY PREDICTED BY IDOCK:  -10.66 KCAL/MOL
REMARK 923 INTER-LIGAND FREE ENERGY PREDICTED BY IDOCK:   -8.40 KCAL/MOL
REMARK 924 INTRA-LIGAND FREE ENERGY PREDICTED BY IDOCK:   -2.26 KCAL/MOL
REMARK 927      BINDING AFFINITY PREDICTED BY RF-SCORE:    0.00 PKD
ROOT
HETATM    1  C   UNL     1     -12.264  13.708  65.095  1.00  0.00    -0.461 C  
HETATM    2  C   UNL     1     -12.256  12.599  64.053  1.00  0.00    -0.544 C  
ENDROOT
BRANCH   2   3
HETATM    3  C   UNL     1     -10.831  12.168  63.710  1.00  0.00    -0.490 C  
BRANCH   3   4
HETATM    4  C   UNL     1     -10.134  11.494  64.899  1.00  0.00    -0.314 C  
BRANCH   4   5
HETATM    5  C   UNL     1      -9.760  10.051  64.556  1.00  0.00    -0.310 C  
BRANCH   5   6
HETATM    6  C   UNL     1      -8.678   9.466  65.458  1.00  0.00    -0.163 C  
BRANCH   6   7
HETATM    7  O   UNL     1      -8.962   9.513  66.858  1.00  0.00    -0.129 OA 
BRANCH   7   8
HETATM    8  C   UNL     1      -9.942   8.677  67.285  1.00  0.00    -0.219 C  
HETATM    9  O   UNL     1     -10.311   7.655  66.722  1.00  0.00    -0.297 OA 
BRANCH   8  10
HETATM   10  C   UNL     1     -10.269   8.992  68.706  1.00  0.00    -0.226 A  
HETATM   11  C   UNL     1      -9.906   7.985  69.625  1.00  0.00    -0.184 A  
HETATM   12  C   UNL     1     -10.085   8.159  70.998  1.00  0.00    -0.221 A  
HETATM   13  C   UNL     1     -10.675   9.324  71.472  1.00  0.00    -0.425 A  
HETATM   14  C   UNL     1     -11.053  10.326  70.579  1.00  0.00    -0.381 A  
HETATM   15  C   UNL     1     -10.805  10.198  69.198  1.00  0.00    -0.260 A  
BRANCH  15  16
HETATM   16  C   UNL     1     -11.214  11.327  68.327  1.00  0.00    -0.267 C  
HETATM   17  O   UNL     1     -12.154  11.133  67.556  1.00  0.00    -0.444 OA 
BRANCH  16  18
HETATM   18  C   UNL     1     -10.600  12.699  68.410  1.00  0.00    -0.258 A  
HETATM   19  C   UNL     1     -11.465  13.765  68.693  1.00  0.00    -0.336 A  
HETATM   20  C   UNL     1     -11.006  15.095  68.730  1.00  0.00    -0.257 A  
HETATM   21  C   UNL     1      -9.671  15.427  68.472  1.00  0.00    -0.204 A  
HETATM   22  O   UNL     1      -8.343  12.034  67.895  1.00  0.00    -0.137 OA 
HETATM   23  C   UNL     1      -8.804  14.346  68.236  1.00  0.00    -0.182 A  
HETATM   24  H   UNL     1      -7.430  12.246  67.745  1.00  0.00     0.000 HD 
HETATM   25  C   UNL     1      -9.255  13.011  68.189  1.00  0.00    -0.212 A  
BRANCH  21  26
HETATM   26  N   UNL     1      -9.203  16.739  68.448  1.00  0.00    -0.221 NA 
BRANCH  26  27
HETATM   27  C   UNL     1     -10.166  17.838  68.627  1.00  0.00    -0.377 C  
HETATM   28  C   UNL     1     -10.620  18.381  67.280  1.00  0.00    -0.435 C  
ENDBRANCH  26  27
BRANCH  26  29
HETATM   29  C   UNL     1      -7.793  17.065  68.702  1.00  0.00    -0.257 C  
HETATM   30  C   UNL     1      -7.106  17.478  67.409  1.00  0.00    -0.188 C  
ENDBRANCH  26  29
ENDBRANCH  21  26
ENDBRANCH  16  18
ENDBRANCH  15  16
ENDBRANCH   8  10
ENDBRANCH   7   8
ENDBRANCH   6   7
ENDBRANCH   5   6
ENDBRANCH   4   5
ENDBRANCH   3   4
ENDBRANCH   2   3
TORSDOF 12
ENDMDL
MODEL       82
REMARK 921   NORMALIZED FREE ENERGY PREDICTED BY IDOCK:   -5.10 KCAL/MOL
REMARK 922        TOTAL FREE ENERGY PREDICTED BY IDOCK:  -10.65 KCAL/MOL
REMARK 923 INTER-LIGAND FREE ENERGY PREDICTED BY IDOCK:   -8.90 KCAL/MOL
REMARK 924 INTRA-LIGAND FREE ENERGY PREDICTED BY IDOCK:   -1.75 KCAL/MOL
REMARK 927      BINDING AFFINITY PREDICTED BY RF-SCORE:    0.00 PKD
ROOT
HETATM    1  C   UNL     1      -9.474   3.002  64.038  1.00  0.00    -0.132 C  
HETATM    2  C   UNL     1      -9.251   4.188  64.965  1.00  0.00    -0.154 C  
ENDROOT
BRANCH   2   3
HETATM    3  C   UNL     1     -10.535   4.565  65.704  1.00  0.00    -0.261 C  
BRANCH   3   4
HETATM    4  C   UNL     1     -10.250   5.077  67.122  1.00  0.00    -0.234 C  
BRANCH   4   5
HETATM    5  C   UNL     1     -10.846   6.472  67.320  1.00  0.00    -0.463 C  
BRANCH   5   6
HETATM    6  C   UNL     1     -10.087   7.574  66.589  1.00  0.00    -0.193 C  
BRANCH   6   7
HETATM    7  O   UNL     1     -10.618   8.890  66.752  1.00  0.00    -0.243 OA 
BRANCH   7   8
HETATM    8  C   UNL     1      -9.879   9.729  67.521  1.00  0.00    -0.167 C  
HETATM    9  O   UNL     1      -8.785  10.194  67.231  1.00  0.00    -0.128 OA 
BRANCH   8  10
HETATM   10  C   UNL     1     -10.736  10.274  68.613  1.00  0.00    -0.255 A  
HETATM   11  C   UNL     1     -10.715   9.517  69.804  1.00  0.00    -0.259 A  
HETATM   12  C   UNL     1     -11.413   9.932  70.939  1.00  0.00    -0.456 A  
HETATM   13  C   UNL     1     -12.183  11.087  70.888  1.00  0.00    -0.471 A  
HETATM   14  C   UNL     1     -12.227  11.843  69.717  1.00  0.00    -0.241 A  
HETATM   15  C   UNL     1     -11.465  11.479  68.589  1.00  0.00    -0.354 A  
BRANCH  15  16
HETATM   16  C   UNL     1     -11.552  12.358  67.398  1.00  0.00    -0.365 C  
HETATM   17  O   UNL     1     -12.259  11.978  66.466  1.00  0.00    -0.548 OA 
BRANCH  16  18
HETATM   18  C   UNL     1     -10.896  13.713  67.322  1.00  0.00    -0.292 A  
HETATM   19  C   UNL     1     -11.582  14.783  67.911  1.00  0.00    -0.373 A  
HETATM   20  C   UNL     1     -11.090  16.100  67.841  1.00  0.00    -0.293 A  
HETATM   21  C   UNL     1      -9.904  16.414  67.168  1.00  0.00    -0.249 A  
HETATM   22  O   UNL     1      -8.960  13.022  66.067  1.00  0.00    -0.435 OA 
HETATM   23  C   UNL     1      -9.201  15.326  66.622  1.00  0.00    -0.302 A  
HETATM   24  H   UNL     1      -8.140  13.221  65.631  1.00  0.00     0.000 HD 
HETATM   25  C   UNL     1      -9.689  14.005  66.680  1.00  0.00    -0.289 A  
BRANCH  21  26
HETATM   26  N   UNL     1      -9.425  17.715  67.037  1.00  0.00    -0.258 NA 
BRANCH  26  27
HETATM   27  C   UNL     1      -8.003  17.980  67.314  1.00  0.00    -0.212 C  
HETATM   28  C   UNL     1      -7.723  17.906  68.808  1.00  0.00    -0.263 C  
ENDBRANCH  26  27
BRANCH  26  29
HETATM   29  C   UNL     1     -10.124  18.721  66.225  1.00  0.00    -0.409 C  
HETATM   30  C   UNL     1     -10.154  20.057  66.952  1.00  0.00    -0.601 C  
ENDBRANCH  26  29
ENDBRANCH  21  26
ENDBRANCH  16  18
ENDBRANCH  15  16
ENDBRANCH   8  10
ENDBRANCH   7   8
ENDBRANCH   6   7
ENDBRANCH   5   6
ENDBRANCH   4   5
ENDBRANCH   3   4
ENDBRANCH   2   3
TORSDOF 12
ENDMDL
MODEL       83
REMARK 921   NORMALIZED FREE ENERGY PREDICTED BY IDOCK:   -5.08 KCAL/MOL
REMARK 922        TOTAL FREE ENERGY PREDICTED BY IDOCK:  -10.60 KCAL/MOL
REMARK 923 INTER-LIGAND FREE ENERGY PREDICTED BY IDOCK:   -8.75 KCAL/MOL
REMARK 924 INTRA-LIGAND FREE ENERGY PREDICTED BY IDOCK:   -1.86 KCAL/MOL
REMARK 927      BINDING AFFINITY PREDICTED BY RF-SCORE:    0.00 PKD
ROOT
HETATM    1  C   UNL     1     -10.424   7.088  66.944  1.00  0.00    -0.356 C  
HETATM    2  C   UNL     1     -10.555   8.600  66.843  1.00  0.00    -0.270 C  
ENDROOT
BRANCH   2   3
HETATM    3  C   UNL     1     -10.607   9.248  68.226  1.00  0.00    -0.237 C  
BRANCH   3   4
HETATM    4  C   UNL     1     -11.306  10.613  68.194  1.00  0.00    -0.354 C  
BRANCH   4   5
HETATM    5  C   UNL     1     -11.373  11.217  69.598  1.00  0.00    -0.366 C  
BRANCH   5   6
HETATM    6  C   UNL     1     -12.021  12.596  69.644  1.00  0.00    -0.286 C  
BRANCH   6   7
HETATM    7  O   UNL     1     -11.144  13.690  69.369  1.00  0.00    -0.226 OA 
BRANCH   7   8
HETATM    8  C   UNL     1     -11.659  14.672  68.586  1.00  0.00    -0.314 C  
HETATM    9  O   UNL     1     -12.030  15.774  68.967  1.00  0.00    -0.385 OA 
BRANCH   8  10
HETATM   10  C   UNL     1     -11.390  14.348  67.156  1.00  0.00    -0.356 A  
HETATM   11  C   UNL     1     -12.501  13.826  66.458  1.00  0.00    -0.356 A  
HETATM   12  C   UNL     1     -12.429  13.535  65.095  1.00  0.00    -0.495 A  
HETATM   13  C   UNL     1     -11.229  13.715  64.417  1.00  0.00    -0.382 A  
HETATM   14  C   UNL     1     -10.117  14.217  65.091  1.00  0.00    -0.353 A  
HETATM   15  C   UNL     1     -10.197  14.590  66.447  1.00  0.00    -0.293 A  
BRANCH  15  16
HETATM   16  C   UNL     1      -8.972  15.142  67.074  1.00  0.00    -0.234 C  
HETATM   17  O   UNL     1      -8.322  14.391  67.801  1.00  0.00    -0.147 OA 
BRANCH  16  18
HETATM   18  C   UNL     1      -8.451  16.527  66.791  1.00  0.00    -0.273 A  
HETATM   19  C   UNL     1      -7.089  16.640  66.479  1.00  0.00    -0.212 A  
HETATM   20  C   UNL     1      -6.487  17.893  66.260  1.00  0.00    -0.279 A  
HETATM   21  C   UNL     1      -7.206  19.090  66.358  1.00  0.00    -0.236 A  
HETATM   22  O   UNL     1     -10.525  17.693  67.163  1.00  0.00    -0.339 OA 
HETATM   23  C   UNL     1      -8.580  18.960  66.625  1.00  0.00    -0.312 A  
HETATM   24  H   UNL     1     -11.027  18.498  67.205  1.00  0.00     0.000 HD 
HETATM   25  C   UNL     1      -9.192  17.711  66.853  1.00  0.00    -0.263 A  
BRANCH  21  26
HETATM   26  N   UNL     1      -6.622  20.344  66.201  1.00  0.00    -0.221 NA 
BRANCH  26  27
HETATM   27  C   UNL     1      -6.606  21.268  67.347  1.00  0.00    -0.331 C  
HETATM   28  C   UNL     1      -5.736  20.720  68.469  1.00  0.00    -0.380 C  
ENDBRANCH  26  27
BRANCH  26  29
HETATM   29  C   UNL     1      -5.649  20.619  65.134  1.00  0.00    -0.203 C  
HETATM   30  C   UNL     1      -6.366  20.848  63.813  1.00  0.00    -0.288 C  
ENDBRANCH  26  29
ENDBRANCH  21  26
ENDBRANCH  16  18
ENDBRANCH  15  16
ENDBRANCH   8  10
ENDBRANCH   7   8
ENDBRANCH   6   7
ENDBRANCH   5   6
ENDBRANCH   4   5
ENDBRANCH   3   4
ENDBRANCH   2   3
TORSDOF 12
ENDMDL
MODEL       84
REMARK 921   NORMALIZED FREE ENERGY PREDICTED BY IDOCK:   -5.06 KCAL/MOL
REMARK 922        TOTAL FREE ENERGY PREDICTED BY IDOCK:  -10.58 KCAL/MOL
REMARK 923 INTER-LIGAND FREE ENERGY PREDICTED BY IDOCK:   -7.85 KCAL/MOL
REMARK 924 INTRA-LIGAND FREE ENERGY PREDICTED BY IDOCK:   -2.73 KCAL/MOL
REMARK 927      BINDING AFFINITY PREDICTED BY RF-SCORE:    0.00 PKD
ROOT
HETATM    1  C   UNL     1     -12.751  13.831  65.797  1.00  0.00    -0.494 C  
HETATM    2  C   UNL     1     -12.268  14.326  64.442  1.00  0.00    -0.471 C  
ENDROOT
BRANCH   2   3
HETATM    3  C   UNL     1     -12.118  13.173  63.450  1.00  0.00    -0.558 C  
BRANCH   3   4
HETATM    4  C   UNL     1     -11.438  11.954  64.087  1.00  0.00    -0.449 C  
BRANCH   4   5
HETATM    5  C   UNL     1     -10.411  11.349  63.128  1.00  0.00    -0.357 C  
BRANCH   5   6
HETATM    6  C   UNL     1      -9.475  10.341  63.786  1.00  0.00    -0.300 C  
BRANCH   6   7
HETATM    7  O   UNL     1      -8.984  10.718  65.074  1.00  0.00    -0.195 OA 
BRANCH   7   8
HETATM    8  C   UNL     1      -9.318   9.888  66.095  1.00  0.00    -0.181 C  
HETATM    9  O   UNL     1     -10.024   8.893  66.010  1.00  0.00    -0.270 OA 
BRANCH   8  10
HETATM   10  C   UNL     1      -8.429  10.164  67.260  1.00  0.00    -0.125 A  
HETATM   11  C   UNL     1      -7.249   9.390  67.289  1.00  0.00    -0.087 A  
HETATM   12  C   UNL     1      -6.284   9.577  68.279  1.00  0.00    -0.052 A  
HETATM   13  C   UNL     1      -6.504  10.510  69.286  1.00  0.00    -0.055 A  
HETATM   14  C   UNL     1      -7.669  11.276  69.282  1.00  0.00     0.010 A  
HETATM   15  C   UNL     1      -8.615  11.153  68.245  1.00  0.00    -0.146 A  
BRANCH  15  16
HETATM   16  C   UNL     1      -9.810  12.029  68.308  1.00  0.00    -0.204 C  
HETATM   17  O   UNL     1     -10.837  11.549  68.786  1.00  0.00    -0.196 OA 
BRANCH  16  18
HETATM   18  C   UNL     1      -9.792  13.481  67.904  1.00  0.00    -0.235 A  
HETATM   19  C   UNL     1      -9.200  13.788  66.672  1.00  0.00    -0.238 A  
HETATM   20  C   UNL     1      -9.074  15.118  66.229  1.00  0.00    -0.313 A  
HETATM   21  C   UNL     1      -9.514  16.202  66.997  1.00  0.00    -0.222 A  
HETATM   22  O   UNL     1     -10.855  14.341  69.887  1.00  0.00    -0.452 OA 
HETATM   23  C   UNL     1     -10.148  15.878  68.209  1.00  0.00    -0.224 A  
HETATM   24  H   UNL     1     -11.181  15.068  70.404  1.00  0.00     0.000 HD 
HETATM   25  C   UNL     1     -10.273  14.550  68.666  1.00  0.00    -0.243 A  
BRANCH  21  26
HETATM   26  N   UNL     1      -9.350  17.529  66.607  1.00  0.00    -0.255 NA 
BRANCH  26  27
HETATM   27  C   UNL     1     -10.531  18.291  66.170  1.00  0.00    -0.383 C  
HETATM   28  C   UNL     1     -10.527  19.687  66.778  1.00  0.00    -0.605 C  
ENDBRANCH  26  27
BRANCH  26  29
HETATM   29  C   UNL     1      -8.185  18.322  67.025  1.00  0.00    -0.239 C  
HETATM   30  C   UNL     1      -7.097  18.258  65.964  1.00  0.00    -0.307 C  
ENDBRANCH  26  29
ENDBRANCH  21  26
ENDBRANCH  16  18
ENDBRANCH  15  16
ENDBRANCH   8  10
ENDBRANCH   7   8
ENDBRANCH   6   7
ENDBRANCH   5   6
ENDBRANCH   4   5
ENDBRANCH   3   4
ENDBRANCH   2   3
TORSDOF 12
ENDMDL
MODEL       85
REMARK 921   NORMALIZED FREE ENERGY PREDICTED BY IDOCK:   -5.05 KCAL/MOL
REMARK 922        TOTAL FREE ENERGY PREDICTED BY IDOCK:  -10.56 KCAL/MOL
REMARK 923 INTER-LIGAND FREE ENERGY PREDICTED BY IDOCK:   -8.37 KCAL/MOL
REMARK 924 INTRA-LIGAND FREE ENERGY PREDICTED BY IDOCK:   -2.19 KCAL/MOL
REMARK 927      BINDING AFFINITY PREDICTED BY RF-SCORE:    0.00 PKD
ROOT
HETATM    1  C   UNL     1     -10.970   6.053  67.990  1.00  0.00    -0.340 C  
HETATM    2  C   UNL     1     -11.092   6.133  69.505  1.00  0.00    -0.490 C  
ENDROOT
BRANCH   2   3
HETATM    3  C   UNL     1      -9.745   5.889  70.185  1.00  0.00    -0.211 C  
BRANCH   3   4
HETATM    4  C   UNL     1      -8.572   6.365  69.319  1.00  0.00    -0.125 C  
BRANCH   4   5
HETATM    5  C   UNL     1      -8.034   7.703  69.829  1.00  0.00    -0.116 C  
BRANCH   5   6
HETATM    6  C   UNL     1      -7.959   8.785  68.757  1.00  0.00    -0.106 C  
BRANCH   6   7
HETATM    7  O   UNL     1      -8.775   9.934  68.995  1.00  0.00    -0.133 OA 
BRANCH   7   8
HETATM    8  C   UNL     1     -10.027   9.881  68.473  1.00  0.00    -0.159 C  
HETATM    9  O   UNL     1     -10.363   9.266  67.471  1.00  0.00    -0.228 OA 
BRANCH   8  10
HETATM   10  C   UNL     1     -10.998  10.396  69.482  1.00  0.00    -0.307 A  
HETATM   11  C   UNL     1     -11.120   9.594  70.636  1.00  0.00    -0.384 A  
HETATM   12  C   UNL     1     -11.939   9.975  71.700  1.00  0.00    -0.369 A  
HETATM   13  C   UNL     1     -12.687  11.143  71.607  1.00  0.00    -0.466 A  
HETATM   14  C   UNL     1     -12.590  11.943  70.469  1.00  0.00    -0.212 A  
HETATM   15  C   UNL     1     -11.708  11.611  69.422  1.00  0.00    -0.405 A  
BRANCH  15  16
HETATM   16  C   UNL     1     -11.650  12.536  68.264  1.00  0.00    -0.328 C  
HETATM   17  O   UNL     1     -12.254  12.204  67.245  1.00  0.00    -0.496 OA 
BRANCH  16  18
HETATM   18  C   UNL     1     -10.972  13.881  68.314  1.00  0.00    -0.274 A  
HETATM   19  C   UNL     1     -11.774  15.004  68.076  1.00  0.00    -0.320 A  
HETATM   20  C   UNL     1     -11.230  16.302  68.036  1.00  0.00    -0.260 A  
HETATM   21  C   UNL     1      -9.862  16.539  68.214  1.00  0.00    -0.243 A  
HETATM   22  O   UNL     1      -8.751  13.064  68.762  1.00  0.00    -0.374 OA 
HETATM   23  C   UNL     1      -9.075  15.409  68.499  1.00  0.00    -0.197 A  
HETATM   24  H   UNL     1      -7.826  13.216  68.911  1.00  0.00     0.000 HD 
HETATM   25  C   UNL     1      -9.609  14.105  68.534  1.00  0.00    -0.214 A  
BRANCH  21  26
HETATM   26  N   UNL     1      -9.290  17.806  68.124  1.00  0.00    -0.273 NA 
BRANCH  26  27
HETATM   27  C   UNL     1      -8.469  18.131  66.947  1.00  0.00    -0.253 C  
HETATM   28  C   UNL     1      -6.988  17.963  67.260  1.00  0.00    -0.204 C  
ENDBRANCH  26  27
BRANCH  26  29
HETATM   29  C   UNL     1      -9.814  18.949  68.884  1.00  0.00    -0.390 C  
HETATM   30  C   UNL     1      -9.792  20.206  68.028  1.00  0.00    -0.498 C  
ENDBRANCH  26  29
ENDBRANCH  21  26
ENDBRANCH  16  18
ENDBRANCH  15  16
ENDBRANCH   8  10
ENDBRANCH   7   8
ENDBRANCH   6   7
ENDBRANCH   5   6
ENDBRANCH   4   5
ENDBRANCH   3   4
ENDBRANCH   2   3
TORSDOF 12
ENDMDL
MODEL       86
REMARK 921   NORMALIZED FREE ENERGY PREDICTED BY IDOCK:   -5.05 KCAL/MOL
REMARK 922        TOTAL FREE ENERGY PREDICTED BY IDOCK:  -10.56 KCAL/MOL
REMARK 923 INTER-LIGAND FREE ENERGY PREDICTED BY IDOCK:   -7.65 KCAL/MOL
REMARK 924 INTRA-LIGAND FREE ENERGY PREDICTED BY IDOCK:   -2.91 KCAL/MOL
REMARK 927      BINDING AFFINITY PREDICTED BY RF-SCORE:    0.00 PKD
ROOT
HETATM    1  C   UNL     1     -11.827  13.619  69.087  1.00  0.00    -0.394 C  
HETATM    2  C   UNL     1     -12.061  14.236  67.716  1.00  0.00    -0.316 C  
ENDROOT
BRANCH   2   3
HETATM    3  C   UNL     1     -12.130  13.165  66.629  1.00  0.00    -0.409 C  
BRANCH   3   4
HETATM    4  C   UNL     1     -12.605  13.739  65.288  1.00  0.00    -0.510 C  
BRANCH   4   5
HETATM    5  C   UNL     1     -12.021  12.938  64.122  1.00  0.00    -0.491 C  
BRANCH   5   6
HETATM    6  C   UNL     1     -10.566  12.527  64.327  1.00  0.00    -0.369 C  
BRANCH   6   7
HETATM    7  O   UNL     1     -10.327  11.118  64.329  1.00  0.00    -0.302 OA 
BRANCH   7   8
HETATM    8  C   UNL     1      -9.226  10.712  65.011  1.00  0.00    -0.211 C  
HETATM    9  O   UNL     1      -8.078  10.709  64.587  1.00  0.00    -0.107 OA 
BRANCH   8  10
HETATM   10  C   UNL     1      -9.563  10.596  66.459  1.00  0.00    -0.218 A  
HETATM   11  C   UNL     1     -10.510   9.593  66.759  1.00  0.00    -0.257 A  
HETATM   12  C   UNL     1     -10.881   9.316  68.075  1.00  0.00    -0.166 A  
HETATM   13  C   UNL     1     -10.346  10.070  69.112  1.00  0.00    -0.233 A  
HETATM   14  C   UNL     1      -9.419  11.074  68.837  1.00  0.00    -0.166 A  
HETATM   15  C   UNL     1      -8.976  11.312  67.521  1.00  0.00    -0.140 A  
BRANCH  15  16
HETATM   16  C   UNL     1      -7.966  12.380  67.326  1.00  0.00    -0.178 C  
HETATM   17  O   UNL     1      -6.831  12.031  67.004  1.00  0.00    -0.143 OA 
BRANCH  16  18
HETATM   18  C   UNL     1      -8.289  13.849  67.414  1.00  0.00    -0.208 A  
HETATM   19  C   UNL     1      -8.814  14.452  66.264  1.00  0.00     0.087 A  
HETATM   20  C   UNL     1      -9.091  15.832  66.217  1.00  0.00    -0.373 A  
HETATM   21  C   UNL     1      -8.843  16.676  67.307  1.00  0.00    -0.192 A  
HETATM   22  O   UNL     1      -7.552  14.167  69.685  1.00  0.00    -0.351 OA 
HETATM   23  C   UNL     1      -8.360  16.050  68.470  1.00  0.00    -0.191 A  
HETATM   24  H   UNL     1      -7.406  14.726  70.438  1.00  0.00     0.000 HD 
HETATM   25  C   UNL     1      -8.073  14.672  68.524  1.00  0.00    -0.146 A  
BRANCH  21  26
HETATM   26  N   UNL     1      -9.055  18.051  67.268  1.00  0.00    -0.252 NA 
BRANCH  26  27
HETATM   27  C   UNL     1     -10.329  18.587  67.775  1.00  0.00    -0.402 C  
HETATM   28  C   UNL     1     -10.502  20.043  67.366  1.00  0.00    -0.490 C  
ENDBRANCH  26  27
BRANCH  26  29
HETATM   29  C   UNL     1      -7.941  19.006  67.177  1.00  0.00    -0.255 C  
HETATM   30  C   UNL     1      -6.870  18.477  66.235  1.00  0.00    -0.265 C  
ENDBRANCH  26  29
ENDBRANCH  21  26
ENDBRANCH  16  18
ENDBRANCH  15  16
ENDBRANCH   8  10
ENDBRANCH   7   8
ENDBRANCH   6   7
ENDBRANCH   5   6
ENDBRANCH   4   5
ENDBRANCH   3   4
ENDBRANCH   2   3
TORSDOF 12
ENDMDL
MODEL       87
REMARK 921   NORMALIZED FREE ENERGY PREDICTED BY IDOCK:   -5.04 KCAL/MOL
REMARK 922        TOTAL FREE ENERGY PREDICTED BY IDOCK:  -10.55 KCAL/MOL
REMARK 923 INTER-LIGAND FREE ENERGY PREDICTED BY IDOCK:   -7.66 KCAL/MOL
REMARK 924 INTRA-LIGAND FREE ENERGY PREDICTED BY IDOCK:   -2.89 KCAL/MOL
REMARK 927      BINDING AFFINITY PREDICTED BY RF-SCORE:    0.00 PKD
ROOT
HETATM    1  C   UNL     1     -10.762  10.407  70.147  1.00  0.00    -0.292 C  
HETATM    2  C   UNL     1     -12.249  10.719  70.068  1.00  0.00    -0.409 C  
ENDROOT
BRANCH   2   3
HETATM    3  C   UNL     1     -12.903  10.663  71.448  1.00  0.00    -0.556 C  
BRANCH   3   4
HETATM    4  C   UNL     1     -13.774   9.412  71.619  1.00  0.00    -0.393 C  
BRANCH   4   5
HETATM    5  C   UNL     1     -12.991   8.303  72.324  1.00  0.00    -0.289 C  
BRANCH   5   6
HETATM    6  C   UNL     1     -12.817   7.043  71.483  1.00  0.00    -0.372 C  
BRANCH   6   7
HETATM    7  O   UNL     1     -11.811   7.122  70.471  1.00  0.00    -0.299 OA 
BRANCH   7   8
HETATM    8  C   UNL     1     -10.749   6.294  70.636  1.00  0.00    -0.264 C  
HETATM    9  O   UNL     1     -10.648   5.158  70.193  1.00  0.00    -0.272 OA 
BRANCH   8  10
HETATM   10  C   UNL     1      -9.587   7.083  71.138  1.00  0.00    -0.165 A  
HETATM   11  C   UNL     1      -9.562   7.258  72.538  1.00  0.00    -0.186 A  
HETATM   12  C   UNL     1      -8.506   7.917  73.167  1.00  0.00    -0.242 A  
HETATM   13  C   UNL     1      -7.478   8.455  72.402  1.00  0.00    -0.129 A  
HETATM   14  C   UNL     1      -7.490   8.303  71.016  1.00  0.00    -0.068 A  
HETATM   15  C   UNL     1      -8.509   7.573  70.375  1.00  0.00    -0.141 A  
BRANCH  15  16
HETATM   16  C   UNL     1      -8.424   7.439  68.900  1.00  0.00    -0.129 C  
HETATM   17  O   UNL     1      -7.952   6.393  68.454  1.00  0.00    -0.104 OA 
BRANCH  16  18
HETATM   18  C   UNL     1      -8.966   8.470  67.944  1.00  0.00    -0.139 A  
HETATM   19  C   UNL     1      -8.168   9.598  67.711  1.00  0.00    -0.114 A  
HETATM   20  C   UNL     1      -8.607  10.651  66.886  1.00  0.00    -0.126 A  
HETATM   21  C   UNL     1      -9.865  10.638  66.271  1.00  0.00    -0.214 A  
HETATM   22  O   UNL     1     -11.057   7.365  67.487  1.00  0.00    -0.531 OA 
HETATM   23  C   UNL     1     -10.636   9.480  66.476  1.00  0.00    -0.133 A  
HETATM   24  H   UNL     1     -11.900   7.334  67.053  1.00  0.00     0.000 HD 
HETATM   25  C   UNL     1     -10.209   8.424  67.305  1.00  0.00    -0.279 A  
BRANCH  21  26
HETATM   26  N   UNL     1     -10.345  11.691  65.497  1.00  0.00    -0.254 NA 
BRANCH  26  27
HETATM   27  C   UNL     1     -10.062  13.071  65.923  1.00  0.00    -0.288 C  
HETATM   28  C   UNL     1     -10.849  13.420  67.179  1.00  0.00    -0.284 C  
ENDBRANCH  26  27
BRANCH  26  29
HETATM   29  C   UNL     1     -10.713  11.512  64.085  1.00  0.00    -0.368 C  
HETATM   30  C   UNL     1     -12.044  12.189  63.798  1.00  0.00    -0.620 C  
ENDBRANCH  26  29
ENDBRANCH  21  26
ENDBRANCH  16  18
ENDBRANCH  15  16
ENDBRANCH   8  10
ENDBRANCH   7   8
ENDBRANCH   6   7
ENDBRANCH   5   6
ENDBRANCH   4   5
ENDBRANCH   3   4
ENDBRANCH   2   3
TORSDOF 12
ENDMDL
MODEL       88
REMARK 921   NORMALIZED FREE ENERGY PREDICTED BY IDOCK:   -5.04 KCAL/MOL
REMARK 922        TOTAL FREE ENERGY PREDICTED BY IDOCK:  -10.54 KCAL/MOL
REMARK 923 INTER-LIGAND FREE ENERGY PREDICTED BY IDOCK:   -8.66 KCAL/MOL
REMARK 924 INTRA-LIGAND FREE ENERGY PREDICTED BY IDOCK:   -1.88 KCAL/MOL
REMARK 927      BINDING AFFINITY PREDICTED BY RF-SCORE:    0.00 PKD
ROOT
HETATM    1  C   UNL     1      -8.103  19.624  66.561  1.00  0.00    -0.338 C  
HETATM    2  C   UNL     1      -6.903  18.702  66.720  1.00  0.00    -0.213 C  
ENDROOT
BRANCH   2   3
HETATM    3  C   UNL     1      -7.271  17.252  66.407  1.00  0.00    -0.327 C  
BRANCH   3   4
HETATM    4  C   UNL     1      -6.505  16.262  67.295  1.00  0.00    -0.223 C  
BRANCH   4   5
HETATM    5  C   UNL     1      -6.657  16.635  68.771  1.00  0.00    -0.169 C  
BRANCH   5   6
HETATM    6  C   UNL     1      -7.752  15.855  69.492  1.00  0.00    -0.125 C  
BRANCH   6   7
HETATM    7  O   UNL     1      -8.736  15.263  68.643  1.00  0.00    -0.164 OA 
BRANCH   7   8
HETATM    8  C   UNL     1      -9.932  15.903  68.597  1.00  0.00    -0.214 C  
HETATM    9  O   UNL     1     -10.167  17.019  69.039  1.00  0.00    -0.290 OA 
BRANCH   8  10
HETATM   10  C   UNL     1     -10.827  15.199  67.633  1.00  0.00    -0.295 A  
HETATM   11  C   UNL     1     -10.611  15.541  66.281  1.00  0.00    -0.310 A  
HETATM   12  C   UNL     1     -11.323  14.920  65.254  1.00  0.00    -0.358 A  
HETATM   13  C   UNL     1     -12.297  13.980  65.565  1.00  0.00    -0.503 A  
HETATM   14  C   UNL     1     -12.535  13.637  66.895  1.00  0.00    -0.189 A  
HETATM   15  C   UNL     1     -11.770  14.198  67.936  1.00  0.00    -0.402 A  
BRANCH  15  16
HETATM   16  C   UNL     1     -12.073  13.752  69.319  1.00  0.00    -0.329 C  
HETATM   17  O   UNL     1     -12.641  14.555  70.058  1.00  0.00    -0.318 OA 
BRANCH  16  18
HETATM   18  C   UNL     1     -11.802  12.356  69.814  1.00  0.00    -0.387 A  
HETATM   19  C   UNL     1     -10.924  11.573  69.054  1.00  0.00    -0.285 A  
HETATM   20  C   UNL     1     -10.651  10.234  69.392  1.00  0.00    -0.262 A  
HETATM   21  C   UNL     1     -11.254   9.608  70.490  1.00  0.00    -0.297 A  
HETATM   22  O   UNL     1     -13.261  12.445  71.729  1.00  0.00    -0.440 OA 
HETATM   23  C   UNL     1     -12.097  10.418  71.271  1.00  0.00    -0.461 A  
HETATM   24  H   UNL     1     -13.654  12.038  72.491  1.00  0.00     0.000 HD 
HETATM   25  C   UNL     1     -12.381  11.757  70.937  1.00  0.00    -0.320 A  
BRANCH  21  26
HETATM   26  N   UNL     1     -11.045   8.269  70.813  1.00  0.00    -0.255 NA 
BRANCH  26  27
HETATM   27  C   UNL     1     -10.545   7.358  69.771  1.00  0.00    -0.236 C  
HETATM   28  C   UNL     1     -10.628   5.911  70.236  1.00  0.00    -0.354 C  
ENDBRANCH  26  27
BRANCH  26  29
HETATM   29  C   UNL     1     -10.866   7.825  72.202  1.00  0.00    -0.257 C  
HETATM   30  C   UNL     1      -9.524   8.302  72.739  1.00  0.00    -0.343 C  
ENDBRANCH  26  29
ENDBRANCH  21  26
ENDBRANCH  16  18
ENDBRANCH  15  16
ENDBRANCH   8  10
ENDBRANCH   7   8
ENDBRANCH   6   7
ENDBRANCH   5   6
ENDBRANCH   4   5
ENDBRANCH   3   4
ENDBRANCH   2   3
TORSDOF 12
ENDMDL
MODEL       89
REMARK 921   NORMALIZED FREE ENERGY PREDICTED BY IDOCK:   -5.03 KCAL/MOL
REMARK 922        TOTAL FREE ENERGY PREDICTED BY IDOCK:  -10.53 KCAL/MOL
REMARK 923 INTER-LIGAND FREE ENERGY PREDICTED BY IDOCK:   -8.58 KCAL/MOL
REMARK 924 INTRA-LIGAND FREE ENERGY PREDICTED BY IDOCK:   -1.95 KCAL/MOL
REMARK 927      BINDING AFFINITY PREDICTED BY RF-SCORE:    0.00 PKD
ROOT
HETATM    1  C   UNL     1     -11.183  12.712  63.860  1.00  0.00    -0.497 C  
HETATM    2  C   UNL     1     -12.341  12.682  64.847  1.00  0.00    -0.563 C  
ENDROOT
BRANCH   2   3
HETATM    3  C   UNL     1     -12.296  13.882  65.792  1.00  0.00    -0.518 C  
BRANCH   3   4
HETATM    4  C   UNL     1     -10.932  14.019  66.481  1.00  0.00    -0.306 C  
BRANCH   4   5
HETATM    5  C   UNL     1     -11.101  14.536  67.911  1.00  0.00    -0.290 C  
BRANCH   5   6
HETATM    6  C   UNL     1     -12.048  13.696  68.761  1.00  0.00    -0.297 C  
BRANCH   6   7
HETATM    7  O   UNL     1     -11.445  12.585  69.426  1.00  0.00    -0.270 OA 
BRANCH   7   8
HETATM    8  C   UNL     1     -11.840  11.359  68.996  1.00  0.00    -0.348 C  
HETATM    9  O   UNL     1     -11.879  10.984  67.833  1.00  0.00    -0.600 OA 
BRANCH   8  10
HETATM   10  C   UNL     1     -11.893  10.428  70.160  1.00  0.00    -0.379 A  
HETATM   11  C   UNL     1     -13.020  10.597  70.992  1.00  0.00    -0.456 A  
HETATM   12  C   UNL     1     -13.247   9.759  72.084  1.00  0.00    -0.530 A  
HETATM   13  C   UNL     1     -12.326   8.765  72.390  1.00  0.00    -0.414 A  
HETATM   14  C   UNL     1     -11.199   8.589  71.588  1.00  0.00    -0.361 A  
HETATM   15  C   UNL     1     -10.998   9.376  70.437  1.00  0.00    -0.317 A  
BRANCH  15  16
HETATM   16  C   UNL     1      -9.786   9.099  69.627  1.00  0.00    -0.180 C  
HETATM   17  O   UNL     1      -8.778   9.758  69.876  1.00  0.00    -0.192 OA 
BRANCH  16  18
HETATM   18  C   UNL     1      -9.715   8.003  68.597  1.00  0.00    -0.163 A  
HETATM   19  C   UNL     1     -10.903   7.310  68.325  1.00  0.00    -0.114 A  
HETATM   20  C   UNL     1     -10.934   6.227  67.427  1.00  0.00    -0.447 A  
HETATM   21  C   UNL     1      -9.783   5.772  66.773  1.00  0.00    -0.153 A  
HETATM   22  O   UNL     1      -7.360   8.198  68.135  1.00  0.00    -0.091 OA 
HETATM   23  C   UNL     1      -8.608   6.503  67.018  1.00  0.00    -0.113 A  
HETATM   24  H   UNL     1      -6.579   7.914  67.676  1.00  0.00     0.000 HD 
HETATM   25  C   UNL     1      -8.565   7.585  67.920  1.00  0.00    -0.121 A  
BRANCH  21  26
HETATM   26  N   UNL     1      -9.776   4.668  65.924  1.00  0.00    -0.182 NA 
BRANCH  26  27
HETATM   27  C   UNL     1      -8.889   3.536  66.239  1.00  0.00    -0.131 C  
HETATM   28  C   UNL     1      -9.330   2.846  67.522  1.00  0.00    -0.218 C  
ENDBRANCH  26  27
BRANCH  26  29
HETATM   29  C   UNL     1     -10.895   4.380  65.015  1.00  0.00    -0.063 C  
HETATM   30  C   UNL     1     -10.419   3.531  63.846  1.00  0.00    -0.266 C  
ENDBRANCH  26  29
ENDBRANCH  21  26
ENDBRANCH  16  18
ENDBRANCH  15  16
ENDBRANCH   8  10
ENDBRANCH   7   8
ENDBRANCH   6   7
ENDBRANCH   5   6
ENDBRANCH   4   5
ENDBRANCH   3   4
ENDBRANCH   2   3
TORSDOF 12
ENDMDL
MODEL       90
REMARK 921   NORMALIZED FREE ENERGY PREDICTED BY IDOCK:   -5.03 KCAL/MOL
REMARK 922        TOTAL FREE ENERGY PREDICTED BY IDOCK:  -10.53 KCAL/MOL
REMARK 923 INTER-LIGAND FREE ENERGY PREDICTED BY IDOCK:   -8.88 KCAL/MOL
REMARK 924 INTRA-LIGAND FREE ENERGY PREDICTED BY IDOCK:   -1.65 KCAL/MOL
REMARK 927      BINDING AFFINITY PREDICTED BY RF-SCORE:    0.00 PKD
ROOT
HETATM    1  C   UNL     1     -12.693  10.949  71.417  1.00  0.00    -0.539 C  
HETATM    2  C   UNL     1     -13.228   9.676  72.056  1.00  0.00    -0.546 C  
ENDROOT
BRANCH   2   3
HETATM    3  C   UNL     1     -12.138   8.613  72.177  1.00  0.00    -0.451 C  
BRANCH   3   4
HETATM    4  C   UNL     1     -12.282   7.520  71.111  1.00  0.00    -0.330 C  
BRANCH   4   5
HETATM    5  C   UNL     1     -10.984   6.719  70.982  1.00  0.00    -0.297 C  
BRANCH   5   6
HETATM    6  C   UNL     1      -9.940   7.382  70.090  1.00  0.00    -0.184 C  
BRANCH   6   7
HETATM    7  O   UNL     1     -10.464   8.135  68.995  1.00  0.00    -0.219 OA 
BRANCH   7   8
HETATM    8  C   UNL     1      -9.995   9.403  68.878  1.00  0.00    -0.179 C  
HETATM    9  O   UNL     1      -9.523  10.081  69.780  1.00  0.00    -0.220 OA 
BRANCH   8  10
HETATM   10  C   UNL     1      -9.819   9.728  67.433  1.00  0.00    -0.219 A  
HETATM   11  C   UNL     1      -9.125   8.745  66.695  1.00  0.00    -0.196 A  
HETATM   12  C   UNL     1      -8.938   8.871  65.318  1.00  0.00    -0.213 A  
HETATM   13  C   UNL     1      -9.401  10.006  64.663  1.00  0.00    -0.338 A  
HETATM   14  C   UNL     1     -10.078  10.994  65.376  1.00  0.00    -0.326 A  
HETATM   15  C   UNL     1     -10.343  10.843  66.751  1.00  0.00    -0.289 A  
BRANCH  15  16
HETATM   16  C   UNL     1     -11.095  11.932  67.421  1.00  0.00    -0.279 C  
HETATM   17  O   UNL     1     -12.142  11.626  67.991  1.00  0.00    -0.597 OA 
BRANCH  16  18
HETATM   18  C   UNL     1     -10.593  13.349  67.510  1.00  0.00    -0.255 A  
HETATM   19  C   UNL     1      -9.263  13.526  67.913  1.00  0.00    -0.211 A  
HETATM   20  C   UNL     1      -8.713  14.810  68.090  1.00  0.00    -0.168 A  
HETATM   21  C   UNL     1      -9.465  15.974  67.892  1.00  0.00    -0.210 A  
HETATM   22  O   UNL     1     -12.657  14.422  66.885  1.00  0.00    -0.540 OA 
HETATM   23  C   UNL     1     -10.784  15.784  67.444  1.00  0.00    -0.317 A  
HETATM   24  H   UNL     1     -13.168  15.206  66.722  1.00  0.00     0.000 HD 
HETATM   25  C   UNL     1     -11.346  14.503  67.270  1.00  0.00    -0.350 A  
BRANCH  21  26
HETATM   26  N   UNL     1      -8.961  17.253  68.115  1.00  0.00    -0.246 NA 
BRANCH  26  27
HETATM   27  C   UNL     1      -7.522  17.492  67.924  1.00  0.00    -0.205 C  
HETATM   28  C   UNL     1      -6.757  17.239  69.216  1.00  0.00    -0.230 C  
ENDBRANCH  26  27
BRANCH  26  29
HETATM   29  C   UNL     1      -9.825  18.442  68.088  1.00  0.00    -0.342 C  
HETATM   30  C   UNL     1      -9.026  19.663  67.656  1.00  0.00    -0.384 C  
ENDBRANCH  26  29
ENDBRANCH  21  26
ENDBRANCH  16  18
ENDBRANCH  15  16
ENDBRANCH   8  10
ENDBRANCH   7   8
ENDBRANCH   6   7
ENDBRANCH   5   6
ENDBRANCH   4   5
ENDBRANCH   3   4
ENDBRANCH   2   3
TORSDOF 12
ENDMDL
MODEL       91
REMARK 921   NORMALIZED FREE ENERGY PREDICTED BY IDOCK:   -5.01 KCAL/MOL
REMARK 922        TOTAL FREE ENERGY PREDICTED BY IDOCK:  -10.50 KCAL/MOL
REMARK 923 INTER-LIGAND FREE ENERGY PREDICTED BY IDOCK:   -8.58 KCAL/MOL
REMARK 924 INTRA-LIGAND FREE ENERGY PREDICTED BY IDOCK:   -1.92 KCAL/MOL
REMARK 927      BINDING AFFINITY PREDICTED BY RF-SCORE:    0.00 PKD
ROOT
HETATM    1  C   UNL     1     -11.371   6.357  69.814  1.00  0.00    -0.494 C  
HETATM    2  C   UNL     1     -10.344   5.405  69.220  1.00  0.00    -0.322 C  
ENDROOT
BRANCH   2   3
HETATM    3  C   UNL     1      -9.277   6.160  68.429  1.00  0.00    -0.111 C  
BRANCH   3   4
HETATM    4  C   UNL     1      -9.887   6.998  67.298  1.00  0.00    -0.214 C  
BRANCH   4   5
HETATM    5  C   UNL     1      -8.792   7.727  66.517  1.00  0.00    -0.175 C  
BRANCH   5   6
HETATM    6  C   UNL     1      -9.312   8.869  65.650  1.00  0.00    -0.191 C  
BRANCH   6   7
HETATM    7  O   UNL     1     -10.174   9.793  66.315  1.00  0.00    -0.249 OA 
BRANCH   7   8
HETATM    8  C   UNL     1      -9.579  10.591  67.238  1.00  0.00    -0.163 C  
HETATM    9  O   UNL     1      -8.541  11.220  67.081  1.00  0.00    -0.139 OA 
BRANCH   8  10
HETATM   10  C   UNL     1     -10.542  10.863  68.344  1.00  0.00    -0.225 A  
HETATM   11  C   UNL     1     -10.469   9.951  69.418  1.00  0.00    -0.250 A  
HETATM   12  C   UNL     1     -11.259  10.109  70.557  1.00  0.00    -0.411 A  
HETATM   13  C   UNL     1     -12.170  11.156  70.622  1.00  0.00    -0.492 A  
HETATM   14  C   UNL     1     -12.267  12.061  69.565  1.00  0.00    -0.176 A  
HETATM   15  C   UNL     1     -11.420  11.960  68.444  1.00  0.00    -0.357 A  
BRANCH  15  16
HETATM   16  C   UNL     1     -11.574  12.984  67.382  1.00  0.00    -0.356 C  
HETATM   17  O   UNL     1     -12.388  12.753  66.489  1.00  0.00    -0.476 OA 
BRANCH  16  18
HETATM   18  C   UNL     1     -10.856  14.308  67.402  1.00  0.00    -0.288 A  
HETATM   19  C   UNL     1      -9.677  14.401  66.650  1.00  0.00    -0.289 A  
HETATM   20  C   UNL     1      -8.895  15.571  66.650  1.00  0.00    -0.325 A  
HETATM   21  C   UNL     1      -9.240  16.695  67.410  1.00  0.00    -0.213 A  
HETATM   22  O   UNL     1     -12.366  15.429  68.906  1.00  0.00    -0.604 OA 
HETATM   23  C   UNL     1     -10.449  16.606  68.122  1.00  0.00    -0.321 A  
HETATM   24  H   UNL     1     -12.624  16.196  69.403  1.00  0.00     0.000 HD 
HETATM   25  C   UNL     1     -11.236  15.437  68.135  1.00  0.00    -0.325 A  
BRANCH  21  26
HETATM   26  N   UNL     1      -8.455  17.844  67.471  1.00  0.00    -0.230 NA 
BRANCH  26  27
HETATM   27  C   UNL     1      -7.644  18.085  68.676  1.00  0.00    -0.290 C  
HETATM   28  C   UNL     1      -7.574  19.573  68.989  1.00  0.00    -0.356 C  
ENDBRANCH  26  27
BRANCH  26  29
HETATM   29  C   UNL     1      -8.050  18.572  66.261  1.00  0.00    -0.233 C  
HETATM   30  C   UNL     1      -6.586  18.304  65.949  1.00  0.00    -0.306 C  
ENDBRANCH  26  29
ENDBRANCH  21  26
ENDBRANCH  16  18
ENDBRANCH  15  16
ENDBRANCH   8  10
ENDBRANCH   7   8
ENDBRANCH   6   7
ENDBRANCH   5   6
ENDBRANCH   4   5
ENDBRANCH   3   4
ENDBRANCH   2   3
TORSDOF 12
ENDMDL
MODEL       92
REMARK 921   NORMALIZED FREE ENERGY PREDICTED BY IDOCK:   -5.01 KCAL/MOL
REMARK 922        TOTAL FREE ENERGY PREDICTED BY IDOCK:  -10.49 KCAL/MOL
REMARK 923 INTER-LIGAND FREE ENERGY PREDICTED BY IDOCK:   -7.89 KCAL/MOL
REMARK 924 INTRA-LIGAND FREE ENERGY PREDICTED BY IDOCK:   -2.60 KCAL/MOL
REMARK 927      BINDING AFFINITY PREDICTED BY RF-SCORE:    0.00 PKD
ROOT
HETATM    1  C   UNL     1     -12.304  11.705  70.700  1.00  0.00    -0.437 C  
HETATM    2  C   UNL     1     -13.234  10.934  71.626  1.00  0.00    -0.471 C  
ENDROOT
BRANCH   2   3
HETATM    3  C   UNL     1     -13.018   9.427  71.500  1.00  0.00    -0.449 C  
BRANCH   3   4
HETATM    4  C   UNL     1     -14.339   8.650  71.580  1.00  0.00    -0.451 C  
BRANCH   4   5
HETATM    5  C   UNL     1     -14.077   7.143  71.588  1.00  0.00    -0.477 C  
BRANCH   5   6
HETATM    6  C   UNL     1     -12.621   6.770  71.330  1.00  0.00    -0.297 C  
BRANCH   6   7
HETATM    7  O   UNL     1     -12.002   5.993  72.357  1.00  0.00    -0.302 OA 
BRANCH   7   8
HETATM    8  C   UNL     1     -10.768   6.408  72.742  1.00  0.00    -0.239 C  
HETATM    9  O   UNL     1     -10.462   6.815  73.854  1.00  0.00    -0.347 OA 
BRANCH   8  10
HETATM   10  C   UNL     1      -9.767   5.977  71.724  1.00  0.00    -0.171 A  
HETATM   11  C   UNL     1      -9.677   4.580  71.550  1.00  0.00    -0.243 A  
HETATM   12  C   UNL     1      -8.834   4.022  70.588  1.00  0.00    -0.132 A  
HETATM   13  C   UNL     1      -8.031   4.852  69.815  1.00  0.00    -0.070 A  
HETATM   14  C   UNL     1      -8.096   6.235  69.980  1.00  0.00    -0.120 A  
HETATM   15  C   UNL     1      -8.999   6.815  70.891  1.00  0.00    -0.150 A  
BRANCH  15  16
HETATM   16  C   UNL     1      -9.020   8.295  70.979  1.00  0.00    -0.154 C  
HETATM   17  O   UNL     1      -8.627   8.804  72.027  1.00  0.00    -0.321 OA 
BRANCH  16  18
HETATM   18  C   UNL     1      -9.408   9.185  69.827  1.00  0.00    -0.190 A  
HETATM   19  C   UNL     1     -10.497   8.774  69.047  1.00  0.00    -0.220 A  
HETATM   20  C   UNL     1     -10.903   9.498  67.910  1.00  0.00    -0.240 A  
HETATM   21  C   UNL     1     -10.234  10.652  67.487  1.00  0.00    -0.199 A  
HETATM   22  O   UNL     1      -7.673  10.827  70.138  1.00  0.00    -0.399 OA 
HETATM   23  C   UNL     1      -9.172  11.080  68.304  1.00  0.00    -0.165 A  
HETATM   24  H   UNL     1      -7.229  11.624  69.875  1.00  0.00     0.000 HD 
HETATM   25  C   UNL     1      -8.754  10.359  69.440  1.00  0.00    -0.124 A  
BRANCH  21  26
HETATM   26  N   UNL     1     -10.579  11.354  66.335  1.00  0.00    -0.255 NA 
BRANCH  26  27
HETATM   27  C   UNL     1     -11.647  12.364  66.414  1.00  0.00    -0.384 C  
HETATM   28  C   UNL     1     -11.116  13.741  66.040  1.00  0.00    -0.291 C  
ENDBRANCH  26  27
BRANCH  26  29
HETATM   29  C   UNL     1      -9.664  11.468  65.191  1.00  0.00    -0.237 C  
HETATM   30  C   UNL     1      -9.834  10.277  64.260  1.00  0.00    -0.357 C  
ENDBRANCH  26  29
ENDBRANCH  21  26
ENDBRANCH  16  18
ENDBRANCH  15  16
ENDBRANCH   8  10
ENDBRANCH   7   8
ENDBRANCH   6   7
ENDBRANCH   5   6
ENDBRANCH   4   5
ENDBRANCH   3   4
ENDBRANCH   2   3
TORSDOF 12
ENDMDL
MODEL       93
REMARK 921   NORMALIZED FREE ENERGY PREDICTED BY IDOCK:   -5.00 KCAL/MOL
REMARK 922        TOTAL FREE ENERGY PREDICTED BY IDOCK:  -10.47 KCAL/MOL
REMARK 923 INTER-LIGAND FREE ENERGY PREDICTED BY IDOCK:   -7.93 KCAL/MOL
REMARK 924 INTRA-LIGAND FREE ENERGY PREDICTED BY IDOCK:   -2.53 KCAL/MOL
REMARK 927      BINDING AFFINITY PREDICTED BY RF-SCORE:    0.00 PKD
ROOT
HETATM    1  C   UNL     1     -13.868   7.337  71.496  1.00  0.00    -0.463 C  
HETATM    2  C   UNL     1     -13.898   8.750  72.060  1.00  0.00    -0.504 C  
ENDROOT
BRANCH   2   3
HETATM    3  C   UNL     1     -12.657   9.540  71.648  1.00  0.00    -0.476 C  
BRANCH   3   4
HETATM    4  C   UNL     1     -12.944  11.043  71.540  1.00  0.00    -0.553 C  
BRANCH   4   5
HETATM    5  C   UNL     1     -12.429  11.596  70.210  1.00  0.00    -0.261 C  
BRANCH   5   6
HETATM    6  C   UNL     1     -12.098  13.084  70.249  1.00  0.00    -0.314 C  
BRANCH   6   7
HETATM    7  O   UNL     1     -12.121  13.745  68.982  1.00  0.00    -0.346 OA 
BRANCH   7   8
HETATM    8  C   UNL     1     -11.656  13.019  67.934  1.00  0.00    -0.342 C  
HETATM    9  O   UNL     1     -12.336  12.527  67.044  1.00  0.00    -0.403 OA 
BRANCH   8  10
HETATM   10  C   UNL     1     -10.179  13.195  67.833  1.00  0.00    -0.233 A  
HETATM   11  C   UNL     1      -9.718  14.476  68.204  1.00  0.00    -0.219 A  
HETATM   12  C   UNL     1      -8.356  14.778  68.228  1.00  0.00    -0.148 A  
HETATM   13  C   UNL     1      -7.433  13.816  67.833  1.00  0.00    -0.153 A  
HETATM   14  C   UNL     1      -7.869  12.548  67.451  1.00  0.00    -0.175 A  
HETATM   15  C   UNL     1      -9.234  12.206  67.498  1.00  0.00    -0.182 A  
BRANCH  15  16
HETATM   16  C   UNL     1      -9.603  10.825  67.101  1.00  0.00    -0.161 C  
HETATM   17  O   UNL     1      -9.701  10.591  65.897  1.00  0.00    -0.195 OA 
BRANCH  16  18
HETATM   18  C   UNL     1      -9.768   9.698  68.087  1.00  0.00    -0.164 A  
HETATM   19  C   UNL     1      -9.362   9.945  69.405  1.00  0.00    -0.226 A  
HETATM   20  C   UNL     1      -9.413   8.941  70.391  1.00  0.00    -0.227 A  
HETATM   21  C   UNL     1      -9.854   7.644  70.107  1.00  0.00    -0.184 A  
HETATM   22  O   UNL     1     -10.654   8.086  66.533  1.00  0.00    -0.426 OA 
HETATM   23  C   UNL     1     -10.302   7.422  68.793  1.00  0.00    -0.209 A  
HETATM   24  H   UNL     1     -10.980   7.217  66.336  1.00  0.00     0.000 HD 
HETATM   25  C   UNL     1     -10.248   8.417  67.797  1.00  0.00    -0.224 A  
BRANCH  21  26
HETATM   26  N   UNL     1      -9.862   6.618  71.050  1.00  0.00    -0.182 NA 
BRANCH  26  27
HETATM   27  C   UNL     1      -9.426   6.915  72.424  1.00  0.00    -0.139 C  
HETATM   28  C   UNL     1     -10.622   7.016  73.359  1.00  0.00    -0.399 C  
ENDBRANCH  26  27
BRANCH  26  29
HETATM   29  C   UNL     1     -10.682   5.412  70.877  1.00  0.00    -0.173 C  
HETATM   30  C   UNL     1      -9.795   4.202  70.628  1.00  0.00    -0.249 C  
ENDBRANCH  26  29
ENDBRANCH  21  26
ENDBRANCH  16  18
ENDBRANCH  15  16
ENDBRANCH   8  10
ENDBRANCH   7   8
ENDBRANCH   6   7
ENDBRANCH   5   6
ENDBRANCH   4   5
ENDBRANCH   3   4
ENDBRANCH   2   3
TORSDOF 12
ENDMDL
MODEL       94
REMARK 921   NORMALIZED FREE ENERGY PREDICTED BY IDOCK:   -4.98 KCAL/MOL
REMARK 922        TOTAL FREE ENERGY PREDICTED BY IDOCK:  -10.43 KCAL/MOL
REMARK 923 INTER-LIGAND FREE ENERGY PREDICTED BY IDOCK:   -9.02 KCAL/MOL
REMARK 924 INTRA-LIGAND FREE ENERGY PREDICTED BY IDOCK:   -1.41 KCAL/MOL
REMARK 927      BINDING AFFINITY PREDICTED BY RF-SCORE:    0.00 PKD
ROOT
HETATM    1  C   UNL     1     -11.173   6.232  68.703  1.00  0.00    -0.328 C  
HETATM    2  C   UNL     1     -10.029   5.309  68.310  1.00  0.00    -0.214 C  
ENDROOT
BRANCH   2   3
HETATM    3  C   UNL     1      -9.669   4.355  69.448  1.00  0.00    -0.267 C  
BRANCH   3   4
HETATM    4  C   UNL     1     -10.240   4.824  70.792  1.00  0.00    -0.246 C  
BRANCH   4   5
HETATM    5  C   UNL     1      -9.112   5.099  71.789  1.00  0.00    -0.157 C  
BRANCH   5   6
HETATM    6  C   UNL     1      -8.095   6.124  71.298  1.00  0.00    -0.118 C  
BRANCH   6   7
HETATM    7  O   UNL     1      -8.647   7.368  70.864  1.00  0.00    -0.132 OA 
BRANCH   7   8
HETATM    8  C   UNL     1      -8.999   8.230  71.852  1.00  0.00    -0.187 C  
HETATM    9  O   UNL     1      -8.231   8.805  72.611  1.00  0.00    -0.403 OA 
BRANCH   8  10
HETATM   10  C   UNL     1     -10.420   8.639  71.659  1.00  0.00    -0.366 A  
HETATM   11  C   UNL     1     -11.329   8.026  72.547  1.00  0.00    -0.469 A  
HETATM   12  C   UNL     1     -12.685   8.354  72.537  1.00  0.00    -0.286 A  
HETATM   13  C   UNL     1     -13.164   9.267  71.606  1.00  0.00    -0.456 A  
HETATM   14  C   UNL     1     -12.284   9.875  70.711  1.00  0.00    -0.380 A  
HETATM   15  C   UNL     1     -10.902   9.613  70.762  1.00  0.00    -0.400 A  
BRANCH  15  16
HETATM   16  C   UNL     1     -10.038  10.327  69.790  1.00  0.00    -0.203 C  
HETATM   17  O   UNL     1      -8.821  10.181  69.902  1.00  0.00    -0.174 OA 
BRANCH  16  18
HETATM   18  C   UNL     1     -10.581  11.133  68.639  1.00  0.00    -0.222 A  
HETATM   19  C   UNL     1     -10.521  10.545  67.369  1.00  0.00    -0.291 A  
HETATM   20  C   UNL     1     -10.942  11.236  66.217  1.00  0.00    -0.265 A  
HETATM   21  C   UNL     1     -11.424  12.549  66.275  1.00  0.00    -0.370 A  
HETATM   22  O   UNL     1     -11.181  13.085  69.917  1.00  0.00    -0.491 OA 
HETATM   23  C   UNL     1     -11.523  13.111  67.559  1.00  0.00    -0.371 A  
HETATM   24  H   UNL     1     -11.532  13.965  69.970  1.00  0.00     0.000 HD 
HETATM   25  C   UNL     1     -11.098  12.430  68.718  1.00  0.00    -0.262 A  
BRANCH  21  26
HETATM   26  N   UNL     1     -11.794  13.275  65.145  1.00  0.00    -0.331 NA 
BRANCH  26  27
HETATM   27  C   UNL     1     -12.077  14.712  65.286  1.00  0.00    -0.276 C  
HETATM   28  C   UNL     1     -10.934  15.544  64.721  1.00  0.00    -0.416 C  
ENDBRANCH  26  27
BRANCH  26  29
HETATM   29  C   UNL     1     -11.486  12.805  63.786  1.00  0.00    -0.470 C  
HETATM   30  C   UNL     1     -12.632  11.961  63.249  1.00  0.00    -0.473 C  
ENDBRANCH  26  29
ENDBRANCH  21  26
ENDBRANCH  16  18
ENDBRANCH  15  16
ENDBRANCH   8  10
ENDBRANCH   7   8
ENDBRANCH   6   7
ENDBRANCH   5   6
ENDBRANCH   4   5
ENDBRANCH   3   4
ENDBRANCH   2   3
TORSDOF 12
ENDMDL
MODEL       95
REMARK 921   NORMALIZED FREE ENERGY PREDICTED BY IDOCK:   -4.98 KCAL/MOL
REMARK 922        TOTAL FREE ENERGY PREDICTED BY IDOCK:  -10.43 KCAL/MOL
REMARK 923 INTER-LIGAND FREE ENERGY PREDICTED BY IDOCK:   -8.46 KCAL/MOL
REMARK 924 INTRA-LIGAND FREE ENERGY PREDICTED BY IDOCK:   -1.98 KCAL/MOL
REMARK 927      BINDING AFFINITY PREDICTED BY RF-SCORE:    0.00 PKD
ROOT
HETATM    1  C   UNL     1     -13.106  12.264  71.767  1.00  0.00    -0.449 C  
HETATM    2  C   UNL     1     -14.137  13.143  72.459  1.00  0.00    -0.296 C  
ENDROOT
BRANCH   2   3
HETATM    3  C   UNL     1     -14.096  14.574  71.924  1.00  0.00    -0.595 C  
BRANCH   3   4
HETATM    4  C   UNL     1     -13.135  15.459  72.729  1.00  0.00    -0.568 C  
BRANCH   4   5
HETATM    5  C   UNL     1     -12.060  16.053  71.816  1.00  0.00    -0.570 C  
BRANCH   5   6
HETATM    6  C   UNL     1     -12.250  15.715  70.341  1.00  0.00    -0.395 C  
BRANCH   6   7
HETATM    7  O   UNL     1     -11.186  14.970  69.746  1.00  0.00    -0.252 OA 
BRANCH   7   8
HETATM    8  C   UNL     1     -10.728  15.447  68.561  1.00  0.00    -0.256 C  
HETATM    9  O   UNL     1     -11.285  16.279  67.858  1.00  0.00    -0.309 OA 
BRANCH   8  10
HETATM   10  C   UNL     1      -9.294  15.069  68.404  1.00  0.00    -0.193 A  
HETATM   11  C   UNL     1      -8.409  15.782  69.240  1.00  0.00    -0.249 A  
HETATM   12  C   UNL     1      -7.042  15.498  69.259  1.00  0.00    -0.186 A  
HETATM   13  C   UNL     1      -6.531  14.528  68.405  1.00  0.00    -0.102 A  
HETATM   14  C   UNL     1      -7.387  13.822  67.561  1.00  0.00    -0.176 A  
HETATM   15  C   UNL     1      -8.778  14.042  67.589  1.00  0.00    -0.189 A  
BRANCH  15  16
HETATM   16  C   UNL     1      -9.615  13.224  66.678  1.00  0.00    -0.262 C  
HETATM   17  O   UNL     1     -10.043  13.770  65.662  1.00  0.00    -0.302 OA 
BRANCH  16  18
HETATM   18  C   UNL     1      -9.879  11.757  66.894  1.00  0.00    -0.221 A  
HETATM   19  C   UNL     1     -10.226  11.360  68.192  1.00  0.00    -0.200 A  
HETATM   20  C   UNL     1     -10.431  10.006  68.518  1.00  0.00    -0.229 A  
HETATM   21  C   UNL     1     -10.285   8.985  67.572  1.00  0.00    -0.241 A  
HETATM   22  O   UNL     1      -9.422  11.049  64.638  1.00  0.00    -0.219 OA 
HETATM   23  C   UNL     1      -9.983   9.399  66.263  1.00  0.00    -0.353 A  
HETATM   24  H   UNL     1      -9.347  10.366  63.982  1.00  0.00     0.000 HD 
HETATM   25  C   UNL     1      -9.768  10.752  65.928  1.00  0.00    -0.224 A  
BRANCH  21  26
HETATM   26  N   UNL     1     -10.428   7.634  67.880  1.00  0.00    -0.218 NA 
BRANCH  26  27
HETATM   27  C   UNL     1     -10.305   7.211  69.285  1.00  0.00    -0.203 C  
HETATM   28  C   UNL     1     -11.545   6.446  69.727  1.00  0.00    -0.397 C  
ENDBRANCH  26  27
BRANCH  26  29
HETATM   29  C   UNL     1     -11.122   6.702  66.981  1.00  0.00    -0.325 C  
HETATM   30  C   UNL     1     -10.197   5.558  66.592  1.00  0.00    -0.279 C  
ENDBRANCH  26  29
ENDBRANCH  21  26
ENDBRANCH  16  18
ENDBRANCH  15  16
ENDBRANCH   8  10
ENDBRANCH   7   8
ENDBRANCH   6   7
ENDBRANCH   5   6
ENDBRANCH   4   5
ENDBRANCH   3   4
ENDBRANCH   2   3
TORSDOF 12
ENDMDL
MODEL       96
REMARK 921   NORMALIZED FREE ENERGY PREDICTED BY IDOCK:   -4.95 KCAL/MOL
REMARK 922        TOTAL FREE ENERGY PREDICTED BY IDOCK:  -10.38 KCAL/MOL
REMARK 923 INTER-LIGAND FREE ENERGY PREDICTED BY IDOCK:   -9.02 KCAL/MOL
REMARK 924 INTRA-LIGAND FREE ENERGY PREDICTED BY IDOCK:   -1.36 KCAL/MOL
REMARK 927      BINDING AFFINITY PREDICTED BY RF-SCORE:    0.00 PKD
ROOT
HETATM    1  C   UNL     1     -10.623   7.658  67.043  1.00  0.00    -0.406 C  
HETATM    2  C   UNL     1      -9.558   8.555  66.431  1.00  0.00    -0.314 C  
ENDROOT
BRANCH   2   3
HETATM    3  C   UNL     1     -10.153   9.878  65.951  1.00  0.00    -0.316 C  
BRANCH   3   4
HETATM    4  C   UNL     1      -9.596  10.294  64.583  1.00  0.00    -0.374 C  
BRANCH   4   5
HETATM    5  C   UNL     1     -10.516  11.319  63.916  1.00  0.00    -0.452 C  
BRANCH   5   6
HETATM    6  C   UNL     1     -11.348  12.132  64.903  1.00  0.00    -0.326 C  
BRANCH   6   7
HETATM    7  O   UNL     1     -10.836  13.431  65.204  1.00  0.00    -0.291 OA 
BRANCH   7   8
HETATM    8  C   UNL     1     -10.053  13.511  66.309  1.00  0.00    -0.298 C  
HETATM    9  O   UNL     1      -8.854  13.274  66.359  1.00  0.00    -0.058 OA 
BRANCH   8  10
HETATM   10  C   UNL     1     -10.785  14.257  67.374  1.00  0.00    -0.282 A  
HETATM   11  C   UNL     1     -11.372  13.437  68.361  1.00  0.00    -0.329 A  
HETATM   12  C   UNL     1     -12.035  13.987  69.459  1.00  0.00    -0.390 A  
HETATM   13  C   UNL     1     -12.163  15.367  69.563  1.00  0.00    -0.277 A  
HETATM   14  C   UNL     1     -11.601  16.194  68.592  1.00  0.00    -0.283 A  
HETATM   15  C   UNL     1     -10.861  15.656  67.521  1.00  0.00    -0.316 A  
BRANCH  15  16
HETATM   16  C   UNL     1     -10.274  16.613  66.551  1.00  0.00    -0.310 C  
HETATM   17  O   UNL     1     -10.716  16.595  65.403  1.00  0.00    -0.473 OA 
BRANCH  16  18
HETATM   18  C   UNL     1      -9.246  17.646  66.931  1.00  0.00    -0.270 A  
HETATM   19  C   UNL     1      -7.941  17.188  67.160  1.00  0.00    -0.216 A  
HETATM   20  C   UNL     1      -6.919  18.059  67.581  1.00  0.00    -0.205 A  
HETATM   21  C   UNL     1      -7.151  19.420  67.810  1.00  0.00    -0.245 A  
HETATM   22  O   UNL     1     -10.731  19.542  66.927  1.00  0.00    -0.461 OA 
HETATM   23  C   UNL     1      -8.451  19.876  67.532  1.00  0.00    -0.378 A  
HETATM   24  H   UNL     1     -10.892  20.469  67.053  1.00  0.00     0.000 HD 
HETATM   25  C   UNL     1      -9.484  19.011  67.117  1.00  0.00    -0.307 A  
BRANCH  21  26
HETATM   26  N   UNL     1      -6.171  20.291  68.280  1.00  0.00    -0.274 NA 
BRANCH  26  27
HETATM   27  C   UNL     1      -5.348  19.879  69.429  1.00  0.00    -0.204 C  
HETATM   28  C   UNL     1      -6.116  20.054  70.732  1.00  0.00    -0.327 C  
ENDBRANCH  26  27
BRANCH  26  29
HETATM   29  C   UNL     1      -5.622  21.366  67.442  1.00  0.00    -0.349 C  
HETATM   30  C   UNL     1      -6.069  21.190  65.999  1.00  0.00    -0.290 C  
ENDBRANCH  26  29
ENDBRANCH  21  26
ENDBRANCH  16  18
ENDBRANCH  15  16
ENDBRANCH   8  10
ENDBRANCH   7   8
ENDBRANCH   6   7
ENDBRANCH   5   6
ENDBRANCH   4   5
ENDBRANCH   3   4
ENDBRANCH   2   3
TORSDOF 12
ENDMDL
MODEL       97
REMARK 921   NORMALIZED FREE ENERGY PREDICTED BY IDOCK:   -4.94 KCAL/MOL
REMARK 922        TOTAL FREE ENERGY PREDICTED BY IDOCK:  -10.37 KCAL/MOL
REMARK 923 INTER-LIGAND FREE ENERGY PREDICTED BY IDOCK:   -7.29 KCAL/MOL
REMARK 924 INTRA-LIGAND FREE ENERGY PREDICTED BY IDOCK:   -3.08 KCAL/MOL
REMARK 927      BINDING AFFINITY PREDICTED BY RF-SCORE:    0.00 PKD
ROOT
HETATM    1  C   UNL     1      -8.494   9.043  70.887  1.00  0.00    -0.253 C  
HETATM    2  C   UNL     1      -7.380   9.334  69.892  1.00  0.00    -0.074 C  
ENDROOT
BRANCH   2   3
HETATM    3  C   UNL     1      -7.630  10.644  69.146  1.00  0.00    -0.131 C  
BRANCH   3   4
HETATM    4  C   UNL     1      -6.892  10.688  67.802  1.00  0.00    -0.073 C  
BRANCH   4   5
HETATM    5  C   UNL     1      -6.803  12.125  67.283  1.00  0.00    -0.149 C  
BRANCH   5   6
HETATM    6  C   UNL     1      -7.505  13.144  68.175  1.00  0.00    -0.131 C  
BRANCH   6   7
HETATM    7  O   UNL     1      -8.219  14.169  67.481  1.00  0.00    -0.160 OA 
BRANCH   7   8
HETATM    8  C   UNL     1      -9.462  14.440  67.955  1.00  0.00    -0.214 C  
HETATM    9  O   UNL     1      -9.725  14.933  69.043  1.00  0.00    -0.216 OA 
BRANCH   8  10
HETATM   10  C   UNL     1     -10.440  14.370  66.830  1.00  0.00    -0.269 A  
HETATM   11  C   UNL     1     -10.349  15.436  65.911  1.00  0.00    -0.359 A  
HETATM   12  C   UNL     1     -11.150  15.480  64.769  1.00  0.00    -0.421 A  
HETATM   13  C   UNL     1     -12.091  14.480  64.552  1.00  0.00    -0.501 A  
HETATM   14  C   UNL     1     -12.205  13.424  65.455  1.00  0.00    -0.499 A  
HETATM   15  C   UNL     1     -11.349  13.326  66.569  1.00  0.00    -0.353 A  
BRANCH  15  16
HETATM   16  C   UNL     1     -11.524  12.153  67.460  1.00  0.00    -0.340 C  
HETATM   17  O   UNL     1     -12.308  12.271  68.401  1.00  0.00    -0.173 OA 
BRANCH  16  18
HETATM   18  C   UNL     1     -10.865  10.821  67.211  1.00  0.00    -0.344 A  
HETATM   19  C   UNL     1     -10.185  10.668  65.995  1.00  0.00    -0.309 A  
HETATM   20  C   UNL     1      -9.590   9.445  65.634  1.00  0.00    -0.345 A  
HETATM   21  C   UNL     1      -9.658   8.314  66.457  1.00  0.00    -0.244 A  
HETATM   22  O   UNL     1     -11.562   9.769  69.262  1.00  0.00    -0.455 OA 
HETATM   23  C   UNL     1     -10.303   8.493  67.693  1.00  0.00    -0.317 A  
HETATM   24  H   UNL     1     -11.591   9.016  69.839  1.00  0.00     0.000 HD 
HETATM   25  C   UNL     1     -10.909   9.712  68.061  1.00  0.00    -0.196 A  
BRANCH  21  26
HETATM   26  N   UNL     1      -9.127   7.078  66.098  1.00  0.00    -0.147 NA 
BRANCH  26  27
HETATM   27  C   UNL     1      -8.015   7.037  65.134  1.00  0.00    -0.128 C  
HETATM   28  C   UNL     1      -6.675   7.090  65.854  1.00  0.00    -0.052 C  
ENDBRANCH  26  27
BRANCH  26  29
HETATM   29  C   UNL     1      -9.298   5.886  66.940  1.00  0.00    -0.129 C  
HETATM   30  C   UNL     1     -10.186   4.869  66.239  1.00  0.00    -0.312 C  
ENDBRANCH  26  29
ENDBRANCH  21  26
ENDBRANCH  16  18
ENDBRANCH  15  16
ENDBRANCH   8  10
ENDBRANCH   7   8
ENDBRANCH   6   7
ENDBRANCH   5   6
ENDBRANCH   4   5
ENDBRANCH   3   4
ENDBRANCH   2   3
TORSDOF 12
ENDMDL
MODEL       98
REMARK 921   NORMALIZED FREE ENERGY PREDICTED BY IDOCK:   -4.92 KCAL/MOL
REMARK 922        TOTAL FREE ENERGY PREDICTED BY IDOCK:  -10.34 KCAL/MOL
REMARK 923 INTER-LIGAND FREE ENERGY PREDICTED BY IDOCK:   -7.76 KCAL/MOL
REMARK 924 INTRA-LIGAND FREE ENERGY PREDICTED BY IDOCK:   -2.59 KCAL/MOL
REMARK 927      BINDING AFFINITY PREDICTED BY RF-SCORE:    0.00 PKD
ROOT
HETATM    1  C   UNL     1      -7.367   7.056  69.439  1.00  0.00    -0.091 C  
HETATM    2  C   UNL     1      -7.595   6.544  68.024  1.00  0.00    -0.103 C  
ENDROOT
BRANCH   2   3
HETATM    3  C   UNL     1      -7.158   7.574  66.983  1.00  0.00    -0.084 C  
BRANCH   3   4
HETATM    4  C   UNL     1      -6.397   8.745  67.619  1.00  0.00    -0.057 C  
BRANCH   4   5
HETATM    5  C   UNL     1      -6.903  10.079  67.066  1.00  0.00    -0.087 C  
BRANCH   5   6
HETATM    6  C   UNL     1      -7.183  10.056  65.567  1.00  0.00    -0.133 C  
BRANCH   6   7
HETATM    7  O   UNL     1      -8.224  10.932  65.130  1.00  0.00    -0.089 OA 
BRANCH   7   8
HETATM    8  C   UNL     1      -9.470  10.393  65.100  1.00  0.00    -0.249 C  
HETATM    9  O   UNL     1      -9.744   9.209  65.237  1.00  0.00    -0.157 OA 
BRANCH   8  10
HETATM   10  C   UNL     1     -10.478  11.486  65.218  1.00  0.00    -0.336 A  
HETATM   11  C   UNL     1     -11.230  11.715  64.047  1.00  0.00    -0.448 A  
HETATM   12  C   UNL     1     -12.257  12.659  64.018  1.00  0.00    -0.544 A  
HETATM   13  C   UNL     1     -12.518  13.424  65.148  1.00  0.00    -0.509 A  
HETATM   14  C   UNL     1     -11.778  13.222  66.312  1.00  0.00    -0.412 A  
HETATM   15  C   UNL     1     -10.792  12.219  66.379  1.00  0.00    -0.299 A  
BRANCH  15  16
HETATM   16  C   UNL     1     -10.075  12.056  67.668  1.00  0.00    -0.197 C  
HETATM   17  O   UNL     1      -9.110  12.791  67.873  1.00  0.00    -0.187 OA 
BRANCH  16  18
HETATM   18  C   UNL     1     -10.526  11.111  68.750  1.00  0.00    -0.227 A  
HETATM   19  C   UNL     1     -10.263   9.749  68.553  1.00  0.00    -0.209 A  
HETATM   20  C   UNL     1     -10.698   8.775  69.471  1.00  0.00    -0.196 A  
HETATM   21  C   UNL     1     -11.429   9.109  70.617  1.00  0.00    -0.262 A  
HETATM   22  O   UNL     1     -11.532  12.771  70.177  1.00  0.00    -0.519 OA 
HETATM   23  C   UNL     1     -11.647  10.482  70.828  1.00  0.00    -0.432 A  
HETATM   24  H   UNL     1     -12.004  13.010  70.965  1.00  0.00     0.000 HD 
HETATM   25  C   UNL     1     -11.221  11.464  69.911  1.00  0.00    -0.143 A  
BRANCH  21  26
HETATM   26  N   UNL     1     -11.919   8.160  71.512  1.00  0.00    -0.288 NA 
BRANCH  26  27
HETATM   27  C   UNL     1     -13.138   8.470  72.277  1.00  0.00    -0.334 C  
HETATM   28  C   UNL     1     -14.371   7.926  71.569  1.00  0.00    -0.563 C  
ENDBRANCH  26  27
BRANCH  26  29
HETATM   29  C   UNL     1     -11.564   6.738  71.406  1.00  0.00    -0.305 C  
HETATM   30  C   UNL     1     -11.103   6.208  72.755  1.00  0.00    -0.294 C  
ENDBRANCH  26  29
ENDBRANCH  21  26
ENDBRANCH  16  18
ENDBRANCH  15  16
ENDBRANCH   8  10
ENDBRANCH   7   8
ENDBRANCH   6   7
ENDBRANCH   5   6
ENDBRANCH   4   5
ENDBRANCH   3   4
ENDBRANCH   2   3
TORSDOF 12
ENDMDL
MODEL       99
REMARK 921   NORMALIZED FREE ENERGY PREDICTED BY IDOCK:   -4.91 KCAL/MOL
REMARK 922        TOTAL FREE ENERGY PREDICTED BY IDOCK:  -10.33 KCAL/MOL
REMARK 923 INTER-LIGAND FREE ENERGY PREDICTED BY IDOCK:   -8.58 KCAL/MOL
REMARK 924 INTRA-LIGAND FREE ENERGY PREDICTED BY IDOCK:   -1.75 KCAL/MOL
REMARK 927      BINDING AFFINITY PREDICTED BY RF-SCORE:    0.00 PKD
ROOT
HETATM    1  C   UNL     1     -10.493  19.792  66.780  1.00  0.00    -0.610 C  
HETATM    2  C   UNL     1     -10.313  18.554  67.645  1.00  0.00    -0.442 C  
ENDROOT
BRANCH   2   3
HETATM    3  C   UNL     1      -9.651  17.421  66.862  1.00  0.00    -0.279 C  
BRANCH   3   4
HETATM    4  C   UNL     1     -10.503  16.145  66.868  1.00  0.00    -0.300 C  
BRANCH   4   5
HETATM    5  C   UNL     1     -10.771  15.684  68.301  1.00  0.00    -0.283 C  
BRANCH   5   6
HETATM    6  C   UNL     1     -10.767  14.168  68.470  1.00  0.00    -0.254 C  
BRANCH   6   7
HETATM    7  O   UNL     1     -12.016  13.524  68.216  1.00  0.00    -0.356 OA 
BRANCH   7   8
HETATM    8  C   UNL     1     -11.936  12.241  67.781  1.00  0.00    -0.159 C  
HETATM    9  O   UNL     1     -12.372  11.257  68.363  1.00  0.00    -0.545 OA 
BRANCH   8  10
HETATM   10  C   UNL     1     -11.548  12.236  66.341  1.00  0.00    -0.445 A  
HETATM   11  C   UNL     1     -12.390  13.002  65.508  1.00  0.00    -0.527 A  
HETATM   12  C   UNL     1     -12.121  13.152  64.147  1.00  0.00    -0.496 A  
HETATM   13  C   UNL     1     -11.032  12.496  63.586  1.00  0.00    -0.507 A  
HETATM   14  C   UNL     1     -10.195  11.723  64.390  1.00  0.00    -0.332 A  
HETATM   15  C   UNL     1     -10.409  11.628  65.779  1.00  0.00    -0.292 A  
BRANCH  15  16
HETATM   16  C   UNL     1      -9.451  10.807  66.559  1.00  0.00    -0.169 C  
HETATM   17  O   UNL     1      -8.705  11.399  67.339  1.00  0.00    -0.140 OA 
BRANCH  16  18
HETATM   18  C   UNL     1      -9.417   9.302  66.505  1.00  0.00    -0.259 A  
HETATM   19  C   UNL     1      -8.444   8.719  65.683  1.00  0.00    -0.174 A  
HETATM   20  C   UNL     1      -8.367   7.324  65.510  1.00  0.00    -0.137 A  
HETATM   21  C   UNL     1      -9.263   6.448  66.132  1.00  0.00    -0.106 A  
HETATM   22  O   UNL     1     -11.284   8.922  67.978  1.00  0.00    -0.441 OA 
HETATM   23  C   UNL     1     -10.205   7.042  66.991  1.00  0.00    -0.330 A  
HETATM   24  H   UNL     1     -11.880   8.335  68.426  1.00  0.00     0.000 HD 
HETATM   25  C   UNL     1     -10.296   8.437  67.165  1.00  0.00    -0.311 A  
BRANCH  21  26
HETATM   26  N   UNL     1      -9.244   5.070  65.934  1.00  0.00    -0.152 NA 
BRANCH  26  27
HETATM   27  C   UNL     1      -8.551   4.533  64.751  1.00  0.00    -0.137 C  
HETATM   28  C   UNL     1      -8.608   3.012  64.737  1.00  0.00    -0.101 C  
ENDBRANCH  26  27
BRANCH  26  29
HETATM   29  C   UNL     1      -9.472   4.124  67.036  1.00  0.00    -0.192 C  
HETATM   30  C   UNL     1      -8.494   4.390  68.170  1.00  0.00    -0.100 C  
ENDBRANCH  26  29
ENDBRANCH  21  26
ENDBRANCH  16  18
ENDBRANCH  15  16
ENDBRANCH   8  10
ENDBRANCH   7   8
ENDBRANCH   6   7
ENDBRANCH   5   6
ENDBRANCH   4   5
ENDBRANCH   3   4
ENDBRANCH   2   3
TORSDOF 12
ENDMDL
MODEL      100
REMARK 921   NORMALIZED FREE ENERGY PREDICTED BY IDOCK:   -4.90 KCAL/MOL
REMARK 922        TOTAL FREE ENERGY PREDICTED BY IDOCK:  -10.31 KCAL/MOL
REMARK 923 INTER-LIGAND FREE ENERGY PREDICTED BY IDOCK:   -8.82 KCAL/MOL
REMARK 924 INTRA-LIGAND FREE ENERGY PREDICTED BY IDOCK:   -1.49 KCAL/MOL
REMARK 927      BINDING AFFINITY PREDICTED BY RF-SCORE:    0.00 PKD
ROOT
HETATM    1  C   UNL     1      -7.329   2.129  66.852  1.00  0.00    -0.060 C  
HETATM    2  C   UNL     1      -8.723   2.639  67.189  1.00  0.00    -0.135 C  
ENDROOT
BRANCH   2   3
HETATM    3  C   UNL     1      -8.806   4.159  67.055  1.00  0.00    -0.125 C  
BRANCH   3   4
HETATM    4  C   UNL     1      -9.976   4.592  66.162  1.00  0.00    -0.266 C  
BRANCH   4   5
HETATM    5  C   UNL     1     -10.823   5.656  66.863  1.00  0.00    -0.287 C  
BRANCH   5   6
HETATM    6  C   UNL     1     -10.590   5.733  68.368  1.00  0.00    -0.220 C  
BRANCH   6   7
HETATM    7  O   UNL     1     -11.583   6.453  69.101  1.00  0.00    -0.318 OA 
BRANCH   7   8
HETATM    8  C   UNL     1     -11.248   6.780  70.376  1.00  0.00    -0.328 C  
HETATM    9  O   UNL     1     -10.182   6.537  70.923  1.00  0.00    -0.188 OA 
BRANCH   8  10
HETATM   10  C   UNL     1     -12.230   7.773  70.899  1.00  0.00    -0.166 A  
HETATM   11  C   UNL     1     -13.375   7.203  71.495  1.00  0.00    -0.413 A  
HETATM   12  C   UNL     1     -14.354   7.999  72.091  1.00  0.00    -0.442 A  
HETATM   13  C   UNL     1     -14.229   9.382  72.058  1.00  0.00    -0.169 A  
HETATM   14  C   UNL     1     -13.111   9.966  71.463  1.00  0.00    -0.516 A  
HETATM   15  C   UNL     1     -12.077   9.173  70.928  1.00  0.00    -0.270 A  
BRANCH  15  16
HETATM   16  C   UNL     1     -10.912   9.880  70.342  1.00  0.00    -0.318 C  
HETATM   17  O   UNL     1      -9.817   9.703  70.874  1.00  0.00    -0.245 OA 
BRANCH  16  18
HETATM   18  C   UNL     1     -10.998  10.716  69.091  1.00  0.00    -0.296 A  
HETATM   19  C   UNL     1     -11.188  12.094  69.262  1.00  0.00    -0.288 A  
HETATM   20  C   UNL     1     -11.345  12.957  68.161  1.00  0.00    -0.327 A  
HETATM   21  C   UNL     1     -11.338  12.486  66.842  1.00  0.00    -0.326 A  
HETATM   22  O   UNL     1     -10.779   8.903  67.521  1.00  0.00    -0.400 OA 
HETATM   23  C   UNL     1     -11.100  11.110  66.683  1.00  0.00    -0.255 A  
HETATM   24  H   UNL     1     -10.746   8.578  66.629  1.00  0.00     0.000 HD 
HETATM   25  C   UNL     1     -10.949  10.237  67.779  1.00  0.00    -0.300 A  
BRANCH  21  26
HETATM   26  N   UNL     1     -11.547  13.310  65.739  1.00  0.00    -0.325 NA 
BRANCH  26  27
HETATM   27  C   UNL     1     -10.402  14.037  65.169  1.00  0.00    -0.400 C  
HETATM   28  C   UNL     1     -10.589  15.540  65.317  1.00  0.00    -0.446 C  
ENDBRANCH  26  27
BRANCH  26  29
HETATM   29  C   UNL     1     -12.714  13.148  64.860  1.00  0.00    -0.356 C  
HETATM   30  C   UNL     1     -12.272  12.699  63.475  1.00  0.00    -0.638 C  
ENDBRANCH  26  29
ENDBRANCH  21  26
ENDBRANCH  16  18
ENDBRANCH  15  16
ENDBRANCH   8  10
ENDBRANCH   7   8
ENDBRANCH   6   7
ENDBRANCH   5   6
ENDBRANCH   4   5
ENDBRANCH   3   4
ENDBRANCH   2   3
TORSDOF 12
ENDMDL
MODEL      101
REMARK 921   NORMALIZED FREE ENERGY PREDICTED BY IDOCK:   -4.90 KCAL/MOL
REMARK 922        TOTAL FREE ENERGY PREDICTED BY IDOCK:  -10.30 KCAL/MOL
REMARK 923 INTER-LIGAND FREE ENERGY PREDICTED BY IDOCK:   -9.03 KCAL/MOL
REMARK 924 INTRA-LIGAND FREE ENERGY PREDICTED BY IDOCK:   -1.26 KCAL/MOL
REMARK 927      BINDING AFFINITY PREDICTED BY RF-SCORE:    0.00 PKD
ROOT
HETATM    1  C   UNL     1      -9.445   4.045  66.038  1.00  0.00    -0.186 C  
HETATM    2  C   UNL     1      -9.171   5.357  66.758  1.00  0.00    -0.128 C  
ENDROOT
BRANCH   2   3
HETATM    3  C   UNL     1      -9.848   5.391  68.128  1.00  0.00    -0.188 C  
BRANCH   3   4
HETATM    4  C   UNL     1     -10.848   6.548  68.244  1.00  0.00    -0.359 C  
BRANCH   4   5
HETATM    5  C   UNL     1     -10.749   7.469  67.026  1.00  0.00    -0.367 C  
BRANCH   5   6
HETATM    6  C   UNL     1     -10.482   8.928  67.379  1.00  0.00    -0.277 C  
BRANCH   6   7
HETATM    7  O   UNL     1     -10.149   9.770  66.274  1.00  0.00    -0.244 OA 
BRANCH   7   8
HETATM    8  C   UNL     1      -9.981  11.085  66.568  1.00  0.00    -0.212 C  
HETATM    9  O   UNL     1      -9.074  11.561  67.237  1.00  0.00    -0.160 OA 
BRANCH   8  10
HETATM   10  C   UNL     1     -10.859  11.901  65.681  1.00  0.00    -0.333 A  
HETATM   11  C   UNL     1     -11.037  11.368  64.386  1.00  0.00    -0.329 A  
HETATM   12  C   UNL     1     -11.883  11.979  63.461  1.00  0.00    -0.587 A  
HETATM   13  C   UNL     1     -12.529  13.162  63.797  1.00  0.00    -0.368 A  
HETATM   14  C   UNL     1     -12.357  13.712  65.067  1.00  0.00    -0.462 A  
HETATM   15  C   UNL     1     -11.569  13.064  66.038  1.00  0.00    -0.409 A  
BRANCH  15  16
HETATM   16  C   UNL     1     -11.467  13.707  67.371  1.00  0.00    -0.336 C  
HETATM   17  O   UNL     1     -12.008  13.135  68.316  1.00  0.00    -0.343 OA 
BRANCH  16  18
HETATM   18  C   UNL     1     -10.666  14.957  67.625  1.00  0.00    -0.270 A  
HETATM   19  C   UNL     1     -11.301  15.982  68.338  1.00  0.00    -0.355 A  
HETATM   20  C   UNL     1     -10.666  17.216  68.575  1.00  0.00    -0.326 A  
HETATM   21  C   UNL     1      -9.379  17.493  68.099  1.00  0.00    -0.276 A  
HETATM   22  O   UNL     1      -8.675  14.262  66.462  1.00  0.00    -0.445 OA 
HETATM   23  C   UNL     1      -8.735  16.440  67.425  1.00  0.00    -0.195 A  
HETATM   24  H   UNL     1      -7.791  14.430  66.157  1.00  0.00     0.000 HD 
HETATM   25  C   UNL     1      -9.364  15.204  67.177  1.00  0.00    -0.212 A  
BRANCH  21  26
HETATM   26  N   UNL     1      -8.751  18.724  68.271  1.00  0.00    -0.322 NA 
BRANCH  26  27
HETATM   27  C   UNL     1      -9.553  19.952  68.147  1.00  0.00    -0.354 C  
HETATM   28  C   UNL     1     -10.184  20.047  66.765  1.00  0.00    -0.592 C  
ENDBRANCH  26  27
BRANCH  26  29
HETATM   29  C   UNL     1      -7.478  18.851  68.994  1.00  0.00    -0.268 C  
HETATM   30  C   UNL     1      -7.032  20.305  69.023  1.00  0.00    -0.127 C  
ENDBRANCH  26  29
ENDBRANCH  21  26
ENDBRANCH  16  18
ENDBRANCH  15  16
ENDBRANCH   8  10
ENDBRANCH   7   8
ENDBRANCH   6   7
ENDBRANCH   5   6
ENDBRANCH   4   5
ENDBRANCH   3   4
ENDBRANCH   2   3
TORSDOF 12
ENDMDL
MODEL      102
REMARK 921   NORMALIZED FREE ENERGY PREDICTED BY IDOCK:   -4.89 KCAL/MOL
REMARK 922        TOTAL FREE ENERGY PREDICTED BY IDOCK:  -10.29 KCAL/MOL
REMARK 923 INTER-LIGAND FREE ENERGY PREDICTED BY IDOCK:   -7.92 KCAL/MOL
REMARK 924 INTRA-LIGAND FREE ENERGY PREDICTED BY IDOCK:   -2.37 KCAL/MOL
REMARK 927      BINDING AFFINITY PREDICTED BY RF-SCORE:    0.00 PKD
ROOT
HETATM    1  C   UNL     1     -10.767   7.151  67.085  1.00  0.00    -0.422 C  
HETATM    2  C   UNL     1     -10.335   5.697  66.965  1.00  0.00    -0.306 C  
ENDROOT
BRANCH   2   3
HETATM    3  C   UNL     1      -9.098   5.556  66.080  1.00  0.00    -0.162 C  
BRANCH   3   4
HETATM    4  C   UNL     1      -8.240   6.828  66.087  1.00  0.00    -0.124 C  
BRANCH   4   5
HETATM    5  C   UNL     1      -7.749   7.154  64.675  1.00  0.00    -0.112 C  
BRANCH   5   6
HETATM    6  C   UNL     1      -8.086   8.569  64.219  1.00  0.00    -0.155 C  
BRANCH   6   7
HETATM    7  O   UNL     1      -9.170   9.190  64.914  1.00  0.00    -0.192 OA 
BRANCH   7   8
HETATM    8  C   UNL     1      -8.901  10.407  65.451  1.00  0.00    -0.179 C  
HETATM    9  O   UNL     1      -7.791  10.844  65.722  1.00  0.00    -0.142 OA 
BRANCH   8  10
HETATM   10  C   UNL     1     -10.115  11.266  65.346  1.00  0.00    -0.314 A  
HETATM   11  C   UNL     1     -10.721  11.267  64.072  1.00  0.00    -0.444 A  
HETATM   12  C   UNL     1     -11.903  11.969  63.831  1.00  0.00    -0.543 A  
HETATM   13  C   UNL     1     -12.474  12.722  64.850  1.00  0.00    -0.563 A  
HETATM   14  C   UNL     1     -11.884  12.745  66.113  1.00  0.00    -0.484 A  
HETATM   15  C   UNL     1     -10.735  11.979  66.391  1.00  0.00    -0.294 A  
BRANCH  15  16
HETATM   16  C   UNL     1     -10.194  12.042  67.771  1.00  0.00    -0.202 C  
HETATM   17  O   UNL     1      -9.716  13.114  68.141  1.00  0.00    -0.218 OA 
BRANCH  16  18
HETATM   18  C   UNL     1     -10.287  10.899  68.748  1.00  0.00    -0.215 A  
HETATM   19  C   UNL     1      -9.106  10.193  69.011  1.00  0.00    -0.176 A  
HETATM   20  C   UNL     1      -9.095   9.069  69.858  1.00  0.00    -0.176 A  
HETATM   21  C   UNL     1     -10.259   8.587  70.468  1.00  0.00    -0.194 A  
HETATM   22  O   UNL     1     -12.651  11.078  69.171  1.00  0.00    -0.590 OA 
HETATM   23  C   UNL     1     -11.428   9.332  70.234  1.00  0.00    -0.198 A  
HETATM   24  H   UNL     1     -13.442  10.776  69.602  1.00  0.00     0.000 HD 
HETATM   25  C   UNL     1     -11.451  10.454  69.381  1.00  0.00    -0.227 A  
BRANCH  21  26
HETATM   26  N   UNL     1     -10.285   7.445  71.265  1.00  0.00    -0.189 NA 
BRANCH  26  27
HETATM   27  C   UNL     1     -10.530   7.593  72.709  1.00  0.00    -0.311 C  
HETATM   28  C   UNL     1      -9.227   7.854  73.452  1.00  0.00    -0.351 C  
ENDBRANCH  26  27
BRANCH  26  29
HETATM   29  C   UNL     1     -10.528   6.110  70.700  1.00  0.00    -0.236 C  
HETATM   30  C   UNL     1      -9.524   5.112  71.257  1.00  0.00    -0.203 C  
ENDBRANCH  26  29
ENDBRANCH  21  26
ENDBRANCH  16  18
ENDBRANCH  15  16
ENDBRANCH   8  10
ENDBRANCH   7   8
ENDBRANCH   6   7
ENDBRANCH   5   6
ENDBRANCH   4   5
ENDBRANCH   3   4
ENDBRANCH   2   3
TORSDOF 12
ENDMDL
MODEL      103
REMARK 921   NORMALIZED FREE ENERGY PREDICTED BY IDOCK:   -4.89 KCAL/MOL
REMARK 922        TOTAL FREE ENERGY PREDICTED BY IDOCK:  -10.29 KCAL/MOL
REMARK 923 INTER-LIGAND FREE ENERGY PREDICTED BY IDOCK:   -8.47 KCAL/MOL
REMARK 924 INTRA-LIGAND FREE ENERGY PREDICTED BY IDOCK:   -1.82 KCAL/MOL
REMARK 927      BINDING AFFINITY PREDICTED BY RF-SCORE:    0.00 PKD
ROOT
HETATM    1  C   UNL     1     -12.831  14.490  72.185  1.00  0.00    -0.414 C  
HETATM    2  C   UNL     1     -11.902  14.669  70.993  1.00  0.00    -0.379 C  
ENDROOT
BRANCH   2   3
HETATM    3  C   UNL     1     -12.069  16.050  70.361  1.00  0.00    -0.198 C  
BRANCH   3   4
HETATM    4  C   UNL     1     -10.983  16.338  69.317  1.00  0.00    -0.317 C  
BRANCH   4   5
HETATM    5  C   UNL     1      -9.860  15.303  69.409  1.00  0.00    -0.253 C  
BRANCH   5   6
HETATM    6  C   UNL     1      -9.711  14.445  68.157  1.00  0.00    -0.223 C  
BRANCH   6   7
HETATM    7  O   UNL     1     -10.875  14.364  67.333  1.00  0.00    -0.282 OA 
BRANCH   7   8
HETATM    8  C   UNL     1     -11.540  13.181  67.372  1.00  0.00    -0.356 C  
HETATM    9  O   UNL     1     -12.285  12.805  68.267  1.00  0.00    -0.197 OA 
BRANCH   8  10
HETATM   10  C   UNL     1     -11.506  12.557  66.019  1.00  0.00    -0.423 A  
HETATM   11  C   UNL     1     -12.486  13.042  65.127  1.00  0.00    -0.552 A  
HETATM   12  C   UNL     1     -12.541  12.605  63.803  1.00  0.00    -0.436 A  
HETATM   13  C   UNL     1     -11.647  11.638  63.361  1.00  0.00    -0.340 A  
HETATM   14  C   UNL     1     -10.680  11.135  64.230  1.00  0.00    -0.403 A  
HETATM   15  C   UNL     1     -10.561  11.625  65.545  1.00  0.00    -0.329 A  
BRANCH  15  16
HETATM   16  C   UNL     1      -9.484  11.053  66.389  1.00  0.00    -0.193 C  
HETATM   17  O   UNL     1      -8.333  11.422  66.161  1.00  0.00    -0.155 OA 
BRANCH  16  18
HETATM   18  C   UNL     1      -9.746  10.129  67.550  1.00  0.00    -0.190 A  
HETATM   19  C   UNL     1      -9.490  10.633  68.832  1.00  0.00    -0.199 A  
HETATM   20  C   UNL     1      -9.640   9.833  69.980  1.00  0.00    -0.282 A  
HETATM   21  C   UNL     1     -10.035   8.492  69.905  1.00  0.00    -0.189 A  
HETATM   22  O   UNL     1     -10.441   8.226  66.247  1.00  0.00    -0.361 OA 
HETATM   23  C   UNL     1     -10.334   8.012  68.618  1.00  0.00    -0.224 A  
HETATM   24  H   UNL     1     -10.735   7.325  66.188  1.00  0.00     0.000 HD 
HETATM   25  C   UNL     1     -10.180   8.802  67.461  1.00  0.00    -0.246 A  
BRANCH  21  26
HETATM   26  N   UNL     1     -10.137   7.664  71.020  1.00  0.00    -0.190 NA 
BRANCH  26  27
HETATM   27  C   UNL     1      -9.468   6.354  70.994  1.00  0.00    -0.171 C  
HETATM   28  C   UNL     1     -10.473   5.240  70.738  1.00  0.00    -0.298 C  
ENDBRANCH  26  27
BRANCH  26  29
HETATM   29  C   UNL     1     -10.478   8.191  72.349  1.00  0.00    -0.319 C  
HETATM   30  C   UNL     1      -9.293   8.050  73.292  1.00  0.00    -0.344 C  
ENDBRANCH  26  29
ENDBRANCH  21  26
ENDBRANCH  16  18
ENDBRANCH  15  16
ENDBRANCH   8  10
ENDBRANCH   7   8
ENDBRANCH   6   7
ENDBRANCH   5   6
ENDBRANCH   4   5
ENDBRANCH   3   4
ENDBRANCH   2   3
TORSDOF 12
ENDMDL
MODEL      104
REMARK 921   NORMALIZED FREE ENERGY PREDICTED BY IDOCK:   -4.89 KCAL/MOL
REMARK 922        TOTAL FREE ENERGY PREDICTED BY IDOCK:  -10.29 KCAL/MOL
REMARK 923 INTER-LIGAND FREE ENERGY PREDICTED BY IDOCK:   -7.63 KCAL/MOL
REMARK 924 INTRA-LIGAND FREE ENERGY PREDICTED BY IDOCK:   -2.66 KCAL/MOL
REMARK 927      BINDING AFFINITY PREDICTED BY RF-SCORE:    0.00 PKD
ROOT
HETATM    1  C   UNL     1     -12.439  10.544  71.394  1.00  0.00    -0.516 C  
HETATM    2  C   UNL     1     -12.666   9.200  72.071  1.00  0.00    -0.473 C  
ENDROOT
BRANCH   2   3
HETATM    3  C   UNL     1     -11.350   8.449  72.270  1.00  0.00    -0.448 C  
BRANCH   3   4
HETATM    4  C   UNL     1     -10.230   9.011  71.385  1.00  0.00    -0.399 C  
BRANCH   4   5
HETATM    5  C   UNL     1      -8.864   8.778  72.033  1.00  0.00    -0.191 C  
BRANCH   5   6
HETATM    6  C   UNL     1      -7.687   9.091  71.116  1.00  0.00    -0.110 C  
BRANCH   6   7
HETATM    7  O   UNL     1      -7.974   9.033  69.717  1.00  0.00    -0.088 OA 
BRANCH   7   8
HETATM    8  C   UNL     1      -7.562   7.908  69.080  1.00  0.00    -0.099 C  
HETATM    9  O   UNL     1      -6.441   7.421  69.133  1.00  0.00    -0.037 OA 
BRANCH   8  10
HETATM   10  C   UNL     1      -8.755   7.163  68.584  1.00  0.00    -0.127 A  
HETATM   11  C   UNL     1      -9.153   6.086  69.405  1.00  0.00    -0.135 A  
HETATM   12  C   UNL     1     -10.291   5.334  69.112  1.00  0.00    -0.264 A  
HETATM   13  C   UNL     1     -11.023   5.614  67.965  1.00  0.00    -0.021 A  
HETATM   14  C   UNL     1     -10.639   6.666  67.133  1.00  0.00    -0.401 A  
HETATM   15  C   UNL     1      -9.540   7.484  67.459  1.00  0.00    -0.175 A  
BRANCH  15  16
HETATM   16  C   UNL     1      -9.222   8.597  66.532  1.00  0.00    -0.187 C  
HETATM   17  O   UNL     1      -8.620   8.315  65.497  1.00  0.00    -0.157 OA 
BRANCH  16  18
HETATM   18  C   UNL     1      -9.679  10.015  66.757  1.00  0.00    -0.239 A  
HETATM   19  C   UNL     1     -10.879  10.191  67.458  1.00  0.00    -0.349 A  
HETATM   20  C   UNL     1     -11.428  11.470  67.668  1.00  0.00    -0.357 A  
HETATM   21  C   UNL     1     -10.818  12.629  67.174  1.00  0.00    -0.253 A  
HETATM   22  O   UNL     1      -7.867  11.086  65.586  1.00  0.00    -0.341 OA 
HETATM   23  C   UNL     1      -9.592  12.444  66.513  1.00  0.00    -0.242 A  
HETATM   24  H   UNL     1      -7.431  11.869  65.271  1.00  0.00     0.000 HD 
HETATM   25  C   UNL     1      -9.037  11.167  66.292  1.00  0.00    -0.194 A  
BRANCH  21  26
HETATM   26  N   UNL     1     -11.369  13.900  67.319  1.00  0.00    -0.309 NA 
BRANCH  26  27
HETATM   27  C   UNL     1     -11.726  14.660  66.110  1.00  0.00    -0.313 C  
HETATM   28  C   UNL     1     -12.776  13.917  65.296  1.00  0.00    -0.485 C  
ENDBRANCH  26  27
BRANCH  26  29
HETATM   29  C   UNL     1     -12.015  14.328  68.568  1.00  0.00    -0.317 C  
HETATM   30  C   UNL     1     -11.730  15.798  68.832  1.00  0.00    -0.404 C  
ENDBRANCH  26  29
ENDBRANCH  21  26
ENDBRANCH  16  18
ENDBRANCH  15  16
ENDBRANCH   8  10
ENDBRANCH   7   8
ENDBRANCH   6   7
ENDBRANCH   5   6
ENDBRANCH   4   5
ENDBRANCH   3   4
ENDBRANCH   2   3
TORSDOF 12
ENDMDL
MODEL      105
REMARK 921   NORMALIZED FREE ENERGY PREDICTED BY IDOCK:   -4.88 KCAL/MOL
REMARK 922        TOTAL FREE ENERGY PREDICTED BY IDOCK:  -10.26 KCAL/MOL
REMARK 923 INTER-LIGAND FREE ENERGY PREDICTED BY IDOCK:   -7.51 KCAL/MOL
REMARK 924 INTRA-LIGAND FREE ENERGY PREDICTED BY IDOCK:   -2.75 KCAL/MOL
REMARK 927      BINDING AFFINITY PREDICTED BY RF-SCORE:    0.00 PKD
ROOT
HETATM    1  C   UNL     1      -9.803   9.633  65.472  1.00  0.00    -0.352 C  
HETATM    2  C   UNL     1      -8.672   8.722  65.924  1.00  0.00    -0.198 C  
ENDROOT
BRANCH   2   3
HETATM    3  C   UNL     1      -7.624   9.492  66.727  1.00  0.00    -0.098 C  
BRANCH   3   4
HETATM    4  C   UNL     1      -7.664  10.996  66.426  1.00  0.00    -0.146 C  
BRANCH   4   5
HETATM    5  C   UNL     1      -6.497  11.712  67.109  1.00  0.00    -0.137 C  
BRANCH   5   6
HETATM    6  C   UNL     1      -6.851  13.100  67.634  1.00  0.00    -0.158 C  
BRANCH   6   7
HETATM    7  O   UNL     1      -8.011  13.157  68.467  1.00  0.00    -0.139 OA 
BRANCH   7   8
HETATM    8  C   UNL     1      -8.774  14.272  68.333  1.00  0.00    -0.181 C  
HETATM    9  O   UNL     1      -8.445  15.409  68.642  1.00  0.00    -0.151 OA 
BRANCH   8  10
HETATM   10  C   UNL     1      -9.931  13.968  67.443  1.00  0.00    -0.243 A  
HETATM   11  C   UNL     1      -9.748  14.350  66.097  1.00  0.00    -0.335 A  
HETATM   12  C   UNL     1     -10.713  14.074  65.127  1.00  0.00    -0.393 A  
HETATM   13  C   UNL     1     -11.900  13.452  65.497  1.00  0.00    -0.394 A  
HETATM   14  C   UNL     1     -12.105  13.077  66.824  1.00  0.00    -0.366 A  
HETATM   15  C   UNL     1     -11.107  13.279  67.797  1.00  0.00    -0.289 A  
BRANCH  15  16
HETATM   16  C   UNL     1     -11.402  12.822  69.178  1.00  0.00    -0.281 C  
HETATM   17  O   UNL     1     -11.795  13.668  69.980  1.00  0.00    -0.303 OA 
BRANCH  16  18
HETATM   18  C   UNL     1     -11.330  11.379  69.603  1.00  0.00    -0.347 A  
HETATM   19  C   UNL     1     -10.597  10.512  68.782  1.00  0.00    -0.233 A  
HETATM   20  C   UNL     1     -10.518   9.133  69.052  1.00  0.00    -0.238 A  
HETATM   21  C   UNL     1     -11.179   8.551  70.141  1.00  0.00    -0.136 A  
HETATM   22  O   UNL     1     -12.710  11.590  71.566  1.00  0.00    -0.377 OA 
HETATM   23  C   UNL     1     -11.872   9.437  70.983  1.00  0.00    -0.396 A  
HETATM   24  H   UNL     1     -13.139  11.210  72.322  1.00  0.00     0.000 HD 
HETATM   25  C   UNL     1     -11.963  10.819  70.717  1.00  0.00    -0.362 A  
BRANCH  21  26
HETATM   26  N   UNL     1     -11.163   7.182  70.398  1.00  0.00    -0.279 NA 
BRANCH  26  27
HETATM   27  C   UNL     1     -11.298   6.247  69.270  1.00  0.00    -0.341 C  
HETATM   28  C   UNL     1     -10.212   5.181  69.321  1.00  0.00    -0.276 C  
ENDBRANCH  26  27
BRANCH  26  29
HETATM   29  C   UNL     1     -10.583   6.631  71.631  1.00  0.00    -0.217 C  
HETATM   30  C   UNL     1      -9.251   7.302  71.932  1.00  0.00    -0.147 C  
ENDBRANCH  26  29
ENDBRANCH  21  26
ENDBRANCH  16  18
ENDBRANCH  15  16
ENDBRANCH   8  10
ENDBRANCH   7   8
ENDBRANCH   6   7
ENDBRANCH   5   6
ENDBRANCH   4   5
ENDBRANCH   3   4
ENDBRANCH   2   3
TORSDOF 12
ENDMDL
MODEL      106
REMARK 921   NORMALIZED FREE ENERGY PREDICTED BY IDOCK:   -4.88 KCAL/MOL
REMARK 922        TOTAL FREE ENERGY PREDICTED BY IDOCK:  -10.26 KCAL/MOL
REMARK 923 INTER-LIGAND FREE ENERGY PREDICTED BY IDOCK:   -6.89 KCAL/MOL
REMARK 924 INTRA-LIGAND FREE ENERGY PREDICTED BY IDOCK:   -3.37 KCAL/MOL
REMARK 927      BINDING AFFINITY PREDICTED BY RF-SCORE:    0.00 PKD
ROOT
HETATM    1  C   UNL     1      -8.518   9.738  69.954  1.00  0.00    -0.217 C  
HETATM    2  C   UNL     1      -8.791  10.789  68.888  1.00  0.00    -0.154 C  
ENDROOT
BRANCH   2   3
HETATM    3  C   UNL     1      -7.623  11.766  68.759  1.00  0.00    -0.104 C  
BRANCH   3   4
HETATM    4  C   UNL     1      -7.594  12.446  67.385  1.00  0.00    -0.160 C  
BRANCH   4   5
HETATM    5  C   UNL     1      -7.040  13.868  67.499  1.00  0.00    -0.175 C  
BRANCH   5   6
HETATM    6  C   UNL     1      -8.089  14.954  67.287  1.00  0.00    -0.208 C  
BRANCH   6   7
HETATM    7  O   UNL     1      -9.078  14.661  66.299  1.00  0.00    -0.251 OA 
BRANCH   7   8
HETATM    8  C   UNL     1     -10.334  15.089  66.582  1.00  0.00    -0.278 C  
HETATM    9  O   UNL     1     -11.001  15.858  65.903  1.00  0.00    -0.264 OA 
BRANCH   8  10
HETATM   10  C   UNL     1     -10.915  14.228  67.651  1.00  0.00    -0.286 A  
HETATM   11  C   UNL     1     -10.883  14.798  68.942  1.00  0.00    -0.259 A  
HETATM   12  C   UNL     1     -11.447  14.145  70.038  1.00  0.00    -0.258 A  
HETATM   13  C   UNL     1     -12.012  12.886  69.871  1.00  0.00    -0.377 A  
HETATM   14  C   UNL     1     -12.043  12.299  68.606  1.00  0.00    -0.139 A  
HETATM   15  C   UNL     1     -11.548  12.981  67.478  1.00  0.00    -0.405 A  
BRANCH  15  16
HETATM   16  C   UNL     1     -11.649  12.292  66.168  1.00  0.00    -0.390 C  
HETATM   17  O   UNL     1     -12.572  12.623  65.425  1.00  0.00    -0.641 OA 
BRANCH  16  18
HETATM   18  C   UNL     1     -10.636  11.288  65.683  1.00  0.00    -0.303 A  
HETATM   19  C   UNL     1     -10.644  10.030  66.299  1.00  0.00    -0.115 A  
HETATM   20  C   UNL     1      -9.699   9.041  65.966  1.00  0.00    -0.339 A  
HETATM   21  C   UNL     1      -8.693   9.265  65.019  1.00  0.00    -0.190 A  
HETATM   22  O   UNL     1      -9.573  12.718  64.062  1.00  0.00    -0.618 OA 
HETATM   23  C   UNL     1      -8.724  10.514  64.374  1.00  0.00    -0.187 A  
HETATM   24  H   UNL     1      -8.911  12.870  63.398  1.00  0.00     0.000 HD 
HETATM   25  C   UNL     1      -9.661  11.513  64.705  1.00  0.00    -0.219 A  
BRANCH  21  26
HETATM   26  N   UNL     1      -7.712   8.325  64.712  1.00  0.00    -0.107 NA 
BRANCH  26  27
HETATM   27  C   UNL     1      -6.322   8.593  65.115  1.00  0.00    -0.060 C  
HETATM   28  C   UNL     1      -6.129   8.318  66.600  1.00  0.00    -0.053 C  
ENDBRANCH  26  27
BRANCH  26  29
HETATM   29  C   UNL     1      -8.045   6.922  64.426  1.00  0.00    -0.052 C  
HETATM   30  C   UNL     1      -7.570   6.543  63.031  1.00  0.00    -0.082 C  
ENDBRANCH  26  29
ENDBRANCH  21  26
ENDBRANCH  16  18
ENDBRANCH  15  16
ENDBRANCH   8  10
ENDBRANCH   7   8
ENDBRANCH   6   7
ENDBRANCH   5   6
ENDBRANCH   4   5
ENDBRANCH   3   4
ENDBRANCH   2   3
TORSDOF 12
ENDMDL
MODEL      107
REMARK 921   NORMALIZED FREE ENERGY PREDICTED BY IDOCK:   -4.86 KCAL/MOL
REMARK 922        TOTAL FREE ENERGY PREDICTED BY IDOCK:  -10.23 KCAL/MOL
REMARK 923 INTER-LIGAND FREE ENERGY PREDICTED BY IDOCK:   -7.28 KCAL/MOL
REMARK 924 INTRA-LIGAND FREE ENERGY PREDICTED BY IDOCK:   -2.95 KCAL/MOL
REMARK 927      BINDING AFFINITY PREDICTED BY RF-SCORE:    0.00 PKD
ROOT
HETATM    1  C   UNL     1      -7.352  12.012  67.917  1.00  0.00    -0.104 C  
HETATM    2  C   UNL     1      -7.017  11.124  66.727  1.00  0.00    -0.137 C  
ENDROOT
BRANCH   2   3
HETATM    3  C   UNL     1      -6.601   9.724  67.178  1.00  0.00    -0.070 C  
BRANCH   3   4
HETATM    4  C   UNL     1      -5.512   9.769  68.257  1.00  0.00    -0.039 C  
BRANCH   4   5
HETATM    5  C   UNL     1      -5.503   8.471  69.067  1.00  0.00    -0.036 C  
BRANCH   5   6
HETATM    6  C   UNL     1      -6.870   7.803  69.174  1.00  0.00    -0.049 C  
BRANCH   6   7
HETATM    7  O   UNL     1      -7.412   7.735  70.494  1.00  0.00    -0.071 OA 
BRANCH   7   8
HETATM    8  C   UNL     1      -8.250   8.747  70.836  1.00  0.00    -0.161 C  
HETATM    9  O   UNL     1      -8.042   9.940  70.667  1.00  0.00    -0.240 OA 
BRANCH   8  10
HETATM   10  C   UNL     1      -9.599   8.185  71.132  1.00  0.00    -0.196 A  
HETATM   11  C   UNL     1      -9.891   8.061  72.507  1.00  0.00    -0.330 A  
HETATM   12  C   UNL     1     -11.137   7.613  72.947  1.00  0.00    -0.448 A  
HETATM   13  C   UNL     1     -12.098   7.236  72.017  1.00  0.00    -0.327 A  
HETATM   14  C   UNL     1     -11.826   7.339  70.653  1.00  0.00    -0.290 A  
HETATM   15  C   UNL     1     -10.601   7.864  70.196  1.00  0.00    -0.237 A  
BRANCH  15  16
HETATM   16  C   UNL     1     -10.411   7.963  68.728  1.00  0.00    -0.203 C  
HETATM   17  O   UNL     1     -10.160   6.924  68.120  1.00  0.00    -0.153 OA 
BRANCH  16  18
HETATM   18  C   UNL     1     -10.599   9.243  67.956  1.00  0.00    -0.262 A  
HETATM   19  C   UNL     1     -11.141  10.330  68.654  1.00  0.00    -0.290 A  
HETATM   20  C   UNL     1     -11.417  11.553  68.012  1.00  0.00    -0.381 A  
HETATM   21  C   UNL     1     -11.183  11.743  66.645  1.00  0.00    -0.323 A  
HETATM   22  O   UNL     1      -9.804   8.417  65.838  1.00  0.00    -0.471 OA 
HETATM   23  C   UNL     1     -10.596  10.660  65.966  1.00  0.00    -0.195 A  
HETATM   24  H   UNL     1      -9.616   8.545  64.916  1.00  0.00     0.000 HD 
HETATM   25  C   UNL     1     -10.322   9.430  66.598  1.00  0.00    -0.214 A  
BRANCH  21  26
HETATM   26  N   UNL     1     -11.499  12.922  65.975  1.00  0.00    -0.324 NA 
BRANCH  26  27
HETATM   27  C   UNL     1     -12.586  12.904  64.983  1.00  0.00    -0.472 C  
HETATM   28  C   UNL     1     -12.029  13.012  63.570  1.00  0.00    -0.615 C  
ENDBRANCH  26  27
BRANCH  26  29
HETATM   29  C   UNL     1     -11.132  14.241  66.510  1.00  0.00    -0.323 C  
HETATM   30  C   UNL     1      -9.631  14.458  66.390  1.00  0.00    -0.320 C  
ENDBRANCH  26  29
ENDBRANCH  21  26
ENDBRANCH  16  18
ENDBRANCH  15  16
ENDBRANCH   8  10
ENDBRANCH   7   8
ENDBRANCH   6   7
ENDBRANCH   5   6
ENDBRANCH   4   5
ENDBRANCH   3   4
ENDBRANCH   2   3
TORSDOF 12
ENDMDL
MODEL      108
REMARK 921   NORMALIZED FREE ENERGY PREDICTED BY IDOCK:   -4.84 KCAL/MOL
REMARK 922        TOTAL FREE ENERGY PREDICTED BY IDOCK:  -10.20 KCAL/MOL
REMARK 923 INTER-LIGAND FREE ENERGY PREDICTED BY IDOCK:   -9.01 KCAL/MOL
REMARK 924 INTRA-LIGAND FREE ENERGY PREDICTED BY IDOCK:   -1.19 KCAL/MOL
REMARK 927      BINDING AFFINITY PREDICTED BY RF-SCORE:    0.00 PKD
ROOT
HETATM    1  C   UNL     1     -10.018  19.628  68.172  1.00  0.00    -0.547 C  
HETATM    2  C   UNL     1     -10.905  19.397  66.958  1.00  0.00    -0.540 C  
ENDROOT
BRANCH   2   3
HETATM    3  C   UNL     1     -10.402  18.226  66.115  1.00  0.00    -0.414 C  
BRANCH   3   4
HETATM    4  C   UNL     1     -10.210  16.956  66.954  1.00  0.00    -0.296 C  
BRANCH   4   5
HETATM    5  C   UNL     1     -10.396  15.707  66.090  1.00  0.00    -0.329 C  
BRANCH   5   6
HETATM    6  C   UNL     1     -11.370  14.692  66.678  1.00  0.00    -0.356 C  
BRANCH   6   7
HETATM    7  O   UNL     1     -11.525  14.750  68.098  1.00  0.00    -0.295 OA 
BRANCH   7   8
HETATM    8  C   UNL     1     -10.808  13.838  68.803  1.00  0.00    -0.259 C  
HETATM    9  O   UNL     1      -9.600  13.661  68.729  1.00  0.00    -0.143 OA 
BRANCH   8  10
HETATM   10  C   UNL     1     -11.644  13.320  69.923  1.00  0.00    -0.260 A  
HETATM   11  C   UNL     1     -12.086  14.309  70.827  1.00  0.00    -0.418 A  
HETATM   12  C   UNL     1     -12.931  13.993  71.892  1.00  0.00    -0.444 A  
HETATM   13  C   UNL     1     -13.311  12.672  72.098  1.00  0.00    -0.570 A  
HETATM   14  C   UNL     1     -12.875  11.678  71.223  1.00  0.00    -0.430 A  
HETATM   15  C   UNL     1     -12.087  11.994  70.100  1.00  0.00    -0.377 A  
BRANCH  15  16
HETATM   16  C   UNL     1     -11.694  10.876  69.209  1.00  0.00    -0.324 C  
HETATM   17  O   UNL     1     -11.989  10.973  68.018  1.00  0.00    -0.623 OA 
BRANCH  16  18
HETATM   18  C   UNL     1     -10.885   9.693  69.674  1.00  0.00    -0.266 A  
HETATM   19  C   UNL     1     -10.446   9.710  71.005  1.00  0.00    -0.327 A  
HETATM   20  C   UNL     1      -9.630   8.687  71.524  1.00  0.00    -0.327 A  
HETATM   21  C   UNL     1      -9.200   7.611  70.738  1.00  0.00    -0.157 A  
HETATM   22  O   UNL     1     -10.869   8.514  67.574  1.00  0.00    -0.484 OA 
HETATM   23  C   UNL     1      -9.684   7.581  69.419  1.00  0.00    -0.164 A  
HETATM   24  H   UNL     1     -10.605   7.774  67.041  1.00  0.00     0.000 HD 
HETATM   25  C   UNL     1     -10.496   8.604  68.888  1.00  0.00    -0.192 A  
BRANCH  21  26
HETATM   26  N   UNL     1      -8.347   6.616  71.211  1.00  0.00    -0.123 NA 
BRANCH  26  27
HETATM   27  C   UNL     1      -6.906   6.902  71.304  1.00  0.00    -0.061 C  
HETATM   28  C   UNL     1      -6.241   6.766  69.941  1.00  0.00    -0.034 C  
ENDBRANCH  26  27
BRANCH  26  29
HETATM   29  C   UNL     1      -8.839   5.495  72.024  1.00  0.00    -0.135 C  
HETATM   30  C   UNL     1      -8.469   4.171  71.374  1.00  0.00    -0.111 C  
ENDBRANCH  26  29
ENDBRANCH  21  26
ENDBRANCH  16  18
ENDBRANCH  15  16
ENDBRANCH   8  10
ENDBRANCH   7   8
ENDBRANCH   6   7
ENDBRANCH   5   6
ENDBRANCH   4   5
ENDBRANCH   3   4
ENDBRANCH   2   3
TORSDOF 12
ENDMDL
MODEL      109
REMARK 921   NORMALIZED FREE ENERGY PREDICTED BY IDOCK:   -4.81 KCAL/MOL
REMARK 922        TOTAL FREE ENERGY PREDICTED BY IDOCK:  -10.15 KCAL/MOL
REMARK 923 INTER-LIGAND FREE ENERGY PREDICTED BY IDOCK:   -7.72 KCAL/MOL
REMARK 924 INTRA-LIGAND FREE ENERGY PREDICTED BY IDOCK:   -2.44 KCAL/MOL
REMARK 927      BINDING AFFINITY PREDICTED BY RF-SCORE:    0.00 PKD
ROOT
HETATM    1  C   UNL     1      -9.932  17.031  65.907  1.00  0.00    -0.239 C  
HETATM    2  C   UNL     1     -10.243  15.825  66.781  1.00  0.00    -0.284 C  
ENDROOT
BRANCH   2   3
HETATM    3  C   UNL     1      -9.077  15.500  67.715  1.00  0.00    -0.178 C  
BRANCH   3   4
HETATM    4  C   UNL     1      -9.476  15.618  69.191  1.00  0.00    -0.256 C  
BRANCH   4   5
HETATM    5  C   UNL     1     -10.996  15.723  69.332  1.00  0.00    -0.296 C  
BRANCH   5   6
HETATM    6  C   UNL     1     -11.660  14.433  69.802  1.00  0.00    -0.298 C  
BRANCH   6   7
HETATM    7  O   UNL     1     -12.396  13.728  68.800  1.00  0.00    -0.284 OA 
BRANCH   7   8
HETATM    8  C   UNL     1     -11.983  12.458  68.556  1.00  0.00    -0.223 C  
HETATM    9  O   UNL     1     -12.319  11.460  69.180  1.00  0.00    -0.356 OA 
BRANCH   8  10
HETATM   10  C   UNL     1     -11.337  12.404  67.213  1.00  0.00    -0.384 A  
HETATM   11  C   UNL     1     -12.139  12.893  66.159  1.00  0.00    -0.458 A  
HETATM   12  C   UNL     1     -11.653  12.971  64.854  1.00  0.00    -0.362 A  
HETATM   13  C   UNL     1     -10.371  12.516  64.570  1.00  0.00    -0.362 A  
HETATM   14  C   UNL     1      -9.567  12.017  65.595  1.00  0.00    -0.205 A  
HETATM   15  C   UNL     1     -10.016  12.007  66.929  1.00  0.00    -0.218 A  
BRANCH  15  16
HETATM   16  C   UNL     1      -9.081  11.486  67.957  1.00  0.00    -0.174 C  
HETATM   17  O   UNL     1      -8.132  12.202  68.271  1.00  0.00    -0.153 OA 
BRANCH  16  18
HETATM   18  C   UNL     1      -9.294  10.182  68.682  1.00  0.00    -0.161 A  
HETATM   19  C   UNL     1     -10.298   9.339  68.189  1.00  0.00    -0.261 A  
HETATM   20  C   UNL     1     -10.623   8.128  68.829  1.00  0.00    -0.149 A  
HETATM   21  C   UNL     1      -9.975   7.710  69.998  1.00  0.00    -0.190 A  
HETATM   22  O   UNL     1      -7.624  10.527  70.383  1.00  0.00    -0.446 OA 
HETATM   23  C   UNL     1      -8.939   8.541  70.456  1.00  0.00    -0.171 A  
HETATM   24  H   UNL     1      -7.161  10.239  71.160  1.00  0.00     0.000 HD 
HETATM   25  C   UNL     1      -8.611   9.759  69.826  1.00  0.00    -0.201 A  
BRANCH  21  26
HETATM   26  N   UNL     1     -10.315   6.545  70.681  1.00  0.00    -0.198 NA 
BRANCH  26  27
HETATM   27  C   UNL     1     -11.057   6.657  71.948  1.00  0.00    -0.253 C  
HETATM   28  C   UNL     1     -12.529   6.943  71.687  1.00  0.00    -0.418 C  
ENDBRANCH  26  27
BRANCH  26  29
HETATM   29  C   UNL     1     -10.376   5.240  70.008  1.00  0.00    -0.295 C  
HETATM   30  C   UNL     1      -9.832   4.151  70.921  1.00  0.00    -0.247 C  
ENDBRANCH  26  29
ENDBRANCH  21  26
ENDBRANCH  16  18
ENDBRANCH  15  16
ENDBRANCH   8  10
ENDBRANCH   7   8
ENDBRANCH   6   7
ENDBRANCH   5   6
ENDBRANCH   4   5
ENDBRANCH   3   4
ENDBRANCH   2   3
TORSDOF 12
ENDMDL
MODEL      110
REMARK 921   NORMALIZED FREE ENERGY PREDICTED BY IDOCK:   -4.81 KCAL/MOL
REMARK 922        TOTAL FREE ENERGY PREDICTED BY IDOCK:  -10.15 KCAL/MOL
REMARK 923 INTER-LIGAND FREE ENERGY PREDICTED BY IDOCK:   -6.94 KCAL/MOL
REMARK 924 INTRA-LIGAND FREE ENERGY PREDICTED BY IDOCK:   -3.21 KCAL/MOL
REMARK 927      BINDING AFFINITY PREDICTED BY RF-SCORE:    0.00 PKD
ROOT
HETATM    1  C   UNL     1      -7.109   6.587  70.600  1.00  0.00    -0.069 C  
HETATM    2  C   UNL     1      -7.897   5.325  70.280  1.00  0.00    -0.083 C  
ENDROOT
BRANCH   2   3
HETATM    3  C   UNL     1      -8.851   4.963  71.418  1.00  0.00    -0.153 C  
BRANCH   3   4
HETATM    4  C   UNL     1      -8.623   5.838  72.657  1.00  0.00    -0.120 C  
BRANCH   4   5
HETATM    5  C   UNL     1      -9.958   6.197  73.314  1.00  0.00    -0.188 C  
BRANCH   5   6
HETATM    6  C   UNL     1     -10.173   7.697  73.489  1.00  0.00    -0.272 C  
BRANCH   6   7
HETATM    7  O   UNL     1      -9.868   8.492  72.342  1.00  0.00    -0.292 OA 
BRANCH   7   8
HETATM    8  C   UNL     1     -10.905   8.726  71.498  1.00  0.00    -0.304 C  
HETATM    9  O   UNL     1     -11.810   9.530  71.678  1.00  0.00    -0.366 OA 
BRANCH   8  10
HETATM   10  C   UNL     1     -10.603   8.116  70.171  1.00  0.00    -0.237 A  
HETATM   11  C   UNL     1     -11.287   6.908  69.915  1.00  0.00    -0.321 A  
HETATM   12  C   UNL     1     -11.162   6.250  68.692  1.00  0.00    -0.328 A  
HETATM   13  C   UNL     1     -10.312   6.763  67.719  1.00  0.00    -0.245 A  
HETATM   14  C   UNL     1      -9.618   7.949  67.957  1.00  0.00    -0.168 A  
HETATM   15  C   UNL     1      -9.796   8.665  69.156  1.00  0.00    -0.185 A  
BRANCH  15  16
HETATM   16  C   UNL     1      -9.038   9.931  69.310  1.00  0.00    -0.189 C  
HETATM   17  O   UNL     1      -8.012   9.896  69.988  1.00  0.00    -0.167 OA 
BRANCH  16  18
HETATM   18  C   UNL     1      -9.416  11.210  68.610  1.00  0.00    -0.196 A  
HETATM   19  C   UNL     1     -10.781  11.520  68.549  1.00  0.00    -0.242 A  
HETATM   20  C   UNL     1     -11.248  12.657  67.863  1.00  0.00    -0.310 A  
HETATM   21  C   UNL     1     -10.380  13.527  67.193  1.00  0.00    -0.250 A  
HETATM   22  O   UNL     1      -7.184  11.859  67.978  1.00  0.00    -0.079 OA 
HETATM   23  C   UNL     1      -9.010  13.232  67.300  1.00  0.00    -0.217 A  
HETATM   24  H   UNL     1      -6.585  12.458  67.549  1.00  0.00     0.000 HD 
HETATM   25  C   UNL     1      -8.533  12.092  67.978  1.00  0.00    -0.168 A  
BRANCH  21  26
HETATM   26  N   UNL     1     -10.821  14.627  66.460  1.00  0.00    -0.309 NA 
BRANCH  26  27
HETATM   27  C   UNL     1     -10.868  15.944  67.117  1.00  0.00    -0.267 C  
HETATM   28  C   UNL     1      -9.901  16.913  66.452  1.00  0.00    -0.319 C  
ENDBRANCH  26  27
BRANCH  26  29
HETATM   29  C   UNL     1     -10.808  14.636  64.991  1.00  0.00    -0.417 C  
HETATM   30  C   UNL     1     -11.925  13.758  64.448  1.00  0.00    -0.480 C  
ENDBRANCH  26  29
ENDBRANCH  21  26
ENDBRANCH  16  18
ENDBRANCH  15  16
ENDBRANCH   8  10
ENDBRANCH   7   8
ENDBRANCH   6   7
ENDBRANCH   5   6
ENDBRANCH   4   5
ENDBRANCH   3   4
ENDBRANCH   2   3
TORSDOF 12
ENDMDL
MODEL      111
REMARK 921   NORMALIZED FREE ENERGY PREDICTED BY IDOCK:   -4.80 KCAL/MOL
REMARK 922        TOTAL FREE ENERGY PREDICTED BY IDOCK:  -10.13 KCAL/MOL
REMARK 923 INTER-LIGAND FREE ENERGY PREDICTED BY IDOCK:   -7.14 KCAL/MOL
REMARK 924 INTRA-LIGAND FREE ENERGY PREDICTED BY IDOCK:   -2.99 KCAL/MOL
REMARK 927      BINDING AFFINITY PREDICTED BY RF-SCORE:    0.00 PKD
ROOT
HETATM    1  C   UNL     1     -12.711  12.800  64.760  1.00  0.00    -0.469 C  
HETATM    2  C   UNL     1     -12.255  12.114  63.481  1.00  0.00    -0.670 C  
ENDROOT
BRANCH   2   3
HETATM    3  C   UNL     1     -10.734  12.150  63.343  1.00  0.00    -0.461 C  
BRANCH   3   4
HETATM    4  C   UNL     1     -10.031  11.749  64.646  1.00  0.00    -0.275 C  
BRANCH   4   5
HETATM    5  C   UNL     1     -10.157  10.243  64.885  1.00  0.00    -0.346 C  
BRANCH   5   6
HETATM    6  C   UNL     1      -8.877   9.466  64.600  1.00  0.00    -0.200 C  
BRANCH   6   7
HETATM    7  O   UNL     1      -8.102   9.126  65.752  1.00  0.00    -0.107 OA 
BRANCH   7   8
HETATM    8  C   UNL     1      -8.448   7.968  66.370  1.00  0.00    -0.136 C  
HETATM    9  O   UNL     1      -8.860   6.956  65.821  1.00  0.00    -0.145 OA 
BRANCH   8  10
HETATM   10  C   UNL     1      -7.932   7.988  67.769  1.00  0.00    -0.127 A  
HETATM   11  C   UNL     1      -6.674   7.369  67.936  1.00  0.00    -0.062 A  
HETATM   12  C   UNL     1      -6.028   7.364  69.172  1.00  0.00    -0.030 A  
HETATM   13  C   UNL     1      -6.650   7.936  70.275  1.00  0.00    -0.037 A  
HETATM   14  C   UNL     1      -7.898   8.541  70.134  1.00  0.00    -0.099 A  
HETATM   15  C   UNL     1      -8.526   8.624  68.876  1.00  0.00    -0.129 A  
BRANCH  15  16
HETATM   16  C   UNL     1      -9.839   9.311  68.816  1.00  0.00    -0.165 C  
HETATM   17  O   UNL     1     -10.830   8.667  69.157  1.00  0.00    -0.165 OA 
BRANCH  16  18
HETATM   18  C   UNL     1      -9.994  10.765  68.451  1.00  0.00    -0.174 A  
HETATM   19  C   UNL     1      -8.817  11.511  68.305  1.00  0.00    -0.166 A  
HETATM   20  C   UNL     1      -8.850  12.891  68.029  1.00  0.00    -0.195 A  
HETATM   21  C   UNL     1     -10.054  13.594  67.902  1.00  0.00    -0.244 A  
HETATM   22  O   UNL     1     -12.402  10.797  68.426  1.00  0.00    -0.813 OA 
HETATM   23  C   UNL     1     -11.227  12.826  68.005  1.00  0.00    -0.310 A  
HETATM   24  H   UNL     1     -13.224  11.259  68.316  1.00  0.00     0.000 HD 
HETATM   25  C   UNL     1     -11.205  11.445  68.289  1.00  0.00    -0.263 A  
BRANCH  21  26
HETATM   26  N   UNL     1     -10.114  14.968  67.685  1.00  0.00    -0.230 NA 
BRANCH  26  27
HETATM   27  C   UNL     1      -8.986  15.806  68.123  1.00  0.00    -0.180 C  
HETATM   28  C   UNL     1      -9.460  17.209  68.474  1.00  0.00    -0.282 C  
ENDBRANCH  26  27
BRANCH  26  29
HETATM   29  C   UNL     1     -11.000  15.555  66.670  1.00  0.00    -0.248 C  
HETATM   30  C   UNL     1     -10.344  15.493  65.299  1.00  0.00    -0.416 C  
ENDBRANCH  26  29
ENDBRANCH  21  26
ENDBRANCH  16  18
ENDBRANCH  15  16
ENDBRANCH   8  10
ENDBRANCH   7   8
ENDBRANCH   6   7
ENDBRANCH   5   6
ENDBRANCH   4   5
ENDBRANCH   3   4
ENDBRANCH   2   3
TORSDOF 12
ENDMDL
MODEL      112
REMARK 921   NORMALIZED FREE ENERGY PREDICTED BY IDOCK:   -4.80 KCAL/MOL
REMARK 922        TOTAL FREE ENERGY PREDICTED BY IDOCK:  -10.13 KCAL/MOL
REMARK 923 INTER-LIGAND FREE ENERGY PREDICTED BY IDOCK:   -8.57 KCAL/MOL
REMARK 924 INTRA-LIGAND FREE ENERGY PREDICTED BY IDOCK:   -1.56 KCAL/MOL
REMARK 927      BINDING AFFINITY PREDICTED BY RF-SCORE:    0.00 PKD
ROOT
HETATM    1  C   UNL     1     -10.474  19.500  65.855  1.00  0.00    -0.585 C  
HETATM    2  C   UNL     1     -10.036  20.140  67.164  1.00  0.00    -0.595 C  
ENDROOT
BRANCH   2   3
HETATM    3  C   UNL     1     -10.091  19.140  68.318  1.00  0.00    -0.499 C  
BRANCH   3   4
HETATM    4  C   UNL     1      -9.984  17.691  67.827  1.00  0.00    -0.315 C  
BRANCH   4   5
HETATM    5  C   UNL     1     -10.863  16.769  68.674  1.00  0.00    -0.336 C  
BRANCH   5   6
HETATM    6  C   UNL     1     -10.133  15.541  69.206  1.00  0.00    -0.256 C  
BRANCH   6   7
HETATM    7  O   UNL     1     -10.214  14.379  68.378  1.00  0.00    -0.229 OA 
BRANCH   7   8
HETATM    8  C   UNL     1     -11.454  13.844  68.240  1.00  0.00    -0.311 C  
HETATM    9  O   UNL     1     -12.361  13.910  69.058  1.00  0.00    -0.308 OA 
BRANCH   8  10
HETATM   10  C   UNL     1     -11.665  13.462  66.814  1.00  0.00    -0.429 A  
HETATM   11  C   UNL     1     -12.046  14.530  65.974  1.00  0.00    -0.298 A  
HETATM   12  C   UNL     1     -12.217  14.347  64.601  1.00  0.00    -0.479 A  
HETATM   13  C   UNL     1     -12.056  13.081  64.052  1.00  0.00    -0.519 A  
HETATM   14  C   UNL     1     -11.692  12.010  64.866  1.00  0.00    -0.321 A  
HETATM   15  C   UNL     1     -11.439  12.196  66.239  1.00  0.00    -0.433 A  
BRANCH  15  16
HETATM   16  C   UNL     1     -11.028  11.005  67.022  1.00  0.00    -0.272 C  
HETATM   17  O   UNL     1     -11.682  10.738  68.030  1.00  0.00    -0.528 OA 
BRANCH  16  18
HETATM   18  C   UNL     1      -9.923  10.075  66.592  1.00  0.00    -0.274 A  
HETATM   19  C   UNL     1      -8.781  10.663  66.034  1.00  0.00    -0.186 A  
HETATM   20  C   UNL     1      -7.718   9.883  65.542  1.00  0.00    -0.124 A  
HETATM   21  C   UNL     1      -7.750   8.484  65.566  1.00  0.00    -0.093 A  
HETATM   22  O   UNL     1     -11.036   8.021  67.179  1.00  0.00    -0.486 OA 
HETATM   23  C   UNL     1      -8.880   7.907  66.170  1.00  0.00    -0.197 A  
HETATM   24  H   UNL     1     -11.056   7.072  67.225  1.00  0.00     0.000 HD 
HETATM   25  C   UNL     1      -9.953   8.678  66.660  1.00  0.00    -0.287 A  
BRANCH  21  26
HETATM   26  N   UNL     1      -6.737   7.689  65.035  1.00  0.00    -0.047 NA 
BRANCH  26  27
HETATM   27  C   UNL     1      -6.931   7.087  63.706  1.00  0.00    -0.057 C  
HETATM   28  C   UNL     1      -7.234   5.600  63.827  1.00  0.00    -0.054 C  
ENDBRANCH  26  27
BRANCH  26  29
HETATM   29  C   UNL     1      -5.348   7.784  65.506  1.00  0.00    -0.029 C  
HETATM   30  C   UNL     1      -5.254   7.343  66.959  1.00  0.00    -0.022 C  
ENDBRANCH  26  29
ENDBRANCH  21  26
ENDBRANCH  16  18
ENDBRANCH  15  16
ENDBRANCH   8  10
ENDBRANCH   7   8
ENDBRANCH   6   7
ENDBRANCH   5   6
ENDBRANCH   4   5
ENDBRANCH   3   4
ENDBRANCH   2   3
TORSDOF 12
ENDMDL
MODEL      113
REMARK 921   NORMALIZED FREE ENERGY PREDICTED BY IDOCK:   -4.79 KCAL/MOL
REMARK 922        TOTAL FREE ENERGY PREDICTED BY IDOCK:  -10.12 KCAL/MOL
REMARK 923 INTER-LIGAND FREE ENERGY PREDICTED BY IDOCK:   -8.33 KCAL/MOL
REMARK 924 INTRA-LIGAND FREE ENERGY PREDICTED BY IDOCK:   -1.79 KCAL/MOL
REMARK 927      BINDING AFFINITY PREDICTED BY RF-SCORE:    0.00 PKD
ROOT
HETATM    1  C   UNL     1      -6.410  15.292  69.832  1.00  0.00    -0.164 C  
HETATM    2  C   UNL     1      -5.536  15.794  68.693  1.00  0.00    -0.102 C  
ENDROOT
BRANCH   2   3
HETATM    3  C   UNL     1      -5.826  17.261  68.375  1.00  0.00    -0.145 C  
BRANCH   3   4
HETATM    4  C   UNL     1      -6.550  17.424  67.033  1.00  0.00    -0.212 C  
BRANCH   4   5
HETATM    5  C   UNL     1      -8.056  17.581  67.250  1.00  0.00    -0.219 C  
BRANCH   5   6
HETATM    6  C   UNL     1      -8.903  16.698  66.339  1.00  0.00    -0.302 C  
BRANCH   6   7
HETATM    7  O   UNL     1      -9.637  15.666  67.003  1.00  0.00    -0.217 OA 
BRANCH   7   8
HETATM    8  C   UNL     1      -9.221  14.399  66.753  1.00  0.00    -0.268 C  
HETATM    9  O   UNL     1      -8.249  13.849  67.254  1.00  0.00    -0.178 OA 
BRANCH   8  10
HETATM   10  C   UNL     1     -10.306  13.658  66.048  1.00  0.00    -0.305 A  
HETATM   11  C   UNL     1     -10.123  13.545  64.653  1.00  0.00    -0.246 A  
HETATM   12  C   UNL     1     -11.018  12.824  63.861  1.00  0.00    -0.458 A  
HETATM   13  C   UNL     1     -12.138  12.244  64.444  1.00  0.00    -0.481 A  
HETATM   14  C   UNL     1     -12.344  12.356  65.819  1.00  0.00    -0.106 A  
HETATM   15  C   UNL     1     -11.408  13.012  66.641  1.00  0.00    -0.366 A  
BRANCH  15  16
HETATM   16  C   UNL     1     -11.695  13.056  68.096  1.00  0.00    -0.351 C  
HETATM   17  O   UNL     1     -12.121  14.115  68.555  1.00  0.00    -0.342 OA 
BRANCH  16  18
HETATM   18  C   UNL     1     -11.575  11.856  68.998  1.00  0.00    -0.376 A  
HETATM   19  C   UNL     1     -10.995  10.705  68.448  1.00  0.00    -0.303 A  
HETATM   20  C   UNL     1     -10.894   9.509  69.183  1.00  0.00    -0.194 A  
HETATM   21  C   UNL     1     -11.379   9.398  70.492  1.00  0.00    -0.274 A  
HETATM   22  O   UNL     1     -12.620  12.845  70.929  1.00  0.00    -0.343 OA 
HETATM   23  C   UNL     1     -11.916  10.572  71.048  1.00  0.00    -0.466 A  
HETATM   24  H   UNL     1     -12.928  12.788  71.826  1.00  0.00     0.000 HD 
HETATM   25  C   UNL     1     -12.029  11.773  70.318  1.00  0.00    -0.343 A  
BRANCH  21  26
HETATM   26  N   UNL     1     -11.342   8.212  71.220  1.00  0.00    -0.259 NA 
BRANCH  26  27
HETATM   27  C   UNL     1     -10.675   8.207  72.533  1.00  0.00    -0.349 C  
HETATM   28  C   UNL     1      -9.204   8.573  72.392  1.00  0.00    -0.328 C  
ENDBRANCH  26  27
BRANCH  26  29
HETATM   29  C   UNL     1     -12.291   7.118  70.971  1.00  0.00    -0.334 C  
HETATM   30  C   UNL     1     -13.478   7.225  71.917  1.00  0.00    -0.295 C  
ENDBRANCH  26  29
ENDBRANCH  21  26
ENDBRANCH  16  18
ENDBRANCH  15  16
ENDBRANCH   8  10
ENDBRANCH   7   8
ENDBRANCH   6   7
ENDBRANCH   5   6
ENDBRANCH   4   5
ENDBRANCH   3   4
ENDBRANCH   2   3
TORSDOF 12
ENDMDL
MODEL      114
REMARK 921   NORMALIZED FREE ENERGY PREDICTED BY IDOCK:   -4.79 KCAL/MOL
REMARK 922        TOTAL FREE ENERGY PREDICTED BY IDOCK:  -10.11 KCAL/MOL
REMARK 923 INTER-LIGAND FREE ENERGY PREDICTED BY IDOCK:   -6.96 KCAL/MOL
REMARK 924 INTRA-LIGAND FREE ENERGY PREDICTED BY IDOCK:   -3.15 KCAL/MOL
REMARK 927      BINDING AFFINITY PREDICTED BY RF-SCORE:    0.00 PKD
ROOT
HETATM    1  C   UNL     1      -6.343   4.044  71.520  1.00  0.00    -0.015 C  
HETATM    2  C   UNL     1      -7.611   4.364  72.297  1.00  0.00    -0.078 C  
ENDROOT
BRANCH   2   3
HETATM    3  C   UNL     1      -7.677   5.846  72.667  1.00  0.00    -0.101 C  
BRANCH   3   4
HETATM    4  C   UNL     1      -8.706   6.115  73.772  1.00  0.00    -0.123 C  
BRANCH   4   5
HETATM    5  C   UNL     1      -9.778   5.024  73.787  1.00  0.00    -0.151 C  
BRANCH   5   6
HETATM    6  C   UNL     1     -11.157   5.511  73.354  1.00  0.00    -0.228 C  
BRANCH   6   7
HETATM    7  O   UNL     1     -11.177   6.788  72.713  1.00  0.00    -0.262 OA 
BRANCH   7   8
HETATM    8  C   UNL     1     -11.655   6.798  71.443  1.00  0.00    -0.305 C  
HETATM    9  O   UNL     1     -12.755   7.204  71.092  1.00  0.00    -0.367 OA 
BRANCH   8  10
HETATM   10  C   UNL     1     -10.528   6.564  70.495  1.00  0.00    -0.251 A  
HETATM   11  C   UNL     1     -10.483   5.262  69.952  1.00  0.00    -0.351 A  
HETATM   12  C   UNL     1      -9.527   4.907  69.000  1.00  0.00    -0.205 A  
HETATM   13  C   UNL     1      -8.569   5.835  68.609  1.00  0.00    -0.109 A  
HETATM   14  C   UNL     1      -8.588   7.123  69.143  1.00  0.00    -0.133 A  
HETATM   15  C   UNL     1      -9.595   7.519  70.045  1.00  0.00    -0.164 A  
BRANCH  15  16
HETATM   16  C   UNL     1      -9.553   8.917  70.539  1.00  0.00    -0.202 C  
HETATM   17  O   UNL     1      -9.071   9.107  71.654  1.00  0.00    -0.334 OA 
BRANCH  16  18
HETATM   18  C   UNL     1      -9.984  10.099  69.710  1.00  0.00    -0.258 A  
HETATM   19  C   UNL     1      -8.977  10.795  69.028  1.00  0.00    -0.141 A  
HETATM   20  C   UNL     1      -9.262  11.951  68.277  1.00  0.00    -0.187 A  
HETATM   21  C   UNL     1     -10.556  12.476  68.184  1.00  0.00    -0.226 A  
HETATM   22  O   UNL     1     -12.331   9.977  70.237  1.00  0.00    -0.463 OA 
HETATM   23  C   UNL     1     -11.564  11.743  68.834  1.00  0.00    -0.370 A  
HETATM   24  H   UNL     1     -13.216  10.310  70.159  1.00  0.00     0.000 HD 
HETATM   25  C   UNL     1     -11.288  10.588  69.594  1.00  0.00    -0.281 A  
BRANCH  21  26
HETATM   26  N   UNL     1     -10.854  13.649  67.495  1.00  0.00    -0.262 NA 
BRANCH  26  27
HETATM   27  C   UNL     1     -12.156  13.762  66.817  1.00  0.00    -0.418 C  
HETATM   28  C   UNL     1     -12.108  13.103  65.445  1.00  0.00    -0.478 C  
ENDBRANCH  26  27
BRANCH  26  29
HETATM   29  C   UNL     1     -10.159  14.913  67.777  1.00  0.00    -0.234 C  
HETATM   30  C   UNL     1     -10.408  15.342  69.215  1.00  0.00    -0.259 C  
ENDBRANCH  26  29
ENDBRANCH  21  26
ENDBRANCH  16  18
ENDBRANCH  15  16
ENDBRANCH   8  10
ENDBRANCH   7   8
ENDBRANCH   6   7
ENDBRANCH   5   6
ENDBRANCH   4   5
ENDBRANCH   3   4
ENDBRANCH   2   3
TORSDOF 12
ENDMDL
MODEL      115
REMARK 921   NORMALIZED FREE ENERGY PREDICTED BY IDOCK:   -4.78 KCAL/MOL
REMARK 922        TOTAL FREE ENERGY PREDICTED BY IDOCK:  -10.11 KCAL/MOL
REMARK 923 INTER-LIGAND FREE ENERGY PREDICTED BY IDOCK:   -7.91 KCAL/MOL
REMARK 924 INTRA-LIGAND FREE ENERGY PREDICTED BY IDOCK:   -2.20 KCAL/MOL
REMARK 927      BINDING AFFINITY PREDICTED BY RF-SCORE:    0.00 PKD
ROOT
HETATM    1  C   UNL     1     -12.841   7.221  71.368  1.00  0.00    -0.425 C  
HETATM    2  C   UNL     1     -12.261   8.589  71.691  1.00  0.00    -0.371 C  
ENDROOT
BRANCH   2   3
HETATM    3  C   UNL     1     -13.359   9.588  72.052  1.00  0.00    -0.535 C  
BRANCH   3   4
HETATM    4  C   UNL     1     -13.020  11.008  71.580  1.00  0.00    -0.561 C  
BRANCH   4   5
HETATM    5  C   UNL     1     -11.900  10.976  70.539  1.00  0.00    -0.464 C  
BRANCH   5   6
HETATM    6  C   UNL     1     -12.096  11.966  69.395  1.00  0.00    -0.216 C  
BRANCH   6   7
HETATM    7  O   UNL     1     -12.108  11.389  68.088  1.00  0.00    -0.623 OA 
BRANCH   7   8
HETATM    8  C   UNL     1     -11.657  12.192  67.090  1.00  0.00    -0.335 C  
HETATM    9  O   UNL     1     -12.329  12.989  66.450  1.00  0.00    -0.417 OA 
BRANCH   8  10
HETATM   10  C   UNL     1     -10.166  12.212  67.114  1.00  0.00    -0.226 A  
HETATM   11  C   UNL     1      -9.609  13.325  67.778  1.00  0.00    -0.214 A  
HETATM   12  C   UNL     1      -8.229  13.454  67.943  1.00  0.00    -0.162 A  
HETATM   13  C   UNL     1      -7.380  12.495  67.404  1.00  0.00    -0.147 A  
HETATM   14  C   UNL     1      -7.911  11.394  66.734  1.00  0.00    -0.157 A  
HETATM   15  C   UNL     1      -9.303  11.210  66.629  1.00  0.00    -0.194 A  
BRANCH  15  16
HETATM   16  C   UNL     1      -9.777   9.994  65.923  1.00  0.00    -0.247 C  
HETATM   17  O   UNL     1     -10.120  10.121  64.749  1.00  0.00    -0.331 OA 
BRANCH  16  18
HETATM   18  C   UNL     1      -9.768   8.622  66.545  1.00  0.00    -0.325 A  
HETATM   19  C   UNL     1     -10.406   8.484  67.785  1.00  0.00    -0.298 A  
HETATM   20  C   UNL     1     -10.401   7.261  68.483  1.00  0.00    -0.210 A  
HETATM   21  C   UNL     1      -9.747   6.127  67.988  1.00  0.00    -0.120 A  
HETATM   22  O   UNL     1      -8.485   7.536  64.820  1.00  0.00    -0.336 OA 
HETATM   23  C   UNL     1      -9.150   6.265  66.723  1.00  0.00    -0.141 A  
HETATM   24  H   UNL     1      -8.062   6.764  64.464  1.00  0.00     0.000 HD 
HETATM   25  C   UNL     1      -9.143   7.487  66.019  1.00  0.00    -0.094 A  
BRANCH  21  26
HETATM   26  N   UNL     1      -9.680   4.923  68.685  1.00  0.00    -0.154 NA 
BRANCH  26  27
HETATM   27  C   UNL     1     -10.188   4.872  70.065  1.00  0.00    -0.243 C  
HETATM   28  C   UNL     1      -9.091   5.237  71.056  1.00  0.00    -0.171 C  
ENDBRANCH  26  27
BRANCH  26  29
HETATM   29  C   UNL     1      -9.555   3.632  67.992  1.00  0.00    -0.112 C  
HETATM   30  C   UNL     1      -8.226   2.977  68.334  1.00  0.00    -0.079 C  
ENDBRANCH  26  29
ENDBRANCH  21  26
ENDBRANCH  16  18
ENDBRANCH  15  16
ENDBRANCH   8  10
ENDBRANCH   7   8
ENDBRANCH   6   7
ENDBRANCH   5   6
ENDBRANCH   4   5
ENDBRANCH   3   4
ENDBRANCH   2   3
TORSDOF 12
ENDMDL
MODEL      116
REMARK 921   NORMALIZED FREE ENERGY PREDICTED BY IDOCK:   -4.75 KCAL/MOL
REMARK 922        TOTAL FREE ENERGY PREDICTED BY IDOCK:  -10.06 KCAL/MOL
REMARK 923 INTER-LIGAND FREE ENERGY PREDICTED BY IDOCK:   -7.79 KCAL/MOL
REMARK 924 INTRA-LIGAND FREE ENERGY PREDICTED BY IDOCK:   -2.27 KCAL/MOL
REMARK 927      BINDING AFFINITY PREDICTED BY RF-SCORE:    0.00 PKD
ROOT
HETATM    1  C   UNL     1      -6.510   8.458  67.207  1.00  0.00    -0.058 C  
HETATM    2  C   UNL     1      -6.311   9.827  67.838  1.00  0.00    -0.056 C  
ENDROOT
BRANCH   2   3
HETATM    3  C   UNL     1      -6.901  10.933  66.964  1.00  0.00    -0.100 C  
BRANCH   3   4
HETATM    4  C   UNL     1      -6.210  12.282  67.202  1.00  0.00    -0.118 C  
BRANCH   4   5
HETATM    5  C   UNL     1      -7.235  13.353  67.581  1.00  0.00    -0.167 C  
BRANCH   5   6
HETATM    6  C   UNL     1      -6.611  14.684  67.987  1.00  0.00    -0.146 C  
BRANCH   6   7
HETATM    7  O   UNL     1      -7.536  15.757  68.175  1.00  0.00    -0.119 OA 
BRANCH   7   8
HETATM    8  C   UNL     1      -7.376  16.820  67.346  1.00  0.00    -0.160 C  
HETATM    9  O   UNL     1      -6.550  16.914  66.449  1.00  0.00    -0.214 OA 
BRANCH   8  10
HETATM   10  C   UNL     1      -8.567  17.711  67.460  1.00  0.00    -0.222 A  
HETATM   11  C   UNL     1      -8.310  18.952  68.081  1.00  0.00    -0.341 A  
HETATM   12  C   UNL     1      -9.306  19.921  68.202  1.00  0.00    -0.406 A  
HETATM   13  C   UNL     1     -10.590  19.648  67.747  1.00  0.00    -0.530 A  
HETATM   14  C   UNL     1     -10.868  18.423  67.142  1.00  0.00    -0.271 A  
HETATM   15  C   UNL     1      -9.854  17.466  66.941  1.00  0.00    -0.289 A  
BRANCH  15  16
HETATM   16  C   UNL     1     -10.235  16.204  66.262  1.00  0.00    -0.320 C  
HETATM   17  O   UNL     1     -10.079  16.149  65.043  1.00  0.00    -0.478 OA 
BRANCH  16  18
HETATM   18  C   UNL     1     -10.708  14.979  67.001  1.00  0.00    -0.304 A  
HETATM   19  C   UNL     1     -10.742  15.057  68.400  1.00  0.00    -0.245 A  
HETATM   20  C   UNL     1     -11.107  13.950  69.189  1.00  0.00    -0.284 A  
HETATM   21  C   UNL     1     -11.437  12.712  68.625  1.00  0.00    -0.308 A  
HETATM   22  O   UNL     1     -11.056  13.593  65.062  1.00  0.00    -0.308 OA 
HETATM   23  C   UNL     1     -11.444  12.660  67.220  1.00  0.00    -0.402 A  
HETATM   24  H   UNL     1     -11.305  12.766  64.669  1.00  0.00     0.000 HD 
HETATM   25  C   UNL     1     -11.073  13.761  66.421  1.00  0.00    -0.308 A  
BRANCH  21  26
HETATM   26  N   UNL     1     -11.747  11.586  69.385  1.00  0.00    -0.315 NA 
BRANCH  26  27
HETATM   27  C   UNL     1     -11.136  10.297  69.023  1.00  0.00    -0.230 C  
HETATM   28  C   UNL     1      -9.641  10.310  69.306  1.00  0.00    -0.239 C  
ENDBRANCH  26  27
BRANCH  26  29
HETATM   29  C   UNL     1     -12.269  11.695  70.754  1.00  0.00    -0.344 C  
HETATM   30  C   UNL     1     -12.987  10.412  71.147  1.00  0.00    -0.506 C  
ENDBRANCH  26  29
ENDBRANCH  21  26
ENDBRANCH  16  18
ENDBRANCH  15  16
ENDBRANCH   8  10
ENDBRANCH   7   8
ENDBRANCH   6   7
ENDBRANCH   5   6
ENDBRANCH   4   5
ENDBRANCH   3   4
ENDBRANCH   2   3
TORSDOF 12
ENDMDL
MODEL      117
REMARK 921   NORMALIZED FREE ENERGY PREDICTED BY IDOCK:   -4.75 KCAL/MOL
REMARK 922        TOTAL FREE ENERGY PREDICTED BY IDOCK:  -10.05 KCAL/MOL
REMARK 923 INTER-LIGAND FREE ENERGY PREDICTED BY IDOCK:   -7.53 KCAL/MOL
REMARK 924 INTRA-LIGAND FREE ENERGY PREDICTED BY IDOCK:   -2.52 KCAL/MOL
REMARK 927      BINDING AFFINITY PREDICTED BY RF-SCORE:    0.00 PKD
ROOT
HETATM    1  C   UNL     1     -10.925  16.957  64.779  1.00  0.00     0.079 C  
HETATM    2  C   UNL     1     -10.802  15.539  65.318  1.00  0.00    -0.425 C  
ENDROOT
BRANCH   2   3
HETATM    3  C   UNL     1      -9.389  15.259  65.827  1.00  0.00    -0.233 C  
BRANCH   3   4
HETATM    4  C   UNL     1      -9.261  15.519  67.334  1.00  0.00    -0.209 C  
BRANCH   4   5
HETATM    5  C   UNL     1     -10.640  15.538  67.996  1.00  0.00    -0.270 C  
BRANCH   5   6
HETATM    6  C   UNL     1     -11.106  14.171  68.486  1.00  0.00    -0.255 C  
BRANCH   6   7
HETATM    7  O   UNL     1     -12.078  13.528  67.659  1.00  0.00    -0.347 OA 
BRANCH   7   8
HETATM    8  C   UNL     1     -11.862  12.209  67.418  1.00  0.00    -0.227 C  
HETATM    9  O   UNL     1     -12.192  11.282  68.146  1.00  0.00    -0.622 OA 
BRANCH   8  10
HETATM   10  C   UNL     1     -11.474  12.031  65.989  1.00  0.00    -0.399 A  
HETATM   11  C   UNL     1     -12.402  12.554  65.064  1.00  0.00    -0.522 A  
HETATM   12  C   UNL     1     -12.152  12.524  63.691  1.00  0.00    -0.642 A  
HETATM   13  C   UNL     1     -10.990  11.926  63.218  1.00  0.00    -0.399 A  
HETATM   14  C   UNL     1     -10.067  11.392  64.115  1.00  0.00    -0.358 A  
HETATM   15  C   UNL     1     -10.269  11.486  65.506  1.00  0.00    -0.303 A  
BRANCH  15  16
HETATM   16  C   UNL     1      -9.219  10.915  66.385  1.00  0.00    -0.174 C  
HETATM   17  O   UNL     1      -8.474  11.707  66.962  1.00  0.00    -0.155 OA 
BRANCH  16  18
HETATM   18  C   UNL     1      -9.089   9.441  66.667  1.00  0.00    -0.181 A  
HETATM   19  C   UNL     1     -10.274   8.695  66.697  1.00  0.00    -0.343 A  
HETATM   20  C   UNL     1     -10.272   7.323  67.014  1.00  0.00    -0.348 A  
HETATM   21  C   UNL     1      -9.094   6.637  67.332  1.00  0.00    -0.120 A  
HETATM   22  O   UNL     1      -6.697   9.415  66.948  1.00  0.00    -0.074 OA 
HETATM   23  C   UNL     1      -7.907   7.385  67.253  1.00  0.00    -0.114 A  
HETATM   24  H   UNL     1      -5.889   8.952  67.135  1.00  0.00     0.000 HD 
HETATM   25  C   UNL     1      -7.899   8.761  66.943  1.00  0.00    -0.101 A  
BRANCH  21  26
HETATM   26  N   UNL     1      -9.071   5.295  67.703  1.00  0.00    -0.109 NA 
BRANCH  26  27
HETATM   27  C   UNL     1      -8.628   4.942  69.062  1.00  0.00    -0.084 C  
HETATM   28  C   UNL     1      -9.731   5.212  70.076  1.00  0.00    -0.275 C  
ENDBRANCH  26  27
BRANCH  26  29
HETATM   29  C   UNL     1      -9.869   4.281  66.998  1.00  0.00    -0.179 C  
HETATM   30  C   UNL     1      -9.004   3.538  65.991  1.00  0.00    -0.140 C  
ENDBRANCH  26  29
ENDBRANCH  21  26
ENDBRANCH  16  18
ENDBRANCH  15  16
ENDBRANCH   8  10
ENDBRANCH   7   8
ENDBRANCH   6   7
ENDBRANCH   5   6
ENDBRANCH   4   5
ENDBRANCH   3   4
ENDBRANCH   2   3
TORSDOF 12
ENDMDL
MODEL      118
REMARK 921   NORMALIZED FREE ENERGY PREDICTED BY IDOCK:   -4.75 KCAL/MOL
REMARK 922        TOTAL FREE ENERGY PREDICTED BY IDOCK:  -10.05 KCAL/MOL
REMARK 923 INTER-LIGAND FREE ENERGY PREDICTED BY IDOCK:   -7.22 KCAL/MOL
REMARK 924 INTRA-LIGAND FREE ENERGY PREDICTED BY IDOCK:   -2.84 KCAL/MOL
REMARK 927      BINDING AFFINITY PREDICTED BY RF-SCORE:    0.00 PKD
ROOT
HETATM    1  C   UNL     1     -10.872  10.051  70.688  1.00  0.00    -0.367 C  
HETATM    2  C   UNL     1     -12.310   9.898  71.160  1.00  0.00    -0.466 C  
ENDROOT
BRANCH   2   3
HETATM    3  C   UNL     1     -12.448   8.755  72.165  1.00  0.00    -0.460 C  
BRANCH   3   4
HETATM    4  C   UNL     1     -12.898   7.452  71.492  1.00  0.00    -0.416 C  
BRANCH   4   5
HETATM    5  C   UNL     1     -11.725   6.479  71.363  1.00  0.00    -0.378 C  
BRANCH   5   6
HETATM    6  C   UNL     1     -11.398   6.098  69.923  1.00  0.00    -0.384 C  
BRANCH   6   7
HETATM    7  O   UNL     1     -10.489   6.973  69.253  1.00  0.00    -0.197 OA 
BRANCH   7   8
HETATM    8  C   UNL     1      -9.204   6.540  69.183  1.00  0.00    -0.135 C  
HETATM    9  O   UNL     1      -8.798   5.604  68.508  1.00  0.00    -0.109 OA 
BRANCH   8  10
HETATM   10  C   UNL     1      -8.307   7.575  69.773  1.00  0.00    -0.134 A  
HETATM   11  C   UNL     1      -7.927   7.324  71.108  1.00  0.00    -0.101 A  
HETATM   12  C   UNL     1      -7.037   8.164  71.779  1.00  0.00    -0.080 A  
HETATM   13  C   UNL     1      -6.549   9.298  71.140  1.00  0.00    -0.080 A  
HETATM   14  C   UNL     1      -6.923   9.570  69.825  1.00  0.00    -0.071 A  
HETATM   15  C   UNL     1      -7.756   8.689  69.110  1.00  0.00    -0.097 A  
BRANCH  15  16
HETATM   16  C   UNL     1      -8.077   9.045  67.706  1.00  0.00    -0.109 C  
HETATM   17  O   UNL     1      -7.628   8.316  66.822  1.00  0.00    -0.088 OA 
BRANCH  16  18
HETATM   18  C   UNL     1      -8.986  10.186  67.330  1.00  0.00    -0.142 A  
HETATM   19  C   UNL     1      -8.395  11.449  67.194  1.00  0.00    -0.155 A  
HETATM   20  C   UNL     1      -9.164  12.594  66.909  1.00  0.00    -0.216 A  
HETATM   21  C   UNL     1     -10.555  12.537  66.763  1.00  0.00    -0.233 A  
HETATM   22  O   UNL     1     -11.031   8.914  67.274  1.00  0.00    -0.408 OA 
HETATM   23  C   UNL     1     -11.130  11.257  66.855  1.00  0.00    -0.339 A  
HETATM   24  H   UNL     1     -11.971   8.860  67.150  1.00  0.00     0.000 HD 
HETATM   25  C   UNL     1     -10.370  10.106  67.148  1.00  0.00    -0.238 A  
BRANCH  21  26
HETATM   26  N   UNL     1     -11.343  13.662  66.536  1.00  0.00    -0.311 NA 
BRANCH  26  27
HETATM   27  C   UNL     1     -11.975  14.328  67.686  1.00  0.00    -0.365 C  
HETATM   28  C   UNL     1     -11.181  15.560  68.099  1.00  0.00    -0.343 C  
ENDBRANCH  26  27
BRANCH  26  29
HETATM   29  C   UNL     1     -11.216  14.465  65.312  1.00  0.00    -0.345 C  
HETATM   30  C   UNL     1     -12.162  13.945  64.240  1.00  0.00    -0.447 C  
ENDBRANCH  26  29
ENDBRANCH  21  26
ENDBRANCH  16  18
ENDBRANCH  15  16
ENDBRANCH   8  10
ENDBRANCH   7   8
ENDBRANCH   6   7
ENDBRANCH   5   6
ENDBRANCH   4   5
ENDBRANCH   3   4
ENDBRANCH   2   3
TORSDOF 12
ENDMDL
MODEL      119
REMARK 921   NORMALIZED FREE ENERGY PREDICTED BY IDOCK:   -4.74 KCAL/MOL
REMARK 922        TOTAL FREE ENERGY PREDICTED BY IDOCK:  -10.03 KCAL/MOL
REMARK 923 INTER-LIGAND FREE ENERGY PREDICTED BY IDOCK:   -7.67 KCAL/MOL
REMARK 924 INTRA-LIGAND FREE ENERGY PREDICTED BY IDOCK:   -2.37 KCAL/MOL
REMARK 927      BINDING AFFINITY PREDICTED BY RF-SCORE:    0.00 PKD
ROOT
HETATM    1  C   UNL     1     -11.378   6.716  69.970  1.00  0.00    -0.440 C  
HETATM    2  C   UNL     1     -10.926   8.042  70.564  1.00  0.00    -0.247 C  
ENDROOT
BRANCH   2   3
HETATM    3  C   UNL     1     -12.071   8.743  71.294  1.00  0.00    -0.344 C  
BRANCH   3   4
HETATM    4  C   UNL     1     -11.821  10.250  71.436  1.00  0.00    -0.371 C  
BRANCH   4   5
HETATM    5  C   UNL     1     -12.572  11.025  70.351  1.00  0.00    -0.349 C  
BRANCH   5   6
HETATM    6  C   UNL     1     -11.657  11.722  69.350  1.00  0.00    -0.322 C  
BRANCH   6   7
HETATM    7  O   UNL     1     -12.177  11.831  68.024  1.00  0.00    -0.518 OA 
BRANCH   7   8
HETATM    8  C   UNL     1     -11.905  12.996  67.381  1.00  0.00    -0.357 C  
HETATM    9  O   UNL     1     -11.711  14.081  67.912  1.00  0.00    -0.322 OA 
BRANCH   8  10
HETATM   10  C   UNL     1     -11.540  12.699  65.966  1.00  0.00    -0.443 A  
HETATM   11  C   UNL     1     -12.598  12.855  65.046  1.00  0.00    -0.538 A  
HETATM   12  C   UNL     1     -12.399  12.679  63.676  1.00  0.00    -0.584 A  
HETATM   13  C   UNL     1     -11.148  12.297  63.207  1.00  0.00    -0.389 A  
HETATM   14  C   UNL     1     -10.092  12.126  64.102  1.00  0.00    -0.335 A  
HETATM   15  C   UNL     1     -10.259  12.377  65.478  1.00  0.00    -0.297 A  
BRANCH  15  16
HETATM   16  C   UNL     1      -9.073  12.197  66.350  1.00  0.00    -0.177 C  
HETATM   17  O   UNL     1      -8.602  13.204  66.877  1.00  0.00    -0.191 OA 
BRANCH  16  18
HETATM   18  C   UNL     1      -8.490  10.848  66.684  1.00  0.00    -0.151 A  
HETATM   19  C   UNL     1      -9.360   9.903  67.243  1.00  0.00    -0.167 A  
HETATM   20  C   UNL     1      -8.905   8.635  67.650  1.00  0.00    -0.138 A  
HETATM   21  C   UNL     1      -7.562   8.256  67.537  1.00  0.00    -0.098 A  
HETATM   22  O   UNL     1      -6.233  11.336  66.001  1.00  0.00    -0.331 OA 
HETATM   23  C   UNL     1      -6.709   9.196  66.932  1.00  0.00    -0.076 A  
HETATM   24  H   UNL     1      -5.325  11.079  65.894  1.00  0.00     0.000 HD 
HETATM   25  C   UNL     1      -7.153  10.470  66.527  1.00  0.00    -0.120 A  
BRANCH  21  26
HETATM   26  N   UNL     1      -7.076   7.030  67.983  1.00  0.00    -0.083 NA 
BRANCH  26  27
HETATM   27  C   UNL     1      -6.669   6.024  66.989  1.00  0.00    -0.058 C  
HETATM   28  C   UNL     1      -7.869   5.212  66.522  1.00  0.00    -0.103 C  
ENDBRANCH  26  27
BRANCH  26  29
HETATM   29  C   UNL     1      -6.535   6.857  69.339  1.00  0.00    -0.044 C  
HETATM   30  C   UNL     1      -7.410   5.902  70.137  1.00  0.00    -0.077 C  
ENDBRANCH  26  29
ENDBRANCH  21  26
ENDBRANCH  16  18
ENDBRANCH  15  16
ENDBRANCH   8  10
ENDBRANCH   7   8
ENDBRANCH   6   7
ENDBRANCH   5   6
ENDBRANCH   4   5
ENDBRANCH   3   4
ENDBRANCH   2   3
TORSDOF 12
ENDMDL
MODEL      120
REMARK 921   NORMALIZED FREE ENERGY PREDICTED BY IDOCK:   -4.71 KCAL/MOL
REMARK 922        TOTAL FREE ENERGY PREDICTED BY IDOCK:   -9.97 KCAL/MOL
REMARK 923 INTER-LIGAND FREE ENERGY PREDICTED BY IDOCK:   -8.09 KCAL/MOL
REMARK 924 INTRA-LIGAND FREE ENERGY PREDICTED BY IDOCK:   -1.88 KCAL/MOL
REMARK 927      BINDING AFFINITY PREDICTED BY RF-SCORE:    0.00 PKD
ROOT
HETATM    1  C   UNL     1     -14.375  14.504  71.889  1.00  0.00    -0.647 C  
HETATM    2  C   UNL     1     -12.940  13.999  71.911  1.00  0.00    -0.444 C  
ENDROOT
BRANCH   2   3
HETATM    3  C   UNL     1     -12.337  13.976  70.507  1.00  0.00    -0.437 C  
BRANCH   3   4
HETATM    4  C   UNL     1     -11.984  15.385  70.012  1.00  0.00    -0.383 C  
BRANCH   4   5
HETATM    5  C   UNL     1     -11.640  15.360  68.521  1.00  0.00    -0.373 C  
BRANCH   5   6
HETATM    6  C   UNL     1     -10.641  14.274  68.139  1.00  0.00    -0.245 C  
BRANCH   6   7
HETATM    7  O   UNL     1     -10.975  13.524  66.969  1.00  0.00    -0.282 OA 
BRANCH   7   8
HETATM    8  C   UNL     1     -11.240  12.208  67.173  1.00  0.00    -0.314 C  
HETATM    9  O   UNL     1     -12.235  11.752  67.720  1.00  0.00    -0.536 OA 
BRANCH   8  10
HETATM   10  C   UNL     1     -10.318  11.389  66.335  1.00  0.00    -0.284 A  
HETATM   11  C   UNL     1     -10.735  11.227  64.997  1.00  0.00    -0.322 A  
HETATM   12  C   UNL     1      -9.948  10.542  64.070  1.00  0.00    -0.363 A  
HETATM   13  C   UNL     1      -8.751   9.966  64.478  1.00  0.00    -0.219 A  
HETATM   14  C   UNL     1      -8.327  10.104  65.799  1.00  0.00    -0.147 A  
HETATM   15  C   UNL     1      -9.073  10.859  66.725  1.00  0.00    -0.164 A  
BRANCH  15  16
HETATM   16  C   UNL     1      -8.530  10.976  68.101  1.00  0.00    -0.135 C  
HETATM   17  O   UNL     1      -7.904  11.999  68.375  1.00  0.00    -0.136 OA 
BRANCH  16  18
HETATM   18  C   UNL     1      -8.787   9.957  69.180  1.00  0.00    -0.165 A  
HETATM   19  C   UNL     1      -7.875   8.898  69.281  1.00  0.00    -0.096 A  
HETATM   20  C   UNL     1      -8.056   7.857  70.211  1.00  0.00    -0.115 A  
HETATM   21  C   UNL     1      -9.161   7.813  71.070  1.00  0.00    -0.147 A  
HETATM   22  O   UNL     1     -10.819  10.937  70.020  1.00  0.00    -0.435 OA 
HETATM   23  C   UNL     1     -10.043   8.905  70.991  1.00  0.00    -0.324 A  
HETATM   24  H   UNL     1     -11.558  10.931  70.617  1.00  0.00     0.000 HD 
HETATM   25  C   UNL     1      -9.874   9.948  70.059  1.00  0.00    -0.243 A  
BRANCH  21  26
HETATM   26  N   UNL     1      -9.393   6.767  71.960  1.00  0.00    -0.142 NA 
BRANCH  26  27
HETATM   27  C   UNL     1      -9.124   6.981  73.391  1.00  0.00    -0.147 C  
HETATM   28  C   UNL     1     -10.204   6.331  74.245  1.00  0.00    -0.351 C  
ENDBRANCH  26  27
BRANCH  26  29
HETATM   29  C   UNL     1     -10.291   5.652  71.629  1.00  0.00    -0.215 C  
HETATM   30  C   UNL     1      -9.699   4.815  70.504  1.00  0.00    -0.281 C  
ENDBRANCH  26  29
ENDBRANCH  21  26
ENDBRANCH  16  18
ENDBRANCH  15  16
ENDBRANCH   8  10
ENDBRANCH   7   8
ENDBRANCH   6   7
ENDBRANCH   5   6
ENDBRANCH   4   5
ENDBRANCH   3   4
ENDBRANCH   2   3
TORSDOF 12
ENDMDL
MODEL      121
REMARK 921   NORMALIZED FREE ENERGY PREDICTED BY IDOCK:   -4.70 KCAL/MOL
REMARK 922        TOTAL FREE ENERGY PREDICTED BY IDOCK:   -9.96 KCAL/MOL
REMARK 923 INTER-LIGAND FREE ENERGY PREDICTED BY IDOCK:   -7.77 KCAL/MOL
REMARK 924 INTRA-LIGAND FREE ENERGY PREDICTED BY IDOCK:   -2.19 KCAL/MOL
REMARK 927      BINDING AFFINITY PREDICTED BY RF-SCORE:    0.00 PKD
ROOT
HETATM    1  C   UNL     1      -8.440   8.813  64.862  1.00  0.00    -0.189 C  
HETATM    2  C   UNL     1      -8.041  10.258  65.125  1.00  0.00    -0.151 C  
ENDROOT
BRANCH   2   3
HETATM    3  C   UNL     1      -6.744  10.339  65.930  1.00  0.00    -0.117 C  
BRANCH   3   4
HETATM    4  C   UNL     1      -6.680  11.609  66.787  1.00  0.00    -0.087 C  
BRANCH   4   5
HETATM    5  C   UNL     1      -6.067  11.304  68.156  1.00  0.00    -0.045 C  
BRANCH   5   6
HETATM    6  C   UNL     1      -6.969  10.472  69.061  1.00  0.00    -0.076 C  
BRANCH   6   7
HETATM    7  O   UNL     1      -8.335  10.890  69.109  1.00  0.00    -0.141 OA 
BRANCH   7   8
HETATM    8  C   UNL     1      -9.252   9.928  68.831  1.00  0.00    -0.160 C  
HETATM    9  O   UNL     1      -9.031   8.868  68.261  1.00  0.00    -0.137 OA 
BRANCH   8  10
HETATM   10  C   UNL     1     -10.490  10.192  69.619  1.00  0.00    -0.282 A  
HETATM   11  C   UNL     1     -10.617   9.410  70.786  1.00  0.00    -0.371 A  
HETATM   12  C   UNL     1     -11.687   9.586  71.664  1.00  0.00    -0.460 A  
HETATM   13  C   UNL     1     -12.676  10.515  71.364  1.00  0.00    -0.547 A  
HETATM   14  C   UNL     1     -12.576  11.289  70.208  1.00  0.00    -0.255 A  
HETATM   15  C   UNL     1     -11.461  11.178  69.355  1.00  0.00    -0.368 A  
BRANCH  15  16
HETATM   16  C   UNL     1     -11.426  12.062  68.164  1.00  0.00    -0.322 C  
HETATM   17  O   UNL     1     -12.032  11.685  67.163  1.00  0.00    -0.614 OA 
BRANCH  16  18
HETATM   18  C   UNL     1     -10.769  13.418  68.162  1.00  0.00    -0.267 A  
HETATM   19  C   UNL     1     -10.996  14.234  69.277  1.00  0.00    -0.271 A  
HETATM   20  C   UNL     1     -10.482  15.543  69.348  1.00  0.00    -0.253 A  
HETATM   21  C   UNL     1      -9.735  16.105  68.306  1.00  0.00    -0.220 A  
HETATM   22  O   UNL     1      -9.729  13.227  65.998  1.00  0.00    -0.346 OA 
HETATM   23  C   UNL     1      -9.474  15.260  67.213  1.00  0.00    -0.212 A  
HETATM   24  H   UNL     1      -9.200  13.589  65.297  1.00  0.00     0.000 HD 
HETATM   25  C   UNL     1      -9.990  13.951  67.130  1.00  0.00    -0.239 A  
BRANCH  21  26
HETATM   26  N   UNL     1      -9.263  17.415  68.328  1.00  0.00    -0.263 NA 
BRANCH  26  27
HETATM   27  C   UNL     1      -7.923  17.695  67.788  1.00  0.00    -0.218 C  
HETATM   28  C   UNL     1      -7.011  18.253  68.872  1.00  0.00    -0.289 C  
ENDBRANCH  26  27
BRANCH  26  29
HETATM   29  C   UNL     1     -10.172  18.565  68.434  1.00  0.00    -0.372 C  
HETATM   30  C   UNL     1     -10.250  19.299  67.104  1.00  0.00    -0.501 C  
ENDBRANCH  26  29
ENDBRANCH  21  26
ENDBRANCH  16  18
ENDBRANCH  15  16
ENDBRANCH   8  10
ENDBRANCH   7   8
ENDBRANCH   6   7
ENDBRANCH   5   6
ENDBRANCH   4   5
ENDBRANCH   3   4
ENDBRANCH   2   3
TORSDOF 12
ENDMDL
MODEL      122
REMARK 921   NORMALIZED FREE ENERGY PREDICTED BY IDOCK:   -4.68 KCAL/MOL
REMARK 922        TOTAL FREE ENERGY PREDICTED BY IDOCK:   -9.94 KCAL/MOL
REMARK 923 INTER-LIGAND FREE ENERGY PREDICTED BY IDOCK:   -8.66 KCAL/MOL
REMARK 924 INTRA-LIGAND FREE ENERGY PREDICTED BY IDOCK:   -1.27 KCAL/MOL
REMARK 927      BINDING AFFINITY PREDICTED BY RF-SCORE:    0.00 PKD
ROOT
HETATM    1  C   UNL     1      -7.932  13.670  67.793  1.00  0.00    -0.172 C  
HETATM    2  C   UNL     1      -7.806  15.087  67.254  1.00  0.00    -0.241 C  
ENDROOT
BRANCH   2   3
HETATM    3  C   UNL     1      -8.463  16.099  68.192  1.00  0.00    -0.175 C  
BRANCH   3   4
HETATM    4  C   UNL     1      -9.903  16.419  67.774  1.00  0.00    -0.239 C  
BRANCH   4   5
HETATM    5  C   UNL     1     -10.617  17.217  68.867  1.00  0.00    -0.314 C  
BRANCH   5   6
HETATM    6  C   UNL     1     -11.004  16.383  70.083  1.00  0.00    -0.285 C  
BRANCH   6   7
HETATM    7  O   UNL     1     -10.819  14.973  69.938  1.00  0.00    -0.258 OA 
BRANCH   7   8
HETATM    8  C   UNL     1     -11.957  14.234  69.892  1.00  0.00    -0.339 C  
HETATM    9  O   UNL     1     -13.048  14.567  70.334  1.00  0.00    -0.285 OA 
BRANCH   8  10
HETATM   10  C   UNL     1     -11.771  13.111  68.929  1.00  0.00    -0.368 A  
HETATM   11  C   UNL     1     -11.454  13.516  67.615  1.00  0.00    -0.351 A  
HETATM   12  C   UNL     1     -11.185  12.582  66.614  1.00  0.00    -0.357 A  
HETATM   13  C   UNL     1     -11.277  11.225  66.898  1.00  0.00    -0.300 A  
HETATM   14  C   UNL     1     -11.602  10.804  68.187  1.00  0.00    -0.276 A  
HETATM   15  C   UNL     1     -11.798  11.734  69.226  1.00  0.00    -0.389 A  
BRANCH  15  16
HETATM   16  C   UNL     1     -12.111  11.194  70.571  1.00  0.00    -0.381 C  
HETATM   17  O   UNL     1     -12.806  11.891  71.311  1.00  0.00    -0.380 OA 
BRANCH  16  18
HETATM   18  C   UNL     1     -11.701   9.818  71.025  1.00  0.00    -0.453 A  
HETATM   19  C   UNL     1     -10.325   9.564  71.113  1.00  0.00    -0.330 A  
HETATM   20  C   UNL     1      -9.833   8.293  71.465  1.00  0.00    -0.250 A  
HETATM   21  C   UNL     1     -10.685   7.214  71.728  1.00  0.00    -0.215 A  
HETATM   22  O   UNL     1     -13.923   8.917  71.252  1.00  0.00    -0.545 OA 
HETATM   23  C   UNL     1     -12.062   7.493  71.682  1.00  0.00    -0.341 A  
HETATM   24  H   UNL     1     -14.509   8.199  71.455  1.00  0.00     0.000 HD 
HETATM   25  C   UNL     1     -12.565   8.760  71.324  1.00  0.00    -0.246 A  
BRANCH  21  26
HETATM   26  N   UNL     1     -10.223   5.933  72.023  1.00  0.00    -0.193 NA 
BRANCH  26  27
HETATM   27  C   UNL     1      -9.285   5.286  71.093  1.00  0.00    -0.145 C  
HETATM   28  C   UNL     1      -9.994   4.877  69.809  1.00  0.00    -0.314 C  
ENDBRANCH  26  27
BRANCH  26  29
HETATM   29  C   UNL     1     -10.259   5.391  73.389  1.00  0.00    -0.196 C  
HETATM   30  C   UNL     1     -10.848   3.989  73.384  1.00  0.00    -0.326 C  
ENDBRANCH  26  29
ENDBRANCH  21  26
ENDBRANCH  16  18
ENDBRANCH  15  16
ENDBRANCH   8  10
ENDBRANCH   7   8
ENDBRANCH   6   7
ENDBRANCH   5   6
ENDBRANCH   4   5
ENDBRANCH   3   4
ENDBRANCH   2   3
TORSDOF 12
ENDMDL
MODEL      123
REMARK 921   NORMALIZED FREE ENERGY PREDICTED BY IDOCK:   -4.68 KCAL/MOL
REMARK 922        TOTAL FREE ENERGY PREDICTED BY IDOCK:   -9.93 KCAL/MOL
REMARK 923 INTER-LIGAND FREE ENERGY PREDICTED BY IDOCK:   -8.53 KCAL/MOL
REMARK 924 INTRA-LIGAND FREE ENERGY PREDICTED BY IDOCK:   -1.40 KCAL/MOL
REMARK 927      BINDING AFFINITY PREDICTED BY RF-SCORE:    0.00 PKD
ROOT
HETATM    1  C   UNL     1      -7.676   4.478  65.687  1.00  0.00    -0.093 C  
HETATM    2  C   UNL     1      -7.809   5.630  66.672  1.00  0.00    -0.101 C  
ENDROOT
BRANCH   2   3
HETATM    3  C   UNL     1      -8.957   6.562  66.286  1.00  0.00    -0.168 C  
BRANCH   3   4
HETATM    4  C   UNL     1      -9.293   7.553  67.408  1.00  0.00    -0.164 C  
BRANCH   4   5
HETATM    5  C   UNL     1     -10.451   8.463  66.993  1.00  0.00    -0.375 C  
BRANCH   5   6
HETATM    6  C   UNL     1     -10.023   9.650  66.137  1.00  0.00    -0.276 C  
BRANCH   6   7
HETATM    7  O   UNL     1     -10.040  10.916  66.800  1.00  0.00    -0.201 OA 
BRANCH   7   8
HETATM    8  C   UNL     1     -11.187  11.631  66.668  1.00  0.00    -0.299 C  
HETATM    9  O   UNL     1     -11.922  11.635  65.690  1.00  0.00    -0.262 OA 
BRANCH   8  10
HETATM   10  C   UNL     1     -11.601  12.141  68.006  1.00  0.00    -0.411 A  
HETATM   11  C   UNL     1     -11.746  11.142  68.992  1.00  0.00    -0.408 A  
HETATM   12  C   UNL     1     -12.064  11.467  70.312  1.00  0.00    -0.459 A  
HETATM   13  C   UNL     1     -12.292  12.794  70.657  1.00  0.00    -0.381 A  
HETATM   14  C   UNL     1     -12.167  13.795  69.694  1.00  0.00    -0.359 A  
HETATM   15  C   UNL     1     -11.768  13.490  68.378  1.00  0.00    -0.393 A  
BRANCH  15  16
HETATM   16  C   UNL     1     -11.633  14.622  67.429  1.00  0.00    -0.389 C  
HETATM   17  O   UNL     1     -12.528  14.772  66.598  1.00  0.00    -0.064 OA 
BRANCH  16  18
HETATM   18  C   UNL     1     -10.515  15.629  67.499  1.00  0.00    -0.285 A  
HETATM   19  C   UNL     1     -10.650  16.661  68.437  1.00  0.00    -0.343 A  
HETATM   20  C   UNL     1      -9.694  17.690  68.541  1.00  0.00    -0.328 A  
HETATM   21  C   UNL     1      -8.572  17.748  67.706  1.00  0.00    -0.237 A  
HETATM   22  O   UNL     1      -9.175  14.689  65.732  1.00  0.00    -0.516 OA 
HETATM   23  C   UNL     1      -8.425  16.682  66.801  1.00  0.00    -0.270 A  
HETATM   24  H   UNL     1      -8.403  14.705  65.179  1.00  0.00     0.000 HD 
HETATM   25  C   UNL     1      -9.379  15.652  66.684  1.00  0.00    -0.265 A  
BRANCH  21  26
HETATM   26  N   UNL     1      -7.643  18.784  67.750  1.00  0.00    -0.228 NA 
BRANCH  26  27
HETATM   27  C   UNL     1      -7.641  19.782  66.668  1.00  0.00    -0.263 C  
HETATM   28  C   UNL     1      -6.779  20.980  67.041  1.00  0.00    -0.409 C  
ENDBRANCH  26  27
BRANCH  26  29
HETATM   29  C   UNL     1      -6.988  19.186  69.003  1.00  0.00    -0.335 C  
HETATM   30  C   UNL     1      -6.018  18.107  69.460  1.00  0.00    -0.247 C  
ENDBRANCH  26  29
ENDBRANCH  21  26
ENDBRANCH  16  18
ENDBRANCH  15  16
ENDBRANCH   8  10
ENDBRANCH   7   8
ENDBRANCH   6   7
ENDBRANCH   5   6
ENDBRANCH   4   5
ENDBRANCH   3   4
ENDBRANCH   2   3
TORSDOF 12
ENDMDL
MODEL      124
REMARK 921   NORMALIZED FREE ENERGY PREDICTED BY IDOCK:   -4.66 KCAL/MOL
REMARK 922        TOTAL FREE ENERGY PREDICTED BY IDOCK:   -9.89 KCAL/MOL
REMARK 923 INTER-LIGAND FREE ENERGY PREDICTED BY IDOCK:   -7.95 KCAL/MOL
REMARK 924 INTRA-LIGAND FREE ENERGY PREDICTED BY IDOCK:   -1.93 KCAL/MOL
REMARK 927      BINDING AFFINITY PREDICTED BY RF-SCORE:    0.00 PKD
ROOT
HETATM    1  C   UNL     1     -13.183  12.562  71.897  1.00  0.00    -0.495 C  
HETATM    2  C   UNL     1     -13.930  13.825  72.300  1.00  0.00    -0.672 C  
ENDROOT
BRANCH   2   3
HETATM    3  C   UNL     1     -13.554  15.003  71.402  1.00  0.00    -0.538 C  
BRANCH   3   4
HETATM    4  C   UNL     1     -12.242  15.664  71.844  1.00  0.00    -0.506 C  
BRANCH   4   5
HETATM    5  C   UNL     1     -11.369  15.991  70.631  1.00  0.00    -0.424 C  
BRANCH   5   6
HETATM    6  C   UNL     1     -11.939  15.486  69.310  1.00  0.00    -0.316 C  
BRANCH   6   7
HETATM    7  O   UNL     1     -11.336  14.293  68.804  1.00  0.00    -0.246 OA 
BRANCH   7   8
HETATM    8  C   UNL     1     -10.911  14.351  67.516  1.00  0.00    -0.293 C  
HETATM    9  O   UNL     1     -11.503  14.886  66.588  1.00  0.00    -0.349 OA 
BRANCH   8  10
HETATM   10  C   UNL     1      -9.470  13.974  67.460  1.00  0.00    -0.221 A  
HETATM   11  C   UNL     1      -8.578  15.035  67.725  1.00  0.00    -0.165 A  
HETATM   12  C   UNL     1      -7.199  14.828  67.775  1.00  0.00    -0.192 A  
HETATM   13  C   UNL     1      -6.685  13.564  67.512  1.00  0.00    -0.144 A  
HETATM   14  C   UNL     1      -7.548  12.505  67.236  1.00  0.00    -0.131 A  
HETATM   15  C   UNL     1      -8.945  12.682  67.260  1.00  0.00    -0.194 A  
BRANCH  15  16
HETATM   16  C   UNL     1      -9.786  11.492  66.983  1.00  0.00    -0.184 C  
HETATM   17  O   UNL     1     -10.321  11.425  65.877  1.00  0.00    -0.236 OA 
BRANCH  16  18
HETATM   18  C   UNL     1      -9.934  10.343  67.945  1.00  0.00    -0.192 A  
HETATM   19  C   UNL     1      -9.365   9.120  67.564  1.00  0.00    -0.157 A  
HETATM   20  C   UNL     1      -9.500   7.966  68.360  1.00  0.00    -0.150 A  
HETATM   21  C   UNL     1     -10.221   7.972  69.559  1.00  0.00    -0.209 A  
HETATM   22  O   UNL     1     -11.221  11.523  69.603  1.00  0.00    -0.348 OA 
HETATM   23  C   UNL     1     -10.748   9.215  69.953  1.00  0.00    -0.246 A  
HETATM   24  H   UNL     1     -11.689  11.544  70.429  1.00  0.00     0.000 HD 
HETATM   25  C   UNL     1     -10.624  10.374  69.161  1.00  0.00    -0.228 A  
BRANCH  21  26
HETATM   26  N   UNL     1     -10.417   6.833  70.336  1.00  0.00    -0.202 NA 
BRANCH  26  27
HETATM   27  C   UNL     1     -10.331   5.512  69.691  1.00  0.00    -0.289 C  
HETATM   28  C   UNL     1      -9.187   4.699  70.281  1.00  0.00    -0.195 C  
ENDBRANCH  26  27
BRANCH  26  29
HETATM   29  C   UNL     1     -10.259   6.852  71.797  1.00  0.00    -0.189 C  
HETATM   30  C   UNL     1     -11.594   6.589  72.475  1.00  0.00    -0.243 C  
ENDBRANCH  26  29
ENDBRANCH  21  26
ENDBRANCH  16  18
ENDBRANCH  15  16
ENDBRANCH   8  10
ENDBRANCH   7   8
ENDBRANCH   6   7
ENDBRANCH   5   6
ENDBRANCH   4   5
ENDBRANCH   3   4
ENDBRANCH   2   3
TORSDOF 12
ENDMDL
MODEL      125
REMARK 921   NORMALIZED FREE ENERGY PREDICTED BY IDOCK:   -4.65 KCAL/MOL
REMARK 922        TOTAL FREE ENERGY PREDICTED BY IDOCK:   -9.88 KCAL/MOL
REMARK 923 INTER-LIGAND FREE ENERGY PREDICTED BY IDOCK:   -7.70 KCAL/MOL
REMARK 924 INTRA-LIGAND FREE ENERGY PREDICTED BY IDOCK:   -2.18 KCAL/MOL
REMARK 927      BINDING AFFINITY PREDICTED BY RF-SCORE:    0.00 PKD
ROOT
HETATM    1  C   UNL     1      -9.956  17.489  69.323  1.00  0.00    -0.107 C  
HETATM    2  C   UNL     1     -10.520  17.094  67.966  1.00  0.00    -0.369 C  
ENDROOT
BRANCH   2   3
HETATM    3  C   UNL     1     -11.453  15.889  68.081  1.00  0.00    -0.281 C  
BRANCH   3   4
HETATM    4  C   UNL     1     -11.298  15.170  69.427  1.00  0.00    -0.307 C  
BRANCH   4   5
HETATM    5  C   UNL     1     -12.057  13.842  69.418  1.00  0.00    -0.377 C  
BRANCH   5   6
HETATM    6  C   UNL     1     -12.018  13.121  68.075  1.00  0.00    -0.304 C  
BRANCH   6   7
HETATM    7  O   UNL     1     -11.107  12.023  68.000  1.00  0.00    -0.213 OA 
BRANCH   7   8
HETATM    8  C   UNL     1      -9.905  12.297  67.431  1.00  0.00    -0.198 C  
HETATM    9  O   UNL     1      -8.967  12.866  67.971  1.00  0.00    -0.183 OA 
BRANCH   8  10
HETATM   10  C   UNL     1      -9.769  11.506  66.174  1.00  0.00    -0.249 A  
HETATM   11  C   UNL     1     -10.386  12.090  65.047  1.00  0.00    -0.318 A  
HETATM   12  C   UNL     1     -10.291  11.506  63.784  1.00  0.00    -0.450 A  
HETATM   13  C   UNL     1      -9.617  10.300  63.634  1.00  0.00    -0.334 A  
HETATM   14  C   UNL     1      -9.012   9.699  64.737  1.00  0.00    -0.268 A  
HETATM   15  C   UNL     1      -9.032  10.318  66.002  1.00  0.00    -0.173 A  
BRANCH  15  16
HETATM   16  C   UNL     1      -8.337   9.620  67.111  1.00  0.00    -0.121 C  
HETATM   17  O   UNL     1      -7.118   9.480  67.014  1.00  0.00    -0.084 OA 
BRANCH  16  18
HETATM   18  C   UNL     1      -9.033   9.167  68.368  1.00  0.00    -0.133 A  
HETATM   19  C   UNL     1      -9.989   8.152  68.231  1.00  0.00    -0.212 A  
HETATM   20  C   UNL     1     -10.743   7.699  69.330  1.00  0.00    -0.188 A  
HETATM   21  C   UNL     1     -10.594   8.247  70.610  1.00  0.00    -0.215 A  
HETATM   22  O   UNL     1      -7.940  10.701  69.869  1.00  0.00    -0.365 OA 
HETATM   23  C   UNL     1      -9.600   9.232  70.743  1.00  0.00    -0.341 A  
HETATM   24  H   UNL     1      -7.812  11.061  70.738  1.00  0.00     0.000 HD 
HETATM   25  C   UNL     1      -8.844   9.697  69.648  1.00  0.00    -0.201 A  
BRANCH  21  26
HETATM   26  N   UNL     1     -11.366   7.857  71.701  1.00  0.00    -0.251 NA 
BRANCH  26  27
HETATM   27  C   UNL     1     -12.545   7.006  71.467  1.00  0.00    -0.385 C  
HETATM   28  C   UNL     1     -13.822   7.834  71.496  1.00  0.00    -0.439 C  
ENDBRANCH  26  27
BRANCH  26  29
HETATM   29  C   UNL     1     -10.834   7.865  73.071  1.00  0.00    -0.342 C  
HETATM   30  C   UNL     1     -10.539   6.445  73.530  1.00  0.00    -0.297 C  
ENDBRANCH  26  29
ENDBRANCH  21  26
ENDBRANCH  16  18
ENDBRANCH  15  16
ENDBRANCH   8  10
ENDBRANCH   7   8
ENDBRANCH   6   7
ENDBRANCH   5   6
ENDBRANCH   4   5
ENDBRANCH   3   4
ENDBRANCH   2   3
TORSDOF 12
ENDMDL
MODEL      126
REMARK 921   NORMALIZED FREE ENERGY PREDICTED BY IDOCK:   -4.65 KCAL/MOL
REMARK 922        TOTAL FREE ENERGY PREDICTED BY IDOCK:   -9.88 KCAL/MOL
REMARK 923 INTER-LIGAND FREE ENERGY PREDICTED BY IDOCK:   -7.61 KCAL/MOL
REMARK 924 INTRA-LIGAND FREE ENERGY PREDICTED BY IDOCK:   -2.27 KCAL/MOL
REMARK 927      BINDING AFFINITY PREDICTED BY RF-SCORE:    0.00 PKD
ROOT
HETATM    1  C   UNL     1     -11.010   6.509  67.177  1.00  0.00    -0.480 C  
HETATM    2  C   UNL     1     -10.629   7.956  66.903  1.00  0.00    -0.333 C  
ENDROOT
BRANCH   2   3
HETATM    3  C   UNL     1     -10.330   8.708  68.200  1.00  0.00    -0.267 C  
BRANCH   3   4
HETATM    4  C   UNL     1     -11.166   9.988  68.326  1.00  0.00    -0.195 C  
BRANCH   4   5
HETATM    5  C   UNL     1     -11.185  10.477  69.776  1.00  0.00    -0.361 C  
BRANCH   5   6
HETATM    6  C   UNL     1     -12.005  11.746  69.986  1.00  0.00    -0.344 C  
BRANCH   6   7
HETATM    7  O   UNL     1     -11.353  12.960  69.608  1.00  0.00    -0.201 OA 
BRANCH   7   8
HETATM    8  C   UNL     1     -12.132  14.072  69.625  1.00  0.00    -0.355 C  
HETATM    9  O   UNL     1     -12.990  14.336  70.457  1.00  0.00    -0.331 OA 
BRANCH   8  10
HETATM   10  C   UNL     1     -11.561  15.082  68.688  1.00  0.00    -0.347 A  
HETATM   11  C   UNL     1     -11.262  16.326  69.283  1.00  0.00    -0.312 A  
HETATM   12  C   UNL     1     -10.661  17.352  68.553  1.00  0.00    -0.340 A  
HETATM   13  C   UNL     1     -10.394  17.169  67.202  1.00  0.00    -0.307 A  
HETATM   14  C   UNL     1     -10.694  15.952  66.592  1.00  0.00    -0.270 A  
HETATM   15  C   UNL     1     -11.227  14.880  67.335  1.00  0.00    -0.343 A  
BRANCH  15  16
HETATM   16  C   UNL     1     -11.488  13.613  66.608  1.00  0.00    -0.343 C  
HETATM   17  O   UNL     1     -12.643  13.399  66.244  1.00  0.00    -0.333 OA 
BRANCH  16  18
HETATM   18  C   UNL     1     -10.402  12.642  66.226  1.00  0.00    -0.269 A  
HETATM   19  C   UNL     1     -10.605  11.890  65.061  1.00  0.00    -0.335 A  
HETATM   20  C   UNL     1      -9.684  10.909  64.648  1.00  0.00    -0.333 A  
HETATM   21  C   UNL     1      -8.528  10.620  65.383  1.00  0.00    -0.160 A  
HETATM   22  O   UNL     1      -8.959  13.072  68.106  1.00  0.00    -0.191 OA 
HETATM   23  C   UNL     1      -8.312  11.413  66.524  1.00  0.00    -0.164 A  
HETATM   24  H   UNL     1      -8.165  12.902  68.597  1.00  0.00     0.000 HD 
HETATM   25  C   UNL     1      -9.232  12.392  66.950  1.00  0.00    -0.209 A  
BRANCH  21  26
HETATM   26  N   UNL     1      -7.630   9.617  65.027  1.00  0.00    -0.111 NA 
BRANCH  26  27
HETATM   27  C   UNL     1      -7.427   9.322  63.599  1.00  0.00    -0.106 C  
HETATM   28  C   UNL     1      -7.972   7.944  63.251  1.00  0.00    -0.125 C  
ENDBRANCH  26  27
BRANCH  26  29
HETATM   29  C   UNL     1      -6.571   9.164  65.940  1.00  0.00    -0.071 C  
HETATM   30  C   UNL     1      -7.064   7.994  66.778  1.00  0.00    -0.081 C  
ENDBRANCH  26  29
ENDBRANCH  21  26
ENDBRANCH  16  18
ENDBRANCH  15  16
ENDBRANCH   8  10
ENDBRANCH   7   8
ENDBRANCH   6   7
ENDBRANCH   5   6
ENDBRANCH   4   5
ENDBRANCH   3   4
ENDBRANCH   2   3
TORSDOF 12
ENDMDL
MODEL      127
REMARK 921   NORMALIZED FREE ENERGY PREDICTED BY IDOCK:   -4.64 KCAL/MOL
REMARK 922        TOTAL FREE ENERGY PREDICTED BY IDOCK:   -9.87 KCAL/MOL
REMARK 923 INTER-LIGAND FREE ENERGY PREDICTED BY IDOCK:   -8.32 KCAL/MOL
REMARK 924 INTRA-LIGAND FREE ENERGY PREDICTED BY IDOCK:   -1.54 KCAL/MOL
REMARK 927      BINDING AFFINITY PREDICTED BY RF-SCORE:    0.00 PKD
ROOT
HETATM    1  C   UNL     1      -7.738   6.275  63.211  1.00  0.00    -0.098 C  
HETATM    2  C   UNL     1      -7.551   7.747  62.878  1.00  0.00    -0.125 C  
ENDROOT
BRANCH   2   3
HETATM    3  C   UNL     1      -6.630   8.433  63.887  1.00  0.00    -0.075 C  
BRANCH   3   4
HETATM    4  C   UNL     1      -6.915   9.936  63.994  1.00  0.00    -0.125 C  
BRANCH   4   5
HETATM    5  C   UNL     1      -6.372  10.494  65.311  1.00  0.00    -0.080 C  
BRANCH   5   6
HETATM    6  C   UNL     1      -7.335  10.347  66.484  1.00  0.00    -0.119 C  
BRANCH   6   7
HETATM    7  O   UNL     1      -8.580  11.032  66.339  1.00  0.00    -0.155 OA 
BRANCH   7   8
HETATM    8  C   UNL     1      -9.688  10.249  66.383  1.00  0.00    -0.201 C  
HETATM    9  O   UNL     1      -9.918   9.287  65.663  1.00  0.00    -0.277 OA 
BRANCH   8  10
HETATM   10  C   UNL     1     -10.424  10.515  67.653  1.00  0.00    -0.276 A  
HETATM   11  C   UNL     1     -10.167   9.584  68.682  1.00  0.00    -0.215 A  
HETATM   12  C   UNL     1     -10.728   9.733  69.950  1.00  0.00    -0.303 A  
HETATM   13  C   UNL     1     -11.595  10.790  70.198  1.00  0.00    -0.424 A  
HETATM   14  C   UNL     1     -11.872  11.714  69.191  1.00  0.00    -0.390 A  
HETATM   15  C   UNL     1     -11.251  11.621  67.931  1.00  0.00    -0.334 A  
BRANCH  15  16
HETATM   16  C   UNL     1     -11.583  12.665  66.930  1.00  0.00    -0.373 C  
HETATM   17  O   UNL     1     -12.405  12.373  66.062  1.00  0.00    -0.627 OA 
BRANCH  16  18
HETATM   18  C   UNL     1     -11.036  14.067  66.987  1.00  0.00    -0.302 A  
HETATM   19  C   UNL     1     -10.002  14.381  66.095  1.00  0.00    -0.328 A  
HETATM   20  C   UNL     1      -9.377  15.642  66.108  1.00  0.00    -0.382 A  
HETATM   21  C   UNL     1      -9.738  16.641  67.019  1.00  0.00    -0.249 A  
HETATM   22  O   UNL     1     -12.429  14.843  68.792  1.00  0.00    -0.584 OA 
HETATM   23  C   UNL     1     -10.807  16.330  67.878  1.00  0.00    -0.330 A  
HETATM   24  H   UNL     1     -12.699  15.523  69.397  1.00  0.00     0.000 HD 
HETATM   25  C   UNL     1     -11.435  15.068  67.878  1.00  0.00    -0.340 A  
BRANCH  21  26
HETATM   26  N   UNL     1      -9.098  17.875  67.090  1.00  0.00    -0.247 NA 
BRANCH  26  27
HETATM   27  C   UNL     1      -9.875  19.055  67.503  1.00  0.00    -0.324 C  
HETATM   28  C   UNL     1     -10.075  20.005  66.331  1.00  0.00    -0.609 C  
ENDBRANCH  26  27
BRANCH  26  29
HETATM   29  C   UNL     1      -7.637  17.986  67.215  1.00  0.00    -0.200 C  
HETATM   30  C   UNL     1      -7.171  17.361  68.521  1.00  0.00    -0.230 C  
ENDBRANCH  26  29
ENDBRANCH  21  26
ENDBRANCH  16  18
ENDBRANCH  15  16
ENDBRANCH   8  10
ENDBRANCH   7   8
ENDBRANCH   6   7
ENDBRANCH   5   6
ENDBRANCH   4   5
ENDBRANCH   3   4
ENDBRANCH   2   3
TORSDOF 12
ENDMDL
MODEL      128
REMARK 921   NORMALIZED FREE ENERGY PREDICTED BY IDOCK:   -4.61 KCAL/MOL
REMARK 922        TOTAL FREE ENERGY PREDICTED BY IDOCK:   -9.81 KCAL/MOL
REMARK 923 INTER-LIGAND FREE ENERGY PREDICTED BY IDOCK:   -7.44 KCAL/MOL
REMARK 924 INTRA-LIGAND FREE ENERGY PREDICTED BY IDOCK:   -2.36 KCAL/MOL
REMARK 927      BINDING AFFINITY PREDICTED BY RF-SCORE:    0.00 PKD
ROOT
HETATM    1  C   UNL     1     -12.045  14.387  64.210  1.00  0.00    -0.461 C  
HETATM    2  C   UNL     1     -12.748  13.585  65.296  1.00  0.00    -0.481 C  
ENDROOT
BRANCH   2   3
HETATM    3  C   UNL     1     -12.263  13.988  66.687  1.00  0.00    -0.463 C  
BRANCH   3   4
HETATM    4  C   UNL     1     -11.935  12.767  67.556  1.00  0.00    -0.342 C  
BRANCH   4   5
HETATM    5  C   UNL     1     -11.929  13.147  69.038  1.00  0.00    -0.329 C  
BRANCH   5   6
HETATM    6  C   UNL     1     -11.802  11.953  69.978  1.00  0.00    -0.328 C  
BRANCH   6   7
HETATM    7  O   UNL     1     -11.469  10.715  69.347  1.00  0.00    -0.250 OA 
BRANCH   7   8
HETATM    8  C   UNL     1     -10.166  10.346  69.434  1.00  0.00    -0.234 C  
HETATM    9  O   UNL     1      -9.624   9.846  70.411  1.00  0.00    -0.218 OA 
BRANCH   8  10
HETATM   10  C   UNL     1      -9.574  10.317  68.066  1.00  0.00    -0.159 A  
HETATM   11  C   UNL     1     -10.211   9.430  67.173  1.00  0.00    -0.319 A  
HETATM   12  C   UNL     1      -9.817   9.337  65.838  1.00  0.00    -0.335 A  
HETATM   13  C   UNL     1      -8.745  10.097  65.384  1.00  0.00    -0.176 A  
HETATM   14  C   UNL     1      -8.093  10.970  66.254  1.00  0.00    -0.159 A  
HETATM   15  C   UNL     1      -8.531  11.132  67.583  1.00  0.00    -0.122 A  
BRANCH  15  16
HETATM   16  C   UNL     1      -7.796  12.105  68.427  1.00  0.00    -0.149 C  
HETATM   17  O   UNL     1      -6.965  11.654  69.215  1.00  0.00    -0.110 OA 
BRANCH  16  18
HETATM   18  C   UNL     1      -7.955  13.597  68.297  1.00  0.00    -0.150 A  
HETATM   19  C   UNL     1      -8.643  14.065  67.170  1.00  0.00    -0.220 A  
HETATM   20  C   UNL     1      -8.793  15.442  66.918  1.00  0.00    -0.281 A  
HETATM   21  C   UNL     1      -8.251  16.415  67.766  1.00  0.00    -0.154 A  
HETATM   22  O   UNL     1      -6.746  14.188  70.294  1.00  0.00    -0.381 OA 
HETATM   23  C   UNL     1      -7.603  15.933  68.918  1.00  0.00    -0.190 A  
HETATM   24  H   UNL     1      -6.398  14.840  70.890  1.00  0.00     0.000 HD 
HETATM   25  C   UNL     1      -7.442  14.557  69.175  1.00  0.00    -0.118 A  
BRANCH  21  26
HETATM   26  N   UNL     1      -8.336  17.781  67.511  1.00  0.00    -0.224 NA 
BRANCH  26  27
HETATM   27  C   UNL     1      -9.302  18.587  68.276  1.00  0.00    -0.327 C  
HETATM   28  C   UNL     1     -10.510  17.749  68.669  1.00  0.00    -0.295 C  
ENDBRANCH  26  27
BRANCH  26  29
HETATM   29  C   UNL     1      -7.240  18.521  66.870  1.00  0.00    -0.209 C  
HETATM   30  C   UNL     1      -6.552  19.426  67.881  1.00  0.00    -0.258 C  
ENDBRANCH  26  29
ENDBRANCH  21  26
ENDBRANCH  16  18
ENDBRANCH  15  16
ENDBRANCH   8  10
ENDBRANCH   7   8
ENDBRANCH   6   7
ENDBRANCH   5   6
ENDBRANCH   4   5
ENDBRANCH   3   4
ENDBRANCH   2   3
TORSDOF 12
ENDMDL
MODEL      129
REMARK 921   NORMALIZED FREE ENERGY PREDICTED BY IDOCK:   -4.60 KCAL/MOL
REMARK 922        TOTAL FREE ENERGY PREDICTED BY IDOCK:   -9.79 KCAL/MOL
REMARK 923 INTER-LIGAND FREE ENERGY PREDICTED BY IDOCK:   -7.90 KCAL/MOL
REMARK 924 INTRA-LIGAND FREE ENERGY PREDICTED BY IDOCK:   -1.89 KCAL/MOL
REMARK 927      BINDING AFFINITY PREDICTED BY RF-SCORE:    0.00 PKD
ROOT
HETATM    1  C   UNL     1      -6.084   6.730  70.157  1.00  0.00    -0.024 C  
HETATM    2  C   UNL     1      -6.697   6.402  68.804  1.00  0.00    -0.061 C  
ENDROOT
BRANCH   2   3
HETATM    3  C   UNL     1      -7.309   7.643  68.155  1.00  0.00    -0.099 C  
BRANCH   3   4
HETATM    4  C   UNL     1      -6.673   8.937  68.679  1.00  0.00    -0.059 C  
BRANCH   4   5
HETATM    5  C   UNL     1      -6.008   9.710  67.538  1.00  0.00    -0.051 C  
BRANCH   5   6
HETATM    6  C   UNL     1      -6.998  10.357  66.576  1.00  0.00    -0.112 C  
BRANCH   6   7
HETATM    7  O   UNL     1      -8.045  11.107  67.195  1.00  0.00    -0.127 OA 
BRANCH   7   8
HETATM    8  C   UNL     1      -9.290  10.899  66.693  1.00  0.00    -0.171 C  
HETATM    9  O   UNL     1      -9.553  10.409  65.604  1.00  0.00    -0.196 OA 
BRANCH   8  10
HETATM   10  C   UNL     1     -10.288  11.034  67.793  1.00  0.00    -0.218 A  
HETATM   11  C   UNL     1     -10.040  10.208  68.910  1.00  0.00    -0.211 A  
HETATM   12  C   UNL     1     -10.846  10.267  70.048  1.00  0.00    -0.364 A  
HETATM   13  C   UNL     1     -11.944  11.119  70.069  1.00  0.00    -0.447 A  
HETATM   14  C   UNL     1     -12.214  11.934  68.970  1.00  0.00    -0.103 A  
HETATM   15  C   UNL     1     -11.363  11.943  67.847  1.00  0.00    -0.358 A  
BRANCH  15  16
HETATM   16  C   UNL     1     -11.712  12.863  66.737  1.00  0.00    -0.383 C  
HETATM   17  O   UNL     1     -12.530  12.464  65.909  1.00  0.00    -0.583 OA 
BRANCH  16  18
HETATM   18  C   UNL     1     -11.186  14.271  66.636  1.00  0.00    -0.337 A  
HETATM   19  C   UNL     1     -10.836  14.904  67.836  1.00  0.00    -0.276 A  
HETATM   20  C   UNL     1     -10.395  16.241  67.861  1.00  0.00    -0.285 A  
HETATM   21  C   UNL     1     -10.299  17.013  66.697  1.00  0.00    -0.299 A  
HETATM   22  O   UNL     1     -11.391  14.481  64.246  1.00  0.00    -0.598 OA 
HETATM   23  C   UNL     1     -10.610  16.353  65.495  1.00  0.00    -0.346 A  
HETATM   24  H   UNL     1     -11.304  14.988  63.448  1.00  0.00     0.000 HD 
HETATM   25  C   UNL     1     -11.059  15.017  65.460  1.00  0.00    -0.357 A  
BRANCH  21  26
HETATM   26  N   UNL     1      -9.920  18.353  66.701  1.00  0.00    -0.347 NA 
BRANCH  26  27
HETATM   27  C   UNL     1     -10.638  19.291  67.580  1.00  0.00    -0.447 C  
HETATM   28  C   UNL     1      -9.774  19.680  68.772  1.00  0.00    -0.488 C  
ENDBRANCH  26  27
BRANCH  26  29
HETATM   29  C   UNL     1      -8.595  18.786  66.237  1.00  0.00    -0.234 C  
HETATM   30  C   UNL     1      -7.574  17.679  66.453  1.00  0.00    -0.322 C  
ENDBRANCH  26  29
ENDBRANCH  21  26
ENDBRANCH  16  18
ENDBRANCH  15  16
ENDBRANCH   8  10
ENDBRANCH   7   8
ENDBRANCH   6   7
ENDBRANCH   5   6
ENDBRANCH   4   5
ENDBRANCH   3   4
ENDBRANCH   2   3
TORSDOF 12
ENDMDL
MODEL      130
REMARK 921   NORMALIZED FREE ENERGY PREDICTED BY IDOCK:   -4.58 KCAL/MOL
REMARK 922        TOTAL FREE ENERGY PREDICTED BY IDOCK:   -9.76 KCAL/MOL
REMARK 923 INTER-LIGAND FREE ENERGY PREDICTED BY IDOCK:   -7.95 KCAL/MOL
REMARK 924 INTRA-LIGAND FREE ENERGY PREDICTED BY IDOCK:   -1.82 KCAL/MOL
REMARK 927      BINDING AFFINITY PREDICTED BY RF-SCORE:    0.00 PKD
ROOT
HETATM    1  C   UNL     1     -13.723  15.146  71.424  1.00  0.00    -0.577 C  
HETATM    2  C   UNL     1     -12.489  15.762  72.067  1.00  0.00    -0.531 C  
ENDROOT
BRANCH   2   3
HETATM    3  C   UNL     1     -11.270  15.647  71.154  1.00  0.00    -0.409 C  
BRANCH   3   4
HETATM    4  C   UNL     1     -11.523  14.696  69.977  1.00  0.00    -0.313 C  
BRANCH   4   5
HETATM    5  C   UNL     1     -11.614  15.477  68.664  1.00  0.00    -0.379 C  
BRANCH   5   6
HETATM    6  C   UNL     1     -11.900  14.603  67.448  1.00  0.00    -0.348 C  
BRANCH   6   7
HETATM    7  O   UNL     1     -10.978  13.532  67.239  1.00  0.00    -0.273 OA 
BRANCH   7   8
HETATM    8  C   UNL     1     -10.106  13.701  66.213  1.00  0.00    -0.299 C  
HETATM    9  O   UNL     1     -10.403  13.914  65.045  1.00  0.00    -0.370 OA 
BRANCH   8  10
HETATM   10  C   UNL     1      -8.740  13.933  66.765  1.00  0.00    -0.119 A  
HETATM   11  C   UNL     1      -8.413  15.291  66.961  1.00  0.00    -0.258 A  
HETATM   12  C   UNL     1      -7.197  15.668  67.533  1.00  0.00    -0.219 A  
HETATM   13  C   UNL     1      -6.267  14.694  67.874  1.00  0.00    -0.171 A  
HETATM   14  C   UNL     1      -6.566  13.347  67.677  1.00  0.00    -0.174 A  
HETATM   15  C   UNL     1      -7.820  12.948  67.175  1.00  0.00    -0.084 A  
BRANCH  15  16
HETATM   16  C   UNL     1      -8.061  11.492  67.025  1.00  0.00    -0.161 C  
HETATM   17  O   UNL     1      -7.519  10.925  66.077  1.00  0.00    -0.145 OA 
BRANCH  16  18
HETATM   18  C   UNL     1      -8.849  10.679  68.019  1.00  0.00    -0.130 A  
HETATM   19  C   UNL     1     -10.064  10.141  67.574  1.00  0.00    -0.244 A  
HETATM   20  C   UNL     1     -10.910   9.420  68.439  1.00  0.00    -0.156 A  
HETATM   21  C   UNL     1     -10.593   9.216  69.787  1.00  0.00    -0.229 A  
HETATM   22  O   UNL     1      -7.338  10.950  69.874  1.00  0.00    -0.336 OA 
HETATM   23  C   UNL     1      -9.351   9.721  70.209  1.00  0.00    -0.236 A  
HETATM   24  H   UNL     1      -7.101  10.794  70.780  1.00  0.00     0.000 HD 
HETATM   25  C   UNL     1      -8.501  10.450  69.353  1.00  0.00    -0.134 A  
BRANCH  21  26
HETATM   26  N   UNL     1     -11.437   8.556  70.676  1.00  0.00    -0.260 NA 
BRANCH  26  27
HETATM   27  C   UNL     1     -10.893   7.452  71.484  1.00  0.00    -0.224 C  
HETATM   28  C   UNL     1     -11.036   7.751  72.970  1.00  0.00    -0.419 C  
ENDBRANCH  26  27
BRANCH  26  29
HETATM   29  C   UNL     1     -12.678   9.170  71.171  1.00  0.00    -0.213 C  
HETATM   30  C   UNL     1     -12.537  10.684  71.208  1.00  0.00    -0.533 C  
ENDBRANCH  26  29
ENDBRANCH  21  26
ENDBRANCH  16  18
ENDBRANCH  15  16
ENDBRANCH   8  10
ENDBRANCH   7   8
ENDBRANCH   6   7
ENDBRANCH   5   6
ENDBRANCH   4   5
ENDBRANCH   3   4
ENDBRANCH   2   3
TORSDOF 12
ENDMDL
MODEL      131
REMARK 921   NORMALIZED FREE ENERGY PREDICTED BY IDOCK:   -4.58 KCAL/MOL
REMARK 922        TOTAL FREE ENERGY PREDICTED BY IDOCK:   -9.75 KCAL/MOL
REMARK 923 INTER-LIGAND FREE ENERGY PREDICTED BY IDOCK:   -8.10 KCAL/MOL
REMARK 924 INTRA-LIGAND FREE ENERGY PREDICTED BY IDOCK:   -1.65 KCAL/MOL
REMARK 927      BINDING AFFINITY PREDICTED BY RF-SCORE:    0.00 PKD
ROOT
HETATM    1  C   UNL     1     -13.061  11.513  71.646  1.00  0.00    -0.478 C  
HETATM    2  C   UNL     1     -13.268  10.037  71.950  1.00  0.00    -0.557 C  
ENDROOT
BRANCH   2   3
HETATM    3  C   UNL     1     -11.953   9.263  71.871  1.00  0.00    -0.433 C  
BRANCH   3   4
HETATM    4  C   UNL     1     -12.159   7.833  71.356  1.00  0.00    -0.335 C  
BRANCH   4   5
HETATM    5  C   UNL     1     -11.188   6.869  72.040  1.00  0.00    -0.292 C  
BRANCH   5   6
HETATM    6  C   UNL     1      -9.749   6.994  71.550  1.00  0.00    -0.165 C  
BRANCH   6   7
HETATM    7  O   UNL     1      -9.605   7.341  70.171  1.00  0.00    -0.168 OA 
BRANCH   7   8
HETATM    8  C   UNL     1      -8.856   8.445  69.920  1.00  0.00    -0.137 C  
HETATM    9  O   UNL     1      -8.665   9.374  70.692  1.00  0.00    -0.223 OA 
BRANCH   8  10
HETATM   10  C   UNL     1      -8.023   8.205  68.706  1.00  0.00    -0.115 A  
HETATM   11  C   UNL     1      -6.682   7.859  68.978  1.00  0.00    -0.049 A  
HETATM   12  C   UNL     1      -5.794   7.539  67.950  1.00  0.00    -0.035 A  
HETATM   13  C   UNL     1      -6.220   7.606  66.629  1.00  0.00    -0.045 A  
HETATM   14  C   UNL     1      -7.538   7.957  66.339  1.00  0.00    -0.091 A  
HETATM   15  C   UNL     1      -8.466   8.206  67.369  1.00  0.00    -0.126 A  
BRANCH  15  16
HETATM   16  C   UNL     1      -9.853   8.544  66.967  1.00  0.00    -0.224 C  
HETATM   17  O   UNL     1     -10.685   7.638  66.994  1.00  0.00    -0.348 OA 
BRANCH  16  18
HETATM   18  C   UNL     1     -10.295   9.943  66.624  1.00  0.00    -0.275 A  
HETATM   19  C   UNL     1      -9.685  10.547  65.517  1.00  0.00    -0.298 A  
HETATM   20  C   UNL     1      -9.978  11.873  65.148  1.00  0.00    -0.276 A  
HETATM   21  C   UNL     1     -10.878  12.664  65.873  1.00  0.00    -0.270 A  
HETATM   22  O   UNL     1     -11.861  10.199  68.436  1.00  0.00    -0.676 OA 
HETATM   23  C   UNL     1     -11.518  12.031  66.953  1.00  0.00    -0.402 A  
HETATM   24  H   UNL     1     -12.494  10.718  68.918  1.00  0.00     0.000 HD 
HETATM   25  C   UNL     1     -11.227  10.706  67.334  1.00  0.00    -0.205 A  
BRANCH  21  26
HETATM   26  N   UNL     1     -11.143  13.995  65.562  1.00  0.00    -0.302 NA 
BRANCH  26  27
HETATM   27  C   UNL     1     -10.103  15.005  65.821  1.00  0.00    -0.340 C  
HETATM   28  C   UNL     1     -10.591  16.034  66.831  1.00  0.00    -0.300 C  
ENDBRANCH  26  27
BRANCH  26  29
HETATM   29  C   UNL     1     -12.189  14.375  64.603  1.00  0.00    -0.464 C  
HETATM   30  C   UNL     1     -12.248  13.369  63.463  1.00  0.00    -0.468 C  
ENDBRANCH  26  29
ENDBRANCH  21  26
ENDBRANCH  16  18
ENDBRANCH  15  16
ENDBRANCH   8  10
ENDBRANCH   7   8
ENDBRANCH   6   7
ENDBRANCH   5   6
ENDBRANCH   4   5
ENDBRANCH   3   4
ENDBRANCH   2   3
TORSDOF 12
ENDMDL
MODEL      132
REMARK 921   NORMALIZED FREE ENERGY PREDICTED BY IDOCK:   -4.57 KCAL/MOL
REMARK 922        TOTAL FREE ENERGY PREDICTED BY IDOCK:   -9.74 KCAL/MOL
REMARK 923 INTER-LIGAND FREE ENERGY PREDICTED BY IDOCK:   -7.32 KCAL/MOL
REMARK 924 INTRA-LIGAND FREE ENERGY PREDICTED BY IDOCK:   -2.42 KCAL/MOL
REMARK 927      BINDING AFFINITY PREDICTED BY RF-SCORE:    0.00 PKD
ROOT
HETATM    1  C   UNL     1     -10.365  11.779  63.549  1.00  0.00    -0.490 C  
HETATM    2  C   UNL     1     -11.579  12.690  63.441  1.00  0.00    -0.536 C  
ENDROOT
BRANCH   2   3
HETATM    3  C   UNL     1     -12.466  12.583  64.681  1.00  0.00    -0.539 C  
BRANCH   3   4
HETATM    4  C   UNL     1     -11.664  12.762  65.977  1.00  0.00    -0.470 C  
BRANCH   4   5
HETATM    5  C   UNL     1     -12.245  13.901  66.817  1.00  0.00    -0.438 C  
BRANCH   5   6
HETATM    6  C   UNL     1     -12.034  13.727  68.317  1.00  0.00    -0.357 C  
BRANCH   6   7
HETATM    7  O   UNL     1     -10.690  13.907  68.767  1.00  0.00    -0.255 OA 
BRANCH   7   8
HETATM    8  C   UNL     1     -10.373  15.160  69.180  1.00  0.00    -0.249 C  
HETATM    9  O   UNL     1     -10.592  15.629  70.288  1.00  0.00    -0.316 OA 
BRANCH   8  10
HETATM   10  C   UNL     1      -9.416  15.767  68.209  1.00  0.00    -0.200 A  
HETATM   11  C   UNL     1      -9.943  16.848  67.470  1.00  0.00    -0.268 A  
HETATM   12  C   UNL     1      -9.152  17.563  66.570  1.00  0.00    -0.284 A  
HETATM   13  C   UNL     1      -7.834  17.178  66.357  1.00  0.00    -0.352 A  
HETATM   14  C   UNL     1      -7.299  16.104  67.067  1.00  0.00    -0.266 A  
HETATM   15  C   UNL     1      -8.061  15.424  68.037  1.00  0.00    -0.143 A  
BRANCH  15  16
HETATM   16  C   UNL     1      -7.400  14.313  68.765  1.00  0.00    -0.131 C  
HETATM   17  O   UNL     1      -6.824  14.591  69.815  1.00  0.00    -0.154 OA 
BRANCH  16  18
HETATM   18  C   UNL     1      -7.483  12.874  68.327  1.00  0.00    -0.125 A  
HETATM   19  C   UNL     1      -8.005  12.630  67.050  1.00  0.00    -0.063 A  
HETATM   20  C   UNL     1      -8.186  11.319  66.567  1.00  0.00    -0.165 A  
HETATM   21  C   UNL     1      -7.871  10.194  67.339  1.00  0.00    -0.102 A  
HETATM   22  O   UNL     1      -6.620  11.908  70.357  1.00  0.00    -0.496 OA 
HETATM   23  C   UNL     1      -7.305  10.453  68.599  1.00  0.00    -0.085 A  
HETATM   24  H   UNL     1      -6.378  11.152  70.878  1.00  0.00     0.000 HD 
HETATM   25  C   UNL     1      -7.126  11.761  69.094  1.00  0.00    -0.071 A  
BRANCH  21  26
HETATM   26  N   UNL     1      -8.092   8.889  66.907  1.00  0.00    -0.108 NA 
BRANCH  26  27
HETATM   27  C   UNL     1      -9.312   8.193  67.348  1.00  0.00    -0.141 C  
HETATM   28  C   UNL     1     -10.496   9.150  67.380  1.00  0.00    -0.339 C  
ENDBRANCH  26  27
BRANCH  26  29
HETATM   29  C   UNL     1      -7.431   8.344  65.713  1.00  0.00    -0.077 C  
HETATM   30  C   UNL     1      -8.396   8.328  64.538  1.00  0.00    -0.097 C  
ENDBRANCH  26  29
ENDBRANCH  21  26
ENDBRANCH  16  18
ENDBRANCH  15  16
ENDBRANCH   8  10
ENDBRANCH   7   8
ENDBRANCH   6   7
ENDBRANCH   5   6
ENDBRANCH   4   5
ENDBRANCH   3   4
ENDBRANCH   2   3
TORSDOF 12
ENDMDL
MODEL      133
REMARK 921   NORMALIZED FREE ENERGY PREDICTED BY IDOCK:   -4.52 KCAL/MOL
REMARK 922        TOTAL FREE ENERGY PREDICTED BY IDOCK:   -9.66 KCAL/MOL
REMARK 923 INTER-LIGAND FREE ENERGY PREDICTED BY IDOCK:   -8.98 KCAL/MOL
REMARK 924 INTRA-LIGAND FREE ENERGY PREDICTED BY IDOCK:   -0.69 KCAL/MOL
REMARK 927      BINDING AFFINITY PREDICTED BY RF-SCORE:    0.00 PKD
ROOT
HETATM    1  C   UNL     1     -12.026   6.595  70.818  1.00  0.00    -0.412 C  
HETATM    2  C   UNL     1     -12.863   7.409  71.794  1.00  0.00    -0.365 C  
ENDROOT
BRANCH   2   3
HETATM    3  C   UNL     1     -12.152   8.700  72.195  1.00  0.00    -0.451 C  
BRANCH   3   4
HETATM    4  C   UNL     1     -11.314   9.274  71.046  1.00  0.00    -0.390 C  
BRANCH   4   5
HETATM    5  C   UNL     1     -11.884  10.616  70.582  1.00  0.00    -0.463 C  
BRANCH   5   6
HETATM    6  C   UNL     1     -11.130  11.231  69.408  1.00  0.00    -0.257 C  
BRANCH   6   7
HETATM    7  O   UNL     1     -10.918  12.642  69.493  1.00  0.00    -0.065 OA 
BRANCH   7   8
HETATM    8  C   UNL     1     -11.965  13.416  69.110  1.00  0.00    -0.317 C  
HETATM    9  O   UNL     1     -12.897  13.767  69.821  1.00  0.00    -0.030 OA 
BRANCH   8  10
HETATM   10  C   UNL     1     -11.645  14.059  67.803  1.00  0.00    -0.378 A  
HETATM   11  C   UNL     1     -11.963  13.274  66.674  1.00  0.00    -0.446 A  
HETATM   12  C   UNL     1     -11.785  13.761  65.379  1.00  0.00    -0.346 A  
HETATM   13  C   UNL     1     -11.240  15.026  65.190  1.00  0.00    -0.391 A  
HETATM   14  C   UNL     1     -10.908  15.812  66.293  1.00  0.00    -0.232 A  
HETATM   15  C   UNL     1     -11.156  15.364  67.605  1.00  0.00    -0.316 A  
BRANCH  15  16
HETATM   16  C   UNL     1     -10.797  16.281  68.715  1.00  0.00    -0.317 C  
HETATM   17  O   UNL     1     -11.503  16.250  69.722  1.00  0.00    -0.299 OA 
BRANCH  16  18
HETATM   18  C   UNL     1      -9.576  17.162  68.696  1.00  0.00    -0.281 A  
HETATM   19  C   UNL     1      -9.788  18.535  68.512  1.00  0.00    -0.414 A  
HETATM   20  C   UNL     1      -8.713  19.439  68.415  1.00  0.00    -0.397 A  
HETATM   21  C   UNL     1      -7.380  19.017  68.480  1.00  0.00    -0.306 A  
HETATM   22  O   UNL     1      -7.952  15.405  68.972  1.00  0.00    -0.166 OA 
HETATM   23  C   UNL     1      -7.181  17.645  68.711  1.00  0.00    -0.268 A  
HETATM   24  H   UNL     1      -7.051  15.113  69.044  1.00  0.00     0.000 HD 
HETATM   25  C   UNL     1      -8.250  16.730  68.803  1.00  0.00    -0.250 A  
BRANCH  21  26
HETATM   26  N   UNL     1      -6.299  19.882  68.330  1.00  0.00    -0.262 NA 
BRANCH  26  27
HETATM   27  C   UNL     1      -6.409  20.997  67.375  1.00  0.00    -0.350 C  
HETATM   28  C   UNL     1      -6.362  20.485  65.942  1.00  0.00    -0.265 C  
ENDBRANCH  26  27
BRANCH  26  29
HETATM   29  C   UNL     1      -5.264  20.016  69.365  1.00  0.00    -0.201 C  
HETATM   30  C   UNL     1      -5.905  20.222  70.729  1.00  0.00    -0.341 C  
ENDBRANCH  26  29
ENDBRANCH  21  26
ENDBRANCH  16  18
ENDBRANCH  15  16
ENDBRANCH   8  10
ENDBRANCH   7   8
ENDBRANCH   6   7
ENDBRANCH   5   6
ENDBRANCH   4   5
ENDBRANCH   3   4
ENDBRANCH   2   3
TORSDOF 12
ENDMDL
MODEL      134
REMARK 921   NORMALIZED FREE ENERGY PREDICTED BY IDOCK:   -4.52 KCAL/MOL
REMARK 922        TOTAL FREE ENERGY PREDICTED BY IDOCK:   -9.66 KCAL/MOL
REMARK 923 INTER-LIGAND FREE ENERGY PREDICTED BY IDOCK:   -7.88 KCAL/MOL
REMARK 924 INTRA-LIGAND FREE ENERGY PREDICTED BY IDOCK:   -1.78 KCAL/MOL
REMARK 927      BINDING AFFINITY PREDICTED BY RF-SCORE:    0.00 PKD
ROOT
HETATM    1  C   UNL     1     -11.322  16.079  64.507  1.00  0.00    -0.303 C  
HETATM    2  C   UNL     1     -11.036  14.613  64.798  1.00  0.00    -0.399 C  
ENDROOT
BRANCH   2   3
HETATM    3  C   UNL     1     -12.033  13.700  64.086  1.00  0.00    -0.488 C  
BRANCH   3   4
HETATM    4  C   UNL     1     -12.450  12.513  64.963  1.00  0.00    -0.494 C  
BRANCH   4   5
HETATM    5  C   UNL     1     -11.817  12.621  66.352  1.00  0.00    -0.466 C  
BRANCH   5   6
HETATM    6  C   UNL     1     -11.101  11.352  66.801  1.00  0.00    -0.281 C  
BRANCH   6   7
HETATM    7  O   UNL     1     -11.598  10.768  68.007  1.00  0.00    -0.470 OA 
BRANCH   7   8
HETATM    8  C   UNL     1     -10.758  10.819  69.072  1.00  0.00    -0.228 C  
HETATM    9  O   UNL     1      -9.789  11.557  69.189  1.00  0.00    -0.061 OA 
BRANCH   8  10
HETATM   10  C   UNL     1     -11.380  10.097  70.220  1.00  0.00    -0.387 A  
HETATM   11  C   UNL     1     -12.634  10.607  70.618  1.00  0.00    -0.454 A  
HETATM   12  C   UNL     1     -13.374   9.999  71.634  1.00  0.00    -0.468 A  
HETATM   13  C   UNL     1     -12.849   8.899  72.301  1.00  0.00    -0.475 A  
HETATM   14  C   UNL     1     -11.606   8.388  71.931  1.00  0.00    -0.395 A  
HETATM   15  C   UNL     1     -10.885   8.942  70.856  1.00  0.00    -0.308 A  
BRANCH  15  16
HETATM   16  C   UNL     1      -9.585   8.315  70.514  1.00  0.00    -0.167 C  
HETATM   17  O   UNL     1      -8.599   8.674  71.157  1.00  0.00    -0.147 OA 
BRANCH  16  18
HETATM   18  C   UNL     1      -9.441   7.213  69.497  1.00  0.00    -0.151 A  
HETATM   19  C   UNL     1     -10.609   6.797  68.845  1.00  0.00    -0.257 A  
HETATM   20  C   UNL     1     -10.598   5.732  67.925  1.00  0.00    -0.304 A  
HETATM   21  C   UNL     1      -9.429   5.023  67.624  1.00  0.00    -0.132 A  
HETATM   22  O   UNL     1      -7.073   6.874  69.776  1.00  0.00    -0.064 OA 
HETATM   23  C   UNL     1      -8.256   5.480  68.249  1.00  0.00    -0.095 A  
HETATM   24  H   UNL     1      -6.270   6.417  69.559  1.00  0.00     0.000 HD 
HETATM   25  C   UNL     1      -8.258   6.540  69.178  1.00  0.00    -0.116 A  
BRANCH  21  26
HETATM   26  N   UNL     1      -9.402   3.931  66.760  1.00  0.00    -0.173 NA 
BRANCH  26  27
HETATM   27  C   UNL     1      -9.958   4.083  65.406  1.00  0.00    -0.179 C  
HETATM   28  C   UNL     1      -8.907   4.627  64.449  1.00  0.00    -0.152 C  
ENDBRANCH  26  27
BRANCH  26  29
HETATM   29  C   UNL     1      -8.471   2.810  66.956  1.00  0.00    -0.099 C  
HETATM   30  C   UNL     1      -9.169   1.666  67.676  1.00  0.00    -0.166 C  
ENDBRANCH  26  29
ENDBRANCH  21  26
ENDBRANCH  16  18
ENDBRANCH  15  16
ENDBRANCH   8  10
ENDBRANCH   7   8
ENDBRANCH   6   7
ENDBRANCH   5   6
ENDBRANCH   4   5
ENDBRANCH   3   4
ENDBRANCH   2   3
TORSDOF 12
ENDMDL
MODEL      135
REMARK 921   NORMALIZED FREE ENERGY PREDICTED BY IDOCK:   -4.52 KCAL/MOL
REMARK 922        TOTAL FREE ENERGY PREDICTED BY IDOCK:   -9.65 KCAL/MOL
REMARK 923 INTER-LIGAND FREE ENERGY PREDICTED BY IDOCK:   -7.59 KCAL/MOL
REMARK 924 INTRA-LIGAND FREE ENERGY PREDICTED BY IDOCK:   -2.06 KCAL/MOL
REMARK 927      BINDING AFFINITY PREDICTED BY RF-SCORE:    0.00 PKD
ROOT
HETATM    1  C   UNL     1     -11.960   7.930  71.810  1.00  0.00    -0.337 C  
HETATM    2  C   UNL     1     -12.571   9.323  71.853  1.00  0.00    -0.468 C  
ENDROOT
BRANCH   2   3
HETATM    3  C   UNL     1     -11.788  10.301  70.979  1.00  0.00    -0.472 C  
BRANCH   3   4
HETATM    4  C   UNL     1     -12.337  11.730  71.083  1.00  0.00    -0.329 C  
BRANCH   4   5
HETATM    5  C   UNL     1     -11.954  12.545  69.847  1.00  0.00    -0.371 C  
BRANCH   5   6
HETATM    6  C   UNL     1     -11.506  13.968  70.164  1.00  0.00    -0.133 C  
BRANCH   6   7
HETATM    7  O   UNL     1     -12.032  14.978  69.300  1.00  0.00    -0.307 OA 
BRANCH   7   8
HETATM    8  C   UNL     1     -11.804  14.792  67.975  1.00  0.00    -0.294 C  
HETATM    9  O   UNL     1     -12.633  14.442  67.146  1.00  0.00    -0.091 OA 
BRANCH   8  10
HETATM   10  C   UNL     1     -10.492  15.402  67.614  1.00  0.00    -0.272 A  
HETATM   11  C   UNL     1     -10.162  16.556  68.357  1.00  0.00    -0.266 A  
HETATM   12  C   UNL     1      -8.939  17.204  68.183  1.00  0.00    -0.240 A  
HETATM   13  C   UNL     1      -8.043  16.737  67.229  1.00  0.00    -0.201 A  
HETATM   14  C   UNL     1      -8.356  15.605  66.476  1.00  0.00    -0.276 A  
HETATM   15  C   UNL     1      -9.552  14.896  66.696  1.00  0.00    -0.284 A  
BRANCH  15  16
HETATM   16  C   UNL     1      -9.788  13.687  65.869  1.00  0.00    -0.246 C  
HETATM   17  O   UNL     1      -9.913  13.850  64.655  1.00  0.00    -0.267 OA 
BRANCH  16  18
HETATM   18  C   UNL     1      -9.787  12.289  66.430  1.00  0.00    -0.242 A  
HETATM   19  C   UNL     1      -8.549  11.764  66.823  1.00  0.00    -0.185 A  
HETATM   20  C   UNL     1      -8.427  10.446  67.300  1.00  0.00    -0.122 A  
HETATM   21  C   UNL     1      -9.526   9.584  67.391  1.00  0.00    -0.135 A  
HETATM   22  O   UNL     1     -12.148  11.881  66.180  1.00  0.00    -0.519 OA 
HETATM   23  C   UNL     1     -10.770  10.137  67.038  1.00  0.00    -0.264 A  
HETATM   24  H   UNL     1     -12.904  11.314  66.264  1.00  0.00     0.000 HD 
HETATM   25  C   UNL     1     -10.902  11.454  66.553  1.00  0.00    -0.283 A  
BRANCH  21  26
HETATM   26  N   UNL     1      -9.423   8.259  67.807  1.00  0.00    -0.147 NA 
BRANCH  26  27
HETATM   27  C   UNL     1      -9.552   7.189  66.804  1.00  0.00    -0.178 C  
HETATM   28  C   UNL     1     -10.891   6.479  66.942  1.00  0.00    -0.427 C  
ENDBRANCH  26  27
BRANCH  26  29
HETATM   29  C   UNL     1      -8.763   7.890  69.067  1.00  0.00    -0.138 C  
HETATM   30  C   UNL     1      -7.526   7.049  68.787  1.00  0.00    -0.099 C  
ENDBRANCH  26  29
ENDBRANCH  21  26
ENDBRANCH  16  18
ENDBRANCH  15  16
ENDBRANCH   8  10
ENDBRANCH   7   8
ENDBRANCH   6   7
ENDBRANCH   5   6
ENDBRANCH   4   5
ENDBRANCH   3   4
ENDBRANCH   2   3
TORSDOF 12
ENDMDL
MODEL      136
REMARK 921   NORMALIZED FREE ENERGY PREDICTED BY IDOCK:   -4.50 KCAL/MOL
REMARK 922        TOTAL FREE ENERGY PREDICTED BY IDOCK:   -9.63 KCAL/MOL
REMARK 923 INTER-LIGAND FREE ENERGY PREDICTED BY IDOCK:   -8.21 KCAL/MOL
REMARK 924 INTRA-LIGAND FREE ENERGY PREDICTED BY IDOCK:   -1.42 KCAL/MOL
REMARK 927      BINDING AFFINITY PREDICTED BY RF-SCORE:    0.00 PKD
ROOT
HETATM    1  C   UNL     1      -8.144  19.644  66.546  1.00  0.00    -0.338 C  
HETATM    2  C   UNL     1      -6.882  18.809  66.705  1.00  0.00    -0.210 C  
ENDROOT
BRANCH   2   3
HETATM    3  C   UNL     1      -7.126  17.353  66.314  1.00  0.00    -0.330 C  
BRANCH   3   4
HETATM    4  C   UNL     1      -6.333  16.381  67.197  1.00  0.00    -0.215 C  
BRANCH   4   5
HETATM    5  C   UNL     1      -6.621  16.642  68.677  1.00  0.00    -0.159 C  
BRANCH   5   6
HETATM    6  C   UNL     1      -7.595  15.647  69.299  1.00  0.00    -0.222 C  
BRANCH   6   7
HETATM    7  O   UNL     1      -8.318  14.841  68.366  1.00  0.00    -0.141 OA 
BRANCH   7   8
HETATM    8  C   UNL     1      -9.587  15.245  68.104  1.00  0.00    -0.204 C  
HETATM    9  O   UNL     1     -10.077  16.322  68.415  1.00  0.00    -0.225 OA 
BRANCH   8  10
HETATM   10  C   UNL     1     -10.190  14.334  67.088  1.00  0.00    -0.254 A  
HETATM   11  C   UNL     1      -9.775  14.582  65.763  1.00  0.00    -0.306 A  
HETATM   12  C   UNL     1     -10.198  13.774  64.707  1.00  0.00    -0.362 A  
HETATM   13  C   UNL     1     -11.083  12.731  64.953  1.00  0.00    -0.324 A  
HETATM   14  C   UNL     1     -11.515  12.477  66.254  1.00  0.00    -0.421 A  
HETATM   15  C   UNL     1     -11.034  13.235  67.339  1.00  0.00    -0.287 A  
BRANCH  15  16
HETATM   16  C   UNL     1     -11.527  12.874  68.691  1.00  0.00    -0.308 C  
HETATM   17  O   UNL     1     -12.265  13.680  69.256  1.00  0.00    -0.320 OA 
BRANCH  16  18
HETATM   18  C   UNL     1     -11.241  11.549  69.348  1.00  0.00    -0.324 A  
HETATM   19  C   UNL     1     -12.239  11.026  70.181  1.00  0.00    -0.424 A  
HETATM   20  C   UNL     1     -12.049   9.827  70.894  1.00  0.00    -0.407 A  
HETATM   21  C   UNL     1     -10.852   9.104  70.823  1.00  0.00    -0.268 A  
HETATM   22  O   UNL     1      -9.023  11.261  68.454  1.00  0.00    -0.156 OA 
HETATM   23  C   UNL     1      -9.877   9.614  69.949  1.00  0.00    -0.271 A  
HETATM   24  H   UNL     1      -8.218  10.763  68.379  1.00  0.00     0.000 HD 
HETATM   25  C   UNL     1     -10.055  10.817  69.236  1.00  0.00    -0.177 A  
BRANCH  21  26
HETATM   26  N   UNL     1     -10.618   7.945  71.561  1.00  0.00    -0.219 NA 
BRANCH  26  27
HETATM   27  C   UNL     1     -10.972   7.931  72.989  1.00  0.00    -0.333 C  
HETATM   28  C   UNL     1     -10.390   6.703  73.676  1.00  0.00    -0.343 C  
ENDBRANCH  26  27
BRANCH  26  29
HETATM   29  C   UNL     1     -10.468   6.633  70.917  1.00  0.00    -0.215 C  
HETATM   30  C   UNL     1     -11.417   6.515  69.733  1.00  0.00    -0.443 C  
ENDBRANCH  26  29
ENDBRANCH  21  26
ENDBRANCH  16  18
ENDBRANCH  15  16
ENDBRANCH   8  10
ENDBRANCH   7   8
ENDBRANCH   6   7
ENDBRANCH   5   6
ENDBRANCH   4   5
ENDBRANCH   3   4
ENDBRANCH   2   3
TORSDOF 12
ENDMDL
MODEL      137
REMARK 921   NORMALIZED FREE ENERGY PREDICTED BY IDOCK:   -4.50 KCAL/MOL
REMARK 922        TOTAL FREE ENERGY PREDICTED BY IDOCK:   -9.63 KCAL/MOL
REMARK 923 INTER-LIGAND FREE ENERGY PREDICTED BY IDOCK:   -7.05 KCAL/MOL
REMARK 924 INTRA-LIGAND FREE ENERGY PREDICTED BY IDOCK:   -2.58 KCAL/MOL
REMARK 927      BINDING AFFINITY PREDICTED BY RF-SCORE:    0.00 PKD
ROOT
HETATM    1  C   UNL     1      -7.934  10.437  66.213  1.00  0.00    -0.138 C  
HETATM    2  C   UNL     1      -9.113  11.358  66.490  1.00  0.00    -0.193 C  
ENDROOT
BRANCH   2   3
HETATM    3  C   UNL     1      -8.652  12.795  66.726  1.00  0.00    -0.084 C  
BRANCH   3   4
HETATM    4  C   UNL     1      -9.239  13.381  68.016  1.00  0.00    -0.209 C  
BRANCH   4   5
HETATM    5  C   UNL     1     -10.587  14.051  67.738  1.00  0.00    -0.244 C  
BRANCH   5   6
HETATM    6  C   UNL     1     -11.697  13.615  68.689  1.00  0.00    -0.354 C  
BRANCH   6   7
HETATM    7  O   UNL     1     -11.382  12.495  69.519  1.00  0.00    -0.241 OA 
BRANCH   7   8
HETATM    8  C   UNL     1     -11.958  11.319  69.160  1.00  0.00    -0.336 C  
HETATM    9  O   UNL     1     -12.254  10.982  68.022  1.00  0.00    -0.520 OA 
BRANCH   8  10
HETATM   10  C   UNL     1     -11.865  10.362  70.300  1.00  0.00    -0.399 A  
HETATM   11  C   UNL     1     -12.965  10.397  71.182  1.00  0.00    -0.506 A  
HETATM   12  C   UNL     1     -13.058   9.516  72.260  1.00  0.00    -0.492 A  
HETATM   13  C   UNL     1     -12.028   8.616  72.502  1.00  0.00    -0.358 A  
HETATM   14  C   UNL     1     -10.926   8.574  71.649  1.00  0.00    -0.362 A  
HETATM   15  C   UNL     1     -10.856   9.402  70.513  1.00  0.00    -0.336 A  
BRANCH  15  16
HETATM   16  C   UNL     1      -9.659   9.268  69.646  1.00  0.00    -0.183 C  
HETATM   17  O   UNL     1      -8.843  10.188  69.665  1.00  0.00    -0.195 OA 
BRANCH  16  18
HETATM   18  C   UNL     1      -9.364   8.036  68.831  1.00  0.00    -0.150 A  
HETATM   19  C   UNL     1      -8.325   7.211  69.283  1.00  0.00    -0.133 A  
HETATM   20  C   UNL     1      -7.925   6.070  68.563  1.00  0.00    -0.107 A  
HETATM   21  C   UNL     1      -8.526   5.708  67.352  1.00  0.00    -0.106 A  
HETATM   22  O   UNL     1     -11.017   8.420  67.123  1.00  0.00    -0.425 OA 
HETATM   23  C   UNL     1      -9.597   6.517  66.933  1.00  0.00    -0.191 A  
HETATM   24  H   UNL     1     -11.450   8.168  66.316  1.00  0.00     0.000 HD 
HETATM   25  C   UNL     1     -10.001   7.665  67.643  1.00  0.00    -0.175 A  
BRANCH  21  26
HETATM   26  N   UNL     1      -8.112   4.617  66.592  1.00  0.00    -0.103 NA 
BRANCH  26  27
HETATM   27  C   UNL     1      -9.066   3.525  66.340  1.00  0.00    -0.159 C  
HETATM   28  C   UNL     1      -9.179   2.618  67.557  1.00  0.00    -0.215 C  
ENDBRANCH  26  27
BRANCH  26  29
HETATM   29  C   UNL     1      -6.966   4.701  65.675  1.00  0.00    -0.063 C  
HETATM   30  C   UNL     1      -7.426   4.512  64.238  1.00  0.00    -0.071 C  
ENDBRANCH  26  29
ENDBRANCH  21  26
ENDBRANCH  16  18
ENDBRANCH  15  16
ENDBRANCH   8  10
ENDBRANCH   7   8
ENDBRANCH   6   7
ENDBRANCH   5   6
ENDBRANCH   4   5
ENDBRANCH   3   4
ENDBRANCH   2   3
TORSDOF 12
ENDMDL
MODEL      138
REMARK 921   NORMALIZED FREE ENERGY PREDICTED BY IDOCK:   -4.49 KCAL/MOL
REMARK 922        TOTAL FREE ENERGY PREDICTED BY IDOCK:   -9.60 KCAL/MOL
REMARK 923 INTER-LIGAND FREE ENERGY PREDICTED BY IDOCK:   -7.76 KCAL/MOL
REMARK 924 INTRA-LIGAND FREE ENERGY PREDICTED BY IDOCK:   -1.84 KCAL/MOL
REMARK 927      BINDING AFFINITY PREDICTED BY RF-SCORE:    0.00 PKD
ROOT
HETATM    1  C   UNL     1     -10.196   7.973  68.043  1.00  0.00    -0.260 C  
HETATM    2  C   UNL     1      -8.686   8.134  68.130  1.00  0.00    -0.136 C  
ENDROOT
BRANCH   2   3
HETATM    3  C   UNL     1      -8.301   9.252  69.099  1.00  0.00    -0.127 C  
BRANCH   3   4
HETATM    4  C   UNL     1      -6.930   9.853  68.765  1.00  0.00    -0.062 C  
BRANCH   4   5
HETATM    5  C   UNL     1      -7.079  11.297  68.283  1.00  0.00    -0.074 C  
BRANCH   5   6
HETATM    6  C   UNL     1      -8.409  11.581  67.594  1.00  0.00    -0.135 C  
BRANCH   6   7
HETATM    7  O   UNL     1      -9.345  12.337  68.366  1.00  0.00    -0.203 OA 
BRANCH   7   8
HETATM    8  C   UNL     1     -10.641  11.948  68.261  1.00  0.00    -0.213 C  
HETATM    9  O   UNL     1     -11.277  11.334  69.107  1.00  0.00    -0.230 OA 
BRANCH   8  10
HETATM   10  C   UNL     1     -11.277  12.668  67.121  1.00  0.00    -0.348 A  
HETATM   11  C   UNL     1     -11.474  11.877  65.969  1.00  0.00    -0.344 A  
HETATM   12  C   UNL     1     -12.117  12.388  64.841  1.00  0.00    -0.470 A  
HETATM   13  C   UNL     1     -12.532  13.714  64.828  1.00  0.00    -0.391 A  
HETATM   14  C   UNL     1     -12.336  14.515  65.952  1.00  0.00    -0.238 A  
HETATM   15  C   UNL     1     -11.760  13.991  67.125  1.00  0.00    -0.421 A  
BRANCH  15  16
HETATM   16  C   UNL     1     -11.616  14.910  68.281  1.00  0.00    -0.334 C  
HETATM   17  O   UNL     1     -12.322  14.692  69.265  1.00  0.00    -0.238 OA 
BRANCH  16  18
HETATM   18  C   UNL     1     -10.598  16.018  68.334  1.00  0.00    -0.270 A  
HETATM   19  C   UNL     1     -10.903  17.193  67.634  1.00  0.00    -0.241 A  
HETATM   20  C   UNL     1      -9.994  18.266  67.565  1.00  0.00    -0.345 A  
HETATM   21  C   UNL     1      -8.734  18.211  68.173  1.00  0.00    -0.277 A  
HETATM   22  O   UNL     1      -8.975  14.850  69.677  1.00  0.00    -0.433 OA 
HETATM   23  C   UNL     1      -8.459  17.047  68.911  1.00  0.00    -0.193 A  
HETATM   24  H   UNL     1      -8.134  14.814  70.116  1.00  0.00     0.000 HD 
HETATM   25  C   UNL     1      -9.359  15.964  68.981  1.00  0.00    -0.243 A  
BRANCH  21  26
HETATM   26  N   UNL     1      -7.795  19.235  68.073  1.00  0.00    -0.288 NA 
BRANCH  26  27
HETATM   27  C   UNL     1      -7.034  19.619  69.273  1.00  0.00    -0.340 C  
HETATM   28  C   UNL     1      -5.906  20.576  68.912  1.00  0.00    -0.376 C  
ENDBRANCH  26  27
BRANCH  26  29
HETATM   29  C   UNL     1      -7.214  19.630  66.782  1.00  0.00    -0.224 C  
HETATM   30  C   UNL     1      -6.849  18.398  65.969  1.00  0.00    -0.308 C  
ENDBRANCH  26  29
ENDBRANCH  21  26
ENDBRANCH  16  18
ENDBRANCH  15  16
ENDBRANCH   8  10
ENDBRANCH   7   8
ENDBRANCH   6   7
ENDBRANCH   5   6
ENDBRANCH   4   5
ENDBRANCH   3   4
ENDBRANCH   2   3
TORSDOF 12
ENDMDL
MODEL      139
REMARK 921   NORMALIZED FREE ENERGY PREDICTED BY IDOCK:   -4.49 KCAL/MOL
REMARK 922        TOTAL FREE ENERGY PREDICTED BY IDOCK:   -9.60 KCAL/MOL
REMARK 923 INTER-LIGAND FREE ENERGY PREDICTED BY IDOCK:   -7.49 KCAL/MOL
REMARK 924 INTRA-LIGAND FREE ENERGY PREDICTED BY IDOCK:   -2.11 KCAL/MOL
REMARK 927      BINDING AFFINITY PREDICTED BY RF-SCORE:    0.00 PKD
ROOT
HETATM    1  C   UNL     1      -6.888  11.906  67.050  1.00  0.00    -0.122 C  
HETATM    2  C   UNL     1      -6.490  10.792  66.092  1.00  0.00    -0.129 C  
ENDROOT
BRANCH   2   3
HETATM    3  C   UNL     1      -7.384   9.564  66.265  1.00  0.00    -0.093 C  
BRANCH   3   4
HETATM    4  C   UNL     1      -7.789   8.956  64.917  1.00  0.00    -0.121 C  
BRANCH   4   5
HETATM    5  C   UNL     1      -7.967  10.051  63.863  1.00  0.00    -0.151 C  
BRANCH   5   6
HETATM    6  C   UNL     1      -9.399  10.189  63.358  1.00  0.00    -0.294 C  
BRANCH   6   7
HETATM    7  O   UNL     1     -10.380  10.430  64.368  1.00  0.00    -0.304 OA 
BRANCH   7   8
HETATM    8  C   UNL     1     -10.335  11.657  64.949  1.00  0.00    -0.283 C  
HETATM    9  O   UNL     1     -10.198  12.723  64.365  1.00  0.00    -0.350 OA 
BRANCH   8  10
HETATM   10  C   UNL     1     -10.817  11.549  66.356  1.00  0.00    -0.334 A  
HETATM   11  C   UNL     1     -10.766  10.245  66.891  1.00  0.00    -0.252 A  
HETATM   12  C   UNL     1     -11.121   9.991  68.217  1.00  0.00    -0.247 A  
HETATM   13  C   UNL     1     -11.578  11.032  69.016  1.00  0.00    -0.392 A  
HETATM   14  C   UNL     1     -11.648  12.326  68.502  1.00  0.00    -0.359 A  
HETATM   15  C   UNL     1     -11.218  12.610  67.191  1.00  0.00    -0.348 A  
BRANCH  15  16
HETATM   16  C   UNL     1     -11.301  14.020  66.739  1.00  0.00    -0.334 C  
HETATM   17  O   UNL     1     -12.319  14.361  66.139  1.00  0.00    -0.401 OA 
BRANCH  16  18
HETATM   18  C   UNL     1     -10.252  15.053  67.059  1.00  0.00    -0.257 A  
HETATM   19  C   UNL     1      -9.039  14.960  66.364  1.00  0.00    -0.293 A  
HETATM   20  C   UNL     1      -7.969  15.835  66.632  1.00  0.00    -0.233 A  
HETATM   21  C   UNL     1      -8.051  16.829  67.615  1.00  0.00    -0.177 A  
HETATM   22  O   UNL     1     -11.508  16.221  68.750  1.00  0.00    -0.353 OA 
HETATM   23  C   UNL     1      -9.288  16.941  68.272  1.00  0.00    -0.248 A  
HETATM   24  H   UNL     1     -11.583  16.909  69.399  1.00  0.00     0.000 HD 
HETATM   25  C   UNL     1     -10.363  16.066  68.016  1.00  0.00    -0.266 A  
BRANCH  21  26
HETATM   26  N   UNL     1      -6.988  17.669  67.938  1.00  0.00    -0.184 NA 
BRANCH  26  27
HETATM   27  C   UNL     1      -6.838  18.936  67.204  1.00  0.00    -0.202 C  
HETATM   28  C   UNL     1      -7.570  20.064  67.918  1.00  0.00    -0.325 C  
ENDBRANCH  26  27
BRANCH  26  29
HETATM   29  C   UNL     1      -6.298  17.585  69.233  1.00  0.00    -0.244 C  
HETATM   30  C   UNL     1      -6.175  16.133  69.670  1.00  0.00    -0.191 C  
ENDBRANCH  26  29
ENDBRANCH  21  26
ENDBRANCH  16  18
ENDBRANCH  15  16
ENDBRANCH   8  10
ENDBRANCH   7   8
ENDBRANCH   6   7
ENDBRANCH   5   6
ENDBRANCH   4   5
ENDBRANCH   3   4
ENDBRANCH   2   3
TORSDOF 12
ENDMDL
MODEL      140
REMARK 921   NORMALIZED FREE ENERGY PREDICTED BY IDOCK:   -4.45 KCAL/MOL
REMARK 922        TOTAL FREE ENERGY PREDICTED BY IDOCK:   -9.54 KCAL/MOL
REMARK 923 INTER-LIGAND FREE ENERGY PREDICTED BY IDOCK:   -8.15 KCAL/MOL
REMARK 924 INTRA-LIGAND FREE ENERGY PREDICTED BY IDOCK:   -1.39 KCAL/MOL
REMARK 927      BINDING AFFINITY PREDICTED BY RF-SCORE:    0.00 PKD
ROOT
HETATM    1  C   UNL     1     -12.231  14.938  69.478  1.00  0.00    -0.268 C  
HETATM    2  C   UNL     1     -10.757  15.304  69.388  1.00  0.00    -0.266 C  
ENDROOT
BRANCH   2   3
HETATM    3  C   UNL     1     -10.560  16.648  68.689  1.00  0.00    -0.337 C  
BRANCH   3   4
HETATM    4  C   UNL     1     -10.485  16.496  67.164  1.00  0.00    -0.300 C  
BRANCH   4   5
HETATM    5  C   UNL     1     -10.313  15.026  66.778  1.00  0.00    -0.270 C  
BRANCH   5   6
HETATM    6  C   UNL     1     -10.647  14.730  65.320  1.00  0.00    -0.395 C  
BRANCH   6   7
HETATM    7  O   UNL     1     -11.563  13.653  65.112  1.00  0.00    -0.307 OA 
BRANCH   7   8
HETATM    8  C   UNL     1     -11.376  12.564  65.901  1.00  0.00    -0.340 C  
HETATM    9  O   UNL     1     -12.125  12.183  66.790  1.00  0.00    -0.609 OA 
BRANCH   8  10
HETATM   10  C   UNL     1     -10.309  11.709  65.306  1.00  0.00    -0.316 A  
HETATM   11  C   UNL     1     -10.402  11.549  63.907  1.00  0.00    -0.422 A  
HETATM   12  C   UNL     1      -9.440  10.831  63.195  1.00  0.00    -0.359 A  
HETATM   13  C   UNL     1      -8.394  10.220  63.876  1.00  0.00    -0.165 A  
HETATM   14  C   UNL     1      -8.292  10.356  65.260  1.00  0.00    -0.166 A  
HETATM   15  C   UNL     1      -9.210  11.143  65.982  1.00  0.00    -0.223 A  
BRANCH  15  16
HETATM   16  C   UNL     1      -9.005  11.254  67.447  1.00  0.00    -0.144 C  
HETATM   17  O   UNL     1      -8.439  12.264  67.862  1.00  0.00    -0.146 OA 
BRANCH  16  18
HETATM   18  C   UNL     1      -9.534  10.245  68.433  1.00  0.00    -0.149 A  
HETATM   19  C   UNL     1      -9.159   8.910  68.236  1.00  0.00    -0.140 A  
HETATM   20  C   UNL     1      -9.648   7.879  69.061  1.00  0.00    -0.155 A  
HETATM   21  C   UNL     1     -10.544   8.127  70.107  1.00  0.00    -0.237 A  
HETATM   22  O   UNL     1     -10.825  11.789  69.756  1.00  0.00    -0.458 OA 
HETATM   23  C   UNL     1     -10.876   9.476  70.324  1.00  0.00    -0.319 A  
HETATM   24  H   UNL     1     -11.411  11.972  70.480  1.00  0.00     0.000 HD 
HETATM   25  C   UNL     1     -10.398  10.514  69.499  1.00  0.00    -0.221 A  
BRANCH  21  26
HETATM   26  N   UNL     1     -11.086   7.120  70.901  1.00  0.00    -0.254 NA 
BRANCH  26  27
HETATM   27  C   UNL     1     -10.960   5.722  70.458  1.00  0.00    -0.249 C  
HETATM   28  C   UNL     1     -10.058   4.936  71.399  1.00  0.00    -0.268 C  
ENDBRANCH  26  27
BRANCH  26  29
HETATM   29  C   UNL     1     -11.364   7.323  72.330  1.00  0.00    -0.284 C  
HETATM   30  C   UNL     1     -10.094   7.730  73.062  1.00  0.00    -0.382 C  
ENDBRANCH  26  29
ENDBRANCH  21  26
ENDBRANCH  16  18
ENDBRANCH  15  16
ENDBRANCH   8  10
ENDBRANCH   7   8
ENDBRANCH   6   7
ENDBRANCH   5   6
ENDBRANCH   4   5
ENDBRANCH   3   4
ENDBRANCH   2   3
TORSDOF 12
ENDMDL
MODEL      141
REMARK 921   NORMALIZED FREE ENERGY PREDICTED BY IDOCK:   -4.44 KCAL/MOL
REMARK 922        TOTAL FREE ENERGY PREDICTED BY IDOCK:   -9.52 KCAL/MOL
REMARK 923 INTER-LIGAND FREE ENERGY PREDICTED BY IDOCK:   -8.42 KCAL/MOL
REMARK 924 INTRA-LIGAND FREE ENERGY PREDICTED BY IDOCK:   -1.11 KCAL/MOL
REMARK 927      BINDING AFFINITY PREDICTED BY RF-SCORE:    0.00 PKD
ROOT
HETATM    1  C   UNL     1     -10.603   6.541  70.191  1.00  0.00    -0.277 C  
HETATM    2  C   UNL     1     -11.146   7.537  71.204  1.00  0.00    -0.270 C  
ENDROOT
BRANCH   2   3
HETATM    3  C   UNL     1     -10.250   8.771  71.307  1.00  0.00    -0.332 C  
BRANCH   3   4
HETATM    4  C   UNL     1      -9.646   9.154  69.950  1.00  0.00    -0.206 C  
BRANCH   4   5
HETATM    5  C   UNL     1     -10.232  10.478  69.454  1.00  0.00    -0.245 C  
BRANCH   5   6
HETATM    6  C   UNL     1      -9.591  10.991  68.169  1.00  0.00    -0.171 C  
BRANCH   6   7
HETATM    7  O   UNL     1      -9.857  12.361  67.862  1.00  0.00    -0.191 OA 
BRANCH   7   8
HETATM    8  C   UNL     1     -11.170  12.694  67.763  1.00  0.00    -0.274 C  
HETATM    9  O   UNL     1     -11.968  12.749  68.688  1.00  0.00    -0.308 OA 
BRANCH   8  10
HETATM   10  C   UNL     1     -11.417  13.315  66.430  1.00  0.00    -0.364 A  
HETATM   11  C   UNL     1     -11.883  12.417  65.446  1.00  0.00    -0.460 A  
HETATM   12  C   UNL     1     -12.224  12.857  64.167  1.00  0.00    -0.487 A  
HETATM   13  C   UNL     1     -12.059  14.196  63.834  1.00  0.00    -0.301 A  
HETATM   14  C   UNL     1     -11.587  15.097  64.788  1.00  0.00    -0.364 A  
HETATM   15  C   UNL     1     -11.315  14.682  66.106  1.00  0.00    -0.350 A  
BRANCH  15  16
HETATM   16  C   UNL     1     -10.846  15.716  67.061  1.00  0.00    -0.294 C  
HETATM   17  O   UNL     1     -11.487  15.856  68.101  1.00  0.00    -0.350 OA 
BRANCH  16  18
HETATM   18  C   UNL     1      -9.588  16.520  66.856  1.00  0.00    -0.253 A  
HETATM   19  C   UNL     1      -9.744  17.897  66.652  1.00  0.00    -0.319 A  
HETATM   20  C   UNL     1      -8.641  18.731  66.386  1.00  0.00    -0.294 A  
HETATM   21  C   UNL     1      -7.337  18.230  66.295  1.00  0.00    -0.260 A  
HETATM   22  O   UNL     1      -8.046  14.675  66.983  1.00  0.00    -0.285 OA 
HETATM   23  C   UNL     1      -7.189  16.855  66.547  1.00  0.00    -0.297 A  
HETATM   24  H   UNL     1      -7.162  14.330  66.950  1.00  0.00     0.000 HD 
HETATM   25  C   UNL     1      -8.287  16.011  66.807  1.00  0.00    -0.270 A  
BRANCH  21  26
HETATM   26  N   UNL     1      -6.237  19.023  65.979  1.00  0.00    -0.182 NA 
BRANCH  26  27
HETATM   27  C   UNL     1      -6.342  19.965  64.853  1.00  0.00    -0.283 C  
HETATM   28  C   UNL     1      -5.611  19.428  63.630  1.00  0.00    -0.350 C  
ENDBRANCH  26  27
BRANCH  26  29
HETATM   29  C   UNL     1      -5.170  19.294  66.952  1.00  0.00    -0.157 C  
HETATM   30  C   UNL     1      -5.742  19.344  68.361  1.00  0.00    -0.222 C  
ENDBRANCH  26  29
ENDBRANCH  21  26
ENDBRANCH  16  18
ENDBRANCH  15  16
ENDBRANCH   8  10
ENDBRANCH   7   8
ENDBRANCH   6   7
ENDBRANCH   5   6
ENDBRANCH   4   5
ENDBRANCH   3   4
ENDBRANCH   2   3
TORSDOF 12
ENDMDL
MODEL      142
REMARK 921   NORMALIZED FREE ENERGY PREDICTED BY IDOCK:   -4.44 KCAL/MOL
REMARK 922        TOTAL FREE ENERGY PREDICTED BY IDOCK:   -9.52 KCAL/MOL
REMARK 923 INTER-LIGAND FREE ENERGY PREDICTED BY IDOCK:   -6.61 KCAL/MOL
REMARK 924 INTRA-LIGAND FREE ENERGY PREDICTED BY IDOCK:   -2.91 KCAL/MOL
REMARK 927      BINDING AFFINITY PREDICTED BY RF-SCORE:    0.00 PKD
ROOT
HETATM    1  C   UNL     1     -11.528   6.131  70.485  1.00  0.00    -0.330 C  
HETATM    2  C   UNL     1     -11.058   6.321  69.050  1.00  0.00    -0.446 C  
ENDROOT
BRANCH   2   3
HETATM    3  C   UNL     1      -9.658   5.746  68.843  1.00  0.00    -0.163 C  
BRANCH   3   4
HETATM    4  C   UNL     1      -8.828   6.594  67.871  1.00  0.00    -0.115 C  
BRANCH   4   5
HETATM    5  C   UNL     1      -9.704   7.120  66.732  1.00  0.00    -0.252 C  
BRANCH   5   6
HETATM    6  C   UNL     1      -9.280   8.489  66.212  1.00  0.00    -0.207 C  
BRANCH   6   7
HETATM    7  O   UNL     1     -10.335   9.444  66.084  1.00  0.00    -0.232 OA 
BRANCH   7   8
HETATM    8  C   UNL     1     -10.031  10.562  65.376  1.00  0.00    -0.289 C  
HETATM    9  O   UNL     1      -9.673  10.596  64.207  1.00  0.00    -0.259 OA 
BRANCH   8  10
HETATM   10  C   UNL     1     -10.524  11.759  66.117  1.00  0.00    -0.284 A  
HETATM   11  C   UNL     1     -11.774  12.243  65.677  1.00  0.00    -0.440 A  
HETATM   12  C   UNL     1     -12.400  13.316  66.312  1.00  0.00    -0.382 A  
HETATM   13  C   UNL     1     -11.763  13.954  67.370  1.00  0.00    -0.422 A  
HETATM   14  C   UNL     1     -10.522  13.499  67.812  1.00  0.00    -0.242 A  
HETATM   15  C   UNL     1      -9.915  12.368  67.231  1.00  0.00    -0.209 A  
BRANCH  15  16
HETATM   16  C   UNL     1      -8.608  11.938  67.786  1.00  0.00    -0.154 C  
HETATM   17  O   UNL     1      -7.613  12.577  67.446  1.00  0.00    -0.143 OA 
BRANCH  16  18
HETATM   18  C   UNL     1      -8.464  10.832  68.798  1.00  0.00    -0.148 A  
HETATM   19  C   UNL     1      -9.640  10.374  69.408  1.00  0.00    -0.213 A  
HETATM   20  C   UNL     1      -9.611   9.389  70.413  1.00  0.00    -0.319 A  
HETATM   21  C   UNL     1      -8.413   8.828  70.870  1.00  0.00    -0.175 A  
HETATM   22  O   UNL     1      -6.065  10.650  68.682  1.00  0.00    -0.041 OA 
HETATM   23  C   UNL     1      -7.245   9.262  70.218  1.00  0.00    -0.087 A  
HETATM   24  H   UNL     1      -5.249  10.257  68.966  1.00  0.00     0.000 HD 
HETATM   25  C   UNL     1      -7.262  10.253  69.216  1.00  0.00    -0.093 A  
BRANCH  21  26
HETATM   26  N   UNL     1      -8.353   7.894  71.901  1.00  0.00    -0.112 NA 
BRANCH  26  27
HETATM   27  C   UNL     1      -7.391   6.785  71.798  1.00  0.00    -0.085 C  
HETATM   28  C   UNL     1      -8.113   5.445  71.788  1.00  0.00    -0.118 C  
ENDBRANCH  26  27
BRANCH  26  29
HETATM   29  C   UNL     1      -8.853   8.195  73.250  1.00  0.00    -0.256 C  
HETATM   30  C   UNL     1     -10.233   7.585  73.447  1.00  0.00    -0.399 C  
ENDBRANCH  26  29
ENDBRANCH  21  26
ENDBRANCH  16  18
ENDBRANCH  15  16
ENDBRANCH   8  10
ENDBRANCH   7   8
ENDBRANCH   6   7
ENDBRANCH   5   6
ENDBRANCH   4   5
ENDBRANCH   3   4
ENDBRANCH   2   3
TORSDOF 12
ENDMDL
MODEL      143
REMARK 921   NORMALIZED FREE ENERGY PREDICTED BY IDOCK:   -4.44 KCAL/MOL
REMARK 922        TOTAL FREE ENERGY PREDICTED BY IDOCK:   -9.52 KCAL/MOL
REMARK 923 INTER-LIGAND FREE ENERGY PREDICTED BY IDOCK:   -6.97 KCAL/MOL
REMARK 924 INTRA-LIGAND FREE ENERGY PREDICTED BY IDOCK:   -2.55 KCAL/MOL
REMARK 927      BINDING AFFINITY PREDICTED BY RF-SCORE:    0.00 PKD
ROOT
HETATM    1  C   UNL     1      -8.129   7.670  70.644  1.00  0.00    -0.108 C  
HETATM    2  C   UNL     1      -8.159   8.932  69.794  1.00  0.00    -0.109 C  
ENDROOT
BRANCH   2   3
HETATM    3  C   UNL     1      -6.972   8.983  68.833  1.00  0.00    -0.065 C  
BRANCH   3   4
HETATM    4  C   UNL     1      -7.060  10.179  67.876  1.00  0.00    -0.085 C  
BRANCH   4   5
HETATM    5  C   UNL     1      -6.531  11.447  68.550  1.00  0.00    -0.056 C  
BRANCH   5   6
HETATM    6  C   UNL     1      -7.565  12.563  68.654  1.00  0.00    -0.080 C  
BRANCH   6   7
HETATM    7  O   UNL     1      -7.948  13.155  67.411  1.00  0.00    -0.169 OA 
BRANCH   7   8
HETATM    8  C   UNL     1      -8.307  14.463  67.470  1.00  0.00    -0.187 C  
HETATM    9  O   UNL     1      -7.786  15.379  66.850  1.00  0.00    -0.212 OA 
BRANCH   8  10
HETATM   10  C   UNL     1      -9.638  14.575  68.132  1.00  0.00    -0.212 A  
HETATM   11  C   UNL     1      -9.641  15.354  69.309  1.00  0.00    -0.268 A  
HETATM   12  C   UNL     1     -10.822  15.608  70.007  1.00  0.00    -0.340 A  
HETATM   13  C   UNL     1     -12.014  15.047  69.567  1.00  0.00    -0.346 A  
HETATM   14  C   UNL     1     -12.031  14.264  68.413  1.00  0.00    -0.344 A  
HETATM   15  C   UNL     1     -10.861  14.064  67.655  1.00  0.00    -0.270 A  
BRANCH  15  16
HETATM   16  C   UNL     1     -10.979  13.241  66.427  1.00  0.00    -0.289 C  
HETATM   17  O   UNL     1     -11.228  13.829  65.375  1.00  0.00    -0.296 OA 
BRANCH  16  18
HETATM   18  C   UNL     1     -10.721  11.757  66.399  1.00  0.00    -0.306 A  
HETATM   19  C   UNL     1     -11.120  11.024  67.524  1.00  0.00    -0.366 A  
HETATM   20  C   UNL     1     -10.869   9.642  67.629  1.00  0.00    -0.276 A  
HETATM   21  C   UNL     1     -10.195   8.933  66.628  1.00  0.00    -0.268 A  
HETATM   22  O   UNL     1      -9.649  11.694  64.244  1.00  0.00    -0.370 OA 
HETATM   23  C   UNL     1      -9.842   9.670  65.485  1.00  0.00    -0.352 A  
HETATM   24  H   UNL     1      -9.215  11.217  63.547  1.00  0.00     0.000 HD 
HETATM   25  C   UNL     1     -10.082  11.054  65.373  1.00  0.00    -0.269 A  
BRANCH  21  26
HETATM   26  N   UNL     1      -9.885   7.579  66.732  1.00  0.00    -0.218 NA 
BRANCH  26  27
HETATM   27  C   UNL     1     -10.962   6.626  67.045  1.00  0.00    -0.393 C  
HETATM   28  C   UNL     1     -10.938   6.250  68.520  1.00  0.00    -0.421 C  
ENDBRANCH  26  27
BRANCH  26  29
HETATM   29  C   UNL     1      -8.675   7.011  66.120  1.00  0.00    -0.145 C  
HETATM   30  C   UNL     1      -8.922   5.569  65.704  1.00  0.00    -0.152 C  
ENDBRANCH  26  29
ENDBRANCH  21  26
ENDBRANCH  16  18
ENDBRANCH  15  16
ENDBRANCH   8  10
ENDBRANCH   7   8
ENDBRANCH   6   7
ENDBRANCH   5   6
ENDBRANCH   4   5
ENDBRANCH   3   4
ENDBRANCH   2   3
TORSDOF 12
ENDMDL
MODEL      144
REMARK 921   NORMALIZED FREE ENERGY PREDICTED BY IDOCK:   -4.42 KCAL/MOL
REMARK 922        TOTAL FREE ENERGY PREDICTED BY IDOCK:   -9.49 KCAL/MOL
REMARK 923 INTER-LIGAND FREE ENERGY PREDICTED BY IDOCK:   -7.87 KCAL/MOL
REMARK 924 INTRA-LIGAND FREE ENERGY PREDICTED BY IDOCK:   -1.62 KCAL/MOL
REMARK 927      BINDING AFFINITY PREDICTED BY RF-SCORE:    0.00 PKD
ROOT
HETATM    1  C   UNL     1     -11.046  15.058  65.656  1.00  0.00    -0.349 C  
HETATM    2  C   UNL     1     -12.063  14.154  66.337  1.00  0.00    -0.475 C  
ENDROOT
BRANCH   2   3
HETATM    3  C   UNL     1     -12.343  12.905  65.503  1.00  0.00    -0.517 C  
BRANCH   3   4
HETATM    4  C   UNL     1     -12.148  13.161  64.003  1.00  0.00    -0.511 C  
BRANCH   4   5
HETATM    5  C   UNL     1     -11.476  11.960  63.335  1.00  0.00    -0.470 C  
BRANCH   5   6
HETATM    6  C   UNL     1     -10.092  11.642  63.891  1.00  0.00    -0.357 C  
BRANCH   6   7
HETATM    7  O   UNL     1      -9.965  10.362  64.511  1.00  0.00    -0.332 OA 
BRANCH   7   8
HETATM    8  C   UNL     1      -9.577  10.376  65.812  1.00  0.00    -0.216 C  
HETATM    9  O   UNL     1     -10.313  10.519  66.779  1.00  0.00    -0.228 OA 
BRANCH   8  10
HETATM   10  C   UNL     1      -8.184   9.854  65.913  1.00  0.00    -0.124 A  
HETATM   11  C   UNL     1      -7.182  10.840  65.792  1.00  0.00    -0.057 A  
HETATM   12  C   UNL     1      -5.830  10.521  65.931  1.00  0.00    -0.120 A  
HETATM   13  C   UNL     1      -5.455   9.200  66.144  1.00  0.00    -0.041 A  
HETATM   14  C   UNL     1      -6.430   8.209  66.254  1.00  0.00    -0.047 A  
HETATM   15  C   UNL     1      -7.800   8.529  66.196  1.00  0.00    -0.098 A  
BRANCH  15  16
HETATM   16  C   UNL     1      -8.766   7.414  66.351  1.00  0.00    -0.142 C  
HETATM   17  O   UNL     1      -8.807   6.573  65.454  1.00  0.00    -0.072 OA 
BRANCH  16  18
HETATM   18  C   UNL     1      -9.615   7.223  67.581  1.00  0.00    -0.160 A  
HETATM   19  C   UNL     1      -9.112   7.734  68.784  1.00  0.00    -0.140 A  
HETATM   20  C   UNL     1      -9.795   7.554  70.002  1.00  0.00    -0.180 A  
HETATM   21  C   UNL     1     -10.998   6.843  70.081  1.00  0.00    -0.281 A  
HETATM   22  O   UNL     1     -11.395   6.003  66.510  1.00  0.00    -0.737 OA 
HETATM   23  C   UNL     1     -11.516   6.376  68.860  1.00  0.00    -0.148 A  
HETATM   24  H   UNL     1     -12.225   5.543  66.549  1.00  0.00     0.000 HD 
HETATM   25  C   UNL     1     -10.837   6.545  67.637  1.00  0.00    -0.337 A  
BRANCH  21  26
HETATM   26  N   UNL     1     -11.664   6.603  71.280  1.00  0.00    -0.319 NA 
BRANCH  26  27
HETATM   27  C   UNL     1     -10.965   5.865  72.345  1.00  0.00    -0.264 C  
HETATM   28  C   UNL     1     -10.582   6.798  73.485  1.00  0.00    -0.358 C  
ENDBRANCH  26  27
BRANCH  26  29
HETATM   29  C   UNL     1     -12.818   7.410  71.702  1.00  0.00    -0.367 C  
HETATM   30  C   UNL     1     -12.426   8.876  71.807  1.00  0.00    -0.425 C  
ENDBRANCH  26  29
ENDBRANCH  21  26
ENDBRANCH  16  18
ENDBRANCH  15  16
ENDBRANCH   8  10
ENDBRANCH   7   8
ENDBRANCH   6   7
ENDBRANCH   5   6
ENDBRANCH   4   5
ENDBRANCH   3   4
ENDBRANCH   2   3
TORSDOF 12
ENDMDL
MODEL      145
REMARK 921   NORMALIZED FREE ENERGY PREDICTED BY IDOCK:   -4.42 KCAL/MOL
REMARK 922        TOTAL FREE ENERGY PREDICTED BY IDOCK:   -9.49 KCAL/MOL
REMARK 923 INTER-LIGAND FREE ENERGY PREDICTED BY IDOCK:   -7.51 KCAL/MOL
REMARK 924 INTRA-LIGAND FREE ENERGY PREDICTED BY IDOCK:   -1.98 KCAL/MOL
REMARK 927      BINDING AFFINITY PREDICTED BY RF-SCORE:    0.00 PKD
ROOT
HETATM    1  C   UNL     1      -8.816  19.477  66.557  1.00  0.00    -0.395 C  
HETATM    2  C   UNL     1      -7.601  18.566  66.639  1.00  0.00    -0.259 C  
ENDROOT
BRANCH   2   3
HETATM    3  C   UNL     1      -7.946  17.139  66.216  1.00  0.00    -0.339 C  
BRANCH   3   4
HETATM    4  C   UNL     1      -7.372  16.098  67.186  1.00  0.00    -0.250 C  
BRANCH   4   5
HETATM    5  C   UNL     1      -7.893  16.339  68.604  1.00  0.00    -0.202 C  
BRANCH   5   6
HETATM    6  C   UNL     1      -8.799  15.227  69.123  1.00  0.00    -0.238 C  
BRANCH   6   7
HETATM    7  O   UNL     1      -9.464  14.464  68.114  1.00  0.00    -0.192 OA 
BRANCH   7   8
HETATM    8  C   UNL     1     -10.788  14.720  67.963  1.00  0.00    -0.260 C  
HETATM    9  O   UNL     1     -11.452  15.496  68.638  1.00  0.00    -0.322 OA 
BRANCH   8  10
HETATM   10  C   UNL     1     -11.243  14.183  66.648  1.00  0.00    -0.330 A  
HETATM   11  C   UNL     1     -11.369  15.155  65.634  1.00  0.00    -0.255 A  
HETATM   12  C   UNL     1     -11.721  14.802  64.331  1.00  0.00    -0.347 A  
HETATM   13  C   UNL     1     -12.000  13.474  64.031  1.00  0.00    -0.501 A  
HETATM   14  C   UNL     1     -11.894  12.499  65.023  1.00  0.00    -0.445 A  
HETATM   15  C   UNL     1     -11.463  12.831  66.322  1.00  0.00    -0.405 A  
BRANCH  15  16
HETATM   16  C   UNL     1     -11.351  11.724  67.304  1.00  0.00    -0.315 C  
HETATM   17  O   UNL     1     -12.280  11.579  68.098  1.00  0.00    -0.576 OA 
BRANCH  16  18
HETATM   18  C   UNL     1     -10.215  10.735  67.308  1.00  0.00    -0.245 A  
HETATM   19  C   UNL     1     -10.258   9.717  66.347  1.00  0.00    -0.288 A  
HETATM   20  C   UNL     1      -9.281   8.704  66.303  1.00  0.00    -0.257 A  
HETATM   21  C   UNL     1      -8.228   8.649  67.224  1.00  0.00    -0.105 A  
HETATM   22  O   UNL     1      -9.034  11.666  69.189  1.00  0.00    -0.373 OA 
HETATM   23  C   UNL     1      -8.170   9.702  68.154  1.00  0.00    -0.106 A  
HETATM   24  H   UNL     1      -8.308  11.652  69.801  1.00  0.00     0.000 HD 
HETATM   25  C   UNL     1      -9.147  10.716  68.210  1.00  0.00    -0.153 A  
BRANCH  21  26
HETATM   26  N   UNL     1      -7.281   7.628  67.238  1.00  0.00    -0.088 NA 
BRANCH  26  27
HETATM   27  C   UNL     1      -5.921   7.915  66.754  1.00  0.00    -0.048 C  
HETATM   28  C   UNL     1      -5.174   6.624  66.449  1.00  0.00    -0.017 C  
ENDBRANCH  26  27
BRANCH  26  29
HETATM   29  C   UNL     1      -7.426   6.447  68.101  1.00  0.00    -0.094 C  
HETATM   30  C   UNL     1      -8.623   5.617  67.662  1.00  0.00    -0.108 C  
ENDBRANCH  26  29
ENDBRANCH  21  26
ENDBRANCH  16  18
ENDBRANCH  15  16
ENDBRANCH   8  10
ENDBRANCH   7   8
ENDBRANCH   6   7
ENDBRANCH   5   6
ENDBRANCH   4   5
ENDBRANCH   3   4
ENDBRANCH   2   3
TORSDOF 12
ENDMDL
MODEL      146
REMARK 921   NORMALIZED FREE ENERGY PREDICTED BY IDOCK:   -4.42 KCAL/MOL
REMARK 922        TOTAL FREE ENERGY PREDICTED BY IDOCK:   -9.48 KCAL/MOL
REMARK 923 INTER-LIGAND FREE ENERGY PREDICTED BY IDOCK:   -8.59 KCAL/MOL
REMARK 924 INTRA-LIGAND FREE ENERGY PREDICTED BY IDOCK:   -0.88 KCAL/MOL
REMARK 927      BINDING AFFINITY PREDICTED BY RF-SCORE:    0.00 PKD
ROOT
HETATM    1  C   UNL     1     -10.180   7.396  66.990  1.00  0.00    -0.357 C  
HETATM    2  C   UNL     1      -8.760   7.795  67.363  1.00  0.00    -0.128 C  
ENDROOT
BRANCH   2   3
HETATM    3  C   UNL     1      -8.308   9.031  66.585  1.00  0.00    -0.118 C  
BRANCH   3   4
HETATM    4  C   UNL     1      -9.298   9.402  65.474  1.00  0.00    -0.315 C  
BRANCH   4   5
HETATM    5  C   UNL     1      -9.344  10.919  65.279  1.00  0.00    -0.246 C  
BRANCH   5   6
HETATM    6  C   UNL     1     -10.660  11.555  65.715  1.00  0.00    -0.263 C  
BRANCH   6   7
HETATM    7  O   UNL     1     -10.643  12.160  67.009  1.00  0.00    -0.221 OA 
BRANCH   7   8
HETATM    8  C   UNL     1     -11.434  11.570  67.942  1.00  0.00    -0.301 C  
HETATM    9  O   UNL     1     -11.572  10.366  68.109  1.00  0.00    -0.355 OA 
BRANCH   8  10
HETATM   10  C   UNL     1     -11.841  12.589  68.952  1.00  0.00    -0.346 A  
HETATM   11  C   UNL     1     -12.103  12.066  70.236  1.00  0.00    -0.395 A  
HETATM   12  C   UNL     1     -12.431  12.900  71.305  1.00  0.00    -0.298 A  
HETATM   13  C   UNL     1     -12.550  14.268  71.098  1.00  0.00    -0.432 A  
HETATM   14  C   UNL     1     -12.308  14.804  69.833  1.00  0.00    -0.328 A  
HETATM   15  C   UNL     1     -11.899  13.984  68.764  1.00  0.00    -0.396 A  
BRANCH  15  16
HETATM   16  C   UNL     1     -11.636  14.645  67.462  1.00  0.00    -0.375 C  
HETATM   17  O   UNL     1     -12.447  14.453  66.558  1.00  0.00    -0.376 OA 
BRANCH  16  18
HETATM   18  C   UNL     1     -10.490  15.596  67.236  1.00  0.00    -0.292 A  
HETATM   19  C   UNL     1     -10.358  16.657  68.142  1.00  0.00    -0.303 A  
HETATM   20  C   UNL     1      -9.361  17.638  67.986  1.00  0.00    -0.274 A  
HETATM   21  C   UNL     1      -8.462  17.619  66.913  1.00  0.00    -0.241 A  
HETATM   22  O   UNL     1      -9.638  14.546  65.243  1.00  0.00    -0.512 OA 
HETATM   23  C   UNL     1      -8.575  16.525  66.037  1.00  0.00    -0.241 A  
HETATM   24  H   UNL     1      -9.016  14.509  64.527  1.00  0.00     0.000 HD 
HETATM   25  C   UNL     1      -9.574  15.541  66.181  1.00  0.00    -0.330 A  
BRANCH  21  26
HETATM   26  N   UNL     1      -7.504  18.608  66.704  1.00  0.00    -0.225 NA 
BRANCH  26  27
HETATM   27  C   UNL     1      -6.103  18.206  66.497  1.00  0.00    -0.171 C  
HETATM   28  C   UNL     1      -5.397  18.006  67.831  1.00  0.00    -0.151 C  
ENDBRANCH  26  27
BRANCH  26  29
HETATM   29  C   UNL     1      -7.867  19.954  66.240  1.00  0.00    -0.321 C  
HETATM   30  C   UNL     1      -6.857  20.448  65.215  1.00  0.00    -0.283 C  
ENDBRANCH  26  29
ENDBRANCH  21  26
ENDBRANCH  16  18
ENDBRANCH  15  16
ENDBRANCH   8  10
ENDBRANCH   7   8
ENDBRANCH   6   7
ENDBRANCH   5   6
ENDBRANCH   4   5
ENDBRANCH   3   4
ENDBRANCH   2   3
TORSDOF 12
ENDMDL
MODEL      147
REMARK 921   NORMALIZED FREE ENERGY PREDICTED BY IDOCK:   -4.41 KCAL/MOL
REMARK 922        TOTAL FREE ENERGY PREDICTED BY IDOCK:   -9.47 KCAL/MOL
REMARK 923 INTER-LIGAND FREE ENERGY PREDICTED BY IDOCK:   -8.22 KCAL/MOL
REMARK 924 INTRA-LIGAND FREE ENERGY PREDICTED BY IDOCK:   -1.26 KCAL/MOL
REMARK 927      BINDING AFFINITY PREDICTED BY RF-SCORE:    0.00 PKD
ROOT
HETATM    1  C   UNL     1     -12.144   7.651  71.298  1.00  0.00    -0.337 C  
HETATM    2  C   UNL     1     -11.474   8.980  71.617  1.00  0.00    -0.431 C  
ENDROOT
BRANCH   2   3
HETATM    3  C   UNL     1      -9.953   8.841  71.652  1.00  0.00    -0.381 C  
BRANCH   3   4
HETATM    4  C   UNL     1      -9.452   7.770  70.675  1.00  0.00    -0.162 C  
BRANCH   4   5
HETATM    5  C   UNL     1      -8.841   8.419  69.431  1.00  0.00    -0.142 C  
BRANCH   5   6
HETATM    6  C   UNL     1      -9.860   8.739  68.342  1.00  0.00    -0.171 C  
BRANCH   6   7
HETATM    7  O   UNL     1      -9.391   9.604  67.306  1.00  0.00    -0.136 OA 
BRANCH   7   8
HETATM    8  C   UNL     1     -10.310   9.947  66.368  1.00  0.00    -0.176 C  
HETATM    9  O   UNL     1     -11.439  10.365  66.587  1.00  0.00     0.061 OA 
BRANCH   8  10
HETATM   10  C   UNL     1      -9.635  10.066  65.044  1.00  0.00    -0.362 A  
HETATM   11  C   UNL     1      -8.612   9.120  64.823  1.00  0.00    -0.209 A  
HETATM   12  C   UNL     1      -7.931   9.059  63.607  1.00  0.00    -0.150 A  
HETATM   13  C   UNL     1      -8.229   9.976  62.606  1.00  0.00    -0.152 A  
HETATM   14  C   UNL     1      -9.228  10.928  62.809  1.00  0.00    -0.360 A  
HETATM   15  C   UNL     1      -9.977  10.950  64.001  1.00  0.00    -0.403 A  
BRANCH  15  16
HETATM   16  C   UNL     1     -11.039  11.979  64.117  1.00  0.00    -0.368 C  
HETATM   17  O   UNL     1     -12.011  11.874  63.370  1.00  0.00    -0.483 OA 
BRANCH  16  18
HETATM   18  C   UNL     1     -11.021  13.072  65.154  1.00  0.00    -0.317 A  
HETATM   19  C   UNL     1      -9.763  13.517  65.583  1.00  0.00    -0.109 A  
HETATM   20  C   UNL     1      -9.632  14.488  66.594  1.00  0.00    -0.291 A  
HETATM   21  C   UNL     1     -10.744  15.047  67.235  1.00  0.00    -0.298 A  
HETATM   22  O   UNL     1     -13.408  13.265  65.408  1.00  0.00    -0.496 OA 
HETATM   23  C   UNL     1     -12.000  14.626  66.764  1.00  0.00    -0.297 A  
HETATM   24  H   UNL     1     -14.169  13.657  65.817  1.00  0.00     0.000 HD 
HETATM   25  C   UNL     1     -12.142  13.650  65.757  1.00  0.00    -0.428 A  
BRANCH  21  26
HETATM   26  N   UNL     1     -10.640  15.967  68.275  1.00  0.00    -0.271 NA 
BRANCH  26  27
HETATM   27  C   UNL     1      -9.849  17.190  68.064  1.00  0.00    -0.283 C  
HETATM   28  C   UNL     1     -10.696  18.275  67.415  1.00  0.00    -0.377 C  
ENDBRANCH  26  27
BRANCH  26  29
HETATM   29  C   UNL     1     -11.614  16.007  69.375  1.00  0.00    -0.320 C  
HETATM   30  C   UNL     1     -10.942  15.634  70.688  1.00  0.00    -0.364 C  
ENDBRANCH  26  29
ENDBRANCH  21  26
ENDBRANCH  16  18
ENDBRANCH  15  16
ENDBRANCH   8  10
ENDBRANCH   7   8
ENDBRANCH   6   7
ENDBRANCH   5   6
ENDBRANCH   4   5
ENDBRANCH   3   4
ENDBRANCH   2   3
TORSDOF 12
ENDMDL
MODEL      148
REMARK 921   NORMALIZED FREE ENERGY PREDICTED BY IDOCK:   -4.40 KCAL/MOL
REMARK 922        TOTAL FREE ENERGY PREDICTED BY IDOCK:   -9.46 KCAL/MOL
REMARK 923 INTER-LIGAND FREE ENERGY PREDICTED BY IDOCK:   -6.34 KCAL/MOL
REMARK 924 INTRA-LIGAND FREE ENERGY PREDICTED BY IDOCK:   -3.12 KCAL/MOL
REMARK 927      BINDING AFFINITY PREDICTED BY RF-SCORE:    0.00 PKD
ROOT
HETATM    1  C   UNL     1     -11.144   6.586  67.285  1.00  0.00    -0.429 C  
HETATM    2  C   UNL     1     -10.205   5.413  67.044  1.00  0.00    -0.274 C  
ENDROOT
BRANCH   2   3
HETATM    3  C   UNL     1      -9.698   4.827  68.361  1.00  0.00    -0.209 C  
BRANCH   3   4
HETATM    4  C   UNL     1     -10.396   5.454  69.574  1.00  0.00    -0.350 C  
BRANCH   4   5
HETATM    5  C   UNL     1     -10.117   4.636  70.837  1.00  0.00    -0.257 C  
BRANCH   5   6
HETATM    6  C   UNL     1      -8.818   5.016  71.540  1.00  0.00    -0.132 C  
BRANCH   6   7
HETATM    7  O   UNL     1      -8.446   6.391  71.429  1.00  0.00    -0.125 OA 
BRANCH   7   8
HETATM    8  C   UNL     1      -8.856   7.193  72.444  1.00  0.00    -0.127 C  
HETATM    9  O   UNL     1      -8.256   7.388  73.493  1.00  0.00    -0.114 OA 
BRANCH   8  10
HETATM   10  C   UNL     1      -9.966   8.064  71.961  1.00  0.00    -0.275 A  
HETATM   11  C   UNL     1     -11.202   7.844  72.604  1.00  0.00    -0.459 A  
HETATM   12  C   UNL     1     -12.321   8.624  72.311  1.00  0.00    -0.449 A  
HETATM   13  C   UNL     1     -12.235   9.607  71.333  1.00  0.00    -0.471 A  
HETATM   14  C   UNL     1     -11.026   9.832  70.676  1.00  0.00    -0.398 A  
HETATM   15  C   UNL     1      -9.869   9.106  71.018  1.00  0.00    -0.366 A  
BRANCH  15  16
HETATM   16  C   UNL     1      -8.620   9.433  70.288  1.00  0.00    -0.221 C  
HETATM   17  O   UNL     1      -7.699   9.927  70.937  1.00  0.00    -0.269 OA 
BRANCH  16  18
HETATM   18  C   UNL     1      -8.405   9.107  68.833  1.00  0.00    -0.124 A  
HETATM   19  C   UNL     1      -9.118   9.871  67.900  1.00  0.00    -0.135 A  
HETATM   20  C   UNL     1      -9.040   9.608  66.519  1.00  0.00    -0.185 A  
HETATM   21  C   UNL     1      -8.263   8.563  66.006  1.00  0.00    -0.118 A  
HETATM   22  O   UNL     1      -6.871   7.282  69.173  1.00  0.00    -0.057 OA 
HETATM   23  C   UNL     1      -7.516   7.834  66.947  1.00  0.00    -0.094 A  
HETATM   24  H   UNL     1      -6.319   6.588  68.833  1.00  0.00     0.000 HD 
HETATM   25  C   UNL     1      -7.593   8.085  68.332  1.00  0.00    -0.108 A  
BRANCH  21  26
HETATM   26  N   UNL     1      -8.212   8.247  64.650  1.00  0.00    -0.158 NA 
BRANCH  26  27
HETATM   27  C   UNL     1      -8.002   9.330  63.676  1.00  0.00    -0.141 C  
HETATM   28  C   UNL     1      -6.625   9.954  63.853  1.00  0.00    -0.126 C  
ENDBRANCH  26  27
BRANCH  26  29
HETATM   29  C   UNL     1      -7.910   6.887  64.182  1.00  0.00    -0.104 C  
HETATM   30  C   UNL     1      -8.051   6.807  62.670  1.00  0.00    -0.059 C  
ENDBRANCH  26  29
ENDBRANCH  21  26
ENDBRANCH  16  18
ENDBRANCH  15  16
ENDBRANCH   8  10
ENDBRANCH   7   8
ENDBRANCH   6   7
ENDBRANCH   5   6
ENDBRANCH   4   5
ENDBRANCH   3   4
ENDBRANCH   2   3
TORSDOF 12
ENDMDL
MODEL      149
REMARK 921   NORMALIZED FREE ENERGY PREDICTED BY IDOCK:   -4.40 KCAL/MOL
REMARK 922        TOTAL FREE ENERGY PREDICTED BY IDOCK:   -9.46 KCAL/MOL
REMARK 923 INTER-LIGAND FREE ENERGY PREDICTED BY IDOCK:   -8.63 KCAL/MOL
REMARK 924 INTRA-LIGAND FREE ENERGY PREDICTED BY IDOCK:   -0.83 KCAL/MOL
REMARK 927      BINDING AFFINITY PREDICTED BY RF-SCORE:    0.00 PKD
ROOT
HETATM    1  C   UNL     1     -11.138   6.375  71.076  1.00  0.00    -0.349 C  
HETATM    2  C   UNL     1     -11.336   7.167  72.359  1.00  0.00    -0.312 C  
ENDROOT
BRANCH   2   3
HETATM    3  C   UNL     1     -10.663   8.536  72.277  1.00  0.00    -0.411 C  
BRANCH   3   4
HETATM    4  C   UNL     1     -10.197   8.861  70.852  1.00  0.00    -0.304 C  
BRANCH   4   5
HETATM    5  C   UNL     1     -10.778  10.198  70.387  1.00  0.00    -0.329 C  
BRANCH   5   6
HETATM    6  C   UNL     1     -10.621  10.449  68.891  1.00  0.00    -0.216 C  
BRANCH   6   7
HETATM    7  O   UNL     1     -10.374  11.808  68.525  1.00  0.00    -0.207 OA 
BRANCH   7   8
HETATM    8  C   UNL     1     -11.476  12.592  68.403  1.00  0.00    -0.312 C  
HETATM    9  O   UNL     1     -12.141  13.045  69.325  1.00  0.00    -0.278 OA 
BRANCH   8  10
HETATM   10  C   UNL     1     -11.560  13.102  67.004  1.00  0.00    -0.408 A  
HETATM   11  C   UNL     1     -11.894  12.122  66.045  1.00  0.00    -0.328 A  
HETATM   12  C   UNL     1     -12.076  12.455  64.702  1.00  0.00    -0.487 A  
HETATM   13  C   UNL     1     -11.879  13.766  64.287  1.00  0.00    -0.451 A  
HETATM   14  C   UNL     1     -11.535  14.747  65.217  1.00  0.00    -0.352 A  
HETATM   15  C   UNL     1     -11.426  14.441  66.587  1.00  0.00    -0.372 A  
BRANCH  15  16
HETATM   16  C   UNL     1     -11.085  15.553  67.507  1.00  0.00    -0.305 C  
HETATM   17  O   UNL     1     -11.826  15.734  68.473  1.00  0.00    -0.363 OA 
BRANCH  16  18
HETATM   18  C   UNL     1      -9.844  16.394  67.362  1.00  0.00    -0.244 A  
HETATM   19  C   UNL     1      -8.630  15.712  67.206  1.00  0.00    -0.213 A  
HETATM   20  C   UNL     1      -7.404  16.399  67.126  1.00  0.00    -0.230 A  
HETATM   21  C   UNL     1      -7.329  17.794  67.214  1.00  0.00    -0.187 A  
HETATM   22  O   UNL     1     -10.925  18.536  67.574  1.00  0.00    -0.371 OA 
HETATM   23  C   UNL     1      -8.557  18.470  67.323  1.00  0.00    -0.268 A  
HETATM   24  H   UNL     1     -10.887  19.484  67.608  1.00  0.00     0.000 HD 
HETATM   25  C   UNL     1      -9.788  17.791  67.411  1.00  0.00    -0.311 A  
BRANCH  21  26
HETATM   26  N   UNL     1      -6.125  18.494  67.194  1.00  0.00    -0.164 NA 
BRANCH  26  27
HETATM   27  C   UNL     1      -5.434  18.754  68.467  1.00  0.00    -0.192 C  
HETATM   28  C   UNL     1      -6.158  19.829  69.264  1.00  0.00    -0.328 C  
ENDBRANCH  26  27
BRANCH  26  29
HETATM   29  C   UNL     1      -5.303  18.589  65.979  1.00  0.00    -0.155 C  
HETATM   30  C   UNL     1      -5.277  20.022  65.471  1.00  0.00    -0.183 C  
ENDBRANCH  26  29
ENDBRANCH  21  26
ENDBRANCH  16  18
ENDBRANCH  15  16
ENDBRANCH   8  10
ENDBRANCH   7   8
ENDBRANCH   6   7
ENDBRANCH   5   6
ENDBRANCH   4   5
ENDBRANCH   3   4
ENDBRANCH   2   3
TORSDOF 12
ENDMDL
MODEL      150
REMARK 921   NORMALIZED FREE ENERGY PREDICTED BY IDOCK:   -4.39 KCAL/MOL
REMARK 922        TOTAL FREE ENERGY PREDICTED BY IDOCK:   -9.44 KCAL/MOL
REMARK 923 INTER-LIGAND FREE ENERGY PREDICTED BY IDOCK:   -7.45 KCAL/MOL
REMARK 924 INTRA-LIGAND FREE ENERGY PREDICTED BY IDOCK:   -1.99 KCAL/MOL
REMARK 927      BINDING AFFINITY PREDICTED BY RF-SCORE:    0.00 PKD
ROOT
HETATM    1  C   UNL     1     -12.236  11.417  70.606  1.00  0.00    -0.484 C  
HETATM    2  C   UNL     1     -13.160  10.768  71.626  1.00  0.00    -0.551 C  
ENDROOT
BRANCH   2   3
HETATM    3  C   UNL     1     -12.579   9.454  72.145  1.00  0.00    -0.423 C  
BRANCH   3   4
HETATM    4  C   UNL     1     -13.495   8.262  71.840  1.00  0.00    -0.372 C  
BRANCH   4   5
HETATM    5  C   UNL     1     -12.675   7.061  71.364  1.00  0.00    -0.421 C  
BRANCH   5   6
HETATM    6  C   UNL     1     -11.333   7.440  70.745  1.00  0.00    -0.280 C  
BRANCH   6   7
HETATM    7  O   UNL     1     -10.319   6.437  70.831  1.00  0.00    -0.196 OA 
BRANCH   7   8
HETATM    8  C   UNL     1      -9.142   6.741  70.228  1.00  0.00    -0.153 C  
HETATM    9  O   UNL     1      -8.159   7.226  70.773  1.00  0.00    -0.108 OA 
BRANCH   8  10
HETATM   10  C   UNL     1      -9.096   6.087  68.888  1.00  0.00    -0.121 A  
HETATM   11  C   UNL     1      -9.669   4.798  68.849  1.00  0.00    -0.244 A  
HETATM   12  C   UNL     1      -9.762   4.083  67.654  1.00  0.00    -0.164 A  
HETATM   13  C   UNL     1      -9.241   4.626  66.486  1.00  0.00    -0.132 A  
HETATM   14  C   UNL     1      -8.660   5.893  66.507  1.00  0.00    -0.123 A  
HETATM   15  C   UNL     1      -8.629   6.659  67.688  1.00  0.00    -0.120 A  
BRANCH  15  16
HETATM   16  C   UNL     1      -8.017   8.008  67.609  1.00  0.00    -0.123 C  
HETATM   17  O   UNL     1      -6.829   8.107  67.911  1.00  0.00    -0.069 OA 
BRANCH  16  18
HETATM   18  C   UNL     1      -8.752   9.219  67.097  1.00  0.00    -0.134 A  
HETATM   19  C   UNL     1      -9.762   9.741  67.916  1.00  0.00    -0.168 A  
HETATM   20  C   UNL     1     -10.552  10.831  67.505  1.00  0.00    -0.280 A  
HETATM   21  C   UNL     1     -10.385  11.440  66.255  1.00  0.00    -0.243 A  
HETATM   22  O   UNL     1      -7.589   9.389  64.995  1.00  0.00    -0.104 OA 
HETATM   23  C   UNL     1      -9.338  10.937  65.463  1.00  0.00    -0.237 A  
HETATM   24  H   UNL     1      -7.450   9.812  64.156  1.00  0.00     0.000 HD 
HETATM   25  C   UNL     1      -8.546   9.842  65.862  1.00  0.00    -0.137 A  
BRANCH  21  26
HETATM   26  N   UNL     1     -11.190  12.482  65.802  1.00  0.00    -0.307 NA 
BRANCH  26  27
HETATM   27  C   UNL     1     -11.963  13.260  66.784  1.00  0.00    -0.382 C  
HETATM   28  C   UNL     1     -11.401  14.668  66.919  1.00  0.00    -0.361 C  
ENDBRANCH  26  27
BRANCH  26  29
HETATM   29  C   UNL     1     -10.969  13.122  64.498  1.00  0.00    -0.372 C  
HETATM   30  C   UNL     1     -12.100  12.774  63.542  1.00  0.00    -0.642 C  
ENDBRANCH  26  29
ENDBRANCH  21  26
ENDBRANCH  16  18
ENDBRANCH  15  16
ENDBRANCH   8  10
ENDBRANCH   7   8
ENDBRANCH   6   7
ENDBRANCH   5   6
ENDBRANCH   4   5
ENDBRANCH   3   4
ENDBRANCH   2   3
TORSDOF 12
ENDMDL
MODEL      151
REMARK 921   NORMALIZED FREE ENERGY PREDICTED BY IDOCK:   -4.39 KCAL/MOL
REMARK 922        TOTAL FREE ENERGY PREDICTED BY IDOCK:   -9.44 KCAL/MOL
REMARK 923 INTER-LIGAND FREE ENERGY PREDICTED BY IDOCK:   -7.49 KCAL/MOL
REMARK 924 INTRA-LIGAND FREE ENERGY PREDICTED BY IDOCK:   -1.95 KCAL/MOL
REMARK 927      BINDING AFFINITY PREDICTED BY RF-SCORE:    0.00 PKD
ROOT
HETATM    1  C   UNL     1     -13.591   8.444  71.671  1.00  0.00    -0.380 C  
HETATM    2  C   UNL     1     -13.505   9.879  72.171  1.00  0.00    -0.454 C  
ENDROOT
BRANCH   2   3
HETATM    3  C   UNL     1     -12.445  10.671  71.407  1.00  0.00    -0.496 C  
BRANCH   3   4
HETATM    4  C   UNL     1     -12.771  12.170  71.364  1.00  0.00    -0.368 C  
BRANCH   4   5
HETATM    5  C   UNL     1     -12.226  12.802  70.081  1.00  0.00    -0.320 C  
BRANCH   5   6
HETATM    6  C   UNL     1     -11.771  14.247  70.253  1.00  0.00    -0.275 C  
BRANCH   6   7
HETATM    7  O   UNL     1     -12.188  15.143  69.222  1.00  0.00    -0.262 OA 
BRANCH   7   8
HETATM    8  C   UNL     1     -11.892  14.757  67.955  1.00  0.00    -0.297 C  
HETATM    9  O   UNL     1     -12.640  14.159  67.193  1.00  0.00    -0.161 OA 
BRANCH   8  10
HETATM   10  C   UNL     1     -10.657  15.461  67.505  1.00  0.00    -0.283 A  
HETATM   11  C   UNL     1     -10.504  16.763  68.028  1.00  0.00    -0.333 A  
HETATM   12  C   UNL     1      -9.368  17.525  67.754  1.00  0.00    -0.257 A  
HETATM   13  C   UNL     1      -8.386  17.017  66.913  1.00  0.00    -0.247 A  
HETATM   14  C   UNL     1      -8.524  15.737  66.376  1.00  0.00    -0.313 A  
HETATM   15  C   UNL     1      -9.626  14.926  66.707  1.00  0.00    -0.265 A  
BRANCH  15  16
HETATM   16  C   UNL     1      -9.674  13.568  66.112  1.00  0.00    -0.252 C  
HETATM   17  O   UNL     1      -9.990  13.483  64.926  1.00  0.00    -0.263 OA 
BRANCH  16  18
HETATM   18  C   UNL     1      -9.272  12.324  66.860  1.00  0.00    -0.209 A  
HETATM   19  C   UNL     1     -10.307  11.517  67.351  1.00  0.00    -0.235 A  
HETATM   20  C   UNL     1     -10.043  10.367  68.118  1.00  0.00    -0.179 A  
HETATM   21  C   UNL     1      -8.739   9.977  68.446  1.00  0.00    -0.117 A  
HETATM   22  O   UNL     1      -6.892  12.662  66.716  1.00  0.00    -0.398 OA 
HETATM   23  C   UNL     1      -7.708  10.768  67.909  1.00  0.00    -0.100 A  
HETATM   24  H   UNL     1      -6.003  12.391  66.911  1.00  0.00     0.000 HD 
HETATM   25  C   UNL     1      -7.963  11.926  67.146  1.00  0.00    -0.172 A  
BRANCH  21  26
HETATM   26  N   UNL     1      -8.452   8.876  69.250  1.00  0.00    -0.119 NA 
BRANCH  26  27
HETATM   27  C   UNL     1      -8.268   9.082  70.696  1.00  0.00    -0.181 C  
HETATM   28  C   UNL     1      -9.516   8.668  71.462  1.00  0.00    -0.320 C  
ENDBRANCH  26  27
BRANCH  26  29
HETATM   29  C   UNL     1      -8.763   7.504  68.825  1.00  0.00    -0.128 C  
HETATM   30  C   UNL     1      -7.597   6.917  68.045  1.00  0.00    -0.108 C  
ENDBRANCH  26  29
ENDBRANCH  21  26
ENDBRANCH  16  18
ENDBRANCH  15  16
ENDBRANCH   8  10
ENDBRANCH   7   8
ENDBRANCH   6   7
ENDBRANCH   5   6
ENDBRANCH   4   5
ENDBRANCH   3   4
ENDBRANCH   2   3
TORSDOF 12
ENDMDL
MODEL      152
REMARK 921   NORMALIZED FREE ENERGY PREDICTED BY IDOCK:   -4.36 KCAL/MOL
REMARK 922        TOTAL FREE ENERGY PREDICTED BY IDOCK:   -9.38 KCAL/MOL
REMARK 923 INTER-LIGAND FREE ENERGY PREDICTED BY IDOCK:   -8.07 KCAL/MOL
REMARK 924 INTRA-LIGAND FREE ENERGY PREDICTED BY IDOCK:   -1.31 KCAL/MOL
REMARK 927      BINDING AFFINITY PREDICTED BY RF-SCORE:    0.00 PKD
ROOT
HETATM    1  C   UNL     1      -9.572  11.283  64.037  1.00  0.00    -0.261 C  
HETATM    2  C   UNL     1     -10.882  11.246  63.264  1.00  0.00    -0.222 C  
ENDROOT
BRANCH   2   3
HETATM    3  C   UNL     1     -11.800  12.397  63.672  1.00  0.00    -0.610 C  
BRANCH   3   4
HETATM    4  C   UNL     1     -11.007  13.634  64.112  1.00  0.00    -0.211 C  
BRANCH   4   5
HETATM    5  C   UNL     1     -11.886  14.566  64.949  1.00  0.00    -0.417 C  
BRANCH   5   6
HETATM    6  C   UNL     1     -12.418  13.926  66.227  1.00  0.00    -0.409 C  
BRANCH   6   7
HETATM    7  O   UNL     1     -11.469  13.149  66.959  1.00  0.00    -0.303 OA 
BRANCH   7   8
HETATM    8  C   UNL     1     -11.883  12.712  68.175  1.00  0.00    -0.315 C  
HETATM    9  O   UNL     1     -12.095  11.548  68.487  1.00  0.00    -0.522 OA 
BRANCH   8  10
HETATM   10  C   UNL     1     -11.713  13.808  69.172  1.00  0.00    -0.379 A  
HETATM   11  C   UNL     1     -12.833  14.018  70.004  1.00  0.00     0.008 A  
HETATM   12  C   UNL     1     -12.807  14.964  71.030  1.00  0.00    -0.425 A  
HETATM   13  C   UNL     1     -11.675  15.749  71.211  1.00  0.00    -0.496 A  
HETATM   14  C   UNL     1     -10.562  15.565  70.391  1.00  0.00    -0.294 A  
HETATM   15  C   UNL     1     -10.546  14.562  69.404  1.00  0.00    -0.172 A  
BRANCH  15  16
HETATM   16  C   UNL     1      -9.308  14.420  68.598  1.00  0.00    -0.188 C  
HETATM   17  O   UNL     1      -8.909  13.278  68.374  1.00  0.00    -0.177 OA 
BRANCH  16  18
HETATM   18  C   UNL     1      -8.588  15.589  67.979  1.00  0.00    -0.155 A  
HETATM   19  C   UNL     1      -9.118  16.101  66.788  1.00  0.00    -0.257 A  
HETATM   20  C   UNL     1      -8.486  17.150  66.092  1.00  0.00    -0.238 A  
HETATM   21  C   UNL     1      -7.291  17.724  66.541  1.00  0.00    -0.248 A  
HETATM   22  O   UNL     1      -6.823  15.732  69.611  1.00  0.00    -0.189 OA 
HETATM   23  C   UNL     1      -6.795  17.233  67.761  1.00  0.00    -0.172 A  
HETATM   24  H   UNL     1      -6.027  16.133  69.938  1.00  0.00     0.000 HD 
HETATM   25  C   UNL     1      -7.415  16.179  68.461  1.00  0.00    -0.167 A  
BRANCH  21  26
HETATM   26  N   UNL     1      -6.618  18.723  65.843  1.00  0.00    -0.228 NA 
BRANCH  26  27
HETATM   27  C   UNL     1      -5.502  18.344  64.961  1.00  0.00    -0.152 C  
HETATM   28  C   UNL     1      -5.554  19.129  63.658  1.00  0.00    -0.294 C  
ENDBRANCH  26  27
BRANCH  26  29
HETATM   29  C   UNL     1      -7.225  20.038  65.591  1.00  0.00    -0.308 C  
HETATM   30  C   UNL     1      -7.752  20.632  66.888  1.00  0.00    -0.274 C  
ENDBRANCH  26  29
ENDBRANCH  21  26
ENDBRANCH  16  18
ENDBRANCH  15  16
ENDBRANCH   8  10
ENDBRANCH   7   8
ENDBRANCH   6   7
ENDBRANCH   5   6
ENDBRANCH   4   5
ENDBRANCH   3   4
ENDBRANCH   2   3
TORSDOF 12
ENDMDL
MODEL      153
REMARK 921   NORMALIZED FREE ENERGY PREDICTED BY IDOCK:   -4.35 KCAL/MOL
REMARK 922        TOTAL FREE ENERGY PREDICTED BY IDOCK:   -9.37 KCAL/MOL
REMARK 923 INTER-LIGAND FREE ENERGY PREDICTED BY IDOCK:   -7.47 KCAL/MOL
REMARK 924 INTRA-LIGAND FREE ENERGY PREDICTED BY IDOCK:   -1.90 KCAL/MOL
REMARK 927      BINDING AFFINITY PREDICTED BY RF-SCORE:    0.00 PKD
ROOT
HETATM    1  C   UNL     1     -12.204  14.632  64.350  1.00  0.00    -0.473 C  
HETATM    2  C   UNL     1     -12.602  13.600  65.395  1.00  0.00    -0.533 C  
ENDROOT
BRANCH   2   3
HETATM    3  C   UNL     1     -12.188  14.043  66.798  1.00  0.00    -0.439 C  
BRANCH   3   4
HETATM    4  C   UNL     1     -10.678  14.294  66.898  1.00  0.00    -0.290 C  
BRANCH   4   5
HETATM    5  C   UNL     1     -10.153  13.882  68.275  1.00  0.00    -0.241 C  
BRANCH   5   6
HETATM    6  C   UNL     1      -8.664  13.556  68.293  1.00  0.00    -0.172 C  
BRANCH   6   7
HETATM    7  O   UNL     1      -8.158  12.955  67.099  1.00  0.00    -0.173 OA 
BRANCH   7   8
HETATM    8  C   UNL     1      -7.247  11.965  67.282  1.00  0.00    -0.147 C  
HETATM    9  O   UNL     1      -6.506  11.841  68.247  1.00  0.00    -0.049 OA 
BRANCH   8  10
HETATM   10  C   UNL     1      -7.517  10.867  66.309  1.00  0.00    -0.129 A  
HETATM   11  C   UNL     1      -6.411  10.516  65.505  1.00  0.00    -0.106 A  
HETATM   12  C   UNL     1      -6.484   9.463  64.593  1.00  0.00    -0.080 A  
HETATM   13  C   UNL     1      -7.680   8.774  64.434  1.00  0.00    -0.123 A  
HETATM   14  C   UNL     1      -8.788   9.113  65.210  1.00  0.00    -0.240 A  
HETATM   15  C   UNL     1      -8.705  10.121  66.190  1.00  0.00    -0.154 A  
BRANCH  15  16
HETATM   16  C   UNL     1      -9.925  10.395  66.988  1.00  0.00    -0.206 C  
HETATM   17  O   UNL     1     -10.882  10.899  66.401  1.00  0.00    -0.230 OA 
BRANCH  16  18
HETATM   18  C   UNL     1     -10.071  10.003  68.435  1.00  0.00    -0.186 A  
HETATM   19  C   UNL     1      -9.009   9.291  69.009  1.00  0.00    -0.140 A  
HETATM   20  C   UNL     1      -9.069   8.821  70.335  1.00  0.00    -0.198 A  
HETATM   21  C   UNL     1     -10.193   9.024  71.143  1.00  0.00    -0.293 A  
HETATM   22  O   UNL     1     -12.271  10.926  68.761  1.00  0.00    -0.753 OA 
HETATM   23  C   UNL     1     -11.232   9.780  70.573  1.00  0.00    -0.381 A  
HETATM   24  H   UNL     1     -13.028  11.092  69.310  1.00  0.00     0.000 HD 
HETATM   25  C   UNL     1     -11.185  10.248  69.244  1.00  0.00    -0.228 A  
BRANCH  21  26
HETATM   26  N   UNL     1     -10.300   8.522  72.438  1.00  0.00    -0.324 NA 
BRANCH  26  27
HETATM   27  C   UNL     1     -11.517   7.782  72.814  1.00  0.00    -0.359 C  
HETATM   28  C   UNL     1     -11.878   6.761  71.745  1.00  0.00    -0.371 C  
ENDBRANCH  26  27
BRANCH  26  29
HETATM   29  C   UNL     1      -9.119   8.299  73.284  1.00  0.00    -0.207 C  
HETATM   30  C   UNL     1      -9.391   7.186  74.285  1.00  0.00    -0.246 C  
ENDBRANCH  26  29
ENDBRANCH  21  26
ENDBRANCH  16  18
ENDBRANCH  15  16
ENDBRANCH   8  10
ENDBRANCH   7   8
ENDBRANCH   6   7
ENDBRANCH   5   6
ENDBRANCH   4   5
ENDBRANCH   3   4
ENDBRANCH   2   3
TORSDOF 12
ENDMDL
MODEL      154
REMARK 921   NORMALIZED FREE ENERGY PREDICTED BY IDOCK:   -4.35 KCAL/MOL
REMARK 922        TOTAL FREE ENERGY PREDICTED BY IDOCK:   -9.37 KCAL/MOL
REMARK 923 INTER-LIGAND FREE ENERGY PREDICTED BY IDOCK:   -6.97 KCAL/MOL
REMARK 924 INTRA-LIGAND FREE ENERGY PREDICTED BY IDOCK:   -2.40 KCAL/MOL
REMARK 927      BINDING AFFINITY PREDICTED BY RF-SCORE:    0.00 PKD
ROOT
HETATM    1  C   UNL     1      -6.511   5.624  69.086  1.00  0.00    -0.042 C  
HETATM    2  C   UNL     1      -7.021   6.958  69.611  1.00  0.00    -0.063 C  
ENDROOT
BRANCH   2   3
HETATM    3  C   UNL     1      -6.772   8.082  68.606  1.00  0.00    -0.062 C  
BRANCH   3   4
HETATM    4  C   UNL     1      -6.183   9.330  69.276  1.00  0.00    -0.041 C  
BRANCH   4   5
HETATM    5  C   UNL     1      -7.233  10.439  69.366  1.00  0.00    -0.109 C  
BRANCH   5   6
HETATM    6  C   UNL     1      -7.008  11.580  68.380  1.00  0.00    -0.077 C  
BRANCH   6   7
HETATM    7  O   UNL     1      -7.779  12.758  68.626  1.00  0.00    -0.124 OA 
BRANCH   7   8
HETATM    8  C   UNL     1      -8.608  13.136  67.619  1.00  0.00    -0.193 C  
HETATM    9  O   UNL     1      -8.677  12.619  66.513  1.00  0.00    -0.135 OA 
BRANCH   8  10
HETATM   10  C   UNL     1      -9.658  14.044  68.166  1.00  0.00    -0.220 A  
HETATM   11  C   UNL     1      -9.183  15.313  68.559  1.00  0.00    -0.200 A  
HETATM   12  C   UNL     1     -10.053  16.299  69.028  1.00  0.00    -0.259 A  
HETATM   13  C   UNL     1     -11.407  16.014  69.159  1.00  0.00    -0.352 A  
HETATM   14  C   UNL     1     -11.894  14.761  68.788  1.00  0.00    -0.330 A  
HETATM   15  C   UNL     1     -11.040  13.785  68.239  1.00  0.00    -0.279 A  
BRANCH  15  16
HETATM   16  C   UNL     1     -11.651  12.491  67.846  1.00  0.00    -0.347 C  
HETATM   17  O   UNL     1     -12.250  12.453  66.771  1.00  0.00    -0.551 OA 
BRANCH  16  18
HETATM   18  C   UNL     1     -11.493  11.226  68.648  1.00  0.00    -0.362 A  
HETATM   19  C   UNL     1     -12.065  11.211  69.927  1.00  0.00    -0.418 A  
HETATM   20  C   UNL     1     -11.922  10.103  70.784  1.00  0.00    -0.442 A  
HETATM   21  C   UNL     1     -11.189   8.969  70.414  1.00  0.00    -0.241 A  
HETATM   22  O   UNL     1     -10.191  10.018  67.021  1.00  0.00    -0.213 OA 
HETATM   23  C   UNL     1     -10.660   8.977  69.112  1.00  0.00    -0.219 A  
HETATM   24  H   UNL     1      -9.715   9.243  66.751  1.00  0.00     0.000 HD 
HETATM   25  C   UNL     1     -10.792  10.084  68.249  1.00  0.00    -0.241 A  
BRANCH  21  26
HETATM   26  N   UNL     1     -10.985   7.884  71.264  1.00  0.00    -0.235 NA 
BRANCH  26  27
HETATM   27  C   UNL     1     -11.815   6.681  71.090  1.00  0.00    -0.360 C  
HETATM   28  C   UNL     1     -13.277   6.987  71.384  1.00  0.00    -0.352 C  
ENDBRANCH  26  27
BRANCH  26  29
HETATM   29  C   UNL     1      -9.727   7.703  72.002  1.00  0.00    -0.166 C  
HETATM   30  C   UNL     1     -10.013   7.262  73.429  1.00  0.00    -0.343 C  
ENDBRANCH  26  29
ENDBRANCH  21  26
ENDBRANCH  16  18
ENDBRANCH  15  16
ENDBRANCH   8  10
ENDBRANCH   7   8
ENDBRANCH   6   7
ENDBRANCH   5   6
ENDBRANCH   4   5
ENDBRANCH   3   4
ENDBRANCH   2   3
TORSDOF 12
ENDMDL
MODEL      155
REMARK 921   NORMALIZED FREE ENERGY PREDICTED BY IDOCK:   -4.34 KCAL/MOL
REMARK 922        TOTAL FREE ENERGY PREDICTED BY IDOCK:   -9.34 KCAL/MOL
REMARK 923 INTER-LIGAND FREE ENERGY PREDICTED BY IDOCK:   -8.03 KCAL/MOL
REMARK 924 INTRA-LIGAND FREE ENERGY PREDICTED BY IDOCK:   -1.32 KCAL/MOL
REMARK 927      BINDING AFFINITY PREDICTED BY RF-SCORE:    0.00 PKD
ROOT
HETATM    1  C   UNL     1      -8.091  10.572  62.360  1.00  0.00    -0.216 C  
HETATM    2  C   UNL     1      -7.005  10.055  63.291  1.00  0.00    -0.130 C  
ENDROOT
BRANCH   2   3
HETATM    3  C   UNL     1      -7.433   8.758  63.978  1.00  0.00    -0.116 C  
BRANCH   3   4
HETATM    4  C   UNL     1      -8.033   9.015  65.366  1.00  0.00    -0.111 C  
BRANCH   4   5
HETATM    5  C   UNL     1      -7.054   9.806  66.237  1.00  0.00    -0.095 C  
BRANCH   5   6
HETATM    6  C   UNL     1      -7.727  10.838  67.135  1.00  0.00    -0.120 C  
BRANCH   6   7
HETATM    7  O   UNL     1      -8.444  11.867  66.449  1.00  0.00    -0.145 OA 
BRANCH   7   8
HETATM    8  C   UNL     1      -9.724  12.061  66.856  1.00  0.00    -0.203 C  
HETATM    9  O   UNL     1     -10.091  12.248  68.008  1.00  0.00    -0.194 OA 
BRANCH   8  10
HETATM   10  C   UNL     1     -10.575  12.354  65.667  1.00  0.00    -0.297 A  
HETATM   11  C   UNL     1     -10.526  11.369  64.658  1.00  0.00    -0.373 A  
HETATM   12  C   UNL     1     -11.316  11.466  63.512  1.00  0.00    -0.257 A  
HETATM   13  C   UNL     1     -12.136  12.574  63.334  1.00  0.00    -0.621 A  
HETATM   14  C   UNL     1     -12.190  13.564  64.314  1.00  0.00    -0.450 A  
HETATM   15  C   UNL     1     -11.457  13.441  65.511  1.00  0.00    -0.324 A  
BRANCH  15  16
HETATM   16  C   UNL     1     -11.599  14.529  66.509  1.00  0.00    -0.371 C  
HETATM   17  O   UNL     1     -12.459  14.389  67.378  1.00  0.00    -0.184 OA 
BRANCH  16  18
HETATM   18  C   UNL     1     -10.690  15.729  66.558  1.00  0.00    -0.283 A  
HETATM   19  C   UNL     1      -9.931  15.903  67.723  1.00  0.00    -0.229 A  
HETATM   20  C   UNL     1      -9.098  17.024  67.898  1.00  0.00    -0.232 A  
HETATM   21  C   UNL     1      -8.996  18.031  66.931  1.00  0.00    -0.262 A  
HETATM   22  O   UNL     1     -11.282  16.622  64.401  1.00  0.00    -1.158 OA 
HETATM   23  C   UNL     1      -9.725  17.822  65.747  1.00  0.00     0.122 A  
HETATM   24  H   UNL     1     -11.198  17.286  63.727  1.00  0.00     0.000 HD 
HETATM   25  C   UNL     1     -10.567  16.706  65.565  1.00  0.00    -0.258 A  
BRANCH  21  26
HETATM   26  N   UNL     1      -8.223  19.177  67.103  1.00  0.00    -0.266 NA 
BRANCH  26  27
HETATM   27  C   UNL     1      -8.862  20.389  67.641  1.00  0.00    -0.228 C  
HETATM   28  C   UNL     1     -10.212  20.056  68.262  1.00  0.00    -0.527 C  
ENDBRANCH  26  27
BRANCH  26  29
HETATM   29  C   UNL     1      -6.758  19.117  67.205  1.00  0.00    -0.194 C  
HETATM   30  C   UNL     1      -6.296  19.739  68.514  1.00  0.00    -0.304 C  
ENDBRANCH  26  29
ENDBRANCH  21  26
ENDBRANCH  16  18
ENDBRANCH  15  16
ENDBRANCH   8  10
ENDBRANCH   7   8
ENDBRANCH   6   7
ENDBRANCH   5   6
ENDBRANCH   4   5
ENDBRANCH   3   4
ENDBRANCH   2   3
TORSDOF 12
ENDMDL
MODEL      156
REMARK 921   NORMALIZED FREE ENERGY PREDICTED BY IDOCK:   -4.33 KCAL/MOL
REMARK 922        TOTAL FREE ENERGY PREDICTED BY IDOCK:   -9.33 KCAL/MOL
REMARK 923 INTER-LIGAND FREE ENERGY PREDICTED BY IDOCK:   -8.09 KCAL/MOL
REMARK 924 INTRA-LIGAND FREE ENERGY PREDICTED BY IDOCK:   -1.24 KCAL/MOL
REMARK 927      BINDING AFFINITY PREDICTED BY RF-SCORE:    0.00 PKD
ROOT
HETATM    1  C   UNL     1      -9.215  10.515  63.047  1.00  0.00    -0.313 C  
HETATM    2  C   UNL     1     -10.115  11.701  63.358  1.00  0.00    -0.468 C  
ENDROOT
BRANCH   2   3
HETATM    3  C   UNL     1     -10.788  11.546  64.721  1.00  0.00    -0.360 C  
BRANCH   3   4
HETATM    4  C   UNL     1     -11.954  12.526  64.900  1.00  0.00    -0.468 C  
BRANCH   4   5
HETATM    5  C   UNL     1     -11.461  13.847  65.495  1.00  0.00    -0.319 C  
BRANCH   5   6
HETATM    6  C   UNL     1     -12.024  14.145  66.881  1.00  0.00    -0.449 C  
BRANCH   6   7
HETATM    7  O   UNL     1     -12.187  13.006  67.729  1.00  0.00    -0.249 OA 
BRANCH   7   8
HETATM    8  C   UNL     1     -11.287  12.895  68.739  1.00  0.00    -0.290 C  
HETATM    9  O   UNL     1     -10.071  12.962  68.628  1.00  0.00    -0.212 OA 
BRANCH   8  10
HETATM   10  C   UNL     1     -11.999  13.021  70.043  1.00  0.00    -0.383 A  
HETATM   11  C   UNL     1     -12.152  14.348  70.498  1.00  0.00    -0.404 A  
HETATM   12  C   UNL     1     -12.854  14.637  71.669  1.00  0.00    -0.403 A  
HETATM   13  C   UNL     1     -13.374  13.598  72.431  1.00  0.00    -0.641 A  
HETATM   14  C   UNL     1     -13.223  12.279  72.006  1.00  0.00    -0.508 A  
HETATM   15  C   UNL     1     -12.586  11.979  70.787  1.00  0.00    -0.312 A  
BRANCH  15  16
HETATM   16  C   UNL     1     -12.496  10.549  70.401  1.00  0.00    -0.310 C  
HETATM   17  O   UNL     1     -13.505   9.860  70.549  1.00  0.00    -0.142 OA 
BRANCH  16  18
HETATM   18  C   UNL     1     -11.275   9.941  69.762  1.00  0.00    -0.279 A  
HETATM   19  C   UNL     1     -11.261   9.867  68.363  1.00  0.00    -0.134 A  
HETATM   20  C   UNL     1     -10.198   9.260  67.669  1.00  0.00    -0.285 A  
HETATM   21  C   UNL     1      -9.110   8.683  68.334  1.00  0.00    -0.138 A  
HETATM   22  O   UNL     1     -10.113   9.422  71.807  1.00  0.00    -0.200 OA 
HETATM   23  C   UNL     1      -9.113   8.805  69.735  1.00  0.00    -0.151 A  
HETATM   24  H   UNL     1      -9.366   9.058  72.267  1.00  0.00     0.000 HD 
HETATM   25  C   UNL     1     -10.176   9.404  70.440  1.00  0.00    -0.255 A  
BRANCH  21  26
HETATM   26  N   UNL     1      -8.074   8.028  67.674  1.00  0.00    -0.122 NA 
BRANCH  26  27
HETATM   27  C   UNL     1      -8.358   7.363  66.392  1.00  0.00    -0.127 C  
HETATM   28  C   UNL     1      -7.526   7.973  65.272  1.00  0.00    -0.080 C  
ENDBRANCH  26  27
BRANCH  26  29
HETATM   29  C   UNL     1      -6.663   8.337  67.944  1.00  0.00    -0.065 C  
HETATM   30  C   UNL     1      -5.984   7.156  68.621  1.00  0.00    -0.026 C  
ENDBRANCH  26  29
ENDBRANCH  21  26
ENDBRANCH  16  18
ENDBRANCH  15  16
ENDBRANCH   8  10
ENDBRANCH   7   8
ENDBRANCH   6   7
ENDBRANCH   5   6
ENDBRANCH   4   5
ENDBRANCH   3   4
ENDBRANCH   2   3
TORSDOF 12
ENDMDL
MODEL      157
REMARK 921   NORMALIZED FREE ENERGY PREDICTED BY IDOCK:   -4.31 KCAL/MOL
REMARK 922        TOTAL FREE ENERGY PREDICTED BY IDOCK:   -9.30 KCAL/MOL
REMARK 923 INTER-LIGAND FREE ENERGY PREDICTED BY IDOCK:   -7.36 KCAL/MOL
REMARK 924 INTRA-LIGAND FREE ENERGY PREDICTED BY IDOCK:   -1.94 KCAL/MOL
REMARK 927      BINDING AFFINITY PREDICTED BY RF-SCORE:    0.00 PKD
ROOT
HETATM    1  C   UNL     1      -6.284   2.187  68.008  1.00  0.00    -0.025 C  
HETATM    2  C   UNL     1      -6.723   3.637  67.868  1.00  0.00    -0.046 C  
ENDROOT
BRANCH   2   3
HETATM    3  C   UNL     1      -7.993   3.755  67.027  1.00  0.00    -0.091 C  
BRANCH   3   4
HETATM    4  C   UNL     1      -9.233   4.009  67.894  1.00  0.00    -0.200 C  
BRANCH   4   5
HETATM    5  C   UNL     1     -10.104   5.105  67.280  1.00  0.00    -0.235 C  
BRANCH   5   6
HETATM    6  C   UNL     1     -10.263   6.335  68.168  1.00  0.00    -0.169 C  
BRANCH   6   7
HETATM    7  O   UNL     1     -11.375   6.297  69.065  1.00  0.00    -0.390 OA 
BRANCH   7   8
HETATM    8  C   UNL     1     -11.078   6.497  70.375  1.00  0.00    -0.332 C  
HETATM    9  O   UNL     1     -10.157   5.977  70.990  1.00  0.00    -0.182 OA 
BRANCH   8  10
HETATM   10  C   UNL     1     -11.819   7.694  70.866  1.00  0.00    -0.272 A  
HETATM   11  C   UNL     1     -13.054   7.403  71.484  1.00  0.00    -0.424 A  
HETATM   12  C   UNL     1     -13.834   8.410  72.054  1.00  0.00    -0.439 A  
HETATM   13  C   UNL     1     -13.415   9.732  71.974  1.00  0.00    -0.498 A  
HETATM   14  C   UNL     1     -12.203  10.042  71.357  1.00  0.00    -0.510 A  
HETATM   15  C   UNL     1     -11.369   9.029  70.847  1.00  0.00    -0.351 A  
BRANCH  15  16
HETATM   16  C   UNL     1     -10.085   9.450  70.234  1.00  0.00    -0.240 C  
HETATM   17  O   UNL     1      -9.076   9.382  70.934  1.00  0.00    -0.236 OA 
BRANCH  16  18
HETATM   18  C   UNL     1      -9.955   9.862  68.791  1.00  0.00    -0.183 A  
HETATM   19  C   UNL     1     -11.130  10.252  68.135  1.00  0.00    -0.324 A  
HETATM   20  C   UNL     1     -11.132  10.594  66.769  1.00  0.00    -0.103 A  
HETATM   21  C   UNL     1      -9.969  10.547  65.991  1.00  0.00    -0.237 A  
HETATM   22  O   UNL     1      -7.588   9.468  68.594  1.00  0.00    -0.078 OA 
HETATM   23  C   UNL     1      -8.789  10.199  66.671  1.00  0.00    -0.145 A  
HETATM   24  H   UNL     1      -6.789   9.458  68.081  1.00  0.00     0.000 HD 
HETATM   25  C   UNL     1      -8.778   9.848  68.036  1.00  0.00    -0.125 A  
BRANCH  21  26
HETATM   26  N   UNL     1      -9.955  10.826  64.627  1.00  0.00    -0.298 NA 
BRANCH  26  27
HETATM   27  C   UNL     1     -10.960  11.753  64.081  1.00  0.00    -0.374 C  
HETATM   28  C   UNL     1     -10.526  13.198  64.283  1.00  0.00    -0.410 C  
ENDBRANCH  26  27
BRANCH  26  29
HETATM   29  C   UNL     1      -8.755  10.614  63.805  1.00  0.00    -0.141 C  
HETATM   30  C   UNL     1      -9.118   9.879  62.523  1.00  0.00    -0.303 C  
ENDBRANCH  26  29
ENDBRANCH  21  26
ENDBRANCH  16  18
ENDBRANCH  15  16
ENDBRANCH   8  10
ENDBRANCH   7   8
ENDBRANCH   6   7
ENDBRANCH   5   6
ENDBRANCH   4   5
ENDBRANCH   3   4
ENDBRANCH   2   3
TORSDOF 12
ENDMDL
MODEL      158
REMARK 921   NORMALIZED FREE ENERGY PREDICTED BY IDOCK:   -4.29 KCAL/MOL
REMARK 922        TOTAL FREE ENERGY PREDICTED BY IDOCK:   -9.27 KCAL/MOL
REMARK 923 INTER-LIGAND FREE ENERGY PREDICTED BY IDOCK:   -7.51 KCAL/MOL
REMARK 924 INTRA-LIGAND FREE ENERGY PREDICTED BY IDOCK:   -1.76 KCAL/MOL
REMARK 927      BINDING AFFINITY PREDICTED BY RF-SCORE:    0.00 PKD
ROOT
HETATM    1  C   UNL     1      -6.122  11.516  67.843  1.00  0.00    -0.048 C  
HETATM    2  C   UNL     1      -5.947  10.612  66.632  1.00  0.00    -0.079 C  
ENDROOT
BRANCH   2   3
HETATM    3  C   UNL     1      -6.495   9.211  66.899  1.00  0.00    -0.067 C  
BRANCH   3   4
HETATM    4  C   UNL     1      -7.265   8.657  65.693  1.00  0.00    -0.084 C  
BRANCH   4   5
HETATM    5  C   UNL     1      -7.769   9.797  64.806  1.00  0.00    -0.128 C  
BRANCH   5   6
HETATM    6  C   UNL     1      -9.234   9.663  64.407  1.00  0.00    -0.200 C  
BRANCH   6   7
HETATM    7  O   UNL     1     -10.112  10.635  64.978  1.00  0.00    -0.285 OA 
BRANCH   7   8
HETATM    8  C   UNL     1      -9.576  11.403  65.961  1.00  0.00    -0.221 C  
HETATM    9  O   UNL     1      -8.788  12.325  65.804  1.00  0.00     0.112 OA 
BRANCH   8  10
HETATM   10  C   UNL     1     -10.342  11.186  67.222  1.00  0.00    -0.243 A  
HETATM   11  C   UNL     1      -9.929  10.062  67.969  1.00  0.00    -0.176 A  
HETATM   12  C   UNL     1     -10.503   9.763  69.205  1.00  0.00    -0.236 A  
HETATM   13  C   UNL     1     -11.534  10.556  69.694  1.00  0.00    -0.349 A  
HETATM   14  C   UNL     1     -11.965  11.664  68.965  1.00  0.00    -0.368 A  
HETATM   15  C   UNL     1     -11.341  12.023  67.755  1.00  0.00    -0.370 A  
BRANCH  15  16
HETATM   16  C   UNL     1     -11.846  13.234  67.063  1.00  0.00    -0.390 C  
HETATM   17  O   UNL     1     -12.753  13.081  66.246  1.00  0.00    -0.281 OA 
BRANCH  16  18
HETATM   18  C   UNL     1     -11.368  14.627  67.381  1.00  0.00    -0.368 A  
HETATM   19  C   UNL     1     -10.499  15.225  66.458  1.00  0.00    -0.299 A  
HETATM   20  C   UNL     1      -9.943  16.497  66.689  1.00  0.00    -0.284 A  
HETATM   21  C   UNL     1     -10.211  17.225  67.854  1.00  0.00    -0.332 A  
HETATM   22  O   UNL     1     -12.508  14.846  69.491  1.00  0.00    -0.539 OA 
HETATM   23  C   UNL     1     -11.121  16.635  68.750  1.00  0.00    -0.270 A  
HETATM   24  H   UNL     1     -12.718  15.343  70.272  1.00  0.00     0.000 HD 
HETATM   25  C   UNL     1     -11.678  15.359  68.532  1.00  0.00    -0.338 A  
BRANCH  21  26
HETATM   26  N   UNL     1      -9.631  18.459  68.132  1.00  0.00    -0.302 NA 
BRANCH  26  27
HETATM   27  C   UNL     1      -8.182  18.623  67.931  1.00  0.00    -0.265 C  
HETATM   28  C   UNL     1      -7.409  17.538  68.669  1.00  0.00    -0.256 C  
ENDBRANCH  26  27
BRANCH  26  29
HETATM   29  C   UNL     1     -10.422  19.697  68.177  1.00  0.00    -0.376 C  
HETATM   30  C   UNL     1      -9.756  20.779  67.340  1.00  0.00    -0.473 C  
ENDBRANCH  26  29
ENDBRANCH  21  26
ENDBRANCH  16  18
ENDBRANCH  15  16
ENDBRANCH   8  10
ENDBRANCH   7   8
ENDBRANCH   6   7
ENDBRANCH   5   6
ENDBRANCH   4   5
ENDBRANCH   3   4
ENDBRANCH   2   3
TORSDOF 12
ENDMDL
MODEL      159
REMARK 921   NORMALIZED FREE ENERGY PREDICTED BY IDOCK:   -4.29 KCAL/MOL
REMARK 922        TOTAL FREE ENERGY PREDICTED BY IDOCK:   -9.27 KCAL/MOL
REMARK 923 INTER-LIGAND FREE ENERGY PREDICTED BY IDOCK:   -7.30 KCAL/MOL
REMARK 924 INTRA-LIGAND FREE ENERGY PREDICTED BY IDOCK:   -1.97 KCAL/MOL
REMARK 927      BINDING AFFINITY PREDICTED BY RF-SCORE:    0.00 PKD
ROOT
HETATM    1  C   UNL     1     -11.899  15.515  70.331  1.00  0.00    -0.379 C  
HETATM    2  C   UNL     1     -10.579  15.824  69.641  1.00  0.00    -0.295 C  
ENDROOT
BRANCH   2   3
HETATM    3  C   UNL     1     -10.498  17.294  69.230  1.00  0.00    -0.220 C  
BRANCH   3   4
HETATM    4  C   UNL     1     -10.513  17.465  67.706  1.00  0.00    -0.376 C  
BRANCH   4   5
HETATM    5  C   UNL     1      -9.628  16.411  67.037  1.00  0.00    -0.244 C  
BRANCH   5   6
HETATM    6  C   UNL     1     -10.048  16.069  65.612  1.00  0.00    -0.354 C  
BRANCH   6   7
HETATM    7  O   UNL     1     -11.402  15.636  65.465  1.00  0.00    -0.189 OA 
BRANCH   7   8
HETATM    8  C   UNL     1     -11.692  14.427  66.010  1.00  0.00    -0.375 C  
HETATM    9  O   UNL     1     -12.404  14.232  66.986  1.00  0.00    -0.386 OA 
BRANCH   8  10
HETATM   10  C   UNL     1     -11.302  13.352  65.053  1.00  0.00    -0.330 A  
HETATM   11  C   UNL     1     -11.980  13.398  63.816  1.00  0.00    -0.517 A  
HETATM   12  C   UNL     1     -11.679  12.501  62.791  1.00  0.00     0.659 A  
HETATM   13  C   UNL     1     -10.727  11.511  63.002  1.00  0.00    -0.154 A  
HETATM   14  C   UNL     1     -10.055  11.441  64.221  1.00  0.00    -0.347 A  
HETATM   15  C   UNL     1     -10.292  12.388  65.236  1.00  0.00    -0.308 A  
BRANCH  15  16
HETATM   16  C   UNL     1      -9.509  12.252  66.489  1.00  0.00    -0.236 C  
HETATM   17  O   UNL     1      -8.723  13.157  66.764  1.00  0.00    -0.182 OA 
BRANCH  16  18
HETATM   18  C   UNL     1      -9.701  11.120  67.464  1.00  0.00    -0.193 A  
HETATM   19  C   UNL     1      -8.566  10.366  67.791  1.00  0.00    -0.122 A  
HETATM   20  C   UNL     1      -8.646   9.248  68.642  1.00  0.00    -0.127 A  
HETATM   21  C   UNL     1      -9.860   8.818  69.191  1.00  0.00    -0.181 A  
HETATM   22  O   UNL     1     -12.075  11.399  67.761  1.00  0.00    -0.637 OA 
HETATM   23  C   UNL     1     -10.983   9.609  68.893  1.00  0.00    -0.153 A  
HETATM   24  H   UNL     1     -12.899  11.132  68.150  1.00  0.00     0.000 HD 
HETATM   25  C   UNL     1     -10.915  10.727  68.037  1.00  0.00    -0.283 A  
BRANCH  21  26
HETATM   26  N   UNL     1      -9.975   7.683  69.990  1.00  0.00    -0.188 NA 
BRANCH  26  27
HETATM   27  C   UNL     1      -9.616   7.778  71.414  1.00  0.00    -0.155 C  
HETATM   28  C   UNL     1     -10.858   7.974  72.272  1.00  0.00    -0.369 C  
ENDBRANCH  26  27
BRANCH  26  29
HETATM   29  C   UNL     1     -10.837   6.553  69.613  1.00  0.00    -0.304 C  
HETATM   30  C   UNL     1     -10.191   5.238  70.023  1.00  0.00    -0.358 C  
ENDBRANCH  26  29
ENDBRANCH  21  26
ENDBRANCH  16  18
ENDBRANCH  15  16
ENDBRANCH   8  10
ENDBRANCH   7   8
ENDBRANCH   6   7
ENDBRANCH   5   6
ENDBRANCH   4   5
ENDBRANCH   3   4
ENDBRANCH   2   3
TORSDOF 12
ENDMDL
MODEL      160
REMARK 921   NORMALIZED FREE ENERGY PREDICTED BY IDOCK:   -4.29 KCAL/MOL
REMARK 922        TOTAL FREE ENERGY PREDICTED BY IDOCK:   -9.27 KCAL/MOL
REMARK 923 INTER-LIGAND FREE ENERGY PREDICTED BY IDOCK:   -7.55 KCAL/MOL
REMARK 924 INTRA-LIGAND FREE ENERGY PREDICTED BY IDOCK:   -1.72 KCAL/MOL
REMARK 927      BINDING AFFINITY PREDICTED BY RF-SCORE:    0.00 PKD
ROOT
HETATM    1  C   UNL     1     -14.197  14.492  71.688  1.00  0.00    -0.554 C  
HETATM    2  C   UNL     1     -12.738  14.084  71.556  1.00  0.00    -0.443 C  
ENDROOT
BRANCH   2   3
HETATM    3  C   UNL     1     -12.272  14.151  70.102  1.00  0.00    -0.415 C  
BRANCH   3   4
HETATM    4  C   UNL     1     -11.934  15.585  69.673  1.00  0.00    -0.380 C  
BRANCH   4   5
HETATM    5  C   UNL     1     -11.212  15.588  68.325  1.00  0.00    -0.343 C  
BRANCH   5   6
HETATM    6  C   UNL     1     -10.564  14.253  67.972  1.00  0.00    -0.238 C  
BRANCH   6   7
HETATM    7  O   UNL     1     -11.111  13.595  66.828  1.00  0.00    -0.299 OA 
BRANCH   7   8
HETATM    8  C   UNL     1     -11.346  12.265  66.974  1.00  0.00    -0.334 C  
HETATM    9  O   UNL     1     -12.222  11.762  67.663  1.00  0.00    -0.534 OA 
BRANCH   8  10
HETATM   10  C   UNL     1     -10.609  11.520  65.912  1.00  0.00    -0.318 A  
HETATM   11  C   UNL     1     -11.140  11.678  64.614  1.00  0.00    -0.342 A  
HETATM   12  C   UNL     1     -10.524  11.097  63.504  1.00  0.00    -0.422 A  
HETATM   13  C   UNL     1      -9.394  10.309  63.680  1.00  0.00    -0.338 A  
HETATM   14  C   UNL     1      -8.861  10.131  64.956  1.00  0.00    -0.205 A  
HETATM   15  C   UNL     1      -9.425  10.774  66.074  1.00  0.00    -0.230 A  
BRANCH  15  16
HETATM   16  C   UNL     1      -8.774  10.550  67.388  1.00  0.00    -0.125 C  
HETATM   17  O   UNL     1      -8.225  11.515  67.918  1.00  0.00    -0.123 OA 
BRANCH  16  18
HETATM   18  C   UNL     1      -8.837   9.239  68.128  1.00  0.00    -0.129 A  
HETATM   19  C   UNL     1      -7.693   8.431  68.084  1.00  0.00    -0.103 A  
HETATM   20  C   UNL     1      -7.667   7.159  68.687  1.00  0.00    -0.120 A  
HETATM   21  C   UNL     1      -8.782   6.627  69.345  1.00  0.00    -0.135 A  
HETATM   22  O   UNL     1     -11.109   9.455  68.898  1.00  0.00    -0.430 OA 
HETATM   23  C   UNL     1      -9.908   7.466  69.422  1.00  0.00    -0.168 A  
HETATM   24  H   UNL     1     -11.862   9.114  69.365  1.00  0.00     0.000 HD 
HETATM   25  C   UNL     1      -9.946   8.737  68.816  1.00  0.00    -0.185 A  
BRANCH  21  26
HETATM   26  N   UNL     1      -8.800   5.350  69.901  1.00  0.00    -0.123 NA 
BRANCH  26  27
HETATM   27  C   UNL     1      -9.553   4.288  69.213  1.00  0.00    -0.190 C  
HETATM   28  C   UNL     1      -9.454   4.449  67.702  1.00  0.00    -0.204 C  
ENDBRANCH  26  27
BRANCH  26  29
HETATM   29  C   UNL     1      -7.775   4.904  70.854  1.00  0.00    -0.078 C  
HETATM   30  C   UNL     1      -7.218   3.552  70.434  1.00  0.00    -0.041 C  
ENDBRANCH  26  29
ENDBRANCH  21  26
ENDBRANCH  16  18
ENDBRANCH  15  16
ENDBRANCH   8  10
ENDBRANCH   7   8
ENDBRANCH   6   7
ENDBRANCH   5   6
ENDBRANCH   4   5
ENDBRANCH   3   4
ENDBRANCH   2   3
TORSDOF 12
ENDMDL
MODEL      161
REMARK 921   NORMALIZED FREE ENERGY PREDICTED BY IDOCK:   -4.28 KCAL/MOL
REMARK 922        TOTAL FREE ENERGY PREDICTED BY IDOCK:   -9.25 KCAL/MOL
REMARK 923 INTER-LIGAND FREE ENERGY PREDICTED BY IDOCK:   -7.54 KCAL/MOL
REMARK 924 INTRA-LIGAND FREE ENERGY PREDICTED BY IDOCK:   -1.72 KCAL/MOL
REMARK 927      BINDING AFFINITY PREDICTED BY RF-SCORE:    0.00 PKD
ROOT
HETATM    1  C   UNL     1      -8.520   8.511  65.507  1.00  0.00    -0.183 C  
HETATM    2  C   UNL     1      -8.089   9.906  65.081  1.00  0.00    -0.138 C  
ENDROOT
BRANCH   2   3
HETATM    3  C   UNL     1      -6.762  10.300  65.730  1.00  0.00    -0.120 C  
BRANCH   3   4
HETATM    4  C   UNL     1      -6.942  11.412  66.771  1.00  0.00    -0.128 C  
BRANCH   4   5
HETATM    5  C   UNL     1      -7.132  10.816  68.168  1.00  0.00    -0.078 C  
BRANCH   5   6
HETATM    6  C   UNL     1      -8.555  10.941  68.701  1.00  0.00    -0.153 C  
BRANCH   6   7
HETATM    7  O   UNL     1      -9.474  11.606  67.832  1.00  0.00    -0.170 OA 
BRANCH   7   8
HETATM    8  C   UNL     1     -10.751  11.146  67.866  1.00  0.00    -0.216 C  
HETATM    9  O   UNL     1     -11.159  10.119  67.341  1.00  0.00    -0.283 OA 
BRANCH   8  10
HETATM   10  C   UNL     1     -11.508  11.886  68.916  1.00  0.00    -0.358 A  
HETATM   11  C   UNL     1     -11.795  11.128  70.071  1.00  0.00    -0.441 A  
HETATM   12  C   UNL     1     -12.440  11.697  71.170  1.00  0.00    -0.412 A  
HETATM   13  C   UNL     1     -12.852  13.023  71.113  1.00  0.00    -0.331 A  
HETATM   14  C   UNL     1     -12.590  13.786  69.976  1.00  0.00    -0.207 A  
HETATM   15  C   UNL     1     -11.870  13.247  68.891  1.00  0.00    -0.367 A  
BRANCH  15  16
HETATM   16  C   UNL     1     -11.612  14.140  67.736  1.00  0.00    -0.347 C  
HETATM   17  O   UNL     1     -12.385  14.067  66.782  1.00  0.00    -0.439 OA 
BRANCH  16  18
HETATM   18  C   UNL     1     -10.519  15.177  67.722  1.00  0.00    -0.247 A  
HETATM   19  C   UNL     1      -9.782  15.337  68.903  1.00  0.00    -0.220 A  
HETATM   20  C   UNL     1      -8.782  16.321  69.018  1.00  0.00    -0.246 A  
HETATM   21  C   UNL     1      -8.482  17.201  67.971  1.00  0.00    -0.219 A  
HETATM   22  O   UNL     1     -10.882  15.943  65.467  1.00  0.00    -0.345 OA 
HETATM   23  C   UNL     1      -9.196  17.000  66.777  1.00  0.00    -0.270 A  
HETATM   24  H   UNL     1     -10.667  16.517  64.742  1.00  0.00     0.000 HD 
HETATM   25  C   UNL     1     -10.204  16.023  66.653  1.00  0.00    -0.291 A  
BRANCH  21  26
HETATM   26  N   UNL     1      -7.537  18.219  68.079  1.00  0.00    -0.244 NA 
BRANCH  26  27
HETATM   27  C   UNL     1      -8.001  19.615  68.133  1.00  0.00    -0.318 C  
HETATM   28  C   UNL     1      -9.425  19.689  68.665  1.00  0.00    -0.422 C  
ENDBRANCH  26  27
BRANCH  26  29
HETATM   29  C   UNL     1      -6.180  17.967  68.583  1.00  0.00    -0.201 C  
HETATM   30  C   UNL     1      -5.306  17.392  67.479  1.00  0.00    -0.139 C  
ENDBRANCH  26  29
ENDBRANCH  21  26
ENDBRANCH  16  18
ENDBRANCH  15  16
ENDBRANCH   8  10
ENDBRANCH   7   8
ENDBRANCH   6   7
ENDBRANCH   5   6
ENDBRANCH   4   5
ENDBRANCH   3   4
ENDBRANCH   2   3
TORSDOF 12
ENDMDL
MODEL      162
REMARK 921   NORMALIZED FREE ENERGY PREDICTED BY IDOCK:   -4.27 KCAL/MOL
REMARK 922        TOTAL FREE ENERGY PREDICTED BY IDOCK:   -9.23 KCAL/MOL
REMARK 923 INTER-LIGAND FREE ENERGY PREDICTED BY IDOCK:   -6.98 KCAL/MOL
REMARK 924 INTRA-LIGAND FREE ENERGY PREDICTED BY IDOCK:   -2.25 KCAL/MOL
REMARK 927      BINDING AFFINITY PREDICTED BY RF-SCORE:    0.00 PKD
ROOT
HETATM    1  C   UNL     1     -11.136   6.398  67.280  1.00  0.00    -0.416 C  
HETATM    2  C   UNL     1     -10.803   6.095  68.734  1.00  0.00    -0.402 C  
ENDROOT
BRANCH   2   3
HETATM    3  C   UNL     1      -9.987   4.809  68.861  1.00  0.00    -0.197 C  
BRANCH   3   4
HETATM    4  C   UNL     1      -8.480   5.073  68.749  1.00  0.00    -0.087 C  
BRANCH   4   5
HETATM    5  C   UNL     1      -7.958   5.757  70.015  1.00  0.00    -0.099 C  
BRANCH   5   6
HETATM    6  C   UNL     1      -7.528   7.204  69.798  1.00  0.00    -0.097 C  
BRANCH   6   7
HETATM    7  O   UNL     1      -7.508   8.015  70.974  1.00  0.00    -0.066 OA 
BRANCH   7   8
HETATM    8  C   UNL     1      -7.989   9.276  70.824  1.00  0.00    -0.154 C  
HETATM    9  O   UNL     1      -7.344  10.254  70.471  1.00  0.00    -0.281 OA 
BRANCH   8  10
HETATM   10  C   UNL     1      -9.480   9.233  70.820  1.00  0.00    -0.336 A  
HETATM   11  C   UNL     1     -10.053   8.759  72.019  1.00  0.00    -0.397 A  
HETATM   12  C   UNL     1     -11.437   8.722  72.195  1.00  0.00    -0.421 A  
HETATM   13  C   UNL     1     -12.272   9.113  71.156  1.00  0.00    -0.350 A  
HETATM   14  C   UNL     1     -11.726   9.572  69.959  1.00  0.00    -0.028 A  
HETATM   15  C   UNL     1     -10.332   9.690  69.796  1.00  0.00    -0.266 A  
BRANCH  15  16
HETATM   16  C   UNL     1      -9.841  10.216  68.498  1.00  0.00    -0.154 C  
HETATM   17  O   UNL     1      -9.536   9.394  67.635  1.00  0.00    -0.131 OA 
BRANCH  16  18
HETATM   18  C   UNL     1      -9.790  11.685  68.169  1.00  0.00    -0.191 A  
HETATM   19  C   UNL     1     -10.725  12.511  68.807  1.00  0.00    -0.235 A  
HETATM   20  C   UNL     1     -10.806  13.887  68.523  1.00  0.00    -0.274 A  
HETATM   21  C   UNL     1      -9.973  14.501  67.580  1.00  0.00    -0.224 A  
HETATM   22  O   UNL     1      -7.988  11.557  66.576  1.00  0.00    -0.237 OA 
HETATM   23  C   UNL     1      -9.008  13.671  66.981  1.00  0.00    -0.244 A  
HETATM   24  H   UNL     1      -7.400  11.969  65.954  1.00  0.00     0.000 HD 
HETATM   25  C   UNL     1      -8.924  12.291  67.253  1.00  0.00    -0.187 A  
BRANCH  21  26
HETATM   26  N   UNL     1     -10.070  15.848  67.240  1.00  0.00    -0.255 NA 
BRANCH  26  27
HETATM   27  C   UNL     1      -9.598  16.281  65.914  1.00  0.00    -0.301 C  
HETATM   28  C   UNL     1     -10.711  16.162  64.882  1.00  0.00    -0.297 C  
ENDBRANCH  26  27
BRANCH  26  29
HETATM   29  C   UNL     1     -11.001  16.756  67.925  1.00  0.00    -0.260 C  
HETATM   30  C   UNL     1     -10.238  17.899  68.577  1.00  0.00    -0.393 C  
ENDBRANCH  26  29
ENDBRANCH  21  26
ENDBRANCH  16  18
ENDBRANCH  15  16
ENDBRANCH   8  10
ENDBRANCH   7   8
ENDBRANCH   6   7
ENDBRANCH   5   6
ENDBRANCH   4   5
ENDBRANCH   3   4
ENDBRANCH   2   3
TORSDOF 12
ENDMDL
MODEL      163
REMARK 921   NORMALIZED FREE ENERGY PREDICTED BY IDOCK:   -4.26 KCAL/MOL
REMARK 922        TOTAL FREE ENERGY PREDICTED BY IDOCK:   -9.22 KCAL/MOL
REMARK 923 INTER-LIGAND FREE ENERGY PREDICTED BY IDOCK:   -6.09 KCAL/MOL
REMARK 924 INTRA-LIGAND FREE ENERGY PREDICTED BY IDOCK:   -3.14 KCAL/MOL
REMARK 927      BINDING AFFINITY PREDICTED BY RF-SCORE:    0.00 PKD
ROOT
HETATM    1  C   UNL     1      -9.250   4.623  64.733  1.00  0.00    -0.133 C  
HETATM    2  C   UNL     1      -8.463   5.673  65.503  1.00  0.00    -0.146 C  
ENDROOT
BRANCH   2   3
HETATM    3  C   UNL     1      -9.375   6.489  66.419  1.00  0.00    -0.175 C  
BRANCH   3   4
HETATM    4  C   UNL     1     -10.444   5.616  67.088  1.00  0.00    -0.334 C  
BRANCH   4   5
HETATM    5  C   UNL     1     -11.278   6.443  68.069  1.00  0.00    -0.260 C  
BRANCH   5   6
HETATM    6  C   UNL     1     -11.096   6.034  69.527  1.00  0.00    -0.398 C  
BRANCH   6   7
HETATM    7  O   UNL     1     -10.365   6.961  70.332  1.00  0.00    -0.198 OA 
BRANCH   7   8
HETATM    8  C   UNL     1      -9.212   6.488  70.869  1.00  0.00    -0.154 C  
HETATM    9  O   UNL     1      -9.123   5.725  71.821  1.00  0.00    -0.142 OA 
BRANCH   8  10
HETATM   10  C   UNL     1      -8.087   6.756  69.926  1.00  0.00    -0.126 A  
HETATM   11  C   UNL     1      -7.426   5.598  69.464  1.00  0.00    -0.071 A  
HETATM   12  C   UNL     1      -6.396   5.678  68.526  1.00  0.00    -0.041 A  
HETATM   13  C   UNL     1      -5.977   6.922  68.070  1.00  0.00    -0.032 A  
HETATM   14  C   UNL     1      -6.610   8.079  68.524  1.00  0.00    -0.058 A  
HETATM   15  C   UNL     1      -7.702   8.008  69.410  1.00  0.00    -0.104 A  
BRANCH  15  16
HETATM   16  C   UNL     1      -8.331   9.288  69.816  1.00  0.00    -0.142 C  
HETATM   17  O   UNL     1      -8.231   9.616  70.998  1.00  0.00    -0.270 OA 
BRANCH  16  18
HETATM   18  C   UNL     1      -8.995  10.228  68.844  1.00  0.00    -0.164 A  
HETATM   19  C   UNL     1     -10.084   9.726  68.121  1.00  0.00    -0.193 A  
HETATM   20  C   UNL     1     -10.736  10.499  67.140  1.00  0.00    -0.323 A  
HETATM   21  C   UNL     1     -10.322  11.798  66.824  1.00  0.00    -0.219 A  
HETATM   22  O   UNL     1      -7.532  12.105  69.218  1.00  0.00    -0.327 OA 
HETATM   23  C   UNL     1      -9.258  12.307  67.588  1.00  0.00    -0.183 A  
HETATM   24  H   UNL     1      -7.261  12.995  69.029  1.00  0.00     0.000 HD 
HETATM   25  C   UNL     1      -8.595  11.539  68.567  1.00  0.00    -0.140 A  
BRANCH  21  26
HETATM   26  N   UNL     1     -10.913  12.562  65.820  1.00  0.00    -0.283 NA 
BRANCH  26  27
HETATM   27  C   UNL     1     -12.052  13.428  66.166  1.00  0.00    -0.429 C  
HETATM   28  C   UNL     1     -11.886  14.810  65.549  1.00  0.00    -0.231 C  
ENDBRANCH  26  27
BRANCH  26  29
HETATM   29  C   UNL     1     -10.204  12.890  64.576  1.00  0.00    -0.310 C  
HETATM   30  C   UNL     1     -10.430  11.801  63.538  1.00  0.00    -0.500 C  
ENDBRANCH  26  29
ENDBRANCH  21  26
ENDBRANCH  16  18
ENDBRANCH  15  16
ENDBRANCH   8  10
ENDBRANCH   7   8
ENDBRANCH   6   7
ENDBRANCH   5   6
ENDBRANCH   4   5
ENDBRANCH   3   4
ENDBRANCH   2   3
TORSDOF 12
ENDMDL
MODEL      164
REMARK 921   NORMALIZED FREE ENERGY PREDICTED BY IDOCK:   -4.26 KCAL/MOL
REMARK 922        TOTAL FREE ENERGY PREDICTED BY IDOCK:   -9.22 KCAL/MOL
REMARK 923 INTER-LIGAND FREE ENERGY PREDICTED BY IDOCK:   -7.03 KCAL/MOL
REMARK 924 INTRA-LIGAND FREE ENERGY PREDICTED BY IDOCK:   -2.19 KCAL/MOL
REMARK 927      BINDING AFFINITY PREDICTED BY RF-SCORE:    0.00 PKD
ROOT
HETATM    1  C   UNL     1      -5.781   5.408  71.465  1.00  0.00    -0.020 C  
HETATM    2  C   UNL     1      -5.546   6.908  71.569  1.00  0.00    -0.036 C  
ENDROOT
BRANCH   2   3
HETATM    3  C   UNL     1      -6.180   7.653  70.394  1.00  0.00    -0.033 C  
BRANCH   3   4
HETATM    4  C   UNL     1      -5.936   9.165  70.476  1.00  0.00    -0.040 C  
BRANCH   4   5
HETATM    5  C   UNL     1      -7.226   9.935  70.184  1.00  0.00    -0.159 C  
BRANCH   5   6
HETATM    6  C   UNL     1      -7.186  10.730  68.883  1.00  0.00    -0.088 C  
BRANCH   6   7
HETATM    7  O   UNL     1      -7.802  12.018  68.939  1.00  0.00    -0.075 OA 
BRANCH   7   8
HETATM    8  C   UNL     1      -8.497  12.383  67.832  1.00  0.00    -0.166 C  
HETATM    9  O   UNL     1      -8.502  11.794  66.759  1.00  0.00    -0.176 OA 
BRANCH   8  10
HETATM   10  C   UNL     1      -9.516  13.405  68.209  1.00  0.00    -0.209 A  
HETATM   11  C   UNL     1      -9.014  14.720  68.309  1.00  0.00    -0.181 A  
HETATM   12  C   UNL     1      -9.856  15.797  68.589  1.00  0.00    -0.210 A  
HETATM   13  C   UNL     1     -11.207  15.571  68.822  1.00  0.00    -0.316 A  
HETATM   14  C   UNL     1     -11.720  14.277  68.741  1.00  0.00    -0.378 A  
HETATM   15  C   UNL     1     -10.898  13.192  68.382  1.00  0.00    -0.283 A  
BRANCH  15  16
HETATM   16  C   UNL     1     -11.536  11.856  68.292  1.00  0.00    -0.327 C  
HETATM   17  O   UNL     1     -12.156  11.595  67.262  1.00  0.00    -0.595 OA 
BRANCH  16  18
HETATM   18  C   UNL     1     -11.382  10.794  69.349  1.00  0.00    -0.351 A  
HETATM   19  C   UNL     1     -10.723   9.616  68.973  1.00  0.00    -0.232 A  
HETATM   20  C   UNL     1     -10.582   8.536  69.865  1.00  0.00    -0.228 A  
HETATM   21  C   UNL     1     -11.104   8.571  71.163  1.00  0.00    -0.260 A  
HETATM   22  O   UNL     1     -12.543  11.968  71.103  1.00  0.00    -0.367 OA 
HETATM   23  C   UNL     1     -11.722   9.775  71.543  1.00  0.00    -0.450 A  
HETATM   24  H   UNL     1     -12.878  12.012  71.990  1.00  0.00     0.000 HD 
HETATM   25  C   UNL     1     -11.875  10.860  70.656  1.00  0.00    -0.352 A  
BRANCH  21  26
HETATM   26  N   UNL     1     -11.027   7.496  72.044  1.00  0.00    -0.234 NA 
BRANCH  26  27
HETATM   27  C   UNL     1     -10.403   7.701  73.361  1.00  0.00    -0.314 C  
HETATM   28  C   UNL     1      -8.938   8.086  73.209  1.00  0.00    -0.338 C  
ENDBRANCH  26  27
BRANCH  26  29
HETATM   29  C   UNL     1     -11.909   6.327  71.921  1.00  0.00    -0.305 C  
HETATM   30  C   UNL     1     -11.351   5.159  72.720  1.00  0.00    -0.311 C  
ENDBRANCH  26  29
ENDBRANCH  21  26
ENDBRANCH  16  18
ENDBRANCH  15  16
ENDBRANCH   8  10
ENDBRANCH   7   8
ENDBRANCH   6   7
ENDBRANCH   5   6
ENDBRANCH   4   5
ENDBRANCH   3   4
ENDBRANCH   2   3
TORSDOF 12
ENDMDL
MODEL      165
REMARK 921   NORMALIZED FREE ENERGY PREDICTED BY IDOCK:   -4.24 KCAL/MOL
REMARK 922        TOTAL FREE ENERGY PREDICTED BY IDOCK:   -9.18 KCAL/MOL
REMARK 923 INTER-LIGAND FREE ENERGY PREDICTED BY IDOCK:   -8.19 KCAL/MOL
REMARK 924 INTRA-LIGAND FREE ENERGY PREDICTED BY IDOCK:   -0.99 KCAL/MOL
REMARK 927      BINDING AFFINITY PREDICTED BY RF-SCORE:    0.00 PKD
ROOT
HETATM    1  C   UNL     1      -8.653   5.368  67.385  1.00  0.00    -0.108 C  
HETATM    2  C   UNL     1      -9.208   6.402  68.353  1.00  0.00    -0.120 C  
ENDROOT
BRANCH   2   3
HETATM    3  C   UNL     1      -9.762   7.618  67.611  1.00  0.00    -0.189 C  
BRANCH   3   4
HETATM    4  C   UNL     1      -9.856   8.850  68.519  1.00  0.00    -0.182 C  
BRANCH   4   5
HETATM    5  C   UNL     1     -10.743   9.922  67.882  1.00  0.00    -0.316 C  
BRANCH   5   6
HETATM    6  C   UNL     1     -10.027  10.771  66.837  1.00  0.00    -0.200 C  
BRANCH   6   7
HETATM    7  O   UNL     1     -10.066  12.180  67.068  1.00  0.00    -0.203 OA 
BRANCH   7   8
HETATM    8  C   UNL     1     -11.255  12.783  66.813  1.00  0.00    -0.295 C  
HETATM    9  O   UNL     1     -12.101  12.395  66.020  1.00  0.00    -0.600 OA 
BRANCH   8  10
HETATM   10  C   UNL     1     -11.531  13.790  67.878  1.00  0.00    -0.347 A  
HETATM   11  C   UNL     1     -12.054  13.248  69.071  1.00  0.00    -0.268 A  
HETATM   12  C   UNL     1     -12.303  14.052  70.184  1.00  0.00    -0.409 A  
HETATM   13  C   UNL     1     -12.077  15.421  70.107  1.00  0.00    -0.400 A  
HETATM   14  C   UNL     1     -11.573  15.978  68.932  1.00  0.00    -0.354 A  
HETATM   15  C   UNL     1     -11.243  15.168  67.829  1.00  0.00    -0.327 A  
BRANCH  15  16
HETATM   16  C   UNL     1     -10.684  15.844  66.632  1.00  0.00    -0.270 C  
HETATM   17  O   UNL     1     -11.276  15.684  65.566  1.00  0.00    -0.256 OA 
BRANCH  16  18
HETATM   18  C   UNL     1      -9.499  16.773  66.686  1.00  0.00    -0.275 A  
HETATM   19  C   UNL     1      -8.238  16.205  66.463  1.00  0.00    -0.343 A  
HETATM   20  C   UNL     1      -7.060  16.970  66.554  1.00  0.00    -0.307 A  
HETATM   21  C   UNL     1      -7.082  18.329  66.887  1.00  0.00    -0.196 A  
HETATM   22  O   UNL     1     -10.729  18.772  67.225  1.00  0.00    -0.437 OA 
HETATM   23  C   UNL     1      -8.355  18.898  67.062  1.00  0.00    -0.287 A  
HETATM   24  H   UNL     1     -10.756  19.700  67.425  1.00  0.00     0.000 HD 
HETATM   25  C   UNL     1      -9.540  18.139  66.981  1.00  0.00    -0.287 A  
BRANCH  21  26
HETATM   26  N   UNL     1      -5.928  19.095  67.038  1.00  0.00    -0.167 NA 
BRANCH  26  27
HETATM   27  C   UNL     1      -5.313  19.694  65.842  1.00  0.00    -0.154 C  
HETATM   28  C   UNL     1      -6.381  20.182  64.874  1.00  0.00    -0.329 C  
ENDBRANCH  26  27
BRANCH  26  29
HETATM   29  C   UNL     1      -5.560  19.697  68.327  1.00  0.00    -0.205 C  
HETATM   30  C   UNL     1      -5.501  21.212  68.203  1.00  0.00    -0.363 C  
ENDBRANCH  26  29
ENDBRANCH  21  26
ENDBRANCH  16  18
ENDBRANCH  15  16
ENDBRANCH   8  10
ENDBRANCH   7   8
ENDBRANCH   6   7
ENDBRANCH   5   6
ENDBRANCH   4   5
ENDBRANCH   3   4
ENDBRANCH   2   3
TORSDOF 12
ENDMDL
MODEL      166
REMARK 921   NORMALIZED FREE ENERGY PREDICTED BY IDOCK:   -4.19 KCAL/MOL
REMARK 922        TOTAL FREE ENERGY PREDICTED BY IDOCK:   -9.10 KCAL/MOL
REMARK 923 INTER-LIGAND FREE ENERGY PREDICTED BY IDOCK:   -6.47 KCAL/MOL
REMARK 924 INTRA-LIGAND FREE ENERGY PREDICTED BY IDOCK:   -2.63 KCAL/MOL
REMARK 927      BINDING AFFINITY PREDICTED BY RF-SCORE:    0.00 PKD
ROOT
HETATM    1  C   UNL     1      -6.690   9.233  65.468  1.00  0.00    -0.073 C  
HETATM    2  C   UNL     1      -7.750  10.274  65.798  1.00  0.00    -0.143 C  
ENDROOT
BRANCH   2   3
HETATM    3  C   UNL     1      -7.195  11.361  66.717  1.00  0.00    -0.131 C  
BRANCH   3   4
HETATM    4  C   UNL     1      -8.170  11.708  67.849  1.00  0.00    -0.141 C  
BRANCH   4   5
HETATM    5  C   UNL     1      -8.911  13.011  67.539  1.00  0.00    -0.193 C  
BRANCH   5   6
HETATM    6  C   UNL     1     -10.199  13.189  68.337  1.00  0.00    -0.247 C  
BRANCH   6   7
HETATM    7  O   UNL     1     -10.446  12.187  69.325  1.00  0.00    -0.027 OA 
BRANCH   7   8
HETATM    8  C   UNL     1     -11.503  11.371  69.080  1.00  0.00    -0.299 C  
HETATM    9  O   UNL     1     -12.038  11.195  67.994  1.00  0.00    -0.635 OA 
BRANCH   8  10
HETATM   10  C   UNL     1     -11.699  10.463  70.247  1.00  0.00    -0.406 A  
HETATM   11  C   UNL     1     -12.980  10.535  70.833  1.00  0.00    -0.455 A  
HETATM   12  C   UNL     1     -13.341   9.701  71.892  1.00  0.00    -0.526 A  
HETATM   13  C   UNL     1     -12.410   8.812  72.414  1.00  0.00    -0.414 A  
HETATM   14  C   UNL     1     -11.134   8.734  71.857  1.00  0.00    -0.434 A  
HETATM   15  C   UNL     1     -10.782   9.513  70.738  1.00  0.00    -0.391 A  
BRANCH  15  16
HETATM   16  C   UNL     1      -9.412   9.342  70.194  1.00  0.00    -0.240 C  
HETATM   17  O   UNL     1      -8.505   9.965  70.745  1.00  0.00    -0.122 OA 
BRANCH  16  18
HETATM   18  C   UNL     1      -9.080   8.387  69.078  1.00  0.00    -0.147 A  
HETATM   19  C   UNL     1     -10.040   8.233  68.069  1.00  0.00    -0.243 A  
HETATM   20  C   UNL     1      -9.859   7.319  67.014  1.00  0.00    -0.265 A  
HETATM   21  C   UNL     1      -8.723   6.506  66.924  1.00  0.00    -0.115 A  
HETATM   22  O   UNL     1      -6.938   7.689  69.928  1.00  0.00    -0.052 OA 
HETATM   23  C   UNL     1      -7.746   6.703  67.915  1.00  0.00    -0.108 A  
HETATM   24  H   UNL     1      -6.151   7.162  69.861  1.00  0.00     0.000 HD 
HETATM   25  C   UNL     1      -7.921   7.611  68.980  1.00  0.00    -0.121 A  
BRANCH  21  26
HETATM   26  N   UNL     1      -8.545   5.555  65.922  1.00  0.00    -0.136 NA 
BRANCH  26  27
HETATM   27  C   UNL     1      -8.323   6.012  64.541  1.00  0.00    -0.045 C  
HETATM   28  C   UNL     1      -7.562   4.963  63.741  1.00  0.00    -0.066 C  
ENDBRANCH  26  27
BRANCH  26  29
HETATM   29  C   UNL     1      -8.125   4.179  66.224  1.00  0.00    -0.098 C  
HETATM   30  C   UNL     1      -9.243   3.431  66.935  1.00  0.00    -0.202 C  
ENDBRANCH  26  29
ENDBRANCH  21  26
ENDBRANCH  16  18
ENDBRANCH  15  16
ENDBRANCH   8  10
ENDBRANCH   7   8
ENDBRANCH   6   7
ENDBRANCH   5   6
ENDBRANCH   4   5
ENDBRANCH   3   4
ENDBRANCH   2   3
TORSDOF 12
ENDMDL
MODEL      167
REMARK 921   NORMALIZED FREE ENERGY PREDICTED BY IDOCK:   -4.17 KCAL/MOL
REMARK 922        TOTAL FREE ENERGY PREDICTED BY IDOCK:   -9.07 KCAL/MOL
REMARK 923 INTER-LIGAND FREE ENERGY PREDICTED BY IDOCK:   -7.21 KCAL/MOL
REMARK 924 INTRA-LIGAND FREE ENERGY PREDICTED BY IDOCK:   -1.85 KCAL/MOL
REMARK 927      BINDING AFFINITY PREDICTED BY RF-SCORE:    0.00 PKD
ROOT
HETATM    1  C   UNL     1     -10.485   8.161  71.298  1.00  0.00    -0.254 C  
HETATM    2  C   UNL     1     -11.618   8.663  72.181  1.00  0.00    -0.440 C  
ENDROOT
BRANCH   2   3
HETATM    3  C   UNL     1     -12.672   9.408  71.362  1.00  0.00    -0.425 C  
BRANCH   3   4
HETATM    4  C   UNL     1     -12.510  10.930  71.470  1.00  0.00    -0.419 C  
BRANCH   4   5
HETATM    5  C   UNL     1     -11.607  11.456  70.353  1.00  0.00    -0.267 C  
BRANCH   5   6
HETATM    6  C   UNL     1     -12.346  12.276  69.301  1.00  0.00     0.121 C  
BRANCH   6   7
HETATM    7  O   UNL     1     -12.133  11.865  67.949  1.00  0.00    -0.558 OA 
BRANCH   7   8
HETATM    8  C   UNL     1     -11.602  12.807  67.127  1.00  0.00    -0.364 C  
HETATM    9  O   UNL     1     -12.208  13.739  66.618  1.00  0.00    -0.426 OA 
BRANCH   8  10
HETATM   10  C   UNL     1     -10.115  12.743  67.208  1.00  0.00    -0.226 A  
HETATM   11  C   UNL     1      -9.528  13.771  67.977  1.00  0.00    -0.207 A  
HETATM   12  C   UNL     1      -8.152  13.811  68.203  1.00  0.00    -0.155 A  
HETATM   13  C   UNL     1      -7.332  12.851  67.622  1.00  0.00    -0.145 A  
HETATM   14  C   UNL     1      -7.891  11.835  66.848  1.00  0.00    -0.141 A  
HETATM   15  C   UNL     1      -9.285  11.736  66.678  1.00  0.00    -0.201 A  
BRANCH  15  16
HETATM   16  C   UNL     1      -9.792  10.605  65.862  1.00  0.00    -0.243 C  
HETATM   17  O   UNL     1     -10.313  10.878  64.782  1.00  0.00    -0.308 OA 
BRANCH  16  18
HETATM   18  C   UNL     1      -9.615   9.161  66.253  1.00  0.00    -0.321 A  
HETATM   19  C   UNL     1      -8.687   8.414  65.515  1.00  0.00    -0.196 A  
HETATM   20  C   UNL     1      -8.491   7.041  65.754  1.00  0.00    -0.154 A  
HETATM   21  C   UNL     1      -9.220   6.345  66.726  1.00  0.00    -0.142 A  
HETATM   22  O   UNL     1     -11.257   9.139  68.014  1.00  0.00    -0.492 OA 
HETATM   23  C   UNL     1     -10.114   7.115  67.490  1.00  0.00    -0.241 A  
HETATM   24  H   UNL     1     -11.737   8.682  68.694  1.00  0.00     0.000 HD 
HETATM   25  C   UNL     1     -10.323   8.489  67.254  1.00  0.00    -0.302 A  
BRANCH  21  26
HETATM   26  N   UNL     1      -9.085   4.976  66.944  1.00  0.00    -0.116 NA 
BRANCH  26  27
HETATM   27  C   UNL     1      -9.240   4.058  65.804  1.00  0.00    -0.151 C  
HETATM   28  C   UNL     1      -8.918   2.628  66.217  1.00  0.00    -0.143 C  
ENDBRANCH  26  27
BRANCH  26  29
HETATM   29  C   UNL     1      -8.372   4.444  68.113  1.00  0.00    -0.093 C  
HETATM   30  C   UNL     1      -9.285   4.437  69.330  1.00  0.00    -0.203 C  
ENDBRANCH  26  29
ENDBRANCH  21  26
ENDBRANCH  16  18
ENDBRANCH  15  16
ENDBRANCH   8  10
ENDBRANCH   7   8
ENDBRANCH   6   7
ENDBRANCH   5   6
ENDBRANCH   4   5
ENDBRANCH   3   4
ENDBRANCH   2   3
TORSDOF 12
ENDMDL
MODEL      168
REMARK 921   NORMALIZED FREE ENERGY PREDICTED BY IDOCK:   -4.17 KCAL/MOL
REMARK 922        TOTAL FREE ENERGY PREDICTED BY IDOCK:   -9.06 KCAL/MOL
REMARK 923 INTER-LIGAND FREE ENERGY PREDICTED BY IDOCK:   -6.30 KCAL/MOL
REMARK 924 INTRA-LIGAND FREE ENERGY PREDICTED BY IDOCK:   -2.76 KCAL/MOL
REMARK 927      BINDING AFFINITY PREDICTED BY RF-SCORE:    0.00 PKD
ROOT
HETATM    1  C   UNL     1      -7.371   4.805  72.035  1.00  0.00    -0.080 C  
HETATM    2  C   UNL     1      -7.761   3.341  71.894  1.00  0.00    -0.054 C  
ENDROOT
BRANCH   2   3
HETATM    3  C   UNL     1      -9.030   3.025  72.684  1.00  0.00    -0.112 C  
BRANCH   3   4
HETATM    4  C   UNL     1      -9.537   4.244  73.465  1.00  0.00    -0.134 C  
BRANCH   4   5
HETATM    5  C   UNL     1     -11.015   4.500  73.163  1.00  0.00    -0.346 C  
BRANCH   5   6
HETATM    6  C   UNL     1     -11.329   5.953  72.820  1.00  0.00    -0.263 C  
BRANCH   6   7
HETATM    7  O   UNL     1     -10.586   6.494  71.726  1.00  0.00    -0.210 OA 
BRANCH   7   8
HETATM    8  C   UNL     1     -11.061   6.194  70.491  1.00  0.00    -0.337 C  
HETATM    9  O   UNL     1     -12.195   6.408  70.085  1.00  0.00    -0.149 OA 
BRANCH   8  10
HETATM   10  C   UNL     1      -9.915   5.881  69.590  1.00  0.00    -0.234 A  
HETATM   11  C   UNL     1      -9.847   4.532  69.179  1.00  0.00    -0.222 A  
HETATM   12  C   UNL     1      -8.871   4.096  68.282  1.00  0.00    -0.133 A  
HETATM   13  C   UNL     1      -7.915   4.992  67.818  1.00  0.00    -0.095 A  
HETATM   14  C   UNL     1      -7.957   6.326  68.222  1.00  0.00    -0.108 A  
HETATM   15  C   UNL     1      -8.983   6.797  69.064  1.00  0.00    -0.131 A  
BRANCH  15  16
HETATM   16  C   UNL     1      -8.964   8.237  69.418  1.00  0.00    -0.147 C  
HETATM   17  O   UNL     1      -8.298   8.569  70.398  1.00  0.00    -0.111 OA 
BRANCH  16  18
HETATM   18  C   UNL     1      -9.637   9.300  68.589  1.00  0.00    -0.152 A  
HETATM   19  C   UNL     1      -8.867   9.903  67.585  1.00  0.00    -0.126 A  
HETATM   20  C   UNL     1      -9.378  10.951  66.796  1.00  0.00    -0.185 A  
HETATM   21  C   UNL     1     -10.669  11.458  66.981  1.00  0.00    -0.261 A  
HETATM   22  O   UNL     1     -11.760   9.246  69.725  1.00  0.00    -0.445 OA 
HETATM   23  C   UNL     1     -11.447  10.815  67.960  1.00  0.00    -0.333 A  
HETATM   24  H   UNL     1     -12.646   9.565  69.841  1.00  0.00     0.000 HD 
HETATM   25  C   UNL     1     -10.943   9.769  68.760  1.00  0.00    -0.148 A  
BRANCH  21  26
HETATM   26  N   UNL     1     -11.178  12.531  66.253  1.00  0.00    -0.299 NA 
BRANCH  26  27
HETATM   27  C   UNL     1     -11.804  13.648  66.979  1.00  0.00    -0.408 C  
HETATM   28  C   UNL     1     -11.388  14.983  66.376  1.00  0.00    -0.275 C  
ENDBRANCH  26  27
BRANCH  26  29
HETATM   29  C   UNL     1     -10.735  12.817  64.881  1.00  0.00    -0.305 C  
HETATM   30  C   UNL     1     -11.256  11.753  63.927  1.00  0.00    -0.493 C  
ENDBRANCH  26  29
ENDBRANCH  21  26
ENDBRANCH  16  18
ENDBRANCH  15  16
ENDBRANCH   8  10
ENDBRANCH   7   8
ENDBRANCH   6   7
ENDBRANCH   5   6
ENDBRANCH   4   5
ENDBRANCH   3   4
ENDBRANCH   2   3
TORSDOF 12
ENDMDL
MODEL      169
REMARK 921   NORMALIZED FREE ENERGY PREDICTED BY IDOCK:   -4.15 KCAL/MOL
REMARK 922        TOTAL FREE ENERGY PREDICTED BY IDOCK:   -9.03 KCAL/MOL
REMARK 923 INTER-LIGAND FREE ENERGY PREDICTED BY IDOCK:   -7.86 KCAL/MOL
REMARK 924 INTRA-LIGAND FREE ENERGY PREDICTED BY IDOCK:   -1.18 KCAL/MOL
REMARK 927      BINDING AFFINITY PREDICTED BY RF-SCORE:    0.00 PKD
ROOT
HETATM    1  C   UNL     1     -14.358  15.290  72.131  1.00  0.00    -0.651 C  
HETATM    2  C   UNL     1     -12.991  15.103  72.772  1.00  0.00    -0.522 C  
ENDROOT
BRANCH   2   3
HETATM    3  C   UNL     1     -11.909  14.871  71.718  1.00  0.00    -0.424 C  
BRANCH   3   4
HETATM    4  C   UNL     1     -12.295  15.471  70.360  1.00  0.00    -0.451 C  
BRANCH   4   5
HETATM    5  C   UNL     1     -11.285  16.541  69.938  1.00  0.00    -0.159 C  
BRANCH   5   6
HETATM    6  C   UNL     1     -11.119  16.668  68.428  1.00  0.00    -0.305 C  
BRANCH   6   7
HETATM    7  O   UNL     1     -11.300  15.457  67.692  1.00  0.00    -0.331 OA 
BRANCH   7   8
HETATM    8  C   UNL     1     -10.314  15.154  66.809  1.00  0.00    -0.273 C  
HETATM    9  O   UNL     1     -10.309  15.427  65.617  1.00  0.00    -0.316 OA 
BRANCH   8  10
HETATM   10  C   UNL     1      -9.092  14.749  67.562  1.00  0.00    -0.191 A  
HETATM   11  C   UNL     1      -8.231  15.816  67.895  1.00  0.00    -0.151 A  
HETATM   12  C   UNL     1      -7.080  15.608  68.656  1.00  0.00    -0.127 A  
HETATM   13  C   UNL     1      -6.744  14.321  69.056  1.00  0.00    -0.106 A  
HETATM   14  C   UNL     1      -7.575  13.250  68.726  1.00  0.00    -0.043 A  
HETATM   15  C   UNL     1      -8.780  13.456  68.027  1.00  0.00    -0.178 A  
BRANCH  15  16
HETATM   16  C   UNL     1      -9.615  12.263  67.746  1.00  0.00    -0.200 C  
HETATM   17  O   UNL     1      -9.796  11.966  66.565  1.00  0.00    -0.198 OA 
BRANCH  16  18
HETATM   18  C   UNL     1     -10.162  11.364  68.824  1.00  0.00    -0.209 A  
HETATM   19  C   UNL     1      -9.325  10.336  69.277  1.00  0.00    -0.221 A  
HETATM   20  C   UNL     1      -9.760   9.401  70.236  1.00  0.00    -0.292 A  
HETATM   21  C   UNL     1     -11.052   9.437  70.773  1.00  0.00    -0.300 A  
HETATM   22  O   UNL     1     -12.329  12.402  68.988  1.00  0.00    -0.073 OA 
HETATM   23  C   UNL     1     -11.866  10.500  70.346  1.00  0.00    -0.431 A  
HETATM   24  H   UNL     1     -13.198  12.451  69.367  1.00  0.00     0.000 HD 
HETATM   25  C   UNL     1     -11.442  11.437  69.382  1.00  0.00    -0.310 A  
BRANCH  21  26
HETATM   26  N   UNL     1     -11.526   8.492  71.680  1.00  0.00    -0.278 NA 
BRANCH  26  27
HETATM   27  C   UNL     1     -12.537   8.901  72.669  1.00  0.00    -0.197 C  
HETATM   28  C   UNL     1     -13.935   8.530  72.195  1.00  0.00    -0.464 C  
ENDBRANCH  26  27
BRANCH  26  29
HETATM   29  C   UNL     1     -11.418   7.048  71.424  1.00  0.00    -0.276 C  
HETATM   30  C   UNL     1     -11.917   6.723  70.025  1.00  0.00    -0.179 C  
ENDBRANCH  26  29
ENDBRANCH  21  26
ENDBRANCH  16  18
ENDBRANCH  15  16
ENDBRANCH   8  10
ENDBRANCH   7   8
ENDBRANCH   6   7
ENDBRANCH   5   6
ENDBRANCH   4   5
ENDBRANCH   3   4
ENDBRANCH   2   3
TORSDOF 12
ENDMDL
MODEL      170
REMARK 921   NORMALIZED FREE ENERGY PREDICTED BY IDOCK:   -4.15 KCAL/MOL
REMARK 922        TOTAL FREE ENERGY PREDICTED BY IDOCK:   -9.02 KCAL/MOL
REMARK 923 INTER-LIGAND FREE ENERGY PREDICTED BY IDOCK:   -7.70 KCAL/MOL
REMARK 924 INTRA-LIGAND FREE ENERGY PREDICTED BY IDOCK:   -1.32 KCAL/MOL
REMARK 927      BINDING AFFINITY PREDICTED BY RF-SCORE:    0.00 PKD
ROOT
HETATM    1  C   UNL     1     -11.156  14.294  64.494  1.00  0.00    -0.321 C  
HETATM    2  C   UNL     1     -11.156  12.791  64.257  1.00  0.00    -0.410 C  
ENDROOT
BRANCH   2   3
HETATM    3  C   UNL     1      -9.789  12.180  64.562  1.00  0.00    -0.151 C  
BRANCH   3   4
HETATM    4  C   UNL     1      -9.536  12.064  66.071  1.00  0.00    -0.247 C  
BRANCH   4   5
HETATM    5  C   UNL     1      -9.521  10.596  66.503  1.00  0.00    -0.199 C  
BRANCH   5   6
HETATM    6  C   UNL     1      -9.192  10.393  67.978  1.00  0.00    -0.140 C  
BRANCH   6   7
HETATM    7  O   UNL     1     -10.011  11.126  68.890  1.00  0.00    -0.201 OA 
BRANCH   7   8
HETATM    8  C   UNL     1     -11.177  10.527  69.243  1.00  0.00    -0.262 C  
HETATM    9  O   UNL     1     -11.436   9.337  69.131  1.00  0.00     0.150 OA 
BRANCH   8  10
HETATM   10  C   UNL     1     -11.967  11.460  70.098  1.00  0.00    -0.460 A  
HETATM   11  C   UNL     1     -12.388  10.909  71.327  1.00  0.00    -0.448 A  
HETATM   12  C   UNL     1     -13.079  11.675  72.266  1.00  0.00    -0.062 A  
HETATM   13  C   UNL     1     -13.404  12.994  71.971  1.00  0.00    -0.588 A  
HETATM   14  C   UNL     1     -13.008  13.553  70.756  1.00  0.00    -0.168 A  
HETATM   15  C   UNL     1     -12.242  12.815  69.833  1.00  0.00    -0.245 A  
BRANCH  15  16
HETATM   16  C   UNL     1     -11.842  13.501  68.580  1.00  0.00    -0.369 C  
HETATM   17  O   UNL     1     -12.308  13.070  67.527  1.00  0.00    -0.220 OA 
BRANCH  16  18
HETATM   18  C   UNL     1     -10.979  14.736  68.554  1.00  0.00    -0.265 A  
HETATM   19  C   UNL     1      -9.640  14.565  68.177  1.00  0.00    -0.212 A  
HETATM   20  C   UNL     1      -8.732  15.641  68.181  1.00  0.00    -0.168 A  
HETATM   21  C   UNL     1      -9.110  16.930  68.575  1.00  0.00    -0.257 A  
HETATM   22  O   UNL     1     -12.667  16.280  69.305  1.00  0.00    -0.297 OA 
HETATM   23  C   UNL     1     -10.466  17.098  68.906  1.00  0.00    -0.346 A  
HETATM   24  H   UNL     1     -12.940  17.156  69.549  1.00  0.00     0.000 HD 
HETATM   25  C   UNL     1     -11.381  16.026  68.912  1.00  0.00    -0.370 A  
BRANCH  21  26
HETATM   26  N   UNL     1      -8.218  17.998  68.641  1.00  0.00    -0.300 NA 
BRANCH  26  27
HETATM   27  C   UNL     1      -6.796  17.720  68.897  1.00  0.00    -0.240 C  
HETATM   28  C   UNL     1      -5.962  18.983  68.733  1.00  0.00    -0.236 C  
ENDBRANCH  26  27
BRANCH  26  29
HETATM   29  C   UNL     1      -8.525  19.303  68.038  1.00  0.00    -0.317 C  
HETATM   30  C   UNL     1      -8.986  19.123  66.600  1.00  0.00    -0.349 C  
ENDBRANCH  26  29
ENDBRANCH  21  26
ENDBRANCH  16  18
ENDBRANCH  15  16
ENDBRANCH   8  10
ENDBRANCH   7   8
ENDBRANCH   6   7
ENDBRANCH   5   6
ENDBRANCH   4   5
ENDBRANCH   3   4
ENDBRANCH   2   3
TORSDOF 12
ENDMDL
MODEL      171
REMARK 921   NORMALIZED FREE ENERGY PREDICTED BY IDOCK:   -4.14 KCAL/MOL
REMARK 922        TOTAL FREE ENERGY PREDICTED BY IDOCK:   -9.01 KCAL/MOL
REMARK 923 INTER-LIGAND FREE ENERGY PREDICTED BY IDOCK:   -6.28 KCAL/MOL
REMARK 924 INTRA-LIGAND FREE ENERGY PREDICTED BY IDOCK:   -2.73 KCAL/MOL
REMARK 927      BINDING AFFINITY PREDICTED BY RF-SCORE:    0.00 PKD
ROOT
HETATM    1  C   UNL     1      -8.859   6.699  73.570  1.00  0.00    -0.140 C  
HETATM    2  C   UNL     1      -7.848   6.518  72.447  1.00  0.00    -0.101 C  
ENDROOT
BRANCH   2   3
HETATM    3  C   UNL     1      -8.148   5.264  71.627  1.00  0.00    -0.116 C  
BRANCH   3   4
HETATM    4  C   UNL     1      -9.623   4.853  71.727  1.00  0.00    -0.210 C  
BRANCH   4   5
HETATM    5  C   UNL     1     -10.251   4.761  70.335  1.00  0.00    -0.261 C  
BRANCH   5   6
HETATM    6  C   UNL     1     -11.266   5.863  70.045  1.00  0.00    -0.270 C  
BRANCH   6   7
HETATM    7  O   UNL     1     -10.708   7.103  69.607  1.00  0.00    -0.229 OA 
BRANCH   7   8
HETATM    8  C   UNL     1     -10.121   7.082  68.383  1.00  0.00    -0.164 C  
HETATM    9  O   UNL     1     -10.702   7.107  67.307  1.00  0.00    -0.286 OA 
BRANCH   8  10
HETATM   10  C   UNL     1      -8.665   7.370  68.535  1.00  0.00    -0.127 A  
HETATM   11  C   UNL     1      -7.817   6.321  68.121  1.00  0.00    -0.104 A  
HETATM   12  C   UNL     1      -6.429   6.461  68.139  1.00  0.00    -0.053 A  
HETATM   13  C   UNL     1      -5.864   7.638  68.616  1.00  0.00    -0.027 A  
HETATM   14  C   UNL     1      -6.684   8.682  69.041  1.00  0.00    -0.052 A  
HETATM   15  C   UNL     1      -8.087   8.584  68.955  1.00  0.00    -0.115 A  
BRANCH  15  16
HETATM   16  C   UNL     1      -8.879   9.755  69.403  1.00  0.00    -0.182 C  
HETATM   17  O   UNL     1      -8.966   9.947  70.615  1.00  0.00    -0.082 OA 
BRANCH  16  18
HETATM   18  C   UNL     1      -9.491  10.751  68.452  1.00  0.00    -0.174 A  
HETATM   19  C   UNL     1      -8.648  11.754  67.957  1.00  0.00    -0.158 A  
HETATM   20  C   UNL     1      -9.133  12.772  67.113  1.00  0.00    -0.219 A  
HETATM   21  C   UNL     1     -10.480  12.846  66.739  1.00  0.00    -0.254 A  
HETATM   22  O   UNL     1     -11.726   9.855  68.502  1.00  0.00    -0.504 OA 
HETATM   23  C   UNL     1     -11.305  11.808  67.205  1.00  0.00    -0.387 A  
HETATM   24  H   UNL     1     -12.636   9.881  68.232  1.00  0.00     0.000 HD 
HETATM   25  C   UNL     1     -10.831  10.789  68.055  1.00  0.00    -0.255 A  
BRANCH  21  26
HETATM   26  N   UNL     1     -10.996  13.873  65.952  1.00  0.00    -0.283 NA 
BRANCH  26  27
HETATM   27  C   UNL     1     -11.811  13.525  64.777  1.00  0.00    -0.381 C  
HETATM   28  C   UNL     1     -11.016  12.663  63.806  1.00  0.00    -0.481 C  
ENDBRANCH  26  27
BRANCH  26  29
HETATM   29  C   UNL     1     -11.151  15.241  66.465  1.00  0.00    -0.271 C  
HETATM   30  C   UNL     1     -10.261  16.200  65.688  1.00  0.00    -0.390 C  
ENDBRANCH  26  29
ENDBRANCH  21  26
ENDBRANCH  16  18
ENDBRANCH  15  16
ENDBRANCH   8  10
ENDBRANCH   7   8
ENDBRANCH   6   7
ENDBRANCH   5   6
ENDBRANCH   4   5
ENDBRANCH   3   4
ENDBRANCH   2   3
TORSDOF 12
ENDMDL
MODEL      172
REMARK 921   NORMALIZED FREE ENERGY PREDICTED BY IDOCK:   -4.13 KCAL/MOL
REMARK 922        TOTAL FREE ENERGY PREDICTED BY IDOCK:   -8.99 KCAL/MOL
REMARK 923 INTER-LIGAND FREE ENERGY PREDICTED BY IDOCK:   -7.42 KCAL/MOL
REMARK 924 INTRA-LIGAND FREE ENERGY PREDICTED BY IDOCK:   -1.58 KCAL/MOL
REMARK 927      BINDING AFFINITY PREDICTED BY RF-SCORE:    0.00 PKD
ROOT
HETATM    1  C   UNL     1     -10.772   7.056  69.726  1.00  0.00    -0.265 C  
HETATM    2  C   UNL     1      -9.481   7.064  70.531  1.00  0.00    -0.166 C  
ENDROOT
BRANCH   2   3
HETATM    3  C   UNL     1      -8.706   8.366  70.327  1.00  0.00    -0.140 C  
BRANCH   3   4
HETATM    4  C   UNL     1      -8.680   8.792  68.854  1.00  0.00    -0.134 C  
BRANCH   4   5
HETATM    5  C   UNL     1      -8.564  10.313  68.736  1.00  0.00    -0.139 C  
BRANCH   5   6
HETATM    6  C   UNL     1      -9.886  11.008  68.425  1.00  0.00    -0.182 C  
BRANCH   6   7
HETATM    7  O   UNL     1     -10.397  11.838  69.469  1.00  0.00     0.121 OA 
BRANCH   7   8
HETATM    8  C   UNL     1     -11.711  11.667  69.764  1.00  0.00    -0.352 C  
HETATM    9  O   UNL     1     -12.273  10.595  69.944  1.00  0.00    -0.307 OA 
BRANCH   8  10
HETATM   10  C   UNL     1     -12.294  12.977  70.175  1.00  0.00    -0.270 A  
HETATM   11  C   UNL     1     -12.861  12.983  71.467  1.00  0.00    -0.386 A  
HETATM   12  C   UNL     1     -13.388  14.150  72.022  1.00  0.00    -0.502 A  
HETATM   13  C   UNL     1     -13.401  15.321  71.274  1.00  0.00    -0.586 A  
HETATM   14  C   UNL     1     -12.856  15.333  69.990  1.00  0.00    -0.123 A  
HETATM   15  C   UNL     1     -12.250  14.183  69.449  1.00  0.00    -0.329 A  
BRANCH  15  16
HETATM   16  C   UNL     1     -11.672  14.296  68.087  1.00  0.00    -0.350 C  
HETATM   17  O   UNL     1     -12.258  13.714  67.175  1.00  0.00    -0.372 OA 
BRANCH  16  18
HETATM   18  C   UNL     1     -10.474  15.152  67.768  1.00  0.00    -0.247 A  
HETATM   19  C   UNL     1      -9.526  15.321  68.785  1.00  0.00    -0.212 A  
HETATM   20  C   UNL     1      -8.402  16.152  68.614  1.00  0.00    -0.211 A  
HETATM   21  C   UNL     1      -8.181  16.865  67.430  1.00  0.00    -0.182 A  
HETATM   22  O   UNL     1     -11.127  15.729  65.522  1.00  0.00    -0.283 OA 
HETATM   23  C   UNL     1      -9.114  16.651  66.401  1.00  0.00    -0.325 A  
HETATM   24  H   UNL     1     -10.972  16.187  64.706  1.00  0.00     0.000 HD 
HETATM   25  C   UNL     1     -10.246  15.827  66.565  1.00  0.00    -0.286 A  
BRANCH  21  26
HETATM   26  N   UNL     1      -7.108  17.737  67.256  1.00  0.00    -0.179 NA 
BRANCH  26  27
HETATM   27  C   UNL     1      -6.470  18.323  68.445  1.00  0.00    -0.208 C  
HETATM   28  C   UNL     1      -7.250  19.537  68.932  1.00  0.00    -0.397 C  
ENDBRANCH  26  27
BRANCH  26  29
HETATM   29  C   UNL     1      -6.312  17.749  66.021  1.00  0.00    -0.234 C  
HETATM   30  C   UNL     1      -5.180  18.759  66.134  1.00  0.00    -0.169 C  
ENDBRANCH  26  29
ENDBRANCH  21  26
ENDBRANCH  16  18
ENDBRANCH  15  16
ENDBRANCH   8  10
ENDBRANCH   7   8
ENDBRANCH   6   7
ENDBRANCH   5   6
ENDBRANCH   4   5
ENDBRANCH   3   4
ENDBRANCH   2   3
TORSDOF 12
ENDMDL
MODEL      173
REMARK 921   NORMALIZED FREE ENERGY PREDICTED BY IDOCK:   -4.08 KCAL/MOL
REMARK 922        TOTAL FREE ENERGY PREDICTED BY IDOCK:   -8.91 KCAL/MOL
REMARK 923 INTER-LIGAND FREE ENERGY PREDICTED BY IDOCK:   -6.70 KCAL/MOL
REMARK 924 INTRA-LIGAND FREE ENERGY PREDICTED BY IDOCK:   -2.21 KCAL/MOL
REMARK 927      BINDING AFFINITY PREDICTED BY RF-SCORE:    0.00 PKD
ROOT
HETATM    1  C   UNL     1      -6.140  16.319  69.732  1.00  0.00    -0.198 C  
HETATM    2  C   UNL     1      -5.585  15.870  68.389  1.00  0.00    -0.109 C  
ENDROOT
BRANCH   2   3
HETATM    3  C   UNL     1      -6.322  14.636  67.867  1.00  0.00    -0.173 C  
BRANCH   3   4
HETATM    4  C   UNL     1      -7.296  14.068  68.908  1.00  0.00    -0.113 C  
BRANCH   4   5
HETATM    5  C   UNL     1      -8.639  13.729  68.259  1.00  0.00    -0.175 C  
BRANCH   5   6
HETATM    6  C   UNL     1      -8.973  14.595  67.049  1.00  0.00    -0.240 C  
BRANCH   6   7
HETATM    7  O   UNL     1     -10.234  15.263  67.109  1.00  0.00    -0.246 OA 
BRANCH   7   8
HETATM    8  C   UNL     1     -11.312  14.464  67.319  1.00  0.00    -0.342 C  
HETATM    9  O   UNL     1     -12.061  14.507  68.285  1.00  0.00    -0.292 OA 
BRANCH   8  10
HETATM   10  C   UNL     1     -11.653  13.761  66.049  1.00  0.00    -0.361 A  
HETATM   11  C   UNL     1     -12.018  14.617  64.988  1.00  0.00    -0.364 A  
HETATM   12  C   UNL     1     -12.302  14.116  63.717  1.00  0.00    -0.121 A  
HETATM   13  C   UNL     1     -12.271  12.745  63.497  1.00  0.00    -0.613 A  
HETATM   14  C   UNL     1     -11.925  11.881  64.535  1.00  0.00    -0.281 A  
HETATM   15  C   UNL     1     -11.560  12.378  65.801  1.00  0.00    -0.449 A  
BRANCH  15  16
HETATM   16  C   UNL     1     -11.178  11.386  66.836  1.00  0.00    -0.264 C  
HETATM   17  O   UNL     1     -11.906  11.293  67.824  1.00  0.00    -0.610 OA 
BRANCH  16  18
HETATM   18  C   UNL     1     -10.012  10.444  66.687  1.00  0.00    -0.262 A  
HETATM   19  C   UNL     1      -8.869  10.946  66.050  1.00  0.00    -0.198 A  
HETATM   20  C   UNL     1      -7.748  10.132  65.803  1.00  0.00    -0.136 A  
HETATM   21  C   UNL     1      -7.718   8.779  66.162  1.00  0.00    -0.101 A  
HETATM   22  O   UNL     1     -11.060   8.530  67.706  1.00  0.00    -0.485 OA 
HETATM   23  C   UNL     1      -8.852   8.300  66.841  1.00  0.00    -0.155 A  
HETATM   24  H   UNL     1     -11.040   7.620  67.977  1.00  0.00     0.000 HD 
HETATM   25  C   UNL     1      -9.982   9.105  67.088  1.00  0.00    -0.218 A  
BRANCH  21  26
HETATM   26  N   UNL     1      -6.644   7.939  65.878  1.00  0.00    -0.048 NA 
BRANCH  26  27
HETATM   27  C   UNL     1      -6.616   7.236  64.585  1.00  0.00    -0.043 C  
HETATM   28  C   UNL     1      -6.937   5.760  64.767  1.00  0.00    -0.052 C  
ENDBRANCH  26  27
BRANCH  26  29
HETATM   29  C   UNL     1      -5.358   8.062  66.577  1.00  0.00    -0.028 C  
HETATM   30  C   UNL     1      -5.349   7.190  67.823  1.00  0.00    -0.020 C  
ENDBRANCH  26  29
ENDBRANCH  21  26
ENDBRANCH  16  18
ENDBRANCH  15  16
ENDBRANCH   8  10
ENDBRANCH   7   8
ENDBRANCH   6   7
ENDBRANCH   5   6
ENDBRANCH   4   5
ENDBRANCH   3   4
ENDBRANCH   2   3
TORSDOF 12
ENDMDL
MODEL      174
REMARK 921   NORMALIZED FREE ENERGY PREDICTED BY IDOCK:   -4.07 KCAL/MOL
REMARK 922        TOTAL FREE ENERGY PREDICTED BY IDOCK:   -8.90 KCAL/MOL
REMARK 923 INTER-LIGAND FREE ENERGY PREDICTED BY IDOCK:   -6.84 KCAL/MOL
REMARK 924 INTRA-LIGAND FREE ENERGY PREDICTED BY IDOCK:   -2.05 KCAL/MOL
REMARK 927      BINDING AFFINITY PREDICTED BY RF-SCORE:    0.00 PKD
ROOT
HETATM    1  C   UNL     1      -6.610   8.782  66.065  1.00  0.00    -0.057 C  
HETATM    2  C   UNL     1      -6.842  10.271  65.853  1.00  0.00    -0.125 C  
ENDROOT
BRANCH   2   3
HETATM    3  C   UNL     1      -6.124  11.102  66.915  1.00  0.00    -0.104 C  
BRANCH   3   4
HETATM    4  C   UNL     1      -7.087  11.599  68.001  1.00  0.00    -0.080 C  
BRANCH   4   5
HETATM    5  C   UNL     1      -6.342  11.825  69.318  1.00  0.00    -0.103 C  
BRANCH   5   6
HETATM    6  C   UNL     1      -6.508  10.688  70.321  1.00  0.00    -0.138 C  
BRANCH   6   7
HETATM    7  O   UNL     1      -7.770  10.020  70.279  1.00  0.00    -0.172 OA 
BRANCH   7   8
HETATM    8  C   UNL     1      -7.728   8.676  70.467  1.00  0.00    -0.086 C  
HETATM    9  O   UNL     1      -6.733   7.970  70.385  1.00  0.00    -0.037 OA 
BRANCH   8  10
HETATM   10  C   UNL     1      -8.995   8.234  71.119  1.00  0.00    -0.192 A  
HETATM   11  C   UNL     1      -8.935   8.176  72.528  1.00  0.00    -0.286 A  
HETATM   12  C   UNL     1     -10.057   7.844  73.288  1.00  0.00    -0.313 A  
HETATM   13  C   UNL     1     -11.247   7.518  72.649  1.00  0.00    -0.399 A  
HETATM   14  C   UNL     1     -11.324   7.558  71.257  1.00  0.00    -0.284 A  
HETATM   15  C   UNL     1     -10.222   7.967  70.482  1.00  0.00    -0.201 A  
BRANCH  15  16
HETATM   16  C   UNL     1     -10.404   8.007  69.010  1.00  0.00    -0.218 C  
HETATM   17  O   UNL     1     -10.537   6.931  68.429  1.00  0.00    -0.193 OA 
BRANCH  16  18
HETATM   18  C   UNL     1     -10.522   9.289  68.227  1.00  0.00    -0.260 A  
HETATM   19  C   UNL     1     -10.290   9.211  66.847  1.00  0.00    -0.321 A  
HETATM   20  C   UNL     1     -10.311  10.359  66.032  1.00  0.00    -0.262 A  
HETATM   21  C   UNL     1     -10.547  11.636  66.555  1.00  0.00    -0.253 A  
HETATM   22  O   UNL     1     -11.024  10.721  70.097  1.00  0.00    -0.409 OA 
HETATM   23  C   UNL     1     -10.824  11.694  67.932  1.00  0.00    -0.255 A  
HETATM   24  H   UNL     1     -11.212  11.579  70.457  1.00  0.00     0.000 HD 
HETATM   25  C   UNL     1     -10.798  10.552  68.757  1.00  0.00    -0.231 A  
BRANCH  21  26
HETATM   26  N   UNL     1     -10.518  12.793  65.780  1.00  0.00    -0.271 NA 
BRANCH  26  27
HETATM   27  C   UNL     1      -9.821  13.980  66.303  1.00  0.00    -0.305 C  
HETATM   28  C   UNL     1     -10.621  15.243  66.021  1.00  0.00    -0.327 C  
ENDBRANCH  26  27
BRANCH  26  29
HETATM   29  C   UNL     1     -10.741  12.760  64.328  1.00  0.00    -0.394 C  
HETATM   30  C   UNL     1     -12.217  12.547  64.026  1.00  0.00    -0.566 C  
ENDBRANCH  26  29
ENDBRANCH  21  26
ENDBRANCH  16  18
ENDBRANCH  15  16
ENDBRANCH   8  10
ENDBRANCH   7   8
ENDBRANCH   6   7
ENDBRANCH   5   6
ENDBRANCH   4   5
ENDBRANCH   3   4
ENDBRANCH   2   3
TORSDOF 12
ENDMDL
MODEL      175
REMARK 921   NORMALIZED FREE ENERGY PREDICTED BY IDOCK:   -4.06 KCAL/MOL
REMARK 922        TOTAL FREE ENERGY PREDICTED BY IDOCK:   -8.88 KCAL/MOL
REMARK 923 INTER-LIGAND FREE ENERGY PREDICTED BY IDOCK:   -7.15 KCAL/MOL
REMARK 924 INTRA-LIGAND FREE ENERGY PREDICTED BY IDOCK:   -1.73 KCAL/MOL
REMARK 927      BINDING AFFINITY PREDICTED BY RF-SCORE:    0.00 PKD
ROOT
HETATM    1  C   UNL     1     -10.653   3.065  63.493  1.00  0.00    -0.237 C  
HETATM    2  C   UNL     1      -9.187   3.448  63.631  1.00  0.00    -0.098 C  
ENDROOT
BRANCH   2   3
HETATM    3  C   UNL     1      -9.005   4.603  64.616  1.00  0.00    -0.151 C  
BRANCH   3   4
HETATM    4  C   UNL     1      -9.602   4.283  65.992  1.00  0.00    -0.195 C  
BRANCH   4   5
HETATM    5  C   UNL     1     -10.531   5.409  66.451  1.00  0.00    -0.324 C  
BRANCH   5   6
HETATM    6  C   UNL     1      -9.807   6.556  67.147  1.00  0.00    -0.148 C  
BRANCH   6   7
HETATM    7  O   UNL     1     -10.608   7.321  68.050  1.00  0.00    -0.208 OA 
BRANCH   7   8
HETATM    8  C   UNL     1     -10.706   6.826  69.310  1.00  0.00    -0.253 C  
HETATM    9  O   UNL     1     -11.426   5.902  69.664  1.00  0.00    -0.296 OA 
BRANCH   8  10
HETATM   10  C   UNL     1      -9.568   7.336  70.126  1.00  0.00    -0.168 A  
HETATM   11  C   UNL     1      -8.536   6.397  70.340  1.00  0.00    -0.142 A  
HETATM   12  C   UNL     1      -7.373   6.743  71.028  1.00  0.00    -0.078 A  
HETATM   13  C   UNL     1      -7.242   8.021  71.557  1.00  0.00    -0.071 A  
HETATM   14  C   UNL     1      -8.255   8.960  71.368  1.00  0.00    -0.175 A  
HETATM   15  C   UNL     1      -9.399   8.649  70.607  1.00  0.00    -0.218 A  
BRANCH  15  16
HETATM   16  C   UNL     1     -10.412   9.720  70.434  1.00  0.00    -0.297 C  
HETATM   17  O   UNL     1     -11.166   9.941  71.381  1.00  0.00    -0.348 OA 
BRANCH  16  18
HETATM   18  C   UNL     1     -10.492  10.590  69.207  1.00  0.00    -0.258 A  
HETATM   19  C   UNL     1      -9.279  11.047  68.674  1.00  0.00    -0.186 A  
HETATM   20  C   UNL     1      -9.243  11.917  67.568  1.00  0.00    -0.177 A  
HETATM   21  C   UNL     1     -10.410  12.386  66.954  1.00  0.00    -0.224 A  
HETATM   22  O   UNL     1     -12.894  10.630  69.043  1.00  0.00    -0.555 OA 
HETATM   23  C   UNL     1     -11.619  11.884  67.469  1.00  0.00    -0.374 A  
HETATM   24  H   UNL     1     -13.691  10.921  68.616  1.00  0.00     0.000 HD 
HETATM   25  C   UNL     1     -11.666  11.018  68.580  1.00  0.00    -0.278 A  
BRANCH  21  26
HETATM   26  N   UNL     1     -10.403  13.291  65.896  1.00  0.00    -0.287 NA 
BRANCH  26  27
HETATM   27  C   UNL     1     -11.292  13.046  64.748  1.00  0.00    -0.317 C  
HETATM   28  C   UNL     1     -10.738  11.938  63.864  1.00  0.00    -0.450 C  
ENDBRANCH  26  27
BRANCH  26  29
HETATM   29  C   UNL     1      -9.915  14.668  66.055  1.00  0.00    -0.316 C  
HETATM   30  C   UNL     1     -10.827  15.445  66.993  1.00  0.00    -0.320 C  
ENDBRANCH  26  29
ENDBRANCH  21  26
ENDBRANCH  16  18
ENDBRANCH  15  16
ENDBRANCH   8  10
ENDBRANCH   7   8
ENDBRANCH   6   7
ENDBRANCH   5   6
ENDBRANCH   4   5
ENDBRANCH   3   4
ENDBRANCH   2   3
TORSDOF 12
ENDMDL
MODEL      176
REMARK 921   NORMALIZED FREE ENERGY PREDICTED BY IDOCK:   -4.06 KCAL/MOL
REMARK 922        TOTAL FREE ENERGY PREDICTED BY IDOCK:   -8.87 KCAL/MOL
REMARK 923 INTER-LIGAND FREE ENERGY PREDICTED BY IDOCK:   -6.97 KCAL/MOL
REMARK 924 INTRA-LIGAND FREE ENERGY PREDICTED BY IDOCK:   -1.90 KCAL/MOL
REMARK 927      BINDING AFFINITY PREDICTED BY RF-SCORE:    0.00 PKD
ROOT
HETATM    1  C   UNL     1      -8.833  18.715  68.084  1.00  0.00    -0.335 C  
HETATM    2  C   UNL     1      -9.639  17.794  67.178  1.00  0.00    -0.276 C  
ENDROOT
BRANCH   2   3
HETATM    3  C   UNL     1     -10.842  17.205  67.914  1.00  0.00    -0.294 C  
BRANCH   3   4
HETATM    4  C   UNL     1     -10.475  16.732  69.326  1.00  0.00    -0.331 C  
BRANCH   4   5
HETATM    5  C   UNL     1     -11.125  15.380  69.627  1.00  0.00    -0.280 C  
BRANCH   5   6
HETATM    6  C   UNL     1     -11.307  14.499  68.396  1.00  0.00    -0.289 C  
BRANCH   6   7
HETATM    7  O   UNL     1     -10.297  13.506  68.203  1.00  0.00    -0.233 OA 
BRANCH   7   8
HETATM    8  C   UNL     1      -9.483  13.699  67.135  1.00  0.00    -0.244 C  
HETATM    9  O   UNL     1      -8.461  14.371  67.122  1.00  0.00    -0.203 OA 
BRANCH   8  10
HETATM   10  C   UNL     1      -9.821  12.703  66.077  1.00  0.00    -0.260 A  
HETATM   11  C   UNL     1     -10.791  13.142  65.152  1.00  0.00    -0.321 A  
HETATM   12  C   UNL     1     -11.167  12.350  64.065  1.00  0.00    -0.458 A  
HETATM   13  C   UNL     1     -10.613  11.085  63.913  1.00  0.00    -0.382 A  
HETATM   14  C   UNL     1      -9.661  10.628  64.824  1.00  0.00    -0.350 A  
HETATM   15  C   UNL     1      -9.215  11.447  65.879  1.00  0.00    -0.231 A  
BRANCH  15  16
HETATM   16  C   UNL     1      -8.179  10.888  66.782  1.00  0.00    -0.140 C  
HETATM   17  O   UNL     1      -7.024  11.283  66.629  1.00  0.00    -0.138 OA 
BRANCH  16  18
HETATM   18  C   UNL     1      -8.493   9.945  67.915  1.00  0.00    -0.121 A  
HETATM   19  C   UNL     1      -9.211  10.472  68.997  1.00  0.00    -0.193 A  
HETATM   20  C   UNL     1      -9.501   9.695  70.135  1.00  0.00    -0.298 A  
HETATM   21  C   UNL     1      -9.075   8.367  70.256  1.00  0.00    -0.148 A  
HETATM   22  O   UNL     1      -7.378   8.017  66.998  1.00  0.00    -0.087 OA 
HETATM   23  C   UNL     1      -8.396   7.837  69.145  1.00  0.00    -0.134 A  
HETATM   24  H   UNL     1      -7.108   7.109  67.059  1.00  0.00     0.000 HD 
HETATM   25  C   UNL     1      -8.095   8.608  68.004  1.00  0.00    -0.111 A  
BRANCH  21  26
HETATM   26  N   UNL     1      -9.300   7.596  71.393  1.00  0.00    -0.140 NA 
BRANCH  26  27
HETATM   27  C   UNL     1      -8.771   6.223  71.435  1.00  0.00    -0.135 C  
HETATM   28  C   UNL     1      -9.896   5.207  71.297  1.00  0.00    -0.239 C  
ENDBRANCH  26  27
BRANCH  26  29
HETATM   29  C   UNL     1      -9.628   8.204  72.691  1.00  0.00    -0.282 C  
HETATM   30  C   UNL     1      -8.471   8.027  73.663  1.00  0.00    -0.317 C  
ENDBRANCH  26  29
ENDBRANCH  21  26
ENDBRANCH  16  18
ENDBRANCH  15  16
ENDBRANCH   8  10
ENDBRANCH   7   8
ENDBRANCH   6   7
ENDBRANCH   5   6
ENDBRANCH   4   5
ENDBRANCH   3   4
ENDBRANCH   2   3
TORSDOF 12
ENDMDL
MODEL      177
REMARK 921   NORMALIZED FREE ENERGY PREDICTED BY IDOCK:   -4.05 KCAL/MOL
REMARK 922        TOTAL FREE ENERGY PREDICTED BY IDOCK:   -8.85 KCAL/MOL
REMARK 923 INTER-LIGAND FREE ENERGY PREDICTED BY IDOCK:   -6.79 KCAL/MOL
REMARK 924 INTRA-LIGAND FREE ENERGY PREDICTED BY IDOCK:   -2.06 KCAL/MOL
REMARK 927      BINDING AFFINITY PREDICTED BY RF-SCORE:    0.00 PKD
ROOT
HETATM    1  C   UNL     1     -11.540  12.429  67.979  1.00  0.00    -0.403 C  
HETATM    2  C   UNL     1     -10.946  11.502  66.928  1.00  0.00    -0.350 C  
ENDROOT
BRANCH   2   3
HETATM    3  C   UNL     1     -10.751  10.090  67.479  1.00  0.00    -0.339 C  
BRANCH   3   4
HETATM    4  C   UNL     1      -9.379   9.514  67.108  1.00  0.00    -0.174 C  
BRANCH   4   5
HETATM    5  C   UNL     1      -8.590   9.149  68.367  1.00  0.00    -0.129 C  
BRANCH   5   6
HETATM    6  C   UNL     1      -7.953   7.765  68.314  1.00  0.00    -0.122 C  
BRANCH   6   7
HETATM    7  O   UNL     1      -7.557   7.328  67.012  1.00  0.00    -0.101 OA 
BRANCH   7   8
HETATM    8  C   UNL     1      -7.242   6.011  66.907  1.00  0.00    -0.071 C  
HETATM    9  O   UNL     1      -6.621   5.353  67.730  1.00  0.00    -0.050 OA 
BRANCH   8  10
HETATM   10  C   UNL     1      -8.051   5.401  65.813  1.00  0.00    -0.110 A  
HETATM   11  C   UNL     1      -7.642   5.765  64.512  1.00  0.00    -0.084 A  
HETATM   12  C   UNL     1      -8.257   5.226  63.382  1.00  0.00    -0.117 A  
HETATM   13  C   UNL     1      -9.325   4.349  63.533  1.00  0.00    -0.097 A  
HETATM   14  C   UNL     1      -9.753   3.987  64.810  1.00  0.00    -0.187 A  
HETATM   15  C   UNL     1      -9.091   4.462  65.959  1.00  0.00    -0.131 A  
BRANCH  15  16
HETATM   16  C   UNL     1      -9.597   4.000  67.274  1.00  0.00    -0.189 C  
HETATM   17  O   UNL     1      -9.488   2.802  67.533  1.00  0.00    -0.194 OA 
BRANCH  16  18
HETATM   18  C   UNL     1     -10.144   4.934  68.322  1.00  0.00    -0.143 A  
HETATM   19  C   UNL     1      -9.854   4.627  69.658  1.00  0.00    -0.293 A  
HETATM   20  C   UNL     1     -10.369   5.396  70.719  1.00  0.00    -0.322 A  
HETATM   21  C   UNL     1     -11.209   6.494  70.500  1.00  0.00    -0.344 A  
HETATM   22  O   UNL     1     -11.293   6.417  66.812  1.00  0.00    -0.704 OA 
HETATM   23  C   UNL     1     -11.455   6.820  69.154  1.00  0.00    -0.122 A  
HETATM   24  H   UNL     1     -11.840   7.176  66.651  1.00  0.00     0.000 HD 
HETATM   25  C   UNL     1     -10.950   6.052  68.086  1.00  0.00    -0.246 A  
BRANCH  21  26
HETATM   26  N   UNL     1     -11.776   7.237  71.532  1.00  0.00    -0.276 NA 
BRANCH  26  27
HETATM   27  C   UNL     1     -10.926   7.648  72.661  1.00  0.00    -0.351 C  
HETATM   28  C   UNL     1      -9.860   8.633  72.203  1.00  0.00    -0.387 C  
ENDBRANCH  26  27
BRANCH  26  29
HETATM   29  C   UNL     1     -13.020   7.998  71.347  1.00  0.00    -0.252 C  
HETATM   30  C   UNL     1     -14.224   7.130  71.679  1.00  0.00    -0.502 C  
ENDBRANCH  26  29
ENDBRANCH  21  26
ENDBRANCH  16  18
ENDBRANCH  15  16
ENDBRANCH   8  10
ENDBRANCH   7   8
ENDBRANCH   6   7
ENDBRANCH   5   6
ENDBRANCH   4   5
ENDBRANCH   3   4
ENDBRANCH   2   3
TORSDOF 12
ENDMDL
MODEL      178
REMARK 921   NORMALIZED FREE ENERGY PREDICTED BY IDOCK:   -4.00 KCAL/MOL
REMARK 922        TOTAL FREE ENERGY PREDICTED BY IDOCK:   -8.77 KCAL/MOL
REMARK 923 INTER-LIGAND FREE ENERGY PREDICTED BY IDOCK:   -8.21 KCAL/MOL
REMARK 924 INTRA-LIGAND FREE ENERGY PREDICTED BY IDOCK:   -0.57 KCAL/MOL
REMARK 927      BINDING AFFINITY PREDICTED BY RF-SCORE:    0.00 PKD
ROOT
HETATM    1  C   UNL     1     -14.394  14.188  72.184  1.00  0.00    -0.606 C  
HETATM    2  C   UNL     1     -12.912  13.844  72.136  1.00  0.00    -0.441 C  
ENDROOT
BRANCH   2   3
HETATM    3  C   UNL     1     -12.417  13.719  70.696  1.00  0.00    -0.429 C  
BRANCH   3   4
HETATM    4  C   UNL     1     -12.499  15.054  69.944  1.00  0.00    -0.269 C  
BRANCH   4   5
HETATM    5  C   UNL     1     -11.245  15.892  70.196  1.00  0.00    -0.368 C  
BRANCH   5   6
HETATM    6  C   UNL     1     -10.845  16.772  69.016  1.00  0.00    -0.291 C  
BRANCH   6   7
HETATM    7  O   UNL     1     -11.367  16.363  67.750  1.00  0.00    -0.194 OA 
BRANCH   7   8
HETATM    8  C   UNL     1     -10.476  16.351  66.726  1.00  0.00    -0.273 C  
HETATM    9  O   UNL     1     -10.505  17.074  65.739  1.00  0.00    -0.448 OA 
BRANCH   8  10
HETATM   10  C   UNL     1      -9.271  15.574  67.136  1.00  0.00    -0.228 A  
HETATM   11  C   UNL     1      -8.179  16.366  67.551  1.00  0.00    -0.167 A  
HETATM   12  C   UNL     1      -7.003  15.786  68.027  1.00  0.00    -0.137 A  
HETATM   13  C   UNL     1      -6.880  14.402  68.051  1.00  0.00    -0.150 A  
HETATM   14  C   UNL     1      -7.943  13.601  67.633  1.00  0.00    -0.180 A  
HETATM   15  C   UNL     1      -9.164  14.172  67.225  1.00  0.00    -0.222 A  
BRANCH  15  16
HETATM   16  C   UNL     1     -10.249  13.243  66.825  1.00  0.00    -0.254 C  
HETATM   17  O   UNL     1     -11.274  13.739  66.359  1.00  0.00    -0.308 OA 
BRANCH  16  18
HETATM   18  C   UNL     1     -10.113  11.743  66.879  1.00  0.00    -0.231 A  
HETATM   19  C   UNL     1      -9.921  11.080  65.660  1.00  0.00    -0.299 A  
HETATM   20  C   UNL     1      -9.846   9.676  65.590  1.00  0.00    -0.369 A  
HETATM   21  C   UNL     1      -9.976   8.868  66.725  1.00  0.00    -0.267 A  
HETATM   22  O   UNL     1     -10.405  11.516  69.259  1.00  0.00    -0.405 OA 
HETATM   23  C   UNL     1     -10.122   9.547  67.948  1.00  0.00    -0.234 A  
HETATM   24  H   UNL     1     -10.468  10.978  70.039  1.00  0.00     0.000 HD 
HETATM   25  C   UNL     1     -10.205  10.952  68.028  1.00  0.00    -0.178 A  
BRANCH  21  26
HETATM   26  N   UNL     1      -9.962   7.476  66.676  1.00  0.00    -0.222 NA 
BRANCH  26  27
HETATM   27  C   UNL     1      -8.665   6.781  66.632  1.00  0.00    -0.127 C  
HETATM   28  C   UNL     1      -8.647   5.744  65.518  1.00  0.00    -0.151 C  
ENDBRANCH  26  27
BRANCH  26  29
HETATM   29  C   UNL     1     -11.113   6.673  67.110  1.00  0.00    -0.357 C  
HETATM   30  C   UNL     1     -10.916   6.201  68.543  1.00  0.00    -0.404 C  
ENDBRANCH  26  29
ENDBRANCH  21  26
ENDBRANCH  16  18
ENDBRANCH  15  16
ENDBRANCH   8  10
ENDBRANCH   7   8
ENDBRANCH   6   7
ENDBRANCH   5   6
ENDBRANCH   4   5
ENDBRANCH   3   4
ENDBRANCH   2   3
TORSDOF 12
ENDMDL
MODEL      179
REMARK 921   NORMALIZED FREE ENERGY PREDICTED BY IDOCK:   -4.00 KCAL/MOL
REMARK 922        TOTAL FREE ENERGY PREDICTED BY IDOCK:   -8.77 KCAL/MOL
REMARK 923 INTER-LIGAND FREE ENERGY PREDICTED BY IDOCK:   -7.49 KCAL/MOL
REMARK 924 INTRA-LIGAND FREE ENERGY PREDICTED BY IDOCK:   -1.28 KCAL/MOL
REMARK 927      BINDING AFFINITY PREDICTED BY RF-SCORE:    0.00 PKD
ROOT
HETATM    1  C   UNL     1     -11.012   6.112  67.562  1.00  0.00    -0.404 C  
HETATM    2  C   UNL     1      -9.946   5.028  67.522  1.00  0.00    -0.209 C  
ENDROOT
BRANCH   2   3
HETATM    3  C   UNL     1      -9.741   4.398  68.899  1.00  0.00    -0.211 C  
BRANCH   3   4
HETATM    4  C   UNL     1     -10.511   5.149  69.993  1.00  0.00    -0.305 C  
BRANCH   4   5
HETATM    5  C   UNL     1      -9.834   4.964  71.352  1.00  0.00    -0.252 C  
BRANCH   5   6
HETATM    6  C   UNL     1      -8.611   5.852  71.556  1.00  0.00    -0.132 C  
BRANCH   6   7
HETATM    7  O   UNL     1      -8.748   7.193  71.081  1.00  0.00    -0.132 OA 
BRANCH   7   8
HETATM    8  C   UNL     1      -9.121   8.109  72.011  1.00  0.00    -0.180 C  
HETATM    9  O   UNL     1      -8.453   8.473  72.969  1.00  0.00    -0.360 OA 
BRANCH   8  10
HETATM   10  C   UNL     1     -10.311   8.856  71.511  1.00  0.00    -0.394 A  
HETATM   11  C   UNL     1     -11.498   8.615  72.236  1.00  0.00    -0.423 A  
HETATM   12  C   UNL     1     -12.681   9.289  71.933  1.00  0.00    -0.474 A  
HETATM   13  C   UNL     1     -12.711  10.180  70.868  1.00  0.00    -0.448 A  
HETATM   14  C   UNL     1     -11.552  10.422  70.131  1.00  0.00    -0.392 A  
HETATM   15  C   UNL     1     -10.332   9.809  70.475  1.00  0.00    -0.348 A  
BRANCH  15  16
HETATM   16  C   UNL     1      -9.145  10.149  69.653  1.00  0.00    -0.174 C  
HETATM   17  O   UNL     1      -8.053  10.171  70.220  1.00  0.00    -0.134 OA 
BRANCH  16  18
HETATM   18  C   UNL     1      -9.208  10.372  68.164  1.00  0.00    -0.145 A  
HETATM   19  C   UNL     1      -9.748   9.337  67.390  1.00  0.00    -0.208 A  
HETATM   20  C   UNL     1      -9.795   9.416  65.985  1.00  0.00    -0.366 A  
HETATM   21  C   UNL     1      -9.291  10.520  65.287  1.00  0.00    -0.213 A  
HETATM   22  O   UNL     1      -8.183  12.552  68.160  1.00  0.00    -0.154 OA 
HETATM   23  C   UNL     1      -8.795  11.572  66.077  1.00  0.00    -0.144 A  
HETATM   24  H   UNL     1      -7.864  13.317  67.697  1.00  0.00     0.000 HD 
HETATM   25  C   UNL     1      -8.737  11.499  67.483  1.00  0.00    -0.145 A  
BRANCH  21  26
HETATM   26  N   UNL     1      -9.275  10.598  63.896  1.00  0.00    -0.224 NA 
BRANCH  26  27
HETATM   27  C   UNL     1     -10.426  11.203  63.206  1.00  0.00    -0.257 C  
HETATM   28  C   UNL     1     -10.882  12.466  63.924  1.00  0.00    -0.465 C  
ENDBRANCH  26  27
BRANCH  26  29
HETATM   29  C   UNL     1      -8.022  10.531  63.131  1.00  0.00    -0.083 C  
HETATM   30  C   UNL     1      -7.002   9.672  63.863  1.00  0.00    -0.112 C  
ENDBRANCH  26  29
ENDBRANCH  21  26
ENDBRANCH  16  18
ENDBRANCH  15  16
ENDBRANCH   8  10
ENDBRANCH   7   8
ENDBRANCH   6   7
ENDBRANCH   5   6
ENDBRANCH   4   5
ENDBRANCH   3   4
ENDBRANCH   2   3
TORSDOF 12
ENDMDL
MODEL      180
REMARK 921   NORMALIZED FREE ENERGY PREDICTED BY IDOCK:   -3.99 KCAL/MOL
REMARK 922        TOTAL FREE ENERGY PREDICTED BY IDOCK:   -8.75 KCAL/MOL
REMARK 923 INTER-LIGAND FREE ENERGY PREDICTED BY IDOCK:   -6.62 KCAL/MOL
REMARK 924 INTRA-LIGAND FREE ENERGY PREDICTED BY IDOCK:   -2.13 KCAL/MOL
REMARK 927      BINDING AFFINITY PREDICTED BY RF-SCORE:    0.00 PKD
ROOT
HETATM    1  C   UNL     1      -5.779  10.069  70.735  1.00  0.00    -0.084 C  
HETATM    2  C   UNL     1      -5.549   8.639  71.203  1.00  0.00    -0.035 C  
ENDROOT
BRANCH   2   3
HETATM    3  C   UNL     1      -5.168   8.593  72.682  1.00  0.00    -0.048 C  
BRANCH   3   4
HETATM    4  C   UNL     1      -6.402   8.592  73.592  1.00  0.00    -0.124 C  
BRANCH   4   5
HETATM    5  C   UNL     1      -7.165   7.272  73.463  1.00  0.00    -0.085 C  
BRANCH   5   6
HETATM    6  C   UNL     1      -8.662   7.448  73.232  1.00  0.00    -0.151 C  
BRANCH   6   7
HETATM    7  O   UNL     1      -9.053   8.726  72.726  1.00  0.00    -0.338 OA 
BRANCH   7   8
HETATM    8  C   UNL     1      -9.577   8.725  71.473  1.00  0.00    -0.284 C  
HETATM    9  O   UNL     1      -8.968   8.485  70.440  1.00  0.00    -0.141 OA 
BRANCH   8  10
HETATM   10  C   UNL     1     -11.066   8.721  71.567  1.00  0.00    -0.377 A  
HETATM   11  C   UNL     1     -11.654  10.003  71.566  1.00  0.00    -0.300 A  
HETATM   12  C   UNL     1     -13.040  10.165  71.582  1.00  0.00    -0.550 A  
HETATM   13  C   UNL     1     -13.861   9.046  71.646  1.00  0.00    -0.422 A  
HETATM   14  C   UNL     1     -13.299   7.770  71.660  1.00  0.00    -0.386 A  
HETATM   15  C   UNL     1     -11.906   7.590  71.565  1.00  0.00    -0.324 A  
BRANCH  15  16
HETATM   16  C   UNL     1     -11.399   6.196  71.558  1.00  0.00    -0.280 C  
HETATM   17  O   UNL     1     -11.588   5.522  72.570  1.00  0.00    -0.283 OA 
BRANCH  16  18
HETATM   18  C   UNL     1     -10.759   5.555  70.354  1.00  0.00    -0.321 A  
HETATM   19  C   UNL     1     -11.070   6.106  69.104  1.00  0.00    -0.448 A  
HETATM   20  C   UNL     1     -10.577   5.545  67.910  1.00  0.00    -0.219 A  
HETATM   21  C   UNL     1      -9.768   4.403  67.905  1.00  0.00    -0.129 A  
HETATM   22  O   UNL     1      -9.574   3.830  71.545  1.00  0.00    -0.140 OA 
HETATM   23  C   UNL     1      -9.425   3.888  69.168  1.00  0.00    -0.246 A  
HETATM   24  H   UNL     1      -9.004   3.071  71.554  1.00  0.00     0.000 HD 
HETATM   25  C   UNL     1      -9.919   4.438  70.368  1.00  0.00    -0.183 A  
BRANCH  21  26
HETATM   26  N   UNL     1      -9.314   3.796  66.737  1.00  0.00    -0.179 NA 
BRANCH  26  27
HETATM   27  C   UNL     1      -9.314   4.574  65.487  1.00  0.00    -0.162 C  
HETATM   28  C   UNL     1     -10.311   3.995  64.493  1.00  0.00    -0.221 C  
ENDBRANCH  26  27
BRANCH  26  29
HETATM   29  C   UNL     1      -8.438   2.616  66.765  1.00  0.00    -0.103 C  
HETATM   30  C   UNL     1      -7.047   2.980  66.268  1.00  0.00    -0.058 C  
ENDBRANCH  26  29
ENDBRANCH  21  26
ENDBRANCH  16  18
ENDBRANCH  15  16
ENDBRANCH   8  10
ENDBRANCH   7   8
ENDBRANCH   6   7
ENDBRANCH   5   6
ENDBRANCH   4   5
ENDBRANCH   3   4
ENDBRANCH   2   3
TORSDOF 12
ENDMDL
MODEL      181
REMARK 921   NORMALIZED FREE ENERGY PREDICTED BY IDOCK:   -3.98 KCAL/MOL
REMARK 922        TOTAL FREE ENERGY PREDICTED BY IDOCK:   -8.73 KCAL/MOL
REMARK 923 INTER-LIGAND FREE ENERGY PREDICTED BY IDOCK:   -7.22 KCAL/MOL
REMARK 924 INTRA-LIGAND FREE ENERGY PREDICTED BY IDOCK:   -1.51 KCAL/MOL
REMARK 927      BINDING AFFINITY PREDICTED BY RF-SCORE:    0.00 PKD
ROOT
HETATM    1  C   UNL     1     -13.645  15.656  72.330  1.00  0.00    -0.616 C  
HETATM    2  C   UNL     1     -13.075  14.323  72.793  1.00  0.00    -0.589 C  
ENDROOT
BRANCH   2   3
HETATM    3  C   UNL     1     -13.315  13.226  71.757  1.00  0.00    -0.479 C  
BRANCH   3   4
HETATM    4  C   UNL     1     -12.414  13.393  70.527  1.00  0.00    -0.350 C  
BRANCH   4   5
HETATM    5  C   UNL     1     -12.185  12.045  69.841  1.00  0.00    -0.249 C  
BRANCH   5   6
HETATM    6  C   UNL     1     -10.820  11.919  69.172  1.00  0.00    -0.147 C  
BRANCH   6   7
HETATM    7  O   UNL     1     -10.497  10.614  68.690  1.00  0.00    -0.171 OA 
BRANCH   7   8
HETATM    8  C   UNL     1     -10.792  10.381  67.386  1.00  0.00    -0.286 C  
HETATM    9  O   UNL     1     -11.770  10.804  66.784  1.00  0.00    -0.063 OA 
BRANCH   8  10
HETATM   10  C   UNL     1      -9.588   9.825  66.704  1.00  0.00    -0.239 A  
HETATM   11  C   UNL     1      -9.003   8.721  67.360  1.00  0.00    -0.143 A  
HETATM   12  C   UNL     1      -7.910   8.049  66.813  1.00  0.00    -0.103 A  
HETATM   13  C   UNL     1      -7.352   8.499  65.623  1.00  0.00    -0.084 A  
HETATM   14  C   UNL     1      -7.907   9.596  64.965  1.00  0.00    -0.118 A  
HETATM   15  C   UNL     1      -9.058  10.235  65.464  1.00  0.00    -0.211 A  
BRANCH  15  16
HETATM   16  C   UNL     1      -9.596  11.375  64.683  1.00  0.00    -0.199 C  
HETATM   17  O   UNL     1     -10.080  11.125  63.580  1.00  0.00    -0.316 OA 
BRANCH  16  18
HETATM   18  C   UNL     1      -9.656  12.785  65.212  1.00  0.00     0.088 A  
HETATM   19  C   UNL     1      -8.768  13.112  66.245  1.00  0.00     0.321 A  
HETATM   20  C   UNL     1      -8.785  14.380  66.855  1.00  0.00    -0.218 A  
HETATM   21  C   UNL     1      -9.695  15.374  66.477  1.00  0.00    -0.272 A  
HETATM   22  O   UNL     1     -11.456  13.542  63.802  1.00  0.00    -0.595 OA 
HETATM   23  C   UNL     1     -10.549  15.050  65.409  1.00  0.00    -0.398 A  
HETATM   24  H   UNL     1     -12.060  14.219  63.520  1.00  0.00     0.000 HD 
HETATM   25  C   UNL     1     -10.546  13.780  64.796  1.00  0.00    -0.428 A  
BRANCH  21  26
HETATM   26  N   UNL     1      -9.770  16.616  67.102  1.00  0.00    -0.245 NA 
BRANCH  26  27
HETATM   27  C   UNL     1      -9.147  17.778  66.447  1.00  0.00    -0.234 C  
HETATM   28  C   UNL     1      -8.154  18.456  67.380  1.00  0.00    -0.243 C  
ENDBRANCH  26  27
BRANCH  26  29
HETATM   29  C   UNL     1     -10.790  16.915  68.117  1.00  0.00    -0.351 C  
HETATM   30  C   UNL     1     -10.519  16.119  69.385  1.00  0.00    -0.283 C  
ENDBRANCH  26  29
ENDBRANCH  21  26
ENDBRANCH  16  18
ENDBRANCH  15  16
ENDBRANCH   8  10
ENDBRANCH   7   8
ENDBRANCH   6   7
ENDBRANCH   5   6
ENDBRANCH   4   5
ENDBRANCH   3   4
ENDBRANCH   2   3
TORSDOF 12
ENDMDL
MODEL      182
REMARK 921   NORMALIZED FREE ENERGY PREDICTED BY IDOCK:   -3.97 KCAL/MOL
REMARK 922        TOTAL FREE ENERGY PREDICTED BY IDOCK:   -8.71 KCAL/MOL
REMARK 923 INTER-LIGAND FREE ENERGY PREDICTED BY IDOCK:   -6.63 KCAL/MOL
REMARK 924 INTRA-LIGAND FREE ENERGY PREDICTED BY IDOCK:   -2.08 KCAL/MOL
REMARK 927      BINDING AFFINITY PREDICTED BY RF-SCORE:    0.00 PKD
ROOT
HETATM    1  C   UNL     1     -11.036   5.765  70.148  1.00  0.00    -0.323 C  
HETATM    2  C   UNL     1     -11.165   6.289  68.725  1.00  0.00    -0.357 C  
ENDROOT
BRANCH   2   3
HETATM    3  C   UNL     1     -10.202   5.572  67.780  1.00  0.00    -0.237 C  
BRANCH   3   4
HETATM    4  C   UNL     1      -9.858   6.429  66.555  1.00  0.00    -0.170 C  
BRANCH   4   5
HETATM    5  C   UNL     1     -10.089   7.912  66.852  1.00  0.00    -0.362 C  
BRANCH   5   6
HETATM    6  C   UNL     1      -9.215   8.848  66.025  1.00  0.00    -0.228 C  
BRANCH   6   7
HETATM    7  O   UNL     1      -9.905   9.599  65.025  1.00  0.00    -0.268 OA 
BRANCH   7   8
HETATM    8  C   UNL     1      -9.318  10.767  64.659  1.00  0.00    -0.233 C  
HETATM    9  O   UNL     1      -8.201  10.890  64.176  1.00  0.00     0.041 OA 
BRANCH   8  10
HETATM   10  C   UNL     1     -10.353  11.840  64.612  1.00  0.00    -0.336 A  
HETATM   11  C   UNL     1     -11.431  11.573  63.741  1.00  0.00    -0.380 A  
HETATM   12  C   UNL     1     -12.511  12.449  63.635  1.00  0.00    -0.610 A  
HETATM   13  C   UNL     1     -12.510  13.632  64.363  1.00  0.00    -0.316 A  
HETATM   14  C   UNL     1     -11.449  13.921  65.221  1.00  0.00    -0.319 A  
HETATM   15  C   UNL     1     -10.390  13.009  65.397  1.00  0.00    -0.313 A  
BRANCH  15  16
HETATM   16  C   UNL     1      -9.319  13.387  66.351  1.00  0.00    -0.172 C  
HETATM   17  O   UNL     1      -8.952  14.562  66.351  1.00  0.00    -0.222 OA 
BRANCH  16  18
HETATM   18  C   UNL     1      -8.739  12.433  67.362  1.00  0.00    -0.183 A  
HETATM   19  C   UNL     1      -9.642  11.606  68.043  1.00  0.00    -0.184 A  
HETATM   20  C   UNL     1      -9.214  10.724  69.053  1.00  0.00    -0.157 A  
HETATM   21  C   UNL     1      -7.872  10.637  69.443  1.00  0.00    -0.121 A  
HETATM   22  O   UNL     1      -6.442  13.109  67.107  1.00  0.00    -0.449 OA 
HETATM   23  C   UNL     1      -6.970  11.438  68.721  1.00  0.00    -0.097 A  
HETATM   24  H   UNL     1      -5.526  13.038  67.346  1.00  0.00     0.000 HD 
HETATM   25  C   UNL     1      -7.390  12.329  67.713  1.00  0.00    -0.118 A  
BRANCH  21  26
HETATM   26  N   UNL     1      -7.431   9.815  70.477  1.00  0.00    -0.251 NA 
BRANCH  26  27
HETATM   27  C   UNL     1      -8.098   8.519  70.687  1.00  0.00    -0.117 C  
HETATM   28  C   UNL     1      -7.615   7.494  69.671  1.00  0.00    -0.094 C  
ENDBRANCH  26  27
BRANCH  26  29
HETATM   29  C   UNL     1      -6.090   9.955  71.061  1.00  0.00    -0.055 C  
HETATM   30  C   UNL     1      -5.974   9.111  72.322  1.00  0.00     0.000 C  
ENDBRANCH  26  29
ENDBRANCH  21  26
ENDBRANCH  16  18
ENDBRANCH  15  16
ENDBRANCH   8  10
ENDBRANCH   7   8
ENDBRANCH   6   7
ENDBRANCH   5   6
ENDBRANCH   4   5
ENDBRANCH   3   4
ENDBRANCH   2   3
TORSDOF 12
ENDMDL
MODEL      183
REMARK 921   NORMALIZED FREE ENERGY PREDICTED BY IDOCK:   -3.96 KCAL/MOL
REMARK 922        TOTAL FREE ENERGY PREDICTED BY IDOCK:   -8.70 KCAL/MOL
REMARK 923 INTER-LIGAND FREE ENERGY PREDICTED BY IDOCK:   -5.71 KCAL/MOL
REMARK 924 INTRA-LIGAND FREE ENERGY PREDICTED BY IDOCK:   -2.99 KCAL/MOL
REMARK 927      BINDING AFFINITY PREDICTED BY RF-SCORE:    0.00 PKD
ROOT
HETATM    1  C   UNL     1     -11.085   6.478  67.518  1.00  0.00    -0.396 C  
HETATM    2  C   UNL     1     -10.269   5.207  67.704  1.00  0.00    -0.197 C  
ENDROOT
BRANCH   2   3
HETATM    3  C   UNL     1      -9.913   4.986  69.173  1.00  0.00    -0.267 C  
BRANCH   3   4
HETATM    4  C   UNL     1     -10.776   5.843  70.108  1.00  0.00    -0.389 C  
BRANCH   4   5
HETATM    5  C   UNL     1     -10.764   5.271  71.527  1.00  0.00    -0.221 C  
BRANCH   5   6
HETATM    6  C   UNL     1      -9.674   5.859  72.417  1.00  0.00    -0.159 C  
BRANCH   6   7
HETATM    7  O   UNL     1      -8.940   6.942  71.844  1.00  0.00    -0.137 OA 
BRANCH   7   8
HETATM    8  C   UNL     1      -9.174   8.163  72.391  1.00  0.00    -0.226 C  
HETATM    9  O   UNL     1      -8.635   8.617  73.391  1.00  0.00    -0.361 OA 
BRANCH   8  10
HETATM   10  C   UNL     1      -9.923   9.001  71.412  1.00  0.00    -0.388 A  
HETATM   11  C   UNL     1     -11.292   9.167  71.713  1.00  0.00    -0.451 A  
HETATM   12  C   UNL     1     -12.113   9.978  70.929  1.00  0.00    -0.448 A  
HETATM   13  C   UNL     1     -11.590  10.600  69.802  1.00  0.00    -0.385 A  
HETATM   14  C   UNL     1     -10.243  10.439  69.480  1.00  0.00    -0.258 A  
HETATM   15  C   UNL     1      -9.384   9.687  70.306  1.00  0.00    -0.292 A  
BRANCH  15  16
HETATM   16  C   UNL     1      -7.960   9.594  69.901  1.00  0.00    -0.167 C  
HETATM   17  O   UNL     1      -7.186  10.429  70.366  1.00  0.00    -0.266 OA 
BRANCH  16  18
HETATM   18  C   UNL     1      -7.419   8.488  69.034  1.00  0.00    -0.089 A  
HETATM   19  C   UNL     1      -7.876   8.438  67.710  1.00  0.00    -0.107 A  
HETATM   20  C   UNL     1      -7.483   7.409  66.834  1.00  0.00    -0.097 A  
HETATM   21  C   UNL     1      -6.633   6.373  67.239  1.00  0.00    -0.058 A  
HETATM   22  O   UNL     1      -6.051   7.447  70.721  1.00  0.00    -0.034 OA 
HETATM   23  C   UNL     1      -6.144   6.460  68.555  1.00  0.00    -0.025 A  
HETATM   24  H   UNL     1      -5.452   6.764  70.998  1.00  0.00     0.000 HD 
HETATM   25  C   UNL     1      -6.537   7.482  69.442  1.00  0.00    -0.037 A  
BRANCH  21  26
HETATM   26  N   UNL     1      -6.274   5.314  66.410  1.00  0.00    -0.034 NA 
BRANCH  26  27
HETATM   27  C   UNL     1      -5.784   4.068  67.022  1.00  0.00    -0.022 C  
HETATM   28  C   UNL     1      -6.912   3.338  67.737  1.00  0.00    -0.050 C  
ENDBRANCH  26  27
BRANCH  26  29
HETATM   29  C   UNL     1      -6.770   5.206  65.030  1.00  0.00    -0.048 C  
HETATM   30  C   UNL     1      -8.086   4.443  65.001  1.00  0.00    -0.099 C  
ENDBRANCH  26  29
ENDBRANCH  21  26
ENDBRANCH  16  18
ENDBRANCH  15  16
ENDBRANCH   8  10
ENDBRANCH   7   8
ENDBRANCH   6   7
ENDBRANCH   5   6
ENDBRANCH   4   5
ENDBRANCH   3   4
ENDBRANCH   2   3
TORSDOF 12
ENDMDL
MODEL      184
REMARK 921   NORMALIZED FREE ENERGY PREDICTED BY IDOCK:   -3.95 KCAL/MOL
REMARK 922        TOTAL FREE ENERGY PREDICTED BY IDOCK:   -8.69 KCAL/MOL
REMARK 923 INTER-LIGAND FREE ENERGY PREDICTED BY IDOCK:   -6.97 KCAL/MOL
REMARK 924 INTRA-LIGAND FREE ENERGY PREDICTED BY IDOCK:   -1.71 KCAL/MOL
REMARK 927      BINDING AFFINITY PREDICTED BY RF-SCORE:    0.00 PKD
ROOT
HETATM    1  C   UNL     1     -10.850  15.494  64.960  1.00  0.00    -0.468 C  
HETATM    2  C   UNL     1     -10.841  14.059  65.464  1.00  0.00    -0.311 C  
ENDROOT
BRANCH   2   3
HETATM    3  C   UNL     1      -9.859  13.882  66.621  1.00  0.00    -0.288 C  
BRANCH   3   4
HETATM    4  C   UNL     1     -10.410  14.457  67.932  1.00  0.00    -0.232 C  
BRANCH   4   5
HETATM    5  C   UNL     1     -11.827  13.942  68.193  1.00  0.00    -0.407 C  
BRANCH   5   6
HETATM    6  C   UNL     1     -11.901  12.865  69.270  1.00  0.00    -0.309 C  
BRANCH   6   7
HETATM    7  O   UNL     1     -12.227  11.555  68.799  1.00  0.00    -0.457 OA 
BRANCH   7   8
HETATM    8  C   UNL     1     -11.575  10.534  69.410  1.00  0.00    -0.246 C  
HETATM    9  O   UNL     1     -11.890  10.013  70.471  1.00  0.00    -0.280 OA 
BRANCH   8  10
HETATM   10  C   UNL     1     -10.627   9.911  68.441  1.00  0.00    -0.258 A  
HETATM   11  C   UNL     1     -10.848  10.270  67.095  1.00  0.00    -0.278 A  
HETATM   12  C   UNL     1     -10.005   9.823  66.077  1.00  0.00    -0.342 A  
HETATM   13  C   UNL     1      -8.952   8.969  66.383  1.00  0.00    -0.189 A  
HETATM   14  C   UNL     1      -8.724   8.592  67.706  1.00  0.00    -0.137 A  
HETATM   15  C   UNL     1      -9.519   9.099  68.752  1.00  0.00    -0.147 A  
BRANCH  15  16
HETATM   16  C   UNL     1      -9.184   8.666  70.131  1.00  0.00    -0.159 C  
HETATM   17  O   UNL     1      -8.808   9.533  70.919  1.00  0.00    -0.229 OA 
BRANCH  16  18
HETATM   18  C   UNL     1      -9.370   7.254  70.621  1.00  0.00    -0.157 A  
HETATM   19  C   UNL     1      -8.215   6.560  71.007  1.00  0.00    -0.121 A  
HETATM   20  C   UNL     1      -8.268   5.215  71.419  1.00  0.00    -0.115 A  
HETATM   21  C   UNL     1      -9.469   4.495  71.450  1.00  0.00    -0.156 A  
HETATM   22  O   UNL     1     -11.757   7.157  70.315  1.00  0.00    -0.475 OA 
HETATM   23  C   UNL     1     -10.626   5.215  71.106  1.00  0.00    -0.195 A  
HETATM   24  H   UNL     1     -12.580   6.686  70.359  1.00  0.00     0.000 HD 
HETATM   25  C   UNL     1     -10.582   6.560  70.685  1.00  0.00    -0.233 A  
BRANCH  21  26
HETATM   26  N   UNL     1      -9.540   3.149  71.800  1.00  0.00    -0.146 NA 
BRANCH  26  27
HETATM   27  C   UNL     1      -8.955   2.148  70.894  1.00  0.00    -0.078 C  
HETATM   28  C   UNL     1      -9.356   2.428  69.452  1.00  0.00    -0.167 C  
ENDBRANCH  26  27
BRANCH  26  29
HETATM   29  C   UNL     1      -9.753   2.719  73.190  1.00  0.00    -0.101 C  
HETATM   30  C   UNL     1     -11.199   2.292  73.394  1.00  0.00    -0.293 C  
ENDBRANCH  26  29
ENDBRANCH  21  26
ENDBRANCH  16  18
ENDBRANCH  15  16
ENDBRANCH   8  10
ENDBRANCH   7   8
ENDBRANCH   6   7
ENDBRANCH   5   6
ENDBRANCH   4   5
ENDBRANCH   3   4
ENDBRANCH   2   3
TORSDOF 12
ENDMDL
MODEL      185
REMARK 921   NORMALIZED FREE ENERGY PREDICTED BY IDOCK:   -3.94 KCAL/MOL
REMARK 922        TOTAL FREE ENERGY PREDICTED BY IDOCK:   -8.68 KCAL/MOL
REMARK 923 INTER-LIGAND FREE ENERGY PREDICTED BY IDOCK:   -7.10 KCAL/MOL
REMARK 924 INTRA-LIGAND FREE ENERGY PREDICTED BY IDOCK:   -1.58 KCAL/MOL
REMARK 927      BINDING AFFINITY PREDICTED BY RF-SCORE:    0.00 PKD
ROOT
HETATM    1  C   UNL     1      -7.149   6.078  71.128  1.00  0.00    -0.073 C  
HETATM    2  C   UNL     1      -7.674   5.381  69.881  1.00  0.00    -0.080 C  
ENDROOT
BRANCH   2   3
HETATM    3  C   UNL     1      -8.360   6.370  68.940  1.00  0.00    -0.121 C  
BRANCH   3   4
HETATM    4  C   UNL     1      -7.630   7.718  68.893  1.00  0.00    -0.101 C  
BRANCH   4   5
HETATM    5  C   UNL     1      -7.185   8.040  67.465  1.00  0.00    -0.088 C  
BRANCH   5   6
HETATM    6  C   UNL     1      -8.102   9.021  66.742  1.00  0.00    -0.111 C  
BRANCH   6   7
HETATM    7  O   UNL     1      -8.819   9.921  67.589  1.00  0.00    -0.125 OA 
BRANCH   7   8
HETATM    8  C   UNL     1     -10.017  10.345  67.113  1.00  0.00    -0.195 C  
HETATM    9  O   UNL     1     -10.490  10.079  66.017  1.00  0.00    -0.186 OA 
BRANCH   8  10
HETATM   10  C   UNL     1     -10.823  10.896  68.240  1.00  0.00    -0.272 A  
HETATM   11  C   UNL     1     -10.991  10.010  69.325  1.00  0.00    -0.264 A  
HETATM   12  C   UNL     1     -11.664  10.401  70.483  1.00  0.00    -0.434 A  
HETATM   13  C   UNL     1     -12.224  11.670  70.557  1.00  0.00    -0.451 A  
HETATM   14  C   UNL     1     -12.080  12.557  69.490  1.00  0.00    -0.248 A  
HETATM   15  C   UNL     1     -11.336  12.204  68.348  1.00  0.00    -0.336 A  
BRANCH  15  16
HETATM   16  C   UNL     1     -11.213  13.221  67.276  1.00  0.00    -0.292 C  
HETATM   17  O   UNL     1     -12.063  13.210  66.387  1.00  0.00    -0.403 OA 
BRANCH  16  18
HETATM   18  C   UNL     1     -10.164  14.303  67.281  1.00  0.00    -0.252 A  
HETATM   19  C   UNL     1      -9.721  14.750  68.533  1.00  0.00    -0.218 A  
HETATM   20  C   UNL     1      -8.792  15.801  68.652  1.00  0.00    -0.199 A  
HETATM   21  C   UNL     1      -8.275  16.465  67.533  1.00  0.00    -0.150 A  
HETATM   22  O   UNL     1     -10.014  14.565  64.892  1.00  0.00    -0.485 OA 
HETATM   23  C   UNL     1      -8.692  15.977  66.283  1.00  0.00    -0.372 A  
HETATM   24  H   UNL     1      -9.649  14.992  64.126  1.00  0.00     0.000 HD 
HETATM   25  C   UNL     1      -9.627  14.931  66.153  1.00  0.00    -0.310 A  
BRANCH  21  26
HETATM   26  N   UNL     1      -7.399  17.544  67.625  1.00  0.00    -0.179 NA 
BRANCH  26  27
HETATM   27  C   UNL     1      -6.167  17.527  66.820  1.00  0.00    -0.183 C  
HETATM   28  C   UNL     1      -6.302  18.440  65.610  1.00  0.00    -0.307 C  
ENDBRANCH  26  27
BRANCH  26  29
HETATM   29  C   UNL     1      -7.835  18.859  68.115  1.00  0.00    -0.297 C  
HETATM   30  C   UNL     1      -6.769  19.468  69.012  1.00  0.00    -0.363 C  
ENDBRANCH  26  29
ENDBRANCH  21  26
ENDBRANCH  16  18
ENDBRANCH  15  16
ENDBRANCH   8  10
ENDBRANCH   7   8
ENDBRANCH   6   7
ENDBRANCH   5   6
ENDBRANCH   4   5
ENDBRANCH   3   4
ENDBRANCH   2   3
TORSDOF 12
ENDMDL
MODEL      186
REMARK 921   NORMALIZED FREE ENERGY PREDICTED BY IDOCK:   -3.90 KCAL/MOL
REMARK 922        TOTAL FREE ENERGY PREDICTED BY IDOCK:   -8.60 KCAL/MOL
REMARK 923 INTER-LIGAND FREE ENERGY PREDICTED BY IDOCK:   -7.09 KCAL/MOL
REMARK 924 INTRA-LIGAND FREE ENERGY PREDICTED BY IDOCK:   -1.50 KCAL/MOL
REMARK 927      BINDING AFFINITY PREDICTED BY RF-SCORE:    0.00 PKD
ROOT
HETATM    1  C   UNL     1     -12.889   9.911  71.560  1.00  0.00    -0.522 C  
HETATM    2  C   UNL     1     -11.966   8.705  71.659  1.00  0.00    -0.388 C  
ENDROOT
BRANCH   2   3
HETATM    3  C   UNL     1     -10.506   9.104  71.452  1.00  0.00    -0.414 C  
BRANCH   3   4
HETATM    4  C   UNL     1      -9.564   8.336  72.387  1.00  0.00    -0.364 C  
BRANCH   4   5
HETATM    5  C   UNL     1      -8.806   7.253  71.617  1.00  0.00    -0.123 C  
BRANCH   5   6
HETATM    6  C   UNL     1      -8.332   7.698  70.237  1.00  0.00    -0.132 C  
BRANCH   6   7
HETATM    7  O   UNL     1      -7.348   6.857  69.632  1.00  0.00    -0.081 OA 
BRANCH   7   8
HETATM    8  C   UNL     1      -7.213   6.988  68.287  1.00  0.00    -0.091 C  
HETATM    9  O   UNL     1      -6.299   7.559  67.709  1.00  0.00    -0.049 OA 
BRANCH   8  10
HETATM   10  C   UNL     1      -8.149   6.046  67.609  1.00  0.00    -0.106 A  
HETATM   11  C   UNL     1      -8.275   4.791  68.242  1.00  0.00    -0.088 A  
HETATM   12  C   UNL     1      -9.163   3.825  67.767  1.00  0.00    -0.216 A  
HETATM   13  C   UNL     1      -9.904   4.079  66.620  1.00  0.00    -0.169 A  
HETATM   14  C   UNL     1      -9.785   5.308  65.971  1.00  0.00    -0.159 A  
HETATM   15  C   UNL     1      -8.953   6.321  66.485  1.00  0.00    -0.150 A  
BRANCH  15  16
HETATM   16  C   UNL     1      -8.911   7.606  65.745  1.00  0.00    -0.100 C  
HETATM   17  O   UNL     1      -8.302   7.622  64.676  1.00  0.00    -0.106 OA 
BRANCH  16  18
HETATM   18  C   UNL     1      -9.645   8.842  66.195  1.00  0.00    -0.335 A  
HETATM   19  C   UNL     1      -9.337  10.038  65.532  1.00  0.00    -0.271 A  
HETATM   20  C   UNL     1      -9.918  11.262  65.915  1.00  0.00    -0.277 A  
HETATM   21  C   UNL     1     -10.817  11.354  66.985  1.00  0.00    -0.282 A  
HETATM   22  O   UNL     1     -10.921   7.795  67.948  1.00  0.00    -0.476 OA 
HETATM   23  C   UNL     1     -11.153  10.141  67.611  1.00  0.00    -0.275 A  
HETATM   24  H   UNL     1     -11.550   7.842  68.658  1.00  0.00     0.000 HD 
HETATM   25  C   UNL     1     -10.572   8.912  67.239  1.00  0.00    -0.234 A  
BRANCH  21  26
HETATM   26  N   UNL     1     -11.362  12.560  67.419  1.00  0.00    -0.293 NA 
BRANCH  26  27
HETATM   27  C   UNL     1     -10.871  13.148  68.676  1.00  0.00    -0.259 C  
HETATM   28  C   UNL     1     -11.950  13.105  69.749  1.00  0.00    -0.382 C  
ENDBRANCH  26  27
BRANCH  26  29
HETATM   29  C   UNL     1     -12.048  13.478  66.499  1.00  0.00    -0.408 C  
HETATM   30  C   UNL     1     -11.247  14.762  66.341  1.00  0.00    -0.342 C  
ENDBRANCH  26  29
ENDBRANCH  21  26
ENDBRANCH  16  18
ENDBRANCH  15  16
ENDBRANCH   8  10
ENDBRANCH   7   8
ENDBRANCH   6   7
ENDBRANCH   5   6
ENDBRANCH   4   5
ENDBRANCH   3   4
ENDBRANCH   2   3
TORSDOF 12
ENDMDL
MODEL      187
REMARK 921   NORMALIZED FREE ENERGY PREDICTED BY IDOCK:   -3.87 KCAL/MOL
REMARK 922        TOTAL FREE ENERGY PREDICTED BY IDOCK:   -8.55 KCAL/MOL
REMARK 923 INTER-LIGAND FREE ENERGY PREDICTED BY IDOCK:   -7.53 KCAL/MOL
REMARK 924 INTRA-LIGAND FREE ENERGY PREDICTED BY IDOCK:   -1.02 KCAL/MOL
REMARK 927      BINDING AFFINITY PREDICTED BY RF-SCORE:    0.00 PKD
ROOT
HETATM    1  C   UNL     1      -8.277   6.581  67.407  1.00  0.00    -0.121 C  
HETATM    2  C   UNL     1      -6.781   6.841  67.308  1.00  0.00    -0.067 C  
ENDROOT
BRANCH   2   3
HETATM    3  C   UNL     1      -6.447   7.711  66.097  1.00  0.00    -0.046 C  
BRANCH   3   4
HETATM    4  C   UNL     1      -6.561   9.207  66.417  1.00  0.00    -0.067 C  
BRANCH   4   5
HETATM    5  C   UNL     1      -6.757  10.018  65.135  1.00  0.00    -0.126 C  
BRANCH   5   6
HETATM    6  C   UNL     1      -8.214  10.137  64.699  1.00  0.00    -0.165 C  
BRANCH   6   7
HETATM    7  O   UNL     1      -9.156  10.288  65.762  1.00  0.00    -0.158 OA 
BRANCH   7   8
HETATM    8  C   UNL     1      -9.366  11.562  66.183  1.00  0.00    -0.215 C  
HETATM    9  O   UNL     1      -8.570  12.254  66.803  1.00  0.00    -0.194 OA 
BRANCH   8  10
HETATM   10  C   UNL     1     -10.565  12.114  65.489  1.00  0.00    -0.314 A  
HETATM   11  C   UNL     1     -10.885  11.470  64.275  1.00  0.00    -0.421 A  
HETATM   12  C   UNL     1     -12.016  11.827  63.541  1.00  0.00    -0.484 A  
HETATM   13  C   UNL     1     -12.821  12.869  63.985  1.00  0.00    -0.109 A  
HETATM   14  C   UNL     1     -12.515  13.527  65.175  1.00  0.00    -0.495 A  
HETATM   15  C   UNL     1     -11.422  13.125  65.966  1.00  0.00    -0.370 A  
BRANCH  15  16
HETATM   16  C   UNL     1     -11.190  13.863  67.232  1.00  0.00    -0.312 C  
HETATM   17  O   UNL     1     -11.528  13.311  68.278  1.00  0.00    -0.275 OA 
BRANCH  16  18
HETATM   18  C   UNL     1     -10.487  15.194  67.294  1.00  0.00    -0.271 A  
HETATM   19  C   UNL     1      -9.500  15.435  66.329  1.00  0.00    -0.342 A  
HETATM   20  C   UNL     1      -8.739  16.620  66.335  1.00  0.00    -0.345 A  
HETATM   21  C   UNL     1      -8.913  17.609  67.311  1.00  0.00    -0.240 A  
HETATM   22  O   UNL     1     -11.636  16.033  69.237  1.00  0.00    -0.352 OA 
HETATM   23  C   UNL     1      -9.937  17.376  68.245  1.00  0.00    -0.320 A  
HETATM   24  H   UNL     1     -11.780  16.710  69.887  1.00  0.00     0.000 HD 
HETATM   25  C   UNL     1     -10.700  16.191  68.251  1.00  0.00    -0.307 A  
BRANCH  21  26
HETATM   26  N   UNL     1      -8.135  18.762  67.372  1.00  0.00    -0.250 NA 
BRANCH  26  27
HETATM   27  C   UNL     1      -8.216  19.733  66.269  1.00  0.00    -0.350 C  
HETATM   28  C   UNL     1      -7.159  20.816  66.424  1.00  0.00    -0.197 C  
ENDBRANCH  26  27
BRANCH  26  29
HETATM   29  C   UNL     1      -7.601  19.271  68.644  1.00  0.00    -0.350 C  
HETATM   30  C   UNL     1      -6.422  18.422  69.097  1.00  0.00    -0.270 C  
ENDBRANCH  26  29
ENDBRANCH  21  26
ENDBRANCH  16  18
ENDBRANCH  15  16
ENDBRANCH   8  10
ENDBRANCH   7   8
ENDBRANCH   6   7
ENDBRANCH   5   6
ENDBRANCH   4   5
ENDBRANCH   3   4
ENDBRANCH   2   3
TORSDOF 12
ENDMDL
MODEL      188
REMARK 921   NORMALIZED FREE ENERGY PREDICTED BY IDOCK:   -3.86 KCAL/MOL
REMARK 922        TOTAL FREE ENERGY PREDICTED BY IDOCK:   -8.53 KCAL/MOL
REMARK 923 INTER-LIGAND FREE ENERGY PREDICTED BY IDOCK:   -6.95 KCAL/MOL
REMARK 924 INTRA-LIGAND FREE ENERGY PREDICTED BY IDOCK:   -1.57 KCAL/MOL
REMARK 927      BINDING AFFINITY PREDICTED BY RF-SCORE:    0.00 PKD
ROOT
HETATM    1  C   UNL     1     -10.501   3.784  63.895  1.00  0.00    -0.265 C  
HETATM    2  C   UNL     1      -9.105   4.376  64.024  1.00  0.00    -0.143 C  
ENDROOT
BRANCH   2   3
HETATM    3  C   UNL     1      -9.000   5.291  65.243  1.00  0.00    -0.130 C  
BRANCH   3   4
HETATM    4  C   UNL     1      -9.639   4.663  66.488  1.00  0.00    -0.190 C  
BRANCH   4   5
HETATM    5  C   UNL     1     -10.524   5.682  67.210  1.00  0.00    -0.322 C  
BRANCH   5   6
HETATM    6  C   UNL     1      -9.943   6.171  68.533  1.00  0.00    -0.147 C  
BRANCH   6   7
HETATM    7  O   UNL     1     -10.890   6.323  69.593  1.00  0.00    -0.265 OA 
BRANCH   7   8
HETATM    8  C   UNL     1     -10.587   5.674  70.746  1.00  0.00    -0.265 C  
HETATM    9  O   UNL     1     -10.821   4.499  70.993  1.00  0.00     0.263 OA 
BRANCH   8  10
HETATM   10  C   UNL     1      -9.627   6.500  71.534  1.00  0.00    -0.169 A  
HETATM   11  C   UNL     1      -8.390   5.871  71.791  1.00  0.00    -0.119 A  
HETATM   12  C   UNL     1      -7.362   6.538  72.458  1.00  0.00    -0.089 A  
HETATM   13  C   UNL     1      -7.570   7.831  72.923  1.00  0.00    -0.131 A  
HETATM   14  C   UNL     1      -8.790   8.466  72.690  1.00  0.00    -0.288 A  
HETATM   15  C   UNL     1      -9.807   7.834  71.949  1.00  0.00    -0.217 A  
BRANCH  15  16
HETATM   16  C   UNL     1     -11.059   8.597  71.726  1.00  0.00    -0.326 C  
HETATM   17  O   UNL     1     -12.030   8.305  72.424  1.00  0.00    -0.361 OA 
BRANCH  16  18
HETATM   18  C   UNL     1     -11.162   9.753  70.765  1.00  0.00    -0.419 A  
HETATM   19  C   UNL     1     -10.167   9.851  69.784  1.00  0.00    -0.278 A  
HETATM   20  C   UNL     1     -10.133  10.927  68.876  1.00  0.00    -0.211 A  
HETATM   21  C   UNL     1     -11.075  11.961  68.915  1.00  0.00    -0.247 A  
HETATM   22  O   UNL     1     -13.136  10.746  71.724  1.00  0.00    -0.458 OA 
HETATM   23  C   UNL     1     -12.095  11.827  69.874  1.00  0.00    -0.359 A  
HETATM   24  H   UNL     1     -13.795  11.429  71.742  1.00  0.00     0.000 HD 
HETATM   25  C   UNL     1     -12.134  10.758  70.791  1.00  0.00    -0.372 A  
BRANCH  21  26
HETATM   26  N   UNL     1     -11.031  13.065  68.067  1.00  0.00    -0.241 NA 
BRANCH  26  27
HETATM   27  C   UNL     1      -9.926  14.027  68.211  1.00  0.00    -0.236 C  
HETATM   28  C   UNL     1     -10.397  15.439  67.895  1.00  0.00    -0.247 C  
ENDBRANCH  26  27
BRANCH  26  29
HETATM   29  C   UNL     1     -11.742  13.083  66.780  1.00  0.00    -0.382 C  
HETATM   30  C   UNL     1     -10.976  12.277  65.743  1.00  0.00    -0.338 C  
ENDBRANCH  26  29
ENDBRANCH  21  26
ENDBRANCH  16  18
ENDBRANCH  15  16
ENDBRANCH   8  10
ENDBRANCH   7   8
ENDBRANCH   6   7
ENDBRANCH   5   6
ENDBRANCH   4   5
ENDBRANCH   3   4
ENDBRANCH   2   3
TORSDOF 12
ENDMDL
MODEL      189
REMARK 921   NORMALIZED FREE ENERGY PREDICTED BY IDOCK:   -3.83 KCAL/MOL
REMARK 922        TOTAL FREE ENERGY PREDICTED BY IDOCK:   -8.48 KCAL/MOL
REMARK 923 INTER-LIGAND FREE ENERGY PREDICTED BY IDOCK:   -7.01 KCAL/MOL
REMARK 924 INTRA-LIGAND FREE ENERGY PREDICTED BY IDOCK:   -1.47 KCAL/MOL
REMARK 927      BINDING AFFINITY PREDICTED BY RF-SCORE:    0.00 PKD
ROOT
HETATM    1  C   UNL     1     -11.000   5.594  66.571  1.00  0.00    -0.140 C  
HETATM    2  C   UNL     1     -10.072   4.493  66.080  1.00  0.00    -0.282 C  
ENDROOT
BRANCH   2   3
HETATM    3  C   UNL     1      -9.417   3.755  67.248  1.00  0.00    -0.238 C  
BRANCH   3   4
HETATM    4  C   UNL     1      -9.636   4.484  68.580  1.00  0.00    -0.222 C  
BRANCH   4   5
HETATM    5  C   UNL     1      -8.319   5.070  69.094  1.00  0.00    -0.086 C  
BRANCH   5   6
HETATM    6  C   UNL     1      -7.975   6.429  68.493  1.00  0.00    -0.106 C  
BRANCH   6   7
HETATM    7  O   UNL     1      -7.676   7.455  69.440  1.00  0.00    -0.101 OA 
BRANCH   7   8
HETATM    8  C   UNL     1      -8.108   7.228  70.707  1.00  0.00    -0.111 C  
HETATM    9  O   UNL     1      -7.428   6.808  71.633  1.00  0.00    -0.085 OA 
BRANCH   8  10
HETATM   10  C   UNL     1      -9.435   7.883  70.895  1.00  0.00    -0.167 A  
HETATM   11  C   UNL     1     -10.360   7.122  71.642  1.00  0.00    -0.215 A  
HETATM   12  C   UNL     1     -11.622   7.624  71.961  1.00  0.00    -0.334 A  
HETATM   13  C   UNL     1     -11.998   8.879  71.497  1.00  0.00    -0.401 A  
HETATM   14  C   UNL     1     -11.103   9.642  70.748  1.00  0.00    -0.403 A  
HETATM   15  C   UNL     1      -9.799   9.180  70.486  1.00  0.00    -0.285 A  
BRANCH  15  16
HETATM   16  C   UNL     1      -8.906  10.071  69.705  1.00  0.00    -0.183 C  
HETATM   17  O   UNL     1      -7.805  10.330  70.188  1.00  0.00    -0.137 OA 
BRANCH  16  18
HETATM   18  C   UNL     1      -9.250  10.588  68.332  1.00  0.00    -0.154 A  
HETATM   19  C   UNL     1      -9.757   9.658  67.414  1.00  0.00    -0.198 A  
HETATM   20  C   UNL     1     -10.049  10.021  66.086  1.00  0.00    -0.317 A  
HETATM   21  C   UNL     1      -9.835  11.318  65.606  1.00  0.00    -0.234 A  
HETATM   22  O   UNL     1      -8.566  12.866  68.705  1.00  0.00    -0.365 OA 
HETATM   23  C   UNL     1      -9.371  12.252  66.549  1.00  0.00    -0.230 A  
HETATM   24  H   UNL     1      -8.443  13.756  68.397  1.00  0.00     0.000 HD 
HETATM   25  C   UNL     1      -9.068  11.898  67.879  1.00  0.00    -0.183 A  
BRANCH  21  26
HETATM   26  N   UNL     1     -10.064  11.688  64.283  1.00  0.00    -0.269 NA 
BRANCH  26  27
HETATM   27  C   UNL     1      -9.846  10.693  63.221  1.00  0.00    -0.312 C  
HETATM   28  C   UNL     1      -8.360  10.423  63.031  1.00  0.00    -0.174 C  
ENDBRANCH  26  27
BRANCH  26  29
HETATM   29  C   UNL     1     -10.917  12.833  63.934  1.00  0.00    -0.417 C  
HETATM   30  C   UNL     1     -12.283  12.350  63.471  1.00  0.00    -0.661 C  
ENDBRANCH  26  29
ENDBRANCH  21  26
ENDBRANCH  16  18
ENDBRANCH  15  16
ENDBRANCH   8  10
ENDBRANCH   7   8
ENDBRANCH   6   7
ENDBRANCH   5   6
ENDBRANCH   4   5
ENDBRANCH   3   4
ENDBRANCH   2   3
TORSDOF 12
ENDMDL
MODEL      190
REMARK 921   NORMALIZED FREE ENERGY PREDICTED BY IDOCK:   -3.81 KCAL/MOL
REMARK 922        TOTAL FREE ENERGY PREDICTED BY IDOCK:   -8.44 KCAL/MOL
REMARK 923 INTER-LIGAND FREE ENERGY PREDICTED BY IDOCK:   -7.84 KCAL/MOL
REMARK 924 INTRA-LIGAND FREE ENERGY PREDICTED BY IDOCK:   -0.60 KCAL/MOL
REMARK 927      BINDING AFFINITY PREDICTED BY RF-SCORE:    0.00 PKD
ROOT
HETATM    1  C   UNL     1     -12.794  12.828  71.173  1.00  0.00    -0.315 C  
HETATM    2  C   UNL     1     -13.630  14.002  71.660  1.00  0.00    -0.430 C  
ENDROOT
BRANCH   2   3
HETATM    3  C   UNL     1     -13.077  15.330  71.145  1.00  0.00    -0.546 C  
BRANCH   3   4
HETATM    4  C   UNL     1     -11.595  15.510  71.499  1.00  0.00    -0.487 C  
BRANCH   4   5
HETATM    5  C   UNL     1     -10.779  15.841  70.248  1.00  0.00    -0.342 C  
BRANCH   5   6
HETATM    6  C   UNL     1     -11.625  16.012  68.990  1.00  0.00    -0.349 C  
BRANCH   6   7
HETATM    7  O   UNL     1     -10.950  16.606  67.880  1.00  0.00    -0.342 OA 
BRANCH   7   8
HETATM    8  C   UNL     1     -10.311  17.776  68.140  1.00  0.00    -0.391 C  
HETATM    9  O   UNL     1     -10.779  18.732  68.742  1.00  0.00     0.073 OA 
BRANCH   8  10
HETATM   10  C   UNL     1      -8.851  17.601  67.889  1.00  0.00    -0.246 A  
HETATM   11  C   UNL     1      -8.026  18.499  68.600  1.00  0.00    -0.334 A  
HETATM   12  C   UNL     1      -6.635  18.420  68.523  1.00  0.00    -0.242 A  
HETATM   13  C   UNL     1      -6.045  17.471  67.696  1.00  0.00    -0.165 A  
HETATM   14  C   UNL     1      -6.843  16.583  66.976  1.00  0.00    -0.248 A  
HETATM   15  C   UNL     1      -8.245  16.600  67.105  1.00  0.00    -0.206 A  
BRANCH  15  16
HETATM   16  C   UNL     1      -9.012  15.599  66.323  1.00  0.00    -0.342 C  
HETATM   17  O   UNL     1      -9.445  15.951  65.227  1.00  0.00    -0.306 OA 
BRANCH  16  18
HETATM   18  C   UNL     1      -9.198  14.171  66.767  1.00  0.00    -0.282 A  
HETATM   19  C   UNL     1      -9.987  13.352  65.948  1.00  0.00    -0.287 A  
HETATM   20  C   UNL     1     -10.277  12.020  66.302  1.00  0.00    -0.251 A  
HETATM   21  C   UNL     1      -9.812  11.450  67.493  1.00  0.00    -0.178 A  
HETATM   22  O   UNL     1      -7.925  14.337  68.804  1.00  0.00    -0.139 OA 
HETATM   23  C   UNL     1      -8.984  12.268  68.282  1.00  0.00    -0.182 A  
HETATM   24  H   UNL     1      -7.582  13.951  69.601  1.00  0.00     0.000 HD 
HETATM   25  C   UNL     1      -8.693  13.604  67.941  1.00  0.00    -0.184 A  
BRANCH  21  26
HETATM   26  N   UNL     1     -10.132  10.155  67.893  1.00  0.00    -0.169 NA 
BRANCH  26  27
HETATM   27  C   UNL     1     -10.641   9.208  66.889  1.00  0.00    -0.167 C  
HETATM   28  C   UNL     1      -9.553   8.230  66.469  1.00  0.00    -0.312 C  
ENDBRANCH  26  27
BRANCH  26  29
HETATM   29  C   UNL     1      -9.579   9.564  69.120  1.00  0.00    -0.170 C  
HETATM   30  C   UNL     1     -10.653   9.478  70.194  1.00  0.00    -0.298 C  
ENDBRANCH  26  29
ENDBRANCH  21  26
ENDBRANCH  16  18
ENDBRANCH  15  16
ENDBRANCH   8  10
ENDBRANCH   7   8
ENDBRANCH   6   7
ENDBRANCH   5   6
ENDBRANCH   4   5
ENDBRANCH   3   4
ENDBRANCH   2   3
TORSDOF 12
ENDMDL
MODEL      191
REMARK 921   NORMALIZED FREE ENERGY PREDICTED BY IDOCK:   -3.79 KCAL/MOL
REMARK 922        TOTAL FREE ENERGY PREDICTED BY IDOCK:   -8.41 KCAL/MOL
REMARK 923 INTER-LIGAND FREE ENERGY PREDICTED BY IDOCK:   -6.41 KCAL/MOL
REMARK 924 INTRA-LIGAND FREE ENERGY PREDICTED BY IDOCK:   -2.01 KCAL/MOL
REMARK 927      BINDING AFFINITY PREDICTED BY RF-SCORE:    0.00 PKD
ROOT
HETATM    1  C   UNL     1      -6.173  12.951  67.352  1.00  0.00    -0.109 C  
HETATM    2  C   UNL     1      -6.583  11.486  67.329  1.00  0.00    -0.113 C  
ENDROOT
BRANCH   2   3
HETATM    3  C   UNL     1      -5.367  10.571  67.195  1.00  0.00    -0.041 C  
BRANCH   3   4
HETATM    4  C   UNL     1      -5.179   9.683  68.432  1.00  0.00    -0.033 C  
BRANCH   4   5
HETATM    5  C   UNL     1      -5.788   8.298  68.198  1.00  0.00    -0.038 C  
BRANCH   5   6
HETATM    6  C   UNL     1      -7.225   8.167  68.691  1.00  0.00    -0.084 C  
BRANCH   6   7
HETATM    7  O   UNL     1      -7.366   7.706  70.036  1.00  0.00    -0.076 OA 
BRANCH   7   8
HETATM    8  C   UNL     1      -7.733   8.647  70.943  1.00  0.00    -0.097 C  
HETATM    9  O   UNL     1      -7.423   9.830  70.916  1.00  0.00    -0.320 OA 
BRANCH   8  10
HETATM   10  C   UNL     1      -8.841   8.110  71.784  1.00  0.00    -0.206 A  
HETATM   11  C   UNL     1      -8.444   7.681  73.068  1.00  0.00    -0.191 A  
HETATM   12  C   UNL     1      -9.376   7.215  73.997  1.00  0.00    -0.291 A  
HETATM   13  C   UNL     1     -10.716   7.125  73.639  1.00  0.00    -0.302 A  
HETATM   14  C   UNL     1     -11.127   7.532  72.371  1.00  0.00    -0.349 A  
HETATM   15  C   UNL     1     -10.210   8.078  71.452  1.00  0.00    -0.239 A  
BRANCH  15  16
HETATM   16  C   UNL     1     -10.742   8.511  70.136  1.00  0.00    -0.235 C  
HETATM   17  O   UNL     1     -11.086   7.630  69.349  1.00  0.00    -0.126 OA 
BRANCH  16  18
HETATM   18  C   UNL     1     -10.960   9.955  69.769  1.00  0.00    -0.304 A  
HETATM   19  C   UNL     1     -10.064  10.517  68.849  1.00  0.00    -0.215 A  
HETATM   20  C   UNL     1     -10.138  11.875  68.485  1.00  0.00    -0.211 A  
HETATM   21  C   UNL     1     -11.094  12.739  69.032  1.00  0.00    -0.233 A  
HETATM   22  O   UNL     1     -12.854  10.334  71.207  1.00  0.00    -0.356 OA 
HETATM   23  C   UNL     1     -12.015  12.153  69.917  1.00  0.00    -0.380 A  
HETATM   24  H   UNL     1     -13.523  10.905  71.563  1.00  0.00     0.000 HD 
HETATM   25  C   UNL     1     -11.945  10.797  70.294  1.00  0.00    -0.351 A  
BRANCH  21  26
HETATM   26  N   UNL     1     -11.153  14.097  68.731  1.00  0.00    -0.251 NA 
BRANCH  26  27
HETATM   27  C   UNL     1     -12.243  14.587  67.871  1.00  0.00    -0.109 C  
HETATM   28  C   UNL     1     -12.073  14.080  66.446  1.00  0.00    -0.483 C  
ENDBRANCH  26  27
BRANCH  26  29
HETATM   29  C   UNL     1     -10.481  15.106  69.563  1.00  0.00    -0.260 C  
HETATM   30  C   UNL     1     -11.480  15.765  70.502  1.00  0.00    -0.401 C  
ENDBRANCH  26  29
ENDBRANCH  21  26
ENDBRANCH  16  18
ENDBRANCH  15  16
ENDBRANCH   8  10
ENDBRANCH   7   8
ENDBRANCH   6   7
ENDBRANCH   5   6
ENDBRANCH   4   5
ENDBRANCH   3   4
ENDBRANCH   2   3
TORSDOF 12
ENDMDL
MODEL      192
REMARK 921   NORMALIZED FREE ENERGY PREDICTED BY IDOCK:   -3.78 KCAL/MOL
REMARK 922        TOTAL FREE ENERGY PREDICTED BY IDOCK:   -8.40 KCAL/MOL
REMARK 923 INTER-LIGAND FREE ENERGY PREDICTED BY IDOCK:   -6.71 KCAL/MOL
REMARK 924 INTRA-LIGAND FREE ENERGY PREDICTED BY IDOCK:   -1.69 KCAL/MOL
REMARK 927      BINDING AFFINITY PREDICTED BY RF-SCORE:    0.00 PKD
ROOT
HETATM    1  C   UNL     1     -11.384   7.784  72.694  1.00  0.00    -0.449 C  
HETATM    2  C   UNL     1     -12.690   8.004  71.944  1.00  0.00    -0.354 C  
ENDROOT
BRANCH   2   3
HETATM    3  C   UNL     1     -13.332   9.337  72.326  1.00  0.00    -0.547 C  
BRANCH   3   4
HETATM    4  C   UNL     1     -13.455  10.280  71.123  1.00  0.00    -0.222 C  
BRANCH   4   5
HETATM    5  C   UNL     1     -12.123  10.983  70.851  1.00  0.00    -0.444 C  
BRANCH   5   6
HETATM    6  C   UNL     1     -12.275  12.418  70.358  1.00  0.00    -0.287 C  
BRANCH   6   7
HETATM    7  O   UNL     1     -11.893  12.637  68.998  1.00  0.00    -0.296 OA 
BRANCH   7   8
HETATM    8  C   UNL     1     -11.253  11.602  68.396  1.00  0.00    -0.249 C  
HETATM    9  O   UNL     1     -11.772  10.751  67.687  1.00  0.00    -0.538 OA 
BRANCH   8  10
HETATM   10  C   UNL     1      -9.782  11.846  68.438  1.00  0.00    -0.201 A  
HETATM   11  C   UNL     1      -9.401  13.170  68.133  1.00  0.00    -0.217 A  
HETATM   12  C   UNL     1      -8.067  13.573  68.195  1.00  0.00    -0.154 A  
HETATM   13  C   UNL     1      -7.084  12.645  68.517  1.00  0.00    -0.101 A  
HETATM   14  C   UNL     1      -7.438  11.329  68.809  1.00  0.00    -0.123 A  
HETATM   15  C   UNL     1      -8.788  10.928  68.828  1.00  0.00    -0.162 A  
BRANCH  15  16
HETATM   16  C   UNL     1      -9.072   9.515  69.179  1.00  0.00    -0.152 C  
HETATM   17  O   UNL     1      -9.412   9.278  70.338  1.00  0.00    -0.208 OA 
BRANCH  16  18
HETATM   18  C   UNL     1      -9.053   8.394  68.172  1.00  0.00    -0.138 A  
HETATM   19  C   UNL     1      -7.942   8.326  67.321  1.00  0.00    -0.105 A  
HETATM   20  C   UNL     1      -7.853   7.358  66.303  1.00  0.00    -0.106 A  
HETATM   21  C   UNL     1      -8.872   6.425  66.075  1.00  0.00    -0.150 A  
HETATM   22  O   UNL     1     -11.186   7.444  68.761  1.00  0.00    -0.434 OA 
HETATM   23  C   UNL     1      -9.959   6.474  66.965  1.00  0.00    -0.216 A  
HETATM   24  H   UNL     1     -11.871   6.799  68.632  1.00  0.00     0.000 HD 
HETATM   25  C   UNL     1     -10.061   7.444  67.983  1.00  0.00    -0.179 A  
BRANCH  21  26
HETATM   26  N   UNL     1      -8.834   5.494  65.040  1.00  0.00    -0.100 NA 
BRANCH  26  27
HETATM   27  C   UNL     1      -7.827   5.654  63.978  1.00  0.00    -0.112 C  
HETATM   28  C   UNL     1      -6.598   4.805  64.270  1.00  0.00    -0.043 C  
ENDBRANCH  26  27
BRANCH  26  29
HETATM   29  C   UNL     1      -9.420   4.153  65.181  1.00  0.00    -0.173 C  
HETATM   30  C   UNL     1     -10.518   3.947  64.148  1.00  0.00    -0.246 C  
ENDBRANCH  26  29
ENDBRANCH  21  26
ENDBRANCH  16  18
ENDBRANCH  15  16
ENDBRANCH   8  10
ENDBRANCH   7   8
ENDBRANCH   6   7
ENDBRANCH   5   6
ENDBRANCH   4   5
ENDBRANCH   3   4
ENDBRANCH   2   3
TORSDOF 12
ENDMDL
MODEL      193
REMARK 921   NORMALIZED FREE ENERGY PREDICTED BY IDOCK:   -3.77 KCAL/MOL
REMARK 922        TOTAL FREE ENERGY PREDICTED BY IDOCK:   -8.38 KCAL/MOL
REMARK 923 INTER-LIGAND FREE ENERGY PREDICTED BY IDOCK:   -6.71 KCAL/MOL
REMARK 924 INTRA-LIGAND FREE ENERGY PREDICTED BY IDOCK:   -1.66 KCAL/MOL
REMARK 927      BINDING AFFINITY PREDICTED BY RF-SCORE:    0.00 PKD
ROOT
HETATM    1  C   UNL     1      -5.713  15.422  70.555  1.00  0.00    -0.099 C  
HETATM    2  C   UNL     1      -5.454  15.857  69.120  1.00  0.00    -0.110 C  
ENDROOT
BRANCH   2   3
HETATM    3  C   UNL     1      -6.207  17.143  68.784  1.00  0.00    -0.166 C  
BRANCH   3   4
HETATM    4  C   UNL     1      -7.436  16.875  67.906  1.00  0.00    -0.178 C  
BRANCH   4   5
HETATM    5  C   UNL     1      -8.711  16.872  68.751  1.00  0.00    -0.248 C  
BRANCH   5   6
HETATM    6  C   UNL     1      -9.916  16.262  68.044  1.00  0.00    -0.240 C  
BRANCH   6   7
HETATM    7  O   UNL     1     -10.152  14.881  68.327  1.00  0.00    -0.215 OA 
BRANCH   7   8
HETATM    8  C   UNL     1      -9.535  14.000  67.499  1.00  0.00    -0.221 C  
HETATM    9  O   UNL     1      -8.466  13.443  67.710  1.00  0.00    -0.155 OA 
BRANCH   8  10
HETATM   10  C   UNL     1     -10.503  13.546  66.460  1.00  0.00    -0.284 A  
HETATM   11  C   UNL     1     -10.532  14.349  65.300  1.00  0.00    -0.410 A  
HETATM   12  C   UNL     1     -11.337  14.018  64.209  1.00  0.00    -0.277 A  
HETATM   13  C   UNL     1     -12.164  12.904  64.279  1.00  0.00    -0.481 A  
HETATM   14  C   UNL     1     -12.160  12.104  65.421  1.00  0.00    -0.231 A  
HETATM   15  C   UNL     1     -11.294  12.381  66.497  1.00  0.00    -0.392 A  
BRANCH  15  16
HETATM   16  C   UNL     1     -11.337  11.459  67.659  1.00  0.00    -0.290 C  
HETATM   17  O   UNL     1     -12.212  11.655  68.502  1.00  0.00    -0.485 OA 
BRANCH  16  18
HETATM   18  C   UNL     1     -10.431  10.264  67.798  1.00  0.00    -0.269 A  
HETATM   19  C   UNL     1     -10.185   9.517  66.639  1.00  0.00    -0.310 A  
HETATM   20  C   UNL     1      -9.405   8.346  66.670  1.00  0.00    -0.245 A  
HETATM   21  C   UNL     1      -8.850   7.855  67.858  1.00  0.00    -0.123 A  
HETATM   22  O   UNL     1     -10.051  10.470  70.167  1.00  0.00    -0.426 OA 
HETATM   23  C   UNL     1      -9.066   8.637  69.005  1.00  0.00    -0.145 A  
HETATM   24  H   UNL     1      -9.656  10.160  70.974  1.00  0.00     0.000 HD 
HETATM   25  C   UNL     1      -9.851   9.808  68.986  1.00  0.00    -0.181 A  
BRANCH  21  26
HETATM   26  N   UNL     1      -8.123   6.669  67.926  1.00  0.00    -0.112 NA 
BRANCH  26  27
HETATM   27  C   UNL     1      -8.607   5.589  68.801  1.00  0.00    -0.100 C  
HETATM   28  C   UNL     1     -10.039   5.210  68.448  1.00  0.00    -0.205 C  
ENDBRANCH  26  27
BRANCH  26  29
HETATM   29  C   UNL     1      -7.184   6.273  66.867  1.00  0.00    -0.074 C  
HETATM   30  C   UNL     1      -6.370   5.066  67.308  1.00  0.00    -0.040 C  
ENDBRANCH  26  29
ENDBRANCH  21  26
ENDBRANCH  16  18
ENDBRANCH  15  16
ENDBRANCH   8  10
ENDBRANCH   7   8
ENDBRANCH   6   7
ENDBRANCH   5   6
ENDBRANCH   4   5
ENDBRANCH   3   4
ENDBRANCH   2   3
TORSDOF 12
ENDMDL
MODEL      194
REMARK 921   NORMALIZED FREE ENERGY PREDICTED BY IDOCK:   -3.72 KCAL/MOL
REMARK 922        TOTAL FREE ENERGY PREDICTED BY IDOCK:   -8.30 KCAL/MOL
REMARK 923 INTER-LIGAND FREE ENERGY PREDICTED BY IDOCK:   -7.40 KCAL/MOL
REMARK 924 INTRA-LIGAND FREE ENERGY PREDICTED BY IDOCK:   -0.90 KCAL/MOL
REMARK 927      BINDING AFFINITY PREDICTED BY RF-SCORE:    0.00 PKD
ROOT
HETATM    1  C   UNL     1      -9.194   6.091  66.793  1.00  0.00    -0.143 C  
HETATM    2  C   UNL     1      -7.791   5.514  66.678  1.00  0.00    -0.101 C  
ENDROOT
BRANCH   2   3
HETATM    3  C   UNL     1      -6.911   6.370  65.769  1.00  0.00    -0.053 C  
BRANCH   3   4
HETATM    4  C   UNL     1      -6.891   7.839  66.208  1.00  0.00    -0.062 C  
BRANCH   4   5
HETATM    5  C   UNL     1      -6.264   8.717  65.123  1.00  0.00    -0.060 C  
BRANCH   5   6
HETATM    6  C   UNL     1      -7.264   9.624  64.413  1.00  0.00    -0.122 C  
BRANCH   6   7
HETATM    7  O   UNL     1      -8.516   9.789  65.081  1.00  0.00    -0.133 OA 
BRANCH   7   8
HETATM    8  C   UNL     1      -8.660  10.943  65.782  1.00  0.00    -0.173 C  
HETATM    9  O   UNL     1      -7.774  11.530  66.388  1.00  0.00    -0.108 OA 
BRANCH   8  10
HETATM   10  C   UNL     1      -9.964  11.572  65.425  1.00  0.00    -0.288 A  
HETATM   11  C   UNL     1     -10.325  11.436  64.068  1.00  0.00    -0.418 A  
HETATM   12  C   UNL     1     -11.547  11.912  63.592  1.00  0.00    -0.559 A  
HETATM   13  C   UNL     1     -12.409  12.577  64.456  1.00  0.00    -0.545 A  
HETATM   14  C   UNL     1     -12.065  12.733  65.798  1.00  0.00    -0.505 A  
HETATM   15  C   UNL     1     -10.871  12.188  66.309  1.00  0.00    -0.317 A  
BRANCH  15  16
HETATM   16  C   UNL     1     -10.602  12.378  67.755  1.00  0.00    -0.217 C  
HETATM   17  O   UNL     1     -10.124  13.457  68.103  1.00  0.00    -0.231 OA 
BRANCH  16  18
HETATM   18  C   UNL     1     -10.967  11.361  68.804  1.00  0.00    -0.272 A  
HETATM   19  C   UNL     1     -11.630  11.835  69.943  1.00  0.00    -0.351 A  
HETATM   20  C   UNL     1     -11.960  10.981  71.012  1.00  0.00    -0.334 A  
HETATM   21  C   UNL     1     -11.631   9.620  71.004  1.00  0.00    -0.359 A  
HETATM   22  O   UNL     1     -10.009   9.450  67.694  1.00  0.00    -0.169 OA 
HETATM   23  C   UNL     1     -11.007   9.147  69.836  1.00  0.00    -0.218 A  
HETATM   24  H   UNL     1      -9.805   8.523  67.667  1.00  0.00     0.000 HD 
HETATM   25  C   UNL     1     -10.666   9.996  68.764  1.00  0.00    -0.223 A  
BRANCH  21  26
HETATM   26  N   UNL     1     -11.895   8.766  72.071  1.00  0.00    -0.356 NA 
BRANCH  26  27
HETATM   27  C   UNL     1     -10.772   8.294  72.897  1.00  0.00    -0.131 C  
HETATM   28  C   UNL     1     -10.144   7.046  72.291  1.00  0.00    -0.195 C  
ENDBRANCH  26  27
BRANCH  26  29
HETATM   29  C   UNL     1     -13.230   8.675  72.680  1.00  0.00    -0.219 C  
HETATM   30  C   UNL     1     -14.246   8.197  71.653  1.00  0.00    -0.536 C  
ENDBRANCH  26  29
ENDBRANCH  21  26
ENDBRANCH  16  18
ENDBRANCH  15  16
ENDBRANCH   8  10
ENDBRANCH   7   8
ENDBRANCH   6   7
ENDBRANCH   5   6
ENDBRANCH   4   5
ENDBRANCH   3   4
ENDBRANCH   2   3
TORSDOF 12
ENDMDL
MODEL      195
REMARK 921   NORMALIZED FREE ENERGY PREDICTED BY IDOCK:   -3.72 KCAL/MOL
REMARK 922        TOTAL FREE ENERGY PREDICTED BY IDOCK:   -8.29 KCAL/MOL
REMARK 923 INTER-LIGAND FREE ENERGY PREDICTED BY IDOCK:   -5.22 KCAL/MOL
REMARK 924 INTRA-LIGAND FREE ENERGY PREDICTED BY IDOCK:   -3.08 KCAL/MOL
REMARK 927      BINDING AFFINITY PREDICTED BY RF-SCORE:    0.00 PKD
ROOT
HETATM    1  C   UNL     1     -10.713   9.028  71.726  1.00  0.00    -0.437 C  
HETATM    2  C   UNL     1     -11.850   8.077  72.068  1.00  0.00    -0.376 C  
ENDROOT
BRANCH   2   3
HETATM    3  C   UNL     1     -11.548   6.656  71.594  1.00  0.00    -0.350 C  
BRANCH   3   4
HETATM    4  C   UNL     1     -11.510   6.558  70.064  1.00  0.00    -0.476 C  
BRANCH   4   5
HETATM    5  C   UNL     1     -10.652   5.371  69.622  1.00  0.00    -0.328 C  
BRANCH   5   6
HETATM    6  C   UNL     1      -9.754   5.673  68.427  1.00  0.00    -0.128 C  
BRANCH   6   7
HETATM    7  O   UNL     1      -8.795   6.712  68.635  1.00  0.00    -0.124 OA 
BRANCH   7   8
HETATM    8  C   UNL     1      -7.650   6.336  69.259  1.00  0.00    -0.099 C  
HETATM    9  O   UNL     1      -6.737   5.693  68.760  1.00  0.00    -0.049 OA 
BRANCH   8  10
HETATM   10  C   UNL     1      -7.509   7.108  70.528  1.00  0.00    -0.087 A  
HETATM   11  C   UNL     1      -7.946   6.420  71.680  1.00  0.00    -0.102 A  
HETATM   12  C   UNL     1      -7.818   6.981  72.951  1.00  0.00    -0.105 A  
HETATM   13  C   UNL     1      -7.296   8.262  73.087  1.00  0.00    -0.151 A  
HETATM   14  C   UNL     1      -6.871   8.963  71.960  1.00  0.00     0.009 A  
HETATM   15  C   UNL     1      -6.920   8.378  70.680  1.00  0.00    -0.040 A  
BRANCH  15  16
HETATM   16  C   UNL     1      -6.419   9.188  69.542  1.00  0.00    -0.043 C  
HETATM   17  O   UNL     1      -5.350   8.849  69.036  1.00  0.00    -0.036 OA 
BRANCH  16  18
HETATM   18  C   UNL     1      -7.194  10.329  68.936  1.00  0.00    -0.086 A  
HETATM   19  C   UNL     1      -8.591  10.226  68.954  1.00  0.00    -0.150 A  
HETATM   20  C   UNL     1      -9.409  11.204  68.358  1.00  0.00    -0.185 A  
HETATM   21  C   UNL     1      -8.874  12.319  67.701  1.00  0.00    -0.175 A  
HETATM   22  O   UNL     1      -5.290  11.631  68.244  1.00  0.00    -0.043 OA 
HETATM   23  C   UNL     1      -7.473  12.435  67.730  1.00  0.00    -0.126 A  
HETATM   24  H   UNL     1      -4.918  12.397  67.825  1.00  0.00     0.000 HD 
HETATM   25  C   UNL     1      -6.646  11.457  68.318  1.00  0.00    -0.058 A  
BRANCH  21  26
HETATM   26  N   UNL     1      -9.659  13.271  67.055  1.00  0.00    -0.235 NA 
BRANCH  26  27
HETATM   27  C   UNL     1     -10.917  12.843  66.423  1.00  0.00    -0.285 C  
HETATM   28  C   UNL     1     -12.105  13.560  67.049  1.00  0.00    -0.401 C  
ENDBRANCH  26  27
BRANCH  26  29
HETATM   29  C   UNL     1      -9.537  14.706  67.350  1.00  0.00    -0.215 C  
HETATM   30  C   UNL     1      -9.111  15.466  66.103  1.00  0.00    -0.339 C  
ENDBRANCH  26  29
ENDBRANCH  21  26
ENDBRANCH  16  18
ENDBRANCH  15  16
ENDBRANCH   8  10
ENDBRANCH   7   8
ENDBRANCH   6   7
ENDBRANCH   5   6
ENDBRANCH   4   5
ENDBRANCH   3   4
ENDBRANCH   2   3
TORSDOF 12
ENDMDL
MODEL      196
REMARK 921   NORMALIZED FREE ENERGY PREDICTED BY IDOCK:   -3.71 KCAL/MOL
REMARK 922        TOTAL FREE ENERGY PREDICTED BY IDOCK:   -8.28 KCAL/MOL
REMARK 923 INTER-LIGAND FREE ENERGY PREDICTED BY IDOCK:   -6.08 KCAL/MOL
REMARK 924 INTRA-LIGAND FREE ENERGY PREDICTED BY IDOCK:   -2.20 KCAL/MOL
REMARK 927      BINDING AFFINITY PREDICTED BY RF-SCORE:    0.00 PKD
ROOT
HETATM    1  C   UNL     1      -7.849   5.379  73.573  1.00  0.00    -0.103 C  
HETATM    2  C   UNL     1      -8.257   3.967  73.178  1.00  0.00    -0.088 C  
ENDROOT
BRANCH   2   3
HETATM    3  C   UNL     1      -9.660   3.942  72.575  1.00  0.00    -0.188 C  
BRANCH   3   4
HETATM    4  C   UNL     1     -10.707   4.521  73.535  1.00  0.00    -0.333 C  
BRANCH   4   5
HETATM    5  C   UNL     1     -11.575   5.560  72.823  1.00  0.00    -0.298 C  
BRANCH   5   6
HETATM    6  C   UNL     1     -10.966   6.958  72.802  1.00  0.00    -0.280 C  
BRANCH   6   7
HETATM    7  O   UNL     1     -10.274   7.302  71.600  1.00  0.00    -0.193 OA 
BRANCH   7   8
HETATM    8  C   UNL     1     -10.884   6.931  70.446  1.00  0.00    -0.261 C  
HETATM    9  O   UNL     1     -12.024   7.222  70.109  1.00  0.00    -0.076 OA 
BRANCH   8  10
HETATM   10  C   UNL     1      -9.858   6.408  69.497  1.00  0.00    -0.176 A  
HETATM   11  C   UNL     1      -9.992   5.038  69.191  1.00  0.00    -0.267 A  
HETATM   12  C   UNL     1      -9.150   4.416  68.268  1.00  0.00    -0.165 A  
HETATM   13  C   UNL     1      -8.128   5.144  67.672  1.00  0.00    -0.099 A  
HETATM   14  C   UNL     1      -7.970   6.497  67.971  1.00  0.00    -0.109 A  
HETATM   15  C   UNL     1      -8.862   7.156  68.840  1.00  0.00    -0.130 A  
BRANCH  15  16
HETATM   16  C   UNL     1      -8.635   8.602  69.077  1.00  0.00    -0.129 C  
HETATM   17  O   UNL     1      -7.897   8.912  70.012  1.00  0.00    -0.082 OA 
BRANCH  16  18
HETATM   18  C   UNL     1      -9.185   9.682  68.183  1.00  0.00    -0.130 A  
HETATM   19  C   UNL     1     -10.555   9.628  67.893  1.00  0.00    -0.308 A  
HETATM   20  C   UNL     1     -11.159  10.550  67.017  1.00  0.00    -0.183 A  
HETATM   21  C   UNL     1     -10.425  11.556  66.377  1.00  0.00    -0.250 A  
HETATM   22  O   UNL     1      -7.101  10.826  67.800  1.00  0.00    -0.083 OA 
HETATM   23  C   UNL     1      -9.062  11.629  66.712  1.00  0.00    -0.186 A  
HETATM   24  H   UNL     1      -6.599  11.521  67.392  1.00  0.00     0.000 HD 
HETATM   25  C   UNL     1      -8.446  10.706  67.582  1.00  0.00    -0.118 A  
BRANCH  21  26
HETATM   26  N   UNL     1     -10.987  12.444  65.464  1.00  0.00    -0.284 NA 
BRANCH  26  27
HETATM   27  C   UNL     1     -10.490  12.447  64.078  1.00  0.00    -0.416 C  
HETATM   28  C   UNL     1     -10.759  11.107  63.407  1.00  0.00    -0.286 C  
ENDBRANCH  26  27
BRANCH  26  29
HETATM   29  C   UNL     1     -12.313  13.041  65.677  1.00  0.00    -0.446 C  
HETATM   30  C   UNL     1     -12.273  14.010  66.848  1.00  0.00    -0.415 C  
ENDBRANCH  26  29
ENDBRANCH  21  26
ENDBRANCH  16  18
ENDBRANCH  15  16
ENDBRANCH   8  10
ENDBRANCH   7   8
ENDBRANCH   6   7
ENDBRANCH   5   6
ENDBRANCH   4   5
ENDBRANCH   3   4
ENDBRANCH   2   3
TORSDOF 12
ENDMDL
MODEL      197
REMARK 921   NORMALIZED FREE ENERGY PREDICTED BY IDOCK:   -3.69 KCAL/MOL
REMARK 922        TOTAL FREE ENERGY PREDICTED BY IDOCK:   -8.24 KCAL/MOL
REMARK 923 INTER-LIGAND FREE ENERGY PREDICTED BY IDOCK:   -6.54 KCAL/MOL
REMARK 924 INTRA-LIGAND FREE ENERGY PREDICTED BY IDOCK:   -1.70 KCAL/MOL
REMARK 927      BINDING AFFINITY PREDICTED BY RF-SCORE:    0.00 PKD
ROOT
HETATM    1  C   UNL     1      -5.634  10.003  71.120  1.00  0.00    -0.076 C  
HETATM    2  C   UNL     1      -5.660   8.598  71.703  1.00  0.00    -0.044 C  
ENDROOT
BRANCH   2   3
HETATM    3  C   UNL     1      -5.284   8.604  73.185  1.00  0.00    -0.059 C  
BRANCH   3   4
HETATM    4  C   UNL     1      -6.514   8.456  74.089  1.00  0.00    -0.154 C  
BRANCH   4   5
HETATM    5  C   UNL     1      -7.363   7.260  73.651  1.00  0.00    -0.099 C  
BRANCH   5   6
HETATM    6  C   UNL     1      -8.861   7.548  73.622  1.00  0.00    -0.223 C  
BRANCH   6   7
HETATM    7  O   UNL     1      -9.234   8.763  72.970  1.00  0.00    -0.238 OA 
BRANCH   7   8
HETATM    8  C   UNL     1      -9.681   8.631  71.695  1.00  0.00    -0.278 C  
HETATM    9  O   UNL     1      -9.002   8.327  70.724  1.00  0.00    -0.139 OA 
BRANCH   8  10
HETATM   10  C   UNL     1     -11.171   8.572  71.703  1.00  0.00    -0.361 A  
HETATM   11  C   UNL     1     -11.805   9.823  71.549  1.00  0.00    -0.476 A  
HETATM   12  C   UNL     1     -13.194   9.926  71.470  1.00  0.00    -0.501 A  
HETATM   13  C   UNL     1     -13.976   8.784  71.592  1.00  0.00    -0.450 A  
HETATM   14  C   UNL     1     -13.370   7.540  71.758  1.00  0.00    -0.370 A  
HETATM   15  C   UNL     1     -11.967   7.411  71.760  1.00  0.00    -0.338 A  
BRANCH  15  16
HETATM   16  C   UNL     1     -11.410   6.045  71.912  1.00  0.00    -0.279 C  
HETATM   17  O   UNL     1     -11.738   5.410  72.914  1.00  0.00    -0.297 OA 
BRANCH  16  18
HETATM   18  C   UNL     1     -10.551   5.382  70.867  1.00  0.00    -0.283 A  
HETATM   19  C   UNL     1      -9.542   4.525  71.327  1.00  0.00    -0.240 A  
HETATM   20  C   UNL     1      -8.642   3.905  70.439  1.00  0.00    -0.111 A  
HETATM   21  C   UNL     1      -8.695   4.122  69.057  1.00  0.00    -0.087 A  
HETATM   22  O   UNL     1     -11.590   6.407  68.952  1.00  0.00    -0.576 OA 
HETATM   23  C   UNL     1      -9.741   4.946  68.605  1.00  0.00    -0.225 A  
HETATM   24  H   UNL     1     -11.651   6.539  68.013  1.00  0.00     0.000 HD 
HETATM   25  C   UNL     1     -10.642   5.577  69.486  1.00  0.00    -0.296 A  
BRANCH  21  26
HETATM   26  N   UNL     1      -7.783   3.565  68.164  1.00  0.00    -0.064 NA 
BRANCH  26  27
HETATM   27  C   UNL     1      -6.397   3.349  68.608  1.00  0.00    -0.032 C  
HETATM   28  C   UNL     1      -5.652   4.672  68.713  1.00  0.00    -0.012 C  
ENDBRANCH  26  27
BRANCH  26  29
HETATM   29  C   UNL     1      -8.218   2.787  66.995  1.00  0.00    -0.085 C  
HETATM   30  C   UNL     1      -9.094   1.623  67.434  1.00  0.00    -0.149 C  
ENDBRANCH  26  29
ENDBRANCH  21  26
ENDBRANCH  16  18
ENDBRANCH  15  16
ENDBRANCH   8  10
ENDBRANCH   7   8
ENDBRANCH   6   7
ENDBRANCH   5   6
ENDBRANCH   4   5
ENDBRANCH   3   4
ENDBRANCH   2   3
TORSDOF 12
ENDMDL
MODEL      198
REMARK 921   NORMALIZED FREE ENERGY PREDICTED BY IDOCK:   -3.65 KCAL/MOL
REMARK 922        TOTAL FREE ENERGY PREDICTED BY IDOCK:   -8.17 KCAL/MOL
REMARK 923 INTER-LIGAND FREE ENERGY PREDICTED BY IDOCK:   -6.48 KCAL/MOL
REMARK 924 INTRA-LIGAND FREE ENERGY PREDICTED BY IDOCK:   -1.69 KCAL/MOL
REMARK 927      BINDING AFFINITY PREDICTED BY RF-SCORE:    0.00 PKD
ROOT
HETATM    1  C   UNL     1      -5.400   6.782  70.130  1.00  0.00    -0.018 C  
HETATM    2  C   UNL     1      -5.153   7.214  71.568  1.00  0.00    -0.027 C  
ENDROOT
BRANCH   2   3
HETATM    3  C   UNL     1      -6.199   8.226  72.032  1.00  0.00    -0.058 C  
BRANCH   3   4
HETATM    4  C   UNL     1      -6.334   8.251  73.560  1.00  0.00    -0.126 C  
BRANCH   4   5
HETATM    5  C   UNL     1      -7.806   8.183  73.972  1.00  0.00    -0.276 C  
BRANCH   5   6
HETATM    6  C   UNL     1      -8.753   7.876  72.817  1.00  0.00    -0.174 C  
BRANCH   6   7
HETATM    7  O   UNL     1      -9.238   9.018  72.108  1.00  0.00    -0.365 OA 
BRANCH   7   8
HETATM    8  C   UNL     1     -10.484   8.896  71.583  1.00  0.00    -0.338 C  
HETATM    9  O   UNL     1     -11.465   9.555  71.899  1.00  0.00    -0.355 OA 
BRANCH   8  10
HETATM   10  C   UNL     1     -10.410   8.087  70.333  1.00  0.00    -0.206 A  
HETATM   11  C   UNL     1     -11.218   6.930  70.338  1.00  0.00    -0.359 A  
HETATM   12  C   UNL     1     -11.309   6.104  69.217  1.00  0.00    -0.361 A  
HETATM   13  C   UNL     1     -10.554   6.395  68.087  1.00  0.00    -0.314 A  
HETATM   14  C   UNL     1      -9.740   7.527  68.066  1.00  0.00    -0.165 A  
HETATM   15  C   UNL     1      -9.699   8.412  69.161  1.00  0.00    -0.171 A  
BRANCH  15  16
HETATM   16  C   UNL     1      -8.827   9.605  69.038  1.00  0.00    -0.147 C  
HETATM   17  O   UNL     1      -7.617   9.437  69.187  1.00  0.00    -0.071 OA 
BRANCH  16  18
HETATM   18  C   UNL     1      -9.341  10.969  68.656  1.00  0.00    -0.196 A  
HETATM   19  C   UNL     1     -10.732  11.132  68.613  1.00  0.00    -0.234 A  
HETATM   20  C   UNL     1     -11.318  12.346  68.206  1.00  0.00    -0.332 A  
HETATM   21  C   UNL     1     -10.548  13.445  67.807  1.00  0.00    -0.245 A  
HETATM   22  O   UNL     1      -7.191  11.994  68.300  1.00  0.00    -0.077 OA 
HETATM   23  C   UNL     1      -9.154  13.283  67.899  1.00  0.00    -0.203 A  
HETATM   24  H   UNL     1      -6.660  12.743  68.057  1.00  0.00     0.000 HD 
HETATM   25  C   UNL     1      -8.558  12.070  68.298  1.00  0.00    -0.174 A  
BRANCH  21  26
HETATM   26  N   UNL     1     -11.103  14.637  67.348  1.00  0.00    -0.315 NA 
BRANCH  26  27
HETATM   27  C   UNL     1     -11.196  14.862  65.896  1.00  0.00    -0.328 C  
HETATM   28  C   UNL     1     -12.298  14.005  65.288  1.00  0.00    -0.480 C  
ENDBRANCH  26  27
BRANCH  26  29
HETATM   29  C   UNL     1     -11.986  15.456  68.189  1.00  0.00    -0.030 C  
HETATM   30  C   UNL     1     -11.242  15.932  69.427  1.00  0.00    -0.336 C  
ENDBRANCH  26  29
ENDBRANCH  21  26
ENDBRANCH  16  18
ENDBRANCH  15  16
ENDBRANCH   8  10
ENDBRANCH   7   8
ENDBRANCH   6   7
ENDBRANCH   5   6
ENDBRANCH   4   5
ENDBRANCH   3   4
ENDBRANCH   2   3
TORSDOF 12
ENDMDL
MODEL      199
REMARK 921   NORMALIZED FREE ENERGY PREDICTED BY IDOCK:   -3.64 KCAL/MOL
REMARK 922        TOTAL FREE ENERGY PREDICTED BY IDOCK:   -8.16 KCAL/MOL
REMARK 923 INTER-LIGAND FREE ENERGY PREDICTED BY IDOCK:   -6.78 KCAL/MOL
REMARK 924 INTRA-LIGAND FREE ENERGY PREDICTED BY IDOCK:   -1.38 KCAL/MOL
REMARK 927      BINDING AFFINITY PREDICTED BY RF-SCORE:    0.00 PKD
ROOT
HETATM    1  C   UNL     1     -10.915  16.666  65.230  1.00  0.00    -0.127 C  
HETATM    2  C   UNL     1     -10.789  15.212  64.800  1.00  0.00    -0.378 C  
ENDROOT
BRANCH   2   3
HETATM    3  C   UNL     1     -12.141  14.638  64.380  1.00  0.00    -0.481 C  
BRANCH   3   4
HETATM    4  C   UNL     1     -12.415  13.278  65.034  1.00  0.00    -0.498 C  
BRANCH   4   5
HETATM    5  C   UNL     1     -11.629  13.140  66.339  1.00  0.00    -0.394 C  
BRANCH   5   6
HETATM    6  C   UNL     1     -10.711  11.923  66.378  1.00  0.00    -0.266 C  
BRANCH   6   7
HETATM    7  O   UNL     1      -9.647  11.932  65.424  1.00  0.00    -0.232 OA 
BRANCH   7   8
HETATM    8  C   UNL     1      -9.347  10.730  64.870  1.00  0.00    -0.222 C  
HETATM    9  O   UNL     1      -9.797  10.290  63.821  1.00  0.00    -0.299 OA 
BRANCH   8  10
HETATM   10  C   UNL     1      -8.137  10.172  65.540  1.00  0.00    -0.147 A  
HETATM   11  C   UNL     1      -6.932  10.830  65.211  1.00  0.00     0.116 A  
HETATM   12  C   UNL     1      -5.723  10.468  65.806  1.00  0.00    -0.124 A  
HETATM   13  C   UNL     1      -5.690   9.410  66.706  1.00  0.00    -0.051 A  
HETATM   14  C   UNL     1      -6.867   8.739  67.035  1.00  0.00    -0.070 A  
HETATM   15  C   UNL     1      -8.106   9.144  66.502  1.00  0.00    -0.107 A  
BRANCH  15  16
HETATM   16  C   UNL     1      -9.310   8.391  66.931  1.00  0.00    -0.174 C  
HETATM   17  O   UNL     1      -9.871   7.694  66.086  1.00  0.00    -0.071 OA 
BRANCH  16  18
HETATM   18  C   UNL     1      -9.809   8.371  68.353  1.00  0.00    -0.192 A  
HETATM   19  C   UNL     1     -10.408   7.185  68.798  1.00  0.00    -0.200 A  
HETATM   20  C   UNL     1     -10.965   7.081  70.086  1.00  0.00    -0.306 A  
HETATM   21  C   UNL     1     -10.967   8.156  70.983  1.00  0.00    -0.244 A  
HETATM   22  O   UNL     1      -9.213  10.641  68.895  1.00  0.00    -0.172 OA 
HETATM   23  C   UNL     1     -10.323   9.325  70.542  1.00  0.00    -0.312 A  
HETATM   24  H   UNL     1      -9.185  11.367  69.506  1.00  0.00     0.000 HD 
HETATM   25  C   UNL     1      -9.768   9.441  69.251  1.00  0.00    -0.172 A  
BRANCH  21  26
HETATM   26  N   UNL     1     -11.561   8.096  72.242  1.00  0.00    -0.348 NA 
BRANCH  26  27
HETATM   27  C   UNL     1     -12.822   8.821  72.466  1.00  0.00    -0.316 C  
HETATM   28  C   UNL     1     -13.977   8.126  71.758  1.00  0.00    -0.479 C  
ENDBRANCH  26  27
BRANCH  26  29
HETATM   29  C   UNL     1     -11.254   7.020  73.194  1.00  0.00    -0.154 C  
HETATM   30  C   UNL     1      -9.886   7.244  73.819  1.00  0.00    -0.358 C  
ENDBRANCH  26  29
ENDBRANCH  21  26
ENDBRANCH  16  18
ENDBRANCH  15  16
ENDBRANCH   8  10
ENDBRANCH   7   8
ENDBRANCH   6   7
ENDBRANCH   5   6
ENDBRANCH   4   5
ENDBRANCH   3   4
ENDBRANCH   2   3
TORSDOF 12
ENDMDL
MODEL      200
REMARK 921   NORMALIZED FREE ENERGY PREDICTED BY IDOCK:   -3.64 KCAL/MOL
REMARK 922        TOTAL FREE ENERGY PREDICTED BY IDOCK:   -8.15 KCAL/MOL
REMARK 923 INTER-LIGAND FREE ENERGY PREDICTED BY IDOCK:   -6.40 KCAL/MOL
REMARK 924 INTRA-LIGAND FREE ENERGY PREDICTED BY IDOCK:   -1.75 KCAL/MOL
REMARK 927      BINDING AFFINITY PREDICTED BY RF-SCORE:    0.00 PKD
ROOT
HETATM    1  C   UNL     1     -10.720  16.933  69.222  1.00  0.00    -0.288 C  
HETATM    2  C   UNL     1      -9.555  16.328  68.453  1.00  0.00    -0.216 C  
ENDROOT
BRANCH   2   3
HETATM    3  C   UNL     1      -9.658  14.804  68.398  1.00  0.00    -0.213 C  
BRANCH   3   4
HETATM    4  C   UNL     1     -11.054  14.309  68.797  1.00  0.00    -0.276 C  
BRANCH   4   5
HETATM    5  C   UNL     1     -11.777  13.708  67.590  1.00  0.00    -0.398 C  
BRANCH   5   6
HETATM    6  C   UNL     1     -10.841  13.264  66.472  1.00  0.00    -0.281 C  
BRANCH   6   7
HETATM    7  O   UNL     1     -10.403  11.906  66.548  1.00  0.00    -0.210 OA 
BRANCH   7   8
HETATM    8  C   UNL     1      -9.070  11.710  66.381  1.00  0.00    -0.206 C  
HETATM    9  O   UNL     1      -8.180  12.212  67.053  1.00  0.00    -0.173 OA 
BRANCH   8  10
HETATM   10  C   UNL     1      -8.857  10.536  65.486  1.00  0.00    -0.200 A  
HETATM   11  C   UNL     1      -9.168  10.772  64.130  1.00  0.00    -0.251 A  
HETATM   12  C   UNL     1      -8.960   9.793  63.157  1.00  0.00    -0.270 A  
HETATM   13  C   UNL     1      -8.482   8.543  63.532  1.00  0.00    -0.036 A  
HETATM   14  C   UNL     1      -8.181   8.286  64.869  1.00  0.00    -0.154 A  
HETATM   15  C   UNL     1      -8.312   9.289  65.849  1.00  0.00    -0.122 A  
BRANCH  15  16
HETATM   16  C   UNL     1      -7.941   8.933  67.240  1.00  0.00    -0.097 C  
HETATM   17  O   UNL     1      -6.757   9.048  67.556  1.00  0.00    -0.067 OA 
BRANCH  16  18
HETATM   18  C   UNL     1      -8.948   8.533  68.287  1.00  0.00    -0.139 A  
HETATM   19  C   UNL     1      -9.354   9.527  69.187  1.00  0.00    -0.163 A  
HETATM   20  C   UNL     1     -10.241   9.244  70.243  1.00  0.00    -0.270 A  
HETATM   21  C   UNL     1     -10.751   7.959  70.461  1.00  0.00    -0.233 A  
HETATM   22  O   UNL     1      -9.126   6.220  67.641  1.00  0.00    -0.119 OA 
HETATM   23  C   UNL     1     -10.372   6.982  69.524  1.00  0.00    -0.225 A  
HETATM   24  H   UNL     1      -9.487   5.350  67.764  1.00  0.00     0.000 HD 
HETATM   25  C   UNL     1      -9.479   7.253  68.468  1.00  0.00    -0.140 A  
BRANCH  21  26
HETATM   26  N   UNL     1     -11.585   7.641  71.530  1.00  0.00    -0.266 NA 
BRANCH  26  27
HETATM   27  C   UNL     1     -11.050   7.732  72.898  1.00  0.00    -0.398 C  
HETATM   28  C   UNL     1     -10.329   6.448  73.281  1.00  0.00    -0.251 C  
ENDBRANCH  26  27
BRANCH  26  29
HETATM   29  C   UNL     1     -13.049   7.661  71.404  1.00  0.00    -0.296 C  
HETATM   30  C   UNL     1     -13.581   9.064  71.654  1.00  0.00    -0.446 C  
ENDBRANCH  26  29
ENDBRANCH  21  26
ENDBRANCH  16  18
ENDBRANCH  15  16
ENDBRANCH   8  10
ENDBRANCH   7   8
ENDBRANCH   6   7
ENDBRANCH   5   6
ENDBRANCH   4   5
ENDBRANCH   3   4
ENDBRANCH   2   3
TORSDOF 12
ENDMDL
MODEL      201
REMARK 921   NORMALIZED FREE ENERGY PREDICTED BY IDOCK:   -3.61 KCAL/MOL
REMARK 922        TOTAL FREE ENERGY PREDICTED BY IDOCK:   -8.11 KCAL/MOL
REMARK 923 INTER-LIGAND FREE ENERGY PREDICTED BY IDOCK:   -5.46 KCAL/MOL
REMARK 924 INTRA-LIGAND FREE ENERGY PREDICTED BY IDOCK:   -2.65 KCAL/MOL
REMARK 927      BINDING AFFINITY PREDICTED BY RF-SCORE:    0.00 PKD
ROOT
HETATM    1  C   UNL     1      -6.576  11.334  69.648  1.00  0.00    -0.136 C  
HETATM    2  C   UNL     1      -6.552  10.935  68.180  1.00  0.00    -0.062 C  
ENDROOT
BRANCH   2   3
HETATM    3  C   UNL     1      -6.643   9.419  68.014  1.00  0.00    -0.063 C  
BRANCH   3   4
HETATM    4  C   UNL     1      -6.875   8.709  69.354  1.00  0.00    -0.049 C  
BRANCH   4   5
HETATM    5  C   UNL     1      -7.116   7.214  69.135  1.00  0.00    -0.083 C  
BRANCH   5   6
HETATM    6  C   UNL     1      -7.379   6.439  70.423  1.00  0.00    -0.089 C  
BRANCH   6   7
HETATM    7  O   UNL     1      -7.807   5.088  70.243  1.00  0.00    -0.068 OA 
BRANCH   7   8
HETATM    8  C   UNL     1      -9.119   4.850  70.498  1.00  0.00    -0.130 C  
HETATM    9  O   UNL     1      -9.801   3.969  69.994  1.00  0.00    -0.210 OA 
BRANCH   8  10
HETATM   10  C   UNL     1      -9.519   5.593  71.728  1.00  0.00    -0.169 A  
HETATM   11  C   UNL     1      -8.708   5.337  72.854  1.00  0.00    -0.118 A  
HETATM   12  C   UNL     1      -8.913   6.004  74.062  1.00  0.00    -0.127 A  
HETATM   13  C   UNL     1      -9.965   6.905  74.179  1.00  0.00    -0.351 A  
HETATM   14  C   UNL     1     -10.786   7.162  73.082  1.00  0.00    -0.373 A  
HETATM   15  C   UNL     1     -10.542   6.555  71.835  1.00  0.00    -0.239 A  
BRANCH  15  16
HETATM   16  C   UNL     1     -11.450   6.911  70.717  1.00  0.00    -0.335 C  
HETATM   17  O   UNL     1     -12.643   6.641  70.851  1.00  0.00    -0.285 OA 
BRANCH  16  18
HETATM   18  C   UNL     1     -10.995   7.656  69.489  1.00  0.00    -0.108 A  
HETATM   19  C   UNL     1     -10.667   9.008  69.653  1.00  0.00    -0.228 A  
HETATM   20  C   UNL     1     -10.292   9.812  68.560  1.00  0.00    -0.228 A  
HETATM   21  C   UNL     1     -10.244   9.313  67.253  1.00  0.00    -0.252 A  
HETATM   22  O   UNL     1     -11.228   5.824  67.942  1.00  0.00    -0.205 OA 
HETATM   23  C   UNL     1     -10.530   7.944  67.108  1.00  0.00    -0.414 A  
HETATM   24  H   UNL     1     -11.172   5.469  67.063  1.00  0.00     0.000 HD 
HETATM   25  C   UNL     1     -10.913   7.132  68.195  1.00  0.00    -0.047 A  
BRANCH  21  26
HETATM   26  N   UNL     1      -9.931  10.101  66.148  1.00  0.00    -0.233 NA 
BRANCH  26  27
HETATM   27  C   UNL     1      -9.804  11.556  66.328  1.00  0.00    -0.217 C  
HETATM   28  C   UNL     1     -11.119  12.255  66.013  1.00  0.00    -0.347 C  
ENDBRANCH  26  27
BRANCH  26  29
HETATM   29  C   UNL     1      -9.294   9.537  64.950  1.00  0.00    -0.198 C  
HETATM   30  C   UNL     1      -8.298  10.529  64.367  1.00  0.00    -0.097 C  
ENDBRANCH  26  29
ENDBRANCH  21  26
ENDBRANCH  16  18
ENDBRANCH  15  16
ENDBRANCH   8  10
ENDBRANCH   7   8
ENDBRANCH   6   7
ENDBRANCH   5   6
ENDBRANCH   4   5
ENDBRANCH   3   4
ENDBRANCH   2   3
TORSDOF 12
ENDMDL
MODEL      202
REMARK 921   NORMALIZED FREE ENERGY PREDICTED BY IDOCK:   -3.60 KCAL/MOL
REMARK 922        TOTAL FREE ENERGY PREDICTED BY IDOCK:   -8.09 KCAL/MOL
REMARK 923 INTER-LIGAND FREE ENERGY PREDICTED BY IDOCK:   -5.98 KCAL/MOL
REMARK 924 INTRA-LIGAND FREE ENERGY PREDICTED BY IDOCK:   -2.11 KCAL/MOL
REMARK 927      BINDING AFFINITY PREDICTED BY RF-SCORE:    0.00 PKD
ROOT
HETATM    1  C   UNL     1      -9.699  16.603  65.876  1.00  0.00    -0.269 C  
HETATM    2  C   UNL     1      -9.900  15.400  66.786  1.00  0.00    -0.255 C  
ENDROOT
BRANCH   2   3
HETATM    3  C   UNL     1      -8.801  15.313  67.844  1.00  0.00    -0.165 C  
BRANCH   3   4
HETATM    4  C   UNL     1      -9.358  15.478  69.264  1.00  0.00    -0.266 C  
BRANCH   4   5
HETATM    5  C   UNL     1     -10.887  15.532  69.239  1.00  0.00    -0.252 C  
BRANCH   5   6
HETATM    6  C   UNL     1     -11.554  14.250  69.727  1.00  0.00    -0.293 C  
BRANCH   6   7
HETATM    7  O   UNL     1     -12.223  13.491  68.718  1.00  0.00    -0.317 OA 
BRANCH   7   8
HETATM    8  C   UNL     1     -11.751  12.233  68.522  1.00  0.00    -0.331 C  
HETATM    9  O   UNL     1     -11.969  11.264  69.237  1.00  0.00    -0.318 OA 
BRANCH   8  10
HETATM   10  C   UNL     1     -11.215  12.123  67.135  1.00  0.00    -0.372 A  
HETATM   11  C   UNL     1     -12.102  12.565  66.130  1.00  0.00    -0.357 A  
HETATM   12  C   UNL     1     -11.723  12.588  64.788  1.00  0.00    -0.411 A  
HETATM   13  C   UNL     1     -10.465  12.124  64.421  1.00  0.00    -0.352 A  
HETATM   14  C   UNL     1      -9.578  11.671  65.397  1.00  0.00    -0.228 A  
HETATM   15  C   UNL     1      -9.918  11.717  66.763  1.00  0.00    -0.229 A  
BRANCH  15  16
HETATM   16  C   UNL     1      -8.901  11.242  67.733  1.00  0.00    -0.141 C  
HETATM   17  O   UNL     1      -8.350  12.090  68.433  1.00  0.00    -0.160 OA 
BRANCH  16  18
HETATM   18  C   UNL     1      -8.589   9.785  67.955  1.00  0.00    -0.122 A  
HETATM   19  C   UNL     1      -7.732   9.173  67.031  1.00  0.00    -0.098 A  
HETATM   20  C   UNL     1      -7.426   7.801  67.109  1.00  0.00    -0.096 A  
HETATM   21  C   UNL     1      -7.970   6.974  68.098  1.00  0.00    -0.119 A  
HETATM   22  O   UNL     1      -9.963   9.494  69.911  1.00  0.00    -0.200 OA 
HETATM   23  C   UNL     1      -8.791   7.609  69.047  1.00  0.00    -0.135 A  
HETATM   24  H   UNL     1     -10.317   8.947  70.602  1.00  0.00     0.000 HD 
HETATM   25  C   UNL     1      -9.109   8.980  68.973  1.00  0.00    -0.143 A  
BRANCH  21  26
HETATM   26  N   UNL     1      -7.728   5.604  68.164  1.00  0.00    -0.088 NA 
BRANCH  26  27
HETATM   27  C   UNL     1      -8.609   4.691  67.418  1.00  0.00    -0.104 C  
HETATM   28  C   UNL     1      -8.447   4.891  65.918  1.00  0.00    -0.119 C  
ENDBRANCH  26  27
BRANCH  26  29
HETATM   29  C   UNL     1      -6.416   5.066  68.551  1.00  0.00    -0.037 C  
HETATM   30  C   UNL     1      -5.381   5.380  67.482  1.00  0.00    -0.008 C  
ENDBRANCH  26  29
ENDBRANCH  21  26
ENDBRANCH  16  18
ENDBRANCH  15  16
ENDBRANCH   8  10
ENDBRANCH   7   8
ENDBRANCH   6   7
ENDBRANCH   5   6
ENDBRANCH   4   5
ENDBRANCH   3   4
ENDBRANCH   2   3
TORSDOF 12
ENDMDL
MODEL      203
REMARK 921   NORMALIZED FREE ENERGY PREDICTED BY IDOCK:   -3.60 KCAL/MOL
REMARK 922        TOTAL FREE ENERGY PREDICTED BY IDOCK:   -8.08 KCAL/MOL
REMARK 923 INTER-LIGAND FREE ENERGY PREDICTED BY IDOCK:   -6.05 KCAL/MOL
REMARK 924 INTRA-LIGAND FREE ENERGY PREDICTED BY IDOCK:   -2.03 KCAL/MOL
REMARK 927      BINDING AFFINITY PREDICTED BY RF-SCORE:    0.00 PKD
ROOT
HETATM    1  C   UNL     1      -6.625   8.686  66.210  1.00  0.00    -0.062 C  
HETATM    2  C   UNL     1      -7.178  10.067  65.890  1.00  0.00    -0.115 C  
ENDROOT
BRANCH   2   3
HETATM    3  C   UNL     1      -6.318  11.167  66.510  1.00  0.00    -0.132 C  
BRANCH   3   4
HETATM    4  C   UNL     1      -6.913  11.688  67.824  1.00  0.00    -0.084 C  
BRANCH   4   5
HETATM    5  C   UNL     1      -7.995  12.735  67.547  1.00  0.00    -0.177 C  
BRANCH   5   6
HETATM    6  C   UNL     1      -9.341  12.411  68.186  1.00  0.00    -0.209 C  
BRANCH   6   7
HETATM    7  O   UNL     1      -9.361  11.236  68.999  1.00  0.00    -0.126 OA 
BRANCH   7   8
HETATM    8  C   UNL     1     -10.340  10.341  68.711  1.00  0.00    -0.195 C  
HETATM    9  O   UNL     1     -10.436   9.688  67.681  1.00  0.00    -0.228 OA 
BRANCH   8  10
HETATM   10  C   UNL     1     -11.087  10.015  69.959  1.00  0.00    -0.350 A  
HETATM   11  C   UNL     1     -12.312  10.701  70.103  1.00  0.00    -0.370 A  
HETATM   12  C   UNL     1     -13.158  10.456  71.185  1.00  0.00    -0.474 A  
HETATM   13  C   UNL     1     -12.771   9.554  72.168  1.00  0.00    -0.442 A  
HETATM   14  C   UNL     1     -11.559   8.875  72.052  1.00  0.00    -0.435 A  
HETATM   15  C   UNL     1     -10.732   9.054  70.926  1.00  0.00    -0.319 A  
BRANCH  15  16
HETATM   16  C   UNL     1      -9.475   8.268  70.873  1.00  0.00    -0.162 C  
HETATM   17  O   UNL     1      -8.541   8.650  71.577  1.00  0.00    -0.167 OA 
BRANCH  16  18
HETATM   18  C   UNL     1      -9.330   6.995  70.081  1.00  0.00    -0.162 A  
HETATM   19  C   UNL     1      -8.537   7.054  68.927  1.00  0.00    -0.128 A  
HETATM   20  C   UNL     1      -8.387   5.940  68.080  1.00  0.00    -0.115 A  
HETATM   21  C   UNL     1      -9.031   4.723  68.333  1.00  0.00    -0.111 A  
HETATM   22  O   UNL     1     -10.749   5.631  71.469  1.00  0.00    -0.241 OA 
HETATM   23  C   UNL     1      -9.785   4.662  69.518  1.00  0.00    -0.278 A  
HETATM   24  H   UNL     1     -11.169   4.802  71.664  1.00  0.00     0.000 HD 
HETATM   25  C   UNL     1      -9.948   5.774  70.369  1.00  0.00    -0.198 A  
BRANCH  21  26
HETATM   26  N   UNL     1      -8.943   3.624  67.482  1.00  0.00    -0.127 NA 
BRANCH  26  27
HETATM   27  C   UNL     1      -9.270   2.289  68.011  1.00  0.00    -0.201 C  
HETATM   28  C   UNL     1      -8.003   1.479  68.249  1.00  0.00    -0.058 C  
ENDBRANCH  26  27
BRANCH  26  29
HETATM   29  C   UNL     1      -8.985   3.769  66.020  1.00  0.00    -0.136 C  
HETATM   30  C   UNL     1     -10.318   4.362  65.588  1.00  0.00    -0.252 C  
ENDBRANCH  26  29
ENDBRANCH  21  26
ENDBRANCH  16  18
ENDBRANCH  15  16
ENDBRANCH   8  10
ENDBRANCH   7   8
ENDBRANCH   6   7
ENDBRANCH   5   6
ENDBRANCH   4   5
ENDBRANCH   3   4
ENDBRANCH   2   3
TORSDOF 12
ENDMDL
MODEL      204
REMARK 921   NORMALIZED FREE ENERGY PREDICTED BY IDOCK:   -3.59 KCAL/MOL
REMARK 922        TOTAL FREE ENERGY PREDICTED BY IDOCK:   -8.08 KCAL/MOL
REMARK 923 INTER-LIGAND FREE ENERGY PREDICTED BY IDOCK:   -6.92 KCAL/MOL
REMARK 924 INTRA-LIGAND FREE ENERGY PREDICTED BY IDOCK:   -1.16 KCAL/MOL
REMARK 927      BINDING AFFINITY PREDICTED BY RF-SCORE:    0.00 PKD
ROOT
HETATM    1  C   UNL     1      -6.920  14.541  67.488  1.00  0.00    -0.188 C  
HETATM    2  C   UNL     1      -7.166  16.042  67.542  1.00  0.00    -0.196 C  
ENDROOT
BRANCH   2   3
HETATM    3  C   UNL     1      -7.758  16.460  68.888  1.00  0.00    -0.230 C  
BRANCH   3   4
HETATM    4  C   UNL     1      -9.127  17.133  68.728  1.00  0.00    -0.244 C  
BRANCH   4   5
HETATM    5  C   UNL     1     -10.188  16.395  69.546  1.00  0.00    -0.244 C  
BRANCH   5   6
HETATM    6  C   UNL     1      -9.931  14.897  69.678  1.00  0.00    -0.022 C  
BRANCH   6   7
HETATM    7  O   UNL     1     -10.214  14.126  68.509  1.00  0.00    -0.237 OA 
BRANCH   7   8
HETATM    8  C   UNL     1     -11.483  14.224  68.036  1.00  0.00    -0.314 C  
HETATM    9  O   UNL     1     -12.505  14.173  68.706  1.00  0.00    -0.170 OA 
BRANCH   8  10
HETATM   10  C   UNL     1     -11.444  14.743  66.639  1.00  0.00    -0.339 A  
HETATM   11  C   UNL     1     -11.017  16.083  66.526  1.00  0.00    -0.080 A  
HETATM   12  C   UNL     1     -10.864  16.693  65.280  1.00  0.00    -0.194 A  
HETATM   13  C   UNL     1     -11.183  15.987  64.126  1.00  0.00     0.119 A  
HETATM   14  C   UNL     1     -11.620  14.666  64.217  1.00  0.00    -0.227 A  
HETATM   15  C   UNL     1     -11.703  14.013  65.462  1.00  0.00    -0.353 A  
BRANCH  15  16
HETATM   16  C   UNL     1     -12.149  12.598  65.459  1.00  0.00    -0.458 C  
HETATM   17  O   UNL     1     -13.250  12.355  64.967  1.00  0.00    -0.607 OA 
BRANCH  16  18
HETATM   18  C   UNL     1     -11.288  11.460  65.941  1.00  0.00    -0.089 A  
HETATM   19  C   UNL     1     -10.443  10.861  64.997  1.00  0.00    -0.331 A  
HETATM   20  C   UNL     1      -9.644   9.749  65.325  1.00  0.00    -0.368 A  
HETATM   21  C   UNL     1      -9.663   9.172  66.600  1.00  0.00    -0.223 A  
HETATM   22  O   UNL     1     -12.092  11.434  68.211  1.00  0.00    -0.606 OA 
HETATM   23  C   UNL     1     -10.479   9.810  67.551  1.00  0.00    -0.309 A  
HETATM   24  H   UNL     1     -12.092  11.067  69.086  1.00  0.00     0.000 HD 
HETATM   25  C   UNL     1     -11.288  10.919  67.231  1.00  0.00    -0.151 A  
BRANCH  21  26
HETATM   26  N   UNL     1      -8.926   8.039  66.935  1.00  0.00    -0.133 NA 
BRANCH  26  27
HETATM   27  C   UNL     1      -9.310   6.744  66.349  1.00  0.00    -0.136 C  
HETATM   28  C   UNL     1     -10.692   6.324  66.831  1.00  0.00    -0.411 C  
ENDBRANCH  26  27
BRANCH  26  29
HETATM   29  C   UNL     1      -7.556   8.131  67.459  1.00  0.00    -0.101 C  
HETATM   30  C   UNL     1      -6.897   6.760  67.456  1.00  0.00    -0.077 C  
ENDBRANCH  26  29
ENDBRANCH  21  26
ENDBRANCH  16  18
ENDBRANCH  15  16
ENDBRANCH   8  10
ENDBRANCH   7   8
ENDBRANCH   6   7
ENDBRANCH   5   6
ENDBRANCH   4   5
ENDBRANCH   3   4
ENDBRANCH   2   3
TORSDOF 12
ENDMDL
MODEL      205
REMARK 921   NORMALIZED FREE ENERGY PREDICTED BY IDOCK:   -3.59 KCAL/MOL
REMARK 922        TOTAL FREE ENERGY PREDICTED BY IDOCK:   -8.07 KCAL/MOL
REMARK 923 INTER-LIGAND FREE ENERGY PREDICTED BY IDOCK:   -6.38 KCAL/MOL
REMARK 924 INTRA-LIGAND FREE ENERGY PREDICTED BY IDOCK:   -1.69 KCAL/MOL
REMARK 927      BINDING AFFINITY PREDICTED BY RF-SCORE:    0.00 PKD
ROOT
HETATM    1  C   UNL     1     -13.175  12.565  71.898  1.00  0.00    -0.495 C  
HETATM    2  C   UNL     1     -13.979  13.799  72.279  1.00  0.00    -0.672 C  
ENDROOT
BRANCH   2   3
HETATM    3  C   UNL     1     -13.629  14.988  71.385  1.00  0.00    -0.538 C  
BRANCH   3   4
HETATM    4  C   UNL     1     -12.394  15.744  71.894  1.00  0.00    -0.533 C  
BRANCH   4   5
HETATM    5  C   UNL     1     -11.473  16.116  70.730  1.00  0.00    -0.408 C  
BRANCH   5   6
HETATM    6  C   UNL     1     -11.882  15.492  69.400  1.00  0.00    -0.374 C  
BRANCH   6   7
HETATM    7  O   UNL     1     -11.075  14.393  68.970  1.00  0.00    -0.241 OA 
BRANCH   7   8
HETATM    8  C   UNL     1     -10.615  14.467  67.695  1.00  0.00    -0.251 C  
HETATM    9  O   UNL     1     -11.263  14.813  66.717  1.00  0.00    -0.332 OA 
BRANCH   8  10
HETATM   10  C   UNL     1      -9.125  14.399  67.709  1.00  0.00    -0.192 A  
HETATM   11  C   UNL     1      -8.487  15.641  67.908  1.00  0.00    -0.153 A  
HETATM   12  C   UNL     1      -7.098  15.734  68.012  1.00  0.00    -0.134 A  
HETATM   13  C   UNL     1      -6.321  14.591  67.869  1.00  0.00    -0.173 A  
HETATM   14  C   UNL     1      -6.932  13.356  67.658  1.00  0.00    -0.168 A  
HETATM   15  C   UNL     1      -8.335  13.236  67.631  1.00  0.00    -0.181 A  
BRANCH  15  16
HETATM   16  C   UNL     1      -8.898  11.878  67.431  1.00  0.00    -0.171 C  
HETATM   17  O   UNL     1      -9.367  11.619  66.324  1.00  0.00    -0.206 OA 
BRANCH  16  18
HETATM   18  C   UNL     1      -8.836  10.796  68.478  1.00  0.00    -0.149 A  
HETATM   19  C   UNL     1      -7.990  11.020  69.571  1.00  0.00     0.133 A  
HETATM   20  C   UNL     1      -7.809  10.047  70.573  1.00  0.00     0.188 A  
HETATM   21  C   UNL     1      -8.447   8.803  70.523  1.00  0.00    -0.166 A  
HETATM   22  O   UNL     1     -10.349   9.266  67.396  1.00  0.00    -0.228 OA 
HETATM   23  C   UNL     1      -9.329   8.608  69.446  1.00  0.00    -0.150 A  
HETATM   24  H   UNL     1     -10.808   8.435  67.367  1.00  0.00     0.000 HD 
HETATM   25  C   UNL     1      -9.512   9.572  68.434  1.00  0.00    -0.137 A  
BRANCH  21  26
HETATM   26  N   UNL     1      -8.242   7.803  71.471  1.00  0.00    -0.101 NA 
BRANCH  26  27
HETATM   27  C   UNL     1      -6.992   7.808  72.248  1.00  0.00    -0.070 C  
HETATM   28  C   UNL     1      -7.280   7.994  73.731  1.00  0.00    -0.177 C  
ENDBRANCH  26  27
BRANCH  26  29
HETATM   29  C   UNL     1      -9.357   7.035  72.043  1.00  0.00    -0.139 C  
HETATM   30  C   UNL     1      -9.257   5.574  71.632  1.00  0.00    -0.159 C  
ENDBRANCH  26  29
ENDBRANCH  21  26
ENDBRANCH  16  18
ENDBRANCH  15  16
ENDBRANCH   8  10
ENDBRANCH   7   8
ENDBRANCH   6   7
ENDBRANCH   5   6
ENDBRANCH   4   5
ENDBRANCH   3   4
ENDBRANCH   2   3
TORSDOF 12
ENDMDL
MODEL      206
REMARK 921   NORMALIZED FREE ENERGY PREDICTED BY IDOCK:   -3.58 KCAL/MOL
REMARK 922        TOTAL FREE ENERGY PREDICTED BY IDOCK:   -8.06 KCAL/MOL
REMARK 923 INTER-LIGAND FREE ENERGY PREDICTED BY IDOCK:   -6.82 KCAL/MOL
REMARK 924 INTRA-LIGAND FREE ENERGY PREDICTED BY IDOCK:   -1.24 KCAL/MOL
REMARK 927      BINDING AFFINITY PREDICTED BY RF-SCORE:    0.00 PKD
ROOT
HETATM    1  C   UNL     1     -11.148  15.953  64.801  1.00  0.00    -0.397 C  
HETATM    2  C   UNL     1     -10.761  14.485  64.702  1.00  0.00    -0.332 C  
ENDROOT
BRANCH   2   3
HETATM    3  C   UNL     1     -11.849  13.670  64.005  1.00  0.00    -0.444 C  
BRANCH   3   4
HETATM    4  C   UNL     1     -12.657  12.824  64.998  1.00  0.00    -0.538 C  
BRANCH   4   5
HETATM    5  C   UNL     1     -12.020  12.873  66.388  1.00  0.00    -0.462 C  
BRANCH   5   6
HETATM    6  C   UNL     1     -11.335  11.573  66.796  1.00  0.00    -0.238 C  
BRANCH   6   7
HETATM    7  O   UNL     1     -11.742  11.041  68.059  1.00  0.00    -0.532 OA 
BRANCH   7   8
HETATM    8  C   UNL     1     -10.877  11.244  69.086  1.00  0.00    -0.222 C  
HETATM    9  O   UNL     1      -9.994  12.090  69.125  1.00  0.00     0.052 OA 
BRANCH   8  10
HETATM   10  C   UNL     1     -11.373  10.521  70.292  1.00  0.00    -0.407 A  
HETATM   11  C   UNL     1     -12.707  10.817  70.642  1.00  0.00    -0.417 A  
HETATM   12  C   UNL     1     -13.338  10.173  71.707  1.00  0.00    -0.485 A  
HETATM   13  C   UNL     1     -12.628   9.254  72.471  1.00  0.00    -0.266 A  
HETATM   14  C   UNL     1     -11.305   8.956  72.149  1.00  0.00    -0.369 A  
HETATM   15  C   UNL     1     -10.681   9.540  71.030  1.00  0.00    -0.411 A  
BRANCH  15  16
HETATM   16  C   UNL     1      -9.280   9.142  70.747  1.00  0.00    -0.262 C  
HETATM   17  O   UNL     1      -8.395   9.940  71.052  1.00  0.00    -0.020 OA 
BRANCH  16  18
HETATM   18  C   UNL     1      -8.900   7.792  70.198  1.00  0.00    -0.145 A  
HETATM   19  C   UNL     1      -8.244   6.914  71.072  1.00  0.00    -0.118 A  
HETATM   20  C   UNL     1      -7.789   5.653  70.643  1.00  0.00    -0.100 A  
HETATM   21  C   UNL     1      -7.949   5.215  69.323  1.00  0.00    -0.080 A  
HETATM   22  O   UNL     1      -9.725   8.150  67.964  1.00  0.00    -0.153 OA 
HETATM   23  C   UNL     1      -8.650   6.085  68.469  1.00  0.00    -0.111 A  
HETATM   24  H   UNL     1      -9.863   7.851  67.073  1.00  0.00     0.000 HD 
HETATM   25  C   UNL     1      -9.104   7.352  68.887  1.00  0.00    -0.136 A  
BRANCH  21  26
HETATM   26  N   UNL     1      -7.459   3.997  68.860  1.00  0.00    -0.054 NA 
BRANCH  26  27
HETATM   27  C   UNL     1      -6.983   3.006  69.839  1.00  0.00    -0.034 C  
HETATM   28  C   UNL     1      -5.590   2.512  69.473  1.00  0.00    -0.017 C  
ENDBRANCH  26  27
BRANCH  26  29
HETATM   29  C   UNL     1      -7.799   3.480  67.527  1.00  0.00    -0.078 C  
HETATM   30  C   UNL     1      -6.684   3.792  66.541  1.00  0.00    -0.046 C  
ENDBRANCH  26  29
ENDBRANCH  21  26
ENDBRANCH  16  18
ENDBRANCH  15  16
ENDBRANCH   8  10
ENDBRANCH   7   8
ENDBRANCH   6   7
ENDBRANCH   5   6
ENDBRANCH   4   5
ENDBRANCH   3   4
ENDBRANCH   2   3
TORSDOF 12
ENDMDL
MODEL      207
REMARK 921   NORMALIZED FREE ENERGY PREDICTED BY IDOCK:   -3.56 KCAL/MOL
REMARK 922        TOTAL FREE ENERGY PREDICTED BY IDOCK:   -8.03 KCAL/MOL
REMARK 923 INTER-LIGAND FREE ENERGY PREDICTED BY IDOCK:   -6.40 KCAL/MOL
REMARK 924 INTRA-LIGAND FREE ENERGY PREDICTED BY IDOCK:   -1.62 KCAL/MOL
REMARK 927      BINDING AFFINITY PREDICTED BY RF-SCORE:    0.00 PKD
ROOT
HETATM    1  C   UNL     1      -9.134  10.098  64.368  1.00  0.00    -0.284 C  
HETATM    2  C   UNL     1      -7.621   9.940  64.396  1.00  0.00    -0.143 C  
ENDROOT
BRANCH   2   3
HETATM    3  C   UNL     1      -7.192   8.878  65.407  1.00  0.00    -0.084 C  
BRANCH   3   4
HETATM    4  C   UNL     1      -6.359   9.477  66.548  1.00  0.00    -0.066 C  
BRANCH   4   5
HETATM    5  C   UNL     1      -5.665  10.761  66.091  1.00  0.00    -0.129 C  
BRANCH   5   6
HETATM    6  C   UNL     1      -5.933  11.960  66.995  1.00  0.00    -0.153 C  
BRANCH   6   7
HETATM    7  O   UNL     1      -7.282  12.430  66.997  1.00  0.00    -0.114 OA 
BRANCH   7   8
HETATM    8  C   UNL     1      -7.855  12.562  68.221  1.00  0.00    -0.144 C  
HETATM    9  O   UNL     1      -7.382  13.165  69.174  1.00  0.00    -0.011 OA 
BRANCH   8  10
HETATM   10  C   UNL     1      -9.289  12.162  68.134  1.00  0.00    -0.204 A  
HETATM   11  C   UNL     1      -9.498  10.826  67.730  1.00  0.00    -0.165 A  
HETATM   12  C   UNL     1     -10.781  10.282  67.665  1.00  0.00    -0.339 A  
HETATM   13  C   UNL     1     -11.882  11.079  67.957  1.00  0.00    -0.152 A  
HETATM   14  C   UNL     1     -11.697  12.405  68.346  1.00  0.00    -0.386 A  
HETATM   15  C   UNL     1     -10.404  12.945  68.492  1.00  0.00    -0.239 A  
BRANCH  15  16
HETATM   16  C   UNL     1     -10.303  14.356  68.938  1.00  0.00    -0.231 C  
HETATM   17  O   UNL     1     -10.810  14.642  70.022  1.00  0.00    -0.178 OA 
BRANCH  16  18
HETATM   18  C   UNL     1      -9.542  15.410  68.178  1.00  0.00    -0.203 A  
HETATM   19  C   UNL     1      -8.640  16.192  68.911  1.00  0.00    -0.245 A  
HETATM   20  C   UNL     1      -7.925  17.247  68.312  1.00  0.00    -0.244 A  
HETATM   21  C   UNL     1      -8.087  17.581  66.962  1.00  0.00    -0.217 A  
HETATM   22  O   UNL     1     -10.554  15.000  66.031  1.00  0.00    -0.297 OA 
HETATM   23  C   UNL     1      -8.960  16.760  66.227  1.00  0.00    -0.325 A  
HETATM   24  H   UNL     1     -10.651  15.202  65.109  1.00  0.00     0.000 HD 
HETATM   25  C   UNL     1      -9.685  15.706  66.819  1.00  0.00    -0.241 A  
BRANCH  21  26
HETATM   26  N   UNL     1      -7.435  18.654  66.359  1.00  0.00    -0.239 NA 
BRANCH  26  27
HETATM   27  C   UNL     1      -6.182  18.402  65.629  1.00  0.00    -0.262 C  
HETATM   28  C   UNL     1      -5.927  19.498  64.603  1.00  0.00    -0.307 C  
ENDBRANCH  26  27
BRANCH  26  29
HETATM   29  C   UNL     1      -8.136  19.904  66.033  1.00  0.00    -0.304 C  
HETATM   30  C   UNL     1      -9.093  20.280  67.154  1.00  0.00    -0.499 C  
ENDBRANCH  26  29
ENDBRANCH  21  26
ENDBRANCH  16  18
ENDBRANCH  15  16
ENDBRANCH   8  10
ENDBRANCH   7   8
ENDBRANCH   6   7
ENDBRANCH   5   6
ENDBRANCH   4   5
ENDBRANCH   3   4
ENDBRANCH   2   3
TORSDOF 12
ENDMDL
MODEL      208
REMARK 921   NORMALIZED FREE ENERGY PREDICTED BY IDOCK:   -3.54 KCAL/MOL
REMARK 922        TOTAL FREE ENERGY PREDICTED BY IDOCK:   -7.99 KCAL/MOL
REMARK 923 INTER-LIGAND FREE ENERGY PREDICTED BY IDOCK:   -5.60 KCAL/MOL
REMARK 924 INTRA-LIGAND FREE ENERGY PREDICTED BY IDOCK:   -2.39 KCAL/MOL
REMARK 927      BINDING AFFINITY PREDICTED BY RF-SCORE:    0.00 PKD
ROOT
HETATM    1  C   UNL     1     -10.766   5.771  68.216  1.00  0.00    -0.285 C  
HETATM    2  C   UNL     1      -9.672   4.713  68.215  1.00  0.00    -0.193 C  
ENDROOT
BRANCH   2   3
HETATM    3  C   UNL     1      -9.482   4.109  69.606  1.00  0.00    -0.259 C  
BRANCH   3   4
HETATM    4  C   UNL     1     -10.348   4.811  70.659  1.00  0.00    -0.184 C  
BRANCH   4   5
HETATM    5  C   UNL     1     -10.154   4.166  72.033  1.00  0.00    -0.234 C  
BRANCH   5   6
HETATM    6  C   UNL     1      -8.867   4.588  72.734  1.00  0.00    -0.112 C  
BRANCH   6   7
HETATM    7  O   UNL     1      -8.441   5.926  72.467  1.00  0.00    -0.117 OA 
BRANCH   7   8
HETATM    8  C   UNL     1      -8.913   6.872  73.318  1.00  0.00    -0.129 C  
HETATM    9  O   UNL     1      -8.441   7.155  74.411  1.00  0.00    -0.166 OA 
BRANCH   8  10
HETATM   10  C   UNL     1      -9.875   7.748  72.590  1.00  0.00    -0.284 A  
HETATM   11  C   UNL     1     -11.221   7.589  72.982  1.00  0.00    -0.373 A  
HETATM   12  C   UNL     1     -12.233   8.383  72.441  1.00  0.00    -0.430 A  
HETATM   13  C   UNL     1     -11.922   9.318  71.461  1.00  0.00    -0.439 A  
HETATM   14  C   UNL     1     -10.600   9.482  71.050  1.00  0.00    -0.392 A  
HETATM   15  C   UNL     1      -9.559   8.743  71.644  1.00  0.00    -0.363 A  
BRANCH  15  16
HETATM   16  C   UNL     1      -8.180   9.005  71.164  1.00  0.00    -0.149 C  
HETATM   17  O   UNL     1      -7.317   9.217  72.015  1.00  0.00    -0.335 OA 
BRANCH  16  18
HETATM   18  C   UNL     1      -7.783   8.931  69.713  1.00  0.00    -0.078 A  
HETATM   19  C   UNL     1      -7.581   7.653  69.175  1.00  0.00    -0.100 A  
HETATM   20  C   UNL     1      -7.147   7.474  67.848  1.00  0.00    -0.085 A  
HETATM   21  C   UNL     1      -6.877   8.556  67.002  1.00  0.00    -0.067 A  
HETATM   22  O   UNL     1      -7.716  11.305  69.315  1.00  0.00    -0.302 OA 
HETATM   23  C   UNL     1      -7.127   9.831  67.538  1.00  0.00    -0.088 A  
HETATM   24  H   UNL     1      -7.562  12.046  68.741  1.00  0.00     0.000 HD 
HETATM   25  C   UNL     1      -7.555  10.022  68.868  1.00  0.00    -0.086 A  
BRANCH  21  26
HETATM   26  N   UNL     1      -6.393   8.407  65.705  1.00  0.00    -0.051 NA 
BRANCH  26  27
HETATM   27  C   UNL     1      -6.518   7.096  65.047  1.00  0.00    -0.040 C  
HETATM   28  C   UNL     1      -7.967   6.818  64.672  1.00  0.00    -0.117 C  
ENDBRANCH  26  27
BRANCH  26  29
HETATM   29  C   UNL     1      -6.184   9.559  64.817  1.00  0.00    -0.081 C  
HETATM   30  C   UNL     1      -5.127   9.235  63.772  1.00  0.00    -0.060 C  
ENDBRANCH  26  29
ENDBRANCH  21  26
ENDBRANCH  16  18
ENDBRANCH  15  16
ENDBRANCH   8  10
ENDBRANCH   7   8
ENDBRANCH   6   7
ENDBRANCH   5   6
ENDBRANCH   4   5
ENDBRANCH   3   4
ENDBRANCH   2   3
TORSDOF 12
ENDMDL
MODEL      209
REMARK 921   NORMALIZED FREE ENERGY PREDICTED BY IDOCK:   -3.52 KCAL/MOL
REMARK 922        TOTAL FREE ENERGY PREDICTED BY IDOCK:   -7.96 KCAL/MOL
REMARK 923 INTER-LIGAND FREE ENERGY PREDICTED BY IDOCK:   -6.00 KCAL/MOL
REMARK 924 INTRA-LIGAND FREE ENERGY PREDICTED BY IDOCK:   -1.96 KCAL/MOL
REMARK 927      BINDING AFFINITY PREDICTED BY RF-SCORE:    0.00 PKD
ROOT
HETATM    1  C   UNL     1      -7.623   9.077  65.781  1.00  0.00    -0.090 C  
HETATM    2  C   UNL     1      -7.297  10.563  65.818  1.00  0.00    -0.137 C  
ENDROOT
BRANCH   2   3
HETATM    3  C   UNL     1      -6.141  10.854  66.774  1.00  0.00    -0.088 C  
BRANCH   3   4
HETATM    4  C   UNL     1      -6.596  11.667  67.993  1.00  0.00    -0.062 C  
BRANCH   4   5
HETATM    5  C   UNL     1      -5.713  11.360  69.204  1.00  0.00    -0.045 C  
BRANCH   5   6
HETATM    6  C   UNL     1      -6.364  10.423  70.217  1.00  0.00    -0.132 C  
BRANCH   6   7
HETATM    7  O   UNL     1      -7.608   9.853  69.806  1.00  0.00    -0.113 OA 
BRANCH   7   8
HETATM    8  C   UNL     1      -7.859   8.601  70.268  1.00  0.00    -0.097 C  
HETATM    9  O   UNL     1      -7.023   7.737  70.493  1.00  0.00    -0.046 OA 
BRANCH   8  10
HETATM   10  C   UNL     1      -9.257   8.542  70.783  1.00  0.00    -0.204 A  
HETATM   11  C   UNL     1      -9.359   8.236  72.157  1.00  0.00    -0.303 A  
HETATM   12  C   UNL     1     -10.595   8.208  72.804  1.00  0.00    -0.386 A  
HETATM   13  C   UNL     1     -11.756   8.440  72.076  1.00  0.00    -0.417 A  
HETATM   14  C   UNL     1     -11.678   8.733  70.715  1.00  0.00    -0.253 A  
HETATM   15  C   UNL     1     -10.432   8.841  70.067  1.00  0.00    -0.222 A  
BRANCH  15  16
HETATM   16  C   UNL     1     -10.444   9.185  68.624  1.00  0.00    -0.207 C  
HETATM   17  O   UNL     1     -10.481   8.252  67.822  1.00  0.00    -0.231 OA 
BRANCH  16  18
HETATM   18  C   UNL     1     -10.505  10.600  68.112  1.00  0.00    -0.215 A  
HETATM   19  C   UNL     1     -10.432  11.623  69.067  1.00  0.00    -0.159 A  
HETATM   20  C   UNL     1     -10.543  12.978  68.703  1.00  0.00    -0.257 A  
HETATM   21  C   UNL     1     -10.750  13.377  67.377  1.00  0.00    -0.262 A  
HETATM   22  O   UNL     1     -10.765  10.050  65.782  1.00  0.00     0.004 OA 
HETATM   23  C   UNL     1     -10.775  12.344  66.423  1.00  0.00    -0.277 A  
HETATM   24  H   UNL     1     -10.878  10.311  64.876  1.00  0.00     0.000 HD 
HETATM   25  C   UNL     1     -10.671  10.984  66.778  1.00  0.00    -0.266 A  
BRANCH  21  26
HETATM   26  N   UNL     1     -10.919  14.706  66.999  1.00  0.00    -0.309 NA 
BRANCH  26  27
HETATM   27  C   UNL     1     -11.607  15.001  65.731  1.00  0.00    -0.171 C  
HETATM   28  C   UNL     1     -10.870  16.085  64.958  1.00  0.00    -0.421 C  
ENDBRANCH  26  27
BRANCH  26  29
HETATM   29  C   UNL     1     -10.861  15.804  67.975  1.00  0.00    -0.309 C  
HETATM   30  C   UNL     1     -12.004  15.685  68.971  1.00  0.00    -0.323 C  
ENDBRANCH  26  29
ENDBRANCH  21  26
ENDBRANCH  16  18
ENDBRANCH  15  16
ENDBRANCH   8  10
ENDBRANCH   7   8
ENDBRANCH   6   7
ENDBRANCH   5   6
ENDBRANCH   4   5
ENDBRANCH   3   4
ENDBRANCH   2   3
TORSDOF 12
ENDMDL
MODEL      210
REMARK 921   NORMALIZED FREE ENERGY PREDICTED BY IDOCK:   -3.50 KCAL/MOL
REMARK 922        TOTAL FREE ENERGY PREDICTED BY IDOCK:   -7.91 KCAL/MOL
REMARK 923 INTER-LIGAND FREE ENERGY PREDICTED BY IDOCK:   -5.87 KCAL/MOL
REMARK 924 INTRA-LIGAND FREE ENERGY PREDICTED BY IDOCK:   -2.05 KCAL/MOL
REMARK 927      BINDING AFFINITY PREDICTED BY RF-SCORE:    0.00 PKD
ROOT
HETATM    1  C   UNL     1      -9.736   8.462  72.664  1.00  0.00    -0.332 C  
HETATM    2  C   UNL     1     -11.000   7.616  72.636  1.00  0.00    -0.405 C  
ENDROOT
BRANCH   2   3
HETATM    3  C   UNL     1     -10.716   6.209  72.111  1.00  0.00    -0.277 C  
BRANCH   3   4
HETATM    4  C   UNL     1     -10.947   6.104  70.598  1.00  0.00    -0.376 C  
BRANCH   4   5
HETATM    5  C   UNL     1     -10.234   4.877  70.028  1.00  0.00    -0.313 C  
BRANCH   5   6
HETATM    6  C   UNL     1      -9.750   5.058  68.594  1.00  0.00    -0.158 C  
BRANCH   6   7
HETATM    7  O   UNL     1      -9.025   6.264  68.344  1.00  0.00    -0.118 OA 
BRANCH   7   8
HETATM    8  C   UNL     1      -7.673   6.161  68.415  1.00  0.00    -0.103 C  
HETATM    9  O   UNL     1      -6.958   5.548  67.634  1.00  0.00    -0.062 OA 
BRANCH   8  10
HETATM   10  C   UNL     1      -7.155   7.177  69.375  1.00  0.00    -0.075 A  
HETATM   11  C   UNL     1      -7.090   6.734  70.714  1.00  0.00    -0.068 A  
HETATM   12  C   UNL     1      -6.565   7.545  71.721  1.00  0.00    -0.042 A  
HETATM   13  C   UNL     1      -6.140   8.832  71.414  1.00  0.00    -0.056 A  
HETATM   14  C   UNL     1      -6.207   9.293  70.100  1.00  0.00    -0.045 A  
HETATM   15  C   UNL     1      -6.660   8.458  69.060  1.00  0.00    -0.048 A  
BRANCH  15  16
HETATM   16  C   UNL     1      -6.670   9.023  67.689  1.00  0.00    -0.065 C  
HETATM   17  O   UNL     1      -5.750   8.699  66.939  1.00  0.00    -0.040 OA 
BRANCH  16  18
HETATM   18  C   UNL     1      -7.786   9.885  67.159  1.00  0.00    -0.092 A  
HETATM   19  C   UNL     1      -8.853   9.227  66.534  1.00  0.00    -0.154 A  
HETATM   20  C   UNL     1      -9.916   9.940  65.948  1.00  0.00    -0.347 A  
HETATM   21  C   UNL     1      -9.956  11.339  65.941  1.00  0.00    -0.234 A  
HETATM   22  O   UNL     1      -6.824  12.006  67.774  1.00  0.00    -0.082 OA 
HETATM   23  C   UNL     1      -8.903  11.987  66.611  1.00  0.00    -0.191 A  
HETATM   24  H   UNL     1      -6.855  12.954  67.798  1.00  0.00     0.000 HD 
HETATM   25  C   UNL     1      -7.831  11.282  67.195  1.00  0.00    -0.151 A  
BRANCH  21  26
HETATM   26  N   UNL     1     -10.966  12.069  65.319  1.00  0.00    -0.300 NA 
BRANCH  26  27
HETATM   27  C   UNL     1     -11.849  12.906  66.147  1.00  0.00    -0.429 C  
HETATM   28  C   UNL     1     -11.217  14.267  66.404  1.00  0.00    -0.337 C  
ENDBRANCH  26  27
BRANCH  26  29
HETATM   29  C   UNL     1     -10.916  12.399  63.888  1.00  0.00    -0.414 C  
HETATM   30  C   UNL     1     -12.314  12.700  63.367  1.00  0.00    -0.553 C  
ENDBRANCH  26  29
ENDBRANCH  21  26
ENDBRANCH  16  18
ENDBRANCH  15  16
ENDBRANCH   8  10
ENDBRANCH   7   8
ENDBRANCH   6   7
ENDBRANCH   5   6
ENDBRANCH   4   5
ENDBRANCH   3   4
ENDBRANCH   2   3
TORSDOF 12
ENDMDL
MODEL      211
REMARK 921   NORMALIZED FREE ENERGY PREDICTED BY IDOCK:   -3.48 KCAL/MOL
REMARK 922        TOTAL FREE ENERGY PREDICTED BY IDOCK:   -7.89 KCAL/MOL
REMARK 923 INTER-LIGAND FREE ENERGY PREDICTED BY IDOCK:   -5.94 KCAL/MOL
REMARK 924 INTRA-LIGAND FREE ENERGY PREDICTED BY IDOCK:   -1.94 KCAL/MOL
REMARK 927      BINDING AFFINITY PREDICTED BY RF-SCORE:    0.00 PKD
ROOT
HETATM    1  C   UNL     1     -12.745  14.073  65.342  1.00  0.00    -0.499 C  
HETATM    2  C   UNL     1     -12.251  12.656  65.590  1.00  0.00    -0.474 C  
ENDROOT
BRANCH   2   3
HETATM    3  C   UNL     1     -11.582  12.532  66.959  1.00  0.00    -0.437 C  
BRANCH   3   4
HETATM    4  C   UNL     1     -10.102  12.933  66.912  1.00  0.00    -0.241 C  
BRANCH   4   5
HETATM    5  C   UNL     1      -9.428  12.660  68.258  1.00  0.00    -0.203 C  
BRANCH   5   6
HETATM    6  C   UNL     1      -7.914  12.497  68.165  1.00  0.00    -0.157 C  
BRANCH   6   7
HETATM    7  O   UNL     1      -7.418  12.159  66.868  1.00  0.00    -0.117 OA 
BRANCH   7   8
HETATM    8  C   UNL     1      -6.644  11.045  66.810  1.00  0.00    -0.124 C  
HETATM    9  O   UNL     1      -6.218  10.415  67.768  1.00  0.00    -0.055 OA 
BRANCH   8  10
HETATM   10  C   UNL     1      -6.671  10.504  65.420  1.00  0.00    -0.078 A  
HETATM   11  C   UNL     1      -5.452  10.631  64.721  1.00  0.00    -0.114 A  
HETATM   12  C   UNL     1      -5.297  10.114  63.434  1.00  0.00    -0.117 A  
HETATM   13  C   UNL     1      -6.375   9.503  62.805  1.00  0.00    -0.099 A  
HETATM   14  C   UNL     1      -7.592   9.378  63.475  1.00  0.00    -0.115 A  
HETATM   15  C   UNL     1      -7.739   9.825  64.802  1.00  0.00    -0.128 A  
BRANCH  15  16
HETATM   16  C   UNL     1      -9.061   9.624  65.444  1.00  0.00    -0.215 C  
HETATM   17  O   UNL     1     -10.047  10.066  64.855  1.00  0.00    -0.316 OA 
BRANCH  16  18
HETATM   18  C   UNL     1      -9.251   8.839  66.716  1.00  0.00    -0.211 A  
HETATM   19  C   UNL     1     -10.376   9.150  67.491  1.00  0.00    -0.324 A  
HETATM   20  C   UNL     1     -10.614   8.522  68.728  1.00  0.00    -0.162 A  
HETATM   21  C   UNL     1      -9.736   7.568  69.257  1.00  0.00    -0.163 A  
HETATM   22  O   UNL     1      -7.257   7.502  66.526  1.00  0.00    -0.072 OA 
HETATM   23  C   UNL     1      -8.637   7.231  68.449  1.00  0.00    -0.124 A  
HETATM   24  H   UNL     1      -6.669   6.837  66.864  1.00  0.00     0.000 HD 
HETATM   25  C   UNL     1      -8.386   7.859  67.212  1.00  0.00    -0.122 A  
BRANCH  21  26
HETATM   26  N   UNL     1      -9.919   6.973  70.503  1.00  0.00    -0.183 NA 
BRANCH  26  27
HETATM   27  C   UNL     1      -9.542   7.726  71.710  1.00  0.00    -0.163 C  
HETATM   28  C   UNL     1     -10.780   8.212  72.452  1.00  0.00    -0.404 C  
ENDBRANCH  26  27
BRANCH  26  29
HETATM   29  C   UNL     1     -10.857   5.859  70.700  1.00  0.00    -0.292 C  
HETATM   30  C   UNL     1     -10.112   4.533  70.678  1.00  0.00    -0.232 C  
ENDBRANCH  26  29
ENDBRANCH  21  26
ENDBRANCH  16  18
ENDBRANCH  15  16
ENDBRANCH   8  10
ENDBRANCH   7   8
ENDBRANCH   6   7
ENDBRANCH   5   6
ENDBRANCH   4   5
ENDBRANCH   3   4
ENDBRANCH   2   3
TORSDOF 12
ENDMDL
MODEL      212
REMARK 921   NORMALIZED FREE ENERGY PREDICTED BY IDOCK:   -3.46 KCAL/MOL
REMARK 922        TOTAL FREE ENERGY PREDICTED BY IDOCK:   -7.84 KCAL/MOL
REMARK 923 INTER-LIGAND FREE ENERGY PREDICTED BY IDOCK:   -5.94 KCAL/MOL
REMARK 924 INTRA-LIGAND FREE ENERGY PREDICTED BY IDOCK:   -1.90 KCAL/MOL
REMARK 927      BINDING AFFINITY PREDICTED BY RF-SCORE:    0.00 PKD
ROOT
HETATM    1  C   UNL     1     -11.470  12.909  67.427  1.00  0.00    -0.388 C  
HETATM    2  C   UNL     1     -11.426  11.706  66.496  1.00  0.00    -0.260 C  
ENDROOT
BRANCH   2   3
HETATM    3  C   UNL     1     -10.749  10.511  67.165  1.00  0.00    -0.323 C  
BRANCH   3   4
HETATM    4  C   UNL     1      -9.691   9.869  66.257  1.00  0.00    -0.281 C  
BRANCH   4   5
HETATM    5  C   UNL     1      -8.289  10.084  66.830  1.00  0.00    -0.125 C  
BRANCH   5   6
HETATM    6  C   UNL     1      -7.238   9.143  66.250  1.00  0.00    -0.091 C  
BRANCH   6   7
HETATM    7  O   UNL     1      -7.753   7.958  65.640  1.00  0.00    -0.087 OA 
BRANCH   7   8
HETATM    8  C   UNL     1      -7.598   6.815  66.356  1.00  0.00    -0.089 C  
HETATM    9  O   UNL     1      -7.130   6.732  67.484  1.00  0.00    -0.079 OA 
BRANCH   8  10
HETATM   10  C   UNL     1      -8.390   5.726  65.716  1.00  0.00    -0.134 A  
HETATM   11  C   UNL     1      -7.710   5.036  64.690  1.00  0.00    -0.081 A  
HETATM   12  C   UNL     1      -8.292   3.947  64.040  1.00  0.00    -0.092 A  
HETATM   13  C   UNL     1      -9.585   3.560  64.371  1.00  0.00    -0.162 A  
HETATM   14  C   UNL     1     -10.279   4.237  65.373  1.00  0.00    -0.235 A  
HETATM   15  C   UNL     1      -9.674   5.286  66.092  1.00  0.00    -0.179 A  
BRANCH  15  16
HETATM   16  C   UNL     1     -10.478   5.929  67.161  1.00  0.00    -0.272 C  
HETATM   17  O   UNL     1     -11.408   6.653  66.809  1.00  0.00    -0.270 OA 
BRANCH  16  18
HETATM   18  C   UNL     1     -10.263   5.664  68.628  1.00  0.00    -0.263 A  
HETATM   19  C   UNL     1      -9.781   4.396  68.979  1.00  0.00    -0.223 A  
HETATM   20  C   UNL     1      -9.606   4.023  70.325  1.00  0.00    -0.271 A  
HETATM   21  C   UNL     1      -9.919   4.886  71.382  1.00  0.00    -0.197 A  
HETATM   22  O   UNL     1     -11.029   7.806  69.419  1.00  0.00    -0.398 OA 
HETATM   23  C   UNL     1     -10.357   6.171  71.016  1.00  0.00    -0.260 A  
HETATM   24  H   UNL     1     -11.218   8.409  70.128  1.00  0.00     0.000 HD 
HETATM   25  C   UNL     1     -10.543   6.552  69.672  1.00  0.00    -0.243 A  
BRANCH  21  26
HETATM   26  N   UNL     1      -9.808   4.521  72.722  1.00  0.00    -0.140 NA 
BRANCH  26  27
HETATM   27  C   UNL     1      -8.497   4.090  73.233  1.00  0.00    -0.089 C  
HETATM   28  C   UNL     1      -7.404   5.055  72.796  1.00  0.00    -0.090 C  
ENDBRANCH  26  27
BRANCH  26  29
HETATM   29  C   UNL     1     -10.784   4.962  73.729  1.00  0.00    -0.301 C  
HETATM   30  C   UNL     1     -10.204   6.093  74.564  1.00  0.00    -0.318 C  
ENDBRANCH  26  29
ENDBRANCH  21  26
ENDBRANCH  16  18
ENDBRANCH  15  16
ENDBRANCH   8  10
ENDBRANCH   7   8
ENDBRANCH   6   7
ENDBRANCH   5   6
ENDBRANCH   4   5
ENDBRANCH   3   4
ENDBRANCH   2   3
TORSDOF 12
ENDMDL
MODEL      213
REMARK 921   NORMALIZED FREE ENERGY PREDICTED BY IDOCK:   -3.44 KCAL/MOL
REMARK 922        TOTAL FREE ENERGY PREDICTED BY IDOCK:   -7.82 KCAL/MOL
REMARK 923 INTER-LIGAND FREE ENERGY PREDICTED BY IDOCK:   -7.35 KCAL/MOL
REMARK 924 INTRA-LIGAND FREE ENERGY PREDICTED BY IDOCK:   -0.47 KCAL/MOL
REMARK 927      BINDING AFFINITY PREDICTED BY RF-SCORE:    0.00 PKD
ROOT
HETATM    1  C   UNL     1     -12.138  13.490  68.954  1.00  0.00    -0.315 C  
HETATM    2  C   UNL     1     -12.664  14.029  70.276  1.00  0.00    -0.270 C  
ENDROOT
BRANCH   2   3
HETATM    3  C   UNL     1     -11.731  15.092  70.854  1.00  0.00    -0.376 C  
BRANCH   3   4
HETATM    4  C   UNL     1     -10.283  14.899  70.385  1.00  0.00     0.262 C  
BRANCH   4   5
HETATM    5  C   UNL     1      -9.799  16.129  69.614  1.00  0.00    -0.150 C  
BRANCH   5   6
HETATM    6  C   UNL     1     -10.741  17.324  69.710  1.00  0.00     0.296 C  
BRANCH   6   7
HETATM    7  O   UNL     1     -10.640  18.266  68.639  1.00  0.00    -0.238 OA 
BRANCH   7   8
HETATM    8  C   UNL     1      -9.858  19.348  68.883  1.00  0.00    -0.453 C  
HETATM    9  O   UNL     1      -9.936  20.087  69.856  1.00  0.00    -0.086 OA 
BRANCH   8  10
HETATM   10  C   UNL     1      -8.673  19.309  67.978  1.00  0.00    -0.357 A  
HETATM   11  C   UNL     1      -7.479  19.784  68.559  1.00  0.00    -0.347 A  
HETATM   12  C   UNL     1      -6.270  19.750  67.862  1.00  0.00    -0.248 A  
HETATM   13  C   UNL     1      -6.245  19.286  66.553  1.00  0.00    -0.187 A  
HETATM   14  C   UNL     1      -7.417  18.824  65.956  1.00  0.00    -0.271 A  
HETATM   15  C   UNL     1      -8.628  18.778  66.674  1.00  0.00    -0.306 A  
BRANCH  15  16
HETATM   16  C   UNL     1      -9.818  18.244  65.967  1.00  0.00    -0.156 C  
HETATM   17  O   UNL     1     -10.652  19.058  65.573  1.00  0.00    -0.557 OA 
BRANCH  16  18
HETATM   18  C   UNL     1      -9.997  16.785  65.637  1.00  0.00    -0.163 A  
HETATM   19  C   UNL     1     -11.140  16.437  64.906  1.00  0.00    -0.249 A  
HETATM   20  C   UNL     1     -11.437  15.095  64.600  1.00  0.00    -0.363 A  
HETATM   21  C   UNL     1     -10.621  14.039  65.022  1.00  0.00    -0.410 A  
HETATM   22  O   UNL     1      -8.018  15.994  66.759  1.00  0.00    -0.225 OA 
HETATM   23  C   UNL     1      -9.453  14.405  65.714  1.00  0.00    -0.130 A  
HETATM   24  H   UNL     1      -7.444  15.287  67.027  1.00  0.00     0.000 HD 
HETATM   25  C   UNL     1      -9.150  15.745  66.031  1.00  0.00    -0.326 A  
BRANCH  21  26
HETATM   26  N   UNL     1     -10.921  12.701  64.781  1.00  0.00    -0.289 NA 
BRANCH  26  27
HETATM   27  C   UNL     1     -12.333  12.295  64.695  1.00  0.00    -0.369 C  
HETATM   28  C   UNL     1     -12.687  11.870  63.277  1.00  0.00    -0.407 C  
ENDBRANCH  26  27
BRANCH  26  29
HETATM   29  C   UNL     1      -9.946  11.784  64.174  1.00  0.00    -0.272 C  
HETATM   30  C   UNL     1     -10.139  10.376  64.715  1.00  0.00    -0.387 C  
ENDBRANCH  26  29
ENDBRANCH  21  26
ENDBRANCH  16  18
ENDBRANCH  15  16
ENDBRANCH   8  10
ENDBRANCH   7   8
ENDBRANCH   6   7
ENDBRANCH   5   6
ENDBRANCH   4   5
ENDBRANCH   3   4
ENDBRANCH   2   3
TORSDOF 12
ENDMDL
MODEL      214
REMARK 921   NORMALIZED FREE ENERGY PREDICTED BY IDOCK:   -3.44 KCAL/MOL
REMARK 922        TOTAL FREE ENERGY PREDICTED BY IDOCK:   -7.81 KCAL/MOL
REMARK 923 INTER-LIGAND FREE ENERGY PREDICTED BY IDOCK:   -6.57 KCAL/MOL
REMARK 924 INTRA-LIGAND FREE ENERGY PREDICTED BY IDOCK:   -1.24 KCAL/MOL
REMARK 927      BINDING AFFINITY PREDICTED BY RF-SCORE:    0.00 PKD
ROOT
HETATM    1  C   UNL     1      -6.484  14.540  67.708  1.00  0.00    -0.181 C  
HETATM    2  C   UNL     1      -6.433  16.061  67.698  1.00  0.00    -0.189 C  
ENDROOT
BRANCH   2   3
HETATM    3  C   UNL     1      -7.113  16.648  68.934  1.00  0.00    -0.205 C  
BRANCH   3   4
HETATM    4  C   UNL     1      -8.359  17.464  68.569  1.00  0.00    -0.271 C  
BRANCH   4   5
HETATM    5  C   UNL     1      -9.579  16.960  69.343  1.00  0.00     0.029 C  
BRANCH   5   6
HETATM    6  C   UNL     1      -9.523  15.474  69.679  1.00  0.00    -0.243 C  
BRANCH   6   7
HETATM    7  O   UNL     1      -9.775  14.593  68.582  1.00  0.00    -0.211 OA 
BRANCH   7   8
HETATM    8  C   UNL     1     -11.078  14.461  68.224  1.00  0.00    -0.259 C  
HETATM    9  O   UNL     1     -12.019  14.294  68.987  1.00  0.00    -0.319 OA 
BRANCH   8  10
HETATM   10  C   UNL     1     -11.240  14.891  66.805  1.00  0.00    -0.338 A  
HETATM   11  C   UNL     1     -10.907  16.240  66.562  1.00  0.00    -0.105 A  
HETATM   12  C   UNL     1     -10.943  16.776  65.274  1.00  0.00    -0.084 A  
HETATM   13  C   UNL     1     -11.359  15.982  64.212  1.00  0.00    -0.146 A  
HETATM   14  C   UNL     1     -11.704  14.649  64.433  1.00  0.00    -0.358 A  
HETATM   15  C   UNL     1     -11.597  14.074  65.714  1.00  0.00    -0.339 A  
BRANCH  15  16
HETATM   16  C   UNL     1     -11.957  12.642  65.849  1.00  0.00    -0.438 C  
HETATM   17  O   UNL     1     -12.995  12.267  65.304  1.00  0.00    -0.344 OA 
BRANCH  16  18
HETATM   18  C   UNL     1     -11.076  11.629  66.533  1.00  0.00    -0.357 A  
HETATM   19  C   UNL     1     -11.519  11.136  67.768  1.00  0.00    -0.349 A  
HETATM   20  C   UNL     1     -10.743  10.236  68.522  1.00  0.00    -0.262 A  
HETATM   21  C   UNL     1      -9.485   9.798  68.090  1.00  0.00    -0.135 A  
HETATM   22  O   UNL     1      -9.325  11.610  64.880  1.00  0.00    -0.394 OA 
HETATM   23  C   UNL     1      -9.073  10.264  66.829  1.00  0.00    -0.161 A  
HETATM   24  H   UNL     1      -8.485  11.299  64.566  1.00  0.00     0.000 HD 
HETATM   25  C   UNL     1      -9.839  11.171  66.070  1.00  0.00    -0.228 A  
BRANCH  21  26
HETATM   26  N   UNL     1      -8.673   8.953  68.842  1.00  0.00    -0.135 NA 
BRANCH  26  27
HETATM   27  C   UNL     1      -7.796   9.539  69.869  1.00  0.00    -0.138 C  
HETATM   28  C   UNL     1      -7.190  10.845  69.377  1.00  0.00    -0.126 C  
ENDBRANCH  26  27
BRANCH  26  29
HETATM   29  C   UNL     1      -8.965   7.519  68.981  1.00  0.00    -0.131 C  
HETATM   30  C   UNL     1      -8.797   7.085  70.429  1.00  0.00    -0.155 C  
ENDBRANCH  26  29
ENDBRANCH  21  26
ENDBRANCH  16  18
ENDBRANCH  15  16
ENDBRANCH   8  10
ENDBRANCH   7   8
ENDBRANCH   6   7
ENDBRANCH   5   6
ENDBRANCH   4   5
ENDBRANCH   3   4
ENDBRANCH   2   3
TORSDOF 12
ENDMDL
MODEL      215
REMARK 921   NORMALIZED FREE ENERGY PREDICTED BY IDOCK:   -3.42 KCAL/MOL
REMARK 922        TOTAL FREE ENERGY PREDICTED BY IDOCK:   -7.79 KCAL/MOL
REMARK 923 INTER-LIGAND FREE ENERGY PREDICTED BY IDOCK:   -6.01 KCAL/MOL
REMARK 924 INTRA-LIGAND FREE ENERGY PREDICTED BY IDOCK:   -1.78 KCAL/MOL
REMARK 927      BINDING AFFINITY PREDICTED BY RF-SCORE:    0.00 PKD
ROOT
HETATM    1  C   UNL     1      -5.429  10.666  71.038  1.00  0.00    -0.088 C  
HETATM    2  C   UNL     1      -5.597   9.165  71.221  1.00  0.00    -0.051 C  
ENDROOT
BRANCH   2   3
HETATM    3  C   UNL     1      -5.509   8.771  72.695  1.00  0.00    -0.061 C  
BRANCH   3   4
HETATM    4  C   UNL     1      -6.883   8.414  73.276  1.00  0.00    -0.113 C  
BRANCH   4   5
HETATM    5  C   UNL     1      -7.519   7.267  72.488  1.00  0.00    -0.086 C  
BRANCH   5   6
HETATM    6  C   UNL     1      -9.040   7.346  72.408  1.00  0.00    -0.132 C  
BRANCH   6   7
HETATM    7  O   UNL     1      -9.552   8.394  71.581  1.00  0.00    -0.178 OA 
BRANCH   7   8
HETATM    8  C   UNL     1     -10.516   8.026  70.699  1.00  0.00    -0.210 C  
HETATM    9  O   UNL     1     -11.573   8.611  70.505  1.00  0.00    -0.243 OA 
BRANCH   8  10
HETATM   10  C   UNL     1      -9.958   7.009  69.761  1.00  0.00    -0.179 A  
HETATM   11  C   UNL     1     -10.475   5.708  69.936  1.00  0.00    -0.378 A  
HETATM   12  C   UNL     1     -10.102   4.660  69.094  1.00  0.00    -0.144 A  
HETATM   13  C   UNL     1      -9.168   4.885  68.090  1.00  0.00    -0.151 A  
HETATM   14  C   UNL     1      -8.635   6.161  67.909  1.00  0.00    -0.114 A  
HETATM   15  C   UNL     1      -9.062   7.245  68.700  1.00  0.00    -0.133 A  
BRANCH  15  16
HETATM   16  C   UNL     1      -8.462   8.571  68.417  1.00  0.00    -0.138 C  
HETATM   17  O   UNL     1      -7.268   8.719  68.678  1.00  0.00    -0.071 OA 
BRANCH  16  18
HETATM   18  C   UNL     1      -9.215   9.693  67.750  1.00  0.00    -0.135 A  
HETATM   19  C   UNL     1      -9.449   9.569  66.374  1.00  0.00    -0.251 A  
HETATM   20  C   UNL     1     -10.087  10.588  65.642  1.00  0.00    -0.333 A  
HETATM   21  C   UNL     1     -10.504  11.782  66.240  1.00  0.00    -0.244 A  
HETATM   22  O   UNL     1      -9.463  11.073  69.708  1.00  0.00    -0.285 OA 
HETATM   23  C   UNL     1     -10.305  11.875  67.629  1.00  0.00    -0.217 A  
HETATM   24  H   UNL     1      -9.766  11.868  70.129  1.00  0.00     0.000 HD 
HETATM   25  C   UNL     1      -9.662  10.864  68.370  1.00  0.00    -0.176 A  
BRANCH  21  26
HETATM   26  N   UNL     1     -11.086  12.828  65.528  1.00  0.00    -0.280 NA 
BRANCH  26  27
HETATM   27  C   UNL     1     -10.217  13.733  64.758  1.00  0.00    -0.335 C  
HETATM   28  C   UNL     1     -10.201  15.123  65.379  1.00  0.00    -0.402 C  
ENDBRANCH  26  27
BRANCH  26  29
HETATM   29  C   UNL     1     -12.505  12.810  65.144  1.00  0.00    -0.501 C  
HETATM   30  C   UNL     1     -12.640  12.746  63.630  1.00  0.00    -0.382 C  
ENDBRANCH  26  29
ENDBRANCH  21  26
ENDBRANCH  16  18
ENDBRANCH  15  16
ENDBRANCH   8  10
ENDBRANCH   7   8
ENDBRANCH   6   7
ENDBRANCH   5   6
ENDBRANCH   4   5
ENDBRANCH   3   4
ENDBRANCH   2   3
TORSDOF 12
ENDMDL
MODEL      216
REMARK 921   NORMALIZED FREE ENERGY PREDICTED BY IDOCK:   -3.42 KCAL/MOL
REMARK 922        TOTAL FREE ENERGY PREDICTED BY IDOCK:   -7.78 KCAL/MOL
REMARK 923 INTER-LIGAND FREE ENERGY PREDICTED BY IDOCK:   -5.04 KCAL/MOL
REMARK 924 INTRA-LIGAND FREE ENERGY PREDICTED BY IDOCK:   -2.74 KCAL/MOL
REMARK 927      BINDING AFFINITY PREDICTED BY RF-SCORE:    0.00 PKD
ROOT
HETATM    1  C   UNL     1      -9.539  10.124  68.178  1.00  0.00    -0.151 C  
HETATM    2  C   UNL     1      -8.560  10.599  69.242  1.00  0.00    -0.096 C  
ENDROOT
BRANCH   2   3
HETATM    3  C   UNL     1      -8.120   9.448  70.146  1.00  0.00    -0.167 C  
BRANCH   3   4
HETATM    4  C   UNL     1      -6.889   8.721  69.590  1.00  0.00    -0.046 C  
BRANCH   4   5
HETATM    5  C   UNL     1      -7.254   7.300  69.154  1.00  0.00    -0.085 C  
BRANCH   5   6
HETATM    6  C   UNL     1      -7.439   7.148  67.648  1.00  0.00    -0.101 C  
BRANCH   6   7
HETATM    7  O   UNL     1      -6.457   6.345  66.993  1.00  0.00    -0.042 OA 
BRANCH   7   8
HETATM    8  C   UNL     1      -6.705   5.010  66.979  1.00  0.00    -0.055 C  
HETATM    9  O   UNL     1      -6.339   4.203  67.822  1.00  0.00    -0.035 OA 
BRANCH   8  10
HETATM   10  C   UNL     1      -7.772   4.722  65.978  1.00  0.00    -0.091 A  
HETATM   11  C   UNL     1      -7.467   5.138  64.665  1.00  0.00    -0.072 A  
HETATM   12  C   UNL     1      -8.335   4.881  63.603  1.00  0.00    -0.126 A  
HETATM   13  C   UNL     1      -9.546   4.244  63.845  1.00  0.00    -0.102 A  
HETATM   14  C   UNL     1      -9.872   3.836  65.138  1.00  0.00    -0.161 A  
HETATM   15  C   UNL     1      -8.971   4.018  66.205  1.00  0.00    -0.130 A  
BRANCH  15  16
HETATM   16  C   UNL     1      -9.390   3.526  67.540  1.00  0.00    -0.206 C  
HETATM   17  O   UNL     1      -9.242   2.327  67.771  1.00  0.00    -0.166 OA 
BRANCH  16  18
HETATM   18  C   UNL     1      -9.892   4.432  68.634  1.00  0.00    -0.141 A  
HETATM   19  C   UNL     1     -10.690   5.515  68.243  1.00  0.00    -0.155 A  
HETATM   20  C   UNL     1     -11.159   6.459  69.177  1.00  0.00    -0.428 A  
HETATM   21  C   UNL     1     -10.841   6.377  70.537  1.00  0.00    -0.279 A  
HETATM   22  O   UNL     1      -8.816   3.294  70.463  1.00  0.00    -0.071 OA 
HETATM   23  C   UNL     1     -10.079   5.261  70.924  1.00  0.00    -0.295 A  
HETATM   24  H   UNL     1      -8.618   3.214  71.388  1.00  0.00     0.000 HD 
HETATM   25  C   UNL     1      -9.599   4.315  69.996  1.00  0.00    -0.204 A  
BRANCH  21  26
HETATM   26  N   UNL     1     -11.245   7.327  71.472  1.00  0.00    -0.242 NA 
BRANCH  26  27
HETATM   27  C   UNL     1     -10.946   7.095  72.895  1.00  0.00    -0.320 C  
HETATM   28  C   UNL     1      -9.655   7.796  73.295  1.00  0.00    -0.346 C  
ENDBRANCH  26  27
BRANCH  26  29
HETATM   29  C   UNL     1     -11.537   8.716  71.090  1.00  0.00    -0.281 C  
HETATM   30  C   UNL     1     -12.782   9.210  71.811  1.00  0.00    -0.446 C  
ENDBRANCH  26  29
ENDBRANCH  21  26
ENDBRANCH  16  18
ENDBRANCH  15  16
ENDBRANCH   8  10
ENDBRANCH   7   8
ENDBRANCH   6   7
ENDBRANCH   5   6
ENDBRANCH   4   5
ENDBRANCH   3   4
ENDBRANCH   2   3
TORSDOF 12
ENDMDL
MODEL      217
REMARK 921   NORMALIZED FREE ENERGY PREDICTED BY IDOCK:   -3.41 KCAL/MOL
REMARK 922        TOTAL FREE ENERGY PREDICTED BY IDOCK:   -7.77 KCAL/MOL
REMARK 923 INTER-LIGAND FREE ENERGY PREDICTED BY IDOCK:   -6.17 KCAL/MOL
REMARK 924 INTRA-LIGAND FREE ENERGY PREDICTED BY IDOCK:   -1.60 KCAL/MOL
REMARK 927      BINDING AFFINITY PREDICTED BY RF-SCORE:    0.00 PKD
ROOT
HETATM    1  C   UNL     1      -9.303   2.455  70.886  1.00  0.00    -0.213 C  
HETATM    2  C   UNL     1      -8.258   1.496  70.335  1.00  0.00    -0.057 C  
ENDROOT
BRANCH   2   3
HETATM    3  C   UNL     1      -8.150   1.606  68.814  1.00  0.00    -0.061 C  
BRANCH   3   4
HETATM    4  C   UNL     1      -9.349   2.345  68.206  1.00  0.00    -0.265 C  
BRANCH   4   5
HETATM    5  C   UNL     1      -8.898   3.648  67.543  1.00  0.00    -0.145 C  
BRANCH   5   6
HETATM    6  C   UNL     1      -9.991   4.708  67.465  1.00  0.00    -0.121 C  
BRANCH   6   7
HETATM    7  O   UNL     1      -9.570   6.039  67.771  1.00  0.00    -0.112 OA 
BRANCH   7   8
HETATM    8  C   UNL     1      -9.987   6.999  66.907  1.00  0.00    -0.217 C  
HETATM    9  O   UNL     1     -11.116   7.465  66.840  1.00  0.00    -0.236 OA 
BRANCH   8  10
HETATM   10  C   UNL     1      -8.796   7.646  66.285  1.00  0.00    -0.182 A  
HETATM   11  C   UNL     1      -8.232   6.922  65.213  1.00  0.00    -0.129 A  
HETATM   12  C   UNL     1      -7.154   7.427  64.485  1.00  0.00    -0.061 A  
HETATM   13  C   UNL     1      -6.590   8.644  64.848  1.00  0.00    -0.068 A  
HETATM   14  C   UNL     1      -7.125   9.369  65.912  1.00  0.00    -0.091 A  
HETATM   15  C   UNL     1      -8.262   8.910  66.605  1.00  0.00    -0.111 A  
BRANCH  15  16
HETATM   16  C   UNL     1      -8.778   9.761  67.704  1.00  0.00    -0.125 C  
HETATM   17  O   UNL     1      -8.582   9.376  68.856  1.00  0.00    -0.125 OA 
BRANCH  16  18
HETATM   18  C   UNL     1      -9.439  11.095  67.474  1.00  0.00    -0.178 A  
HETATM   19  C   UNL     1      -8.594  12.188  67.237  1.00  0.00    -0.180 A  
HETATM   20  C   UNL     1      -9.104  13.490  67.073  1.00  0.00    -0.248 A  
HETATM   21  C   UNL     1     -10.474  13.767  67.156  1.00  0.00    -0.272 A  
HETATM   22  O   UNL     1     -11.709  10.343  67.760  1.00  0.00    -0.677 OA 
HETATM   23  C   UNL     1     -11.314  12.656  67.348  1.00  0.00    -0.367 A  
HETATM   24  H   UNL     1     -12.642  10.516  67.791  1.00  0.00     0.000 HD 
HETATM   25  C   UNL     1     -10.813  11.350  67.520  1.00  0.00    -0.244 A  
BRANCH  21  26
HETATM   26  N   UNL     1     -10.998  15.053  67.054  1.00  0.00    -0.313 NA 
BRANCH  26  27
HETATM   27  C   UNL     1     -11.575  15.681  68.254  1.00  0.00    -0.319 C  
HETATM   28  C   UNL     1     -10.658  16.773  68.784  1.00  0.00    -0.348 C  
ENDBRANCH  26  27
BRANCH  26  29
HETATM   29  C   UNL     1     -10.612  15.964  65.968  1.00  0.00    -0.323 C  
HETATM   30  C   UNL     1     -11.270  15.538  64.664  1.00  0.00    -0.381 C  
ENDBRANCH  26  29
ENDBRANCH  21  26
ENDBRANCH  16  18
ENDBRANCH  15  16
ENDBRANCH   8  10
ENDBRANCH   7   8
ENDBRANCH   6   7
ENDBRANCH   5   6
ENDBRANCH   4   5
ENDBRANCH   3   4
ENDBRANCH   2   3
TORSDOF 12
ENDMDL
MODEL      218
REMARK 921   NORMALIZED FREE ENERGY PREDICTED BY IDOCK:   -3.41 KCAL/MOL
REMARK 922        TOTAL FREE ENERGY PREDICTED BY IDOCK:   -7.77 KCAL/MOL
REMARK 923 INTER-LIGAND FREE ENERGY PREDICTED BY IDOCK:   -6.76 KCAL/MOL
REMARK 924 INTRA-LIGAND FREE ENERGY PREDICTED BY IDOCK:   -1.01 KCAL/MOL
REMARK 927      BINDING AFFINITY PREDICTED BY RF-SCORE:    0.00 PKD
ROOT
HETATM    1  C   UNL     1     -11.556  14.879  67.600  1.00  0.00    -0.357 C  
HETATM    2  C   UNL     1     -11.853  13.599  68.368  1.00  0.00    -0.407 C  
ENDROOT
BRANCH   2   3
HETATM    3  C   UNL     1     -11.688  12.367  67.479  1.00  0.00    -0.425 C  
BRANCH   3   4
HETATM    4  C   UNL     1     -11.956  12.685  66.003  1.00  0.00    -0.478 C  
BRANCH   4   5
HETATM    5  C   UNL     1     -11.070  11.827  65.098  1.00  0.00    -0.341 C  
BRANCH   5   6
HETATM    6  C   UNL     1     -10.026  11.013  65.854  1.00  0.00    -0.240 C  
BRANCH   6   7
HETATM    7  O   UNL     1      -9.797   9.697  65.347  1.00  0.00    -0.315 OA 
BRANCH   7   8
HETATM    8  C   UNL     1      -9.801   8.703  66.272  1.00  0.00    -0.249 C  
HETATM    9  O   UNL     1     -10.720   8.435  67.034  1.00  0.00    -0.289 OA 
BRANCH   8  10
HETATM   10  C   UNL     1      -8.668   7.774  65.996  1.00  0.00    -0.184 A  
HETATM   11  C   UNL     1      -7.511   8.400  65.485  1.00  0.00    -0.085 A  
HETATM   12  C   UNL     1      -6.344   7.676  65.239  1.00  0.00    -0.038 A  
HETATM   13  C   UNL     1      -6.330   6.303  65.453  1.00  0.00    -0.038 A  
HETATM   14  C   UNL     1      -7.466   5.663  65.946  1.00  0.00    -0.078 A  
HETATM   15  C   UNL     1      -8.625   6.394  66.274  1.00  0.00    -0.140 A  
BRANCH  15  16
HETATM   16  C   UNL     1      -9.776   5.633  66.820  1.00  0.00    -0.154 C  
HETATM   17  O   UNL     1     -10.607   5.213  66.015  1.00  0.00    -0.252 OA 
BRANCH  16  18
HETATM   18  C   UNL     1      -9.918   5.283  68.278  1.00  0.00    -0.214 A  
HETATM   19  C   UNL     1     -10.760   6.097  69.046  1.00  0.00    -0.377 A  
HETATM   20  C   UNL     1     -10.914   5.897  70.431  1.00  0.00    -0.376 A  
HETATM   21  C   UNL     1     -10.225   4.890  71.117  1.00  0.00    -0.191 A  
HETATM   22  O   UNL     1      -8.401   3.412  68.270  1.00  0.00    -0.079 OA 
HETATM   23  C   UNL     1      -9.419   4.051  70.327  1.00  0.00    -0.255 A  
HETATM   24  H   UNL     1      -7.949   2.709  68.722  1.00  0.00     0.000 HD 
HETATM   25  C   UNL     1      -9.253   4.247  68.942  1.00  0.00    -0.145 A  
BRANCH  21  26
HETATM   26  N   UNL     1     -10.316   4.707  72.494  1.00  0.00    -0.194 NA 
BRANCH  26  27
HETATM   27  C   UNL     1      -9.254   3.954  73.182  1.00  0.00    -0.106 C  
HETATM   28  C   UNL     1      -9.841   2.791  73.968  1.00  0.00    -0.143 C  
ENDBRANCH  26  27
BRANCH  26  29
HETATM   29  C   UNL     1     -11.143   5.580  73.340  1.00  0.00    -0.228 C  
HETATM   30  C   UNL     1     -10.263   6.543  74.122  1.00  0.00    -0.380 C  
ENDBRANCH  26  29
ENDBRANCH  21  26
ENDBRANCH  16  18
ENDBRANCH  15  16
ENDBRANCH   8  10
ENDBRANCH   7   8
ENDBRANCH   6   7
ENDBRANCH   5   6
ENDBRANCH   4   5
ENDBRANCH   3   4
ENDBRANCH   2   3
TORSDOF 12
ENDMDL
MODEL      219
REMARK 921   NORMALIZED FREE ENERGY PREDICTED BY IDOCK:   -3.39 KCAL/MOL
REMARK 922        TOTAL FREE ENERGY PREDICTED BY IDOCK:   -7.74 KCAL/MOL
REMARK 923 INTER-LIGAND FREE ENERGY PREDICTED BY IDOCK:   -6.42 KCAL/MOL
REMARK 924 INTRA-LIGAND FREE ENERGY PREDICTED BY IDOCK:   -1.32 KCAL/MOL
REMARK 927      BINDING AFFINITY PREDICTED BY RF-SCORE:    0.00 PKD
ROOT
HETATM    1  C   UNL     1      -9.497   5.728  66.337  1.00  0.00    -0.172 C  
HETATM    2  C   UNL     1      -8.032   5.849  65.943  1.00  0.00    -0.109 C  
ENDROOT
BRANCH   2   3
HETATM    3  C   UNL     1      -7.873   6.581  64.611  1.00  0.00    -0.112 C  
BRANCH   3   4
HETATM    4  C   UNL     1      -7.224   7.959  64.789  1.00  0.00    -0.074 C  
BRANCH   4   5
HETATM    5  C   UNL     1      -7.996   9.023  64.006  1.00  0.00    -0.145 C  
BRANCH   5   6
HETATM    6  C   UNL     1      -9.266   9.498  64.704  1.00  0.00    -0.185 C  
BRANCH   6   7
HETATM    7  O   UNL     1      -9.130   9.761  66.102  1.00  0.00    -0.149 OA 
BRANCH   7   8
HETATM    8  C   UNL     1      -8.802  11.037  66.428  1.00  0.00    -0.177 C  
HETATM    9  O   UNL     1      -7.983  11.739  65.852  1.00  0.00     0.239 OA 
BRANCH   8  10
HETATM   10  C   UNL     1      -9.824  11.578  67.371  1.00  0.00    -0.202 A  
HETATM   11  C   UNL     1     -11.005  10.809  67.455  1.00  0.00    -0.361 A  
HETATM   12  C   UNL     1     -12.028  11.147  68.341  1.00  0.00    -0.211 A  
HETATM   13  C   UNL     1     -11.909  12.288  69.125  1.00  0.00    -0.355 A  
HETATM   14  C   UNL     1     -10.756  13.068  69.048  1.00  0.00    -0.138 A  
HETATM   15  C   UNL     1      -9.682  12.695  68.216  1.00  0.00    -0.216 A  
BRANCH  15  16
HETATM   16  C   UNL     1      -8.484  13.570  68.220  1.00  0.00    -0.168 C  
HETATM   17  O   UNL     1      -7.430  13.082  68.627  1.00  0.00    -0.115 OA 
BRANCH  16  18
HETATM   18  C   UNL     1      -8.484  14.973  67.672  1.00  0.00    -0.170 A  
HETATM   19  C   UNL     1      -8.080  15.994  68.543  1.00  0.00    -0.169 A  
HETATM   20  C   UNL     1      -8.104  17.346  68.153  1.00  0.00    -0.232 A  
HETATM   21  C   UNL     1      -8.546  17.746  66.886  1.00  0.00    -0.244 A  
HETATM   22  O   UNL     1      -9.312  14.422  65.479  1.00  0.00    -0.511 OA 
HETATM   23  C   UNL     1      -8.904  16.710  66.006  1.00  0.00    -0.242 A  
HETATM   24  H   UNL     1      -9.588  14.681  64.608  1.00  0.00     0.000 HD 
HETATM   25  C   UNL     1      -8.890  15.353  66.389  1.00  0.00    -0.305 A  
BRANCH  21  26
HETATM   26  N   UNL     1      -8.632  19.080  66.496  1.00  0.00    -0.303 NA 
BRANCH  26  27
HETATM   27  C   UNL     1      -7.411  19.768  66.048  1.00  0.00    -0.307 C  
HETATM   28  C   UNL     1      -7.035  20.883  67.013  1.00  0.00    -0.393 C  
ENDBRANCH  26  27
BRANCH  26  29
HETATM   29  C   UNL     1      -9.906  19.687  66.084  1.00  0.00    -0.436 C  
HETATM   30  C   UNL     1     -10.930  19.571  67.203  1.00  0.00    -0.459 C  
ENDBRANCH  26  29
ENDBRANCH  21  26
ENDBRANCH  16  18
ENDBRANCH  15  16
ENDBRANCH   8  10
ENDBRANCH   7   8
ENDBRANCH   6   7
ENDBRANCH   5   6
ENDBRANCH   4   5
ENDBRANCH   3   4
ENDBRANCH   2   3
TORSDOF 12
ENDMDL
MODEL      220
REMARK 921   NORMALIZED FREE ENERGY PREDICTED BY IDOCK:   -3.38 KCAL/MOL
REMARK 922        TOTAL FREE ENERGY PREDICTED BY IDOCK:   -7.72 KCAL/MOL
REMARK 923 INTER-LIGAND FREE ENERGY PREDICTED BY IDOCK:   -6.09 KCAL/MOL
REMARK 924 INTRA-LIGAND FREE ENERGY PREDICTED BY IDOCK:   -1.63 KCAL/MOL
REMARK 927      BINDING AFFINITY PREDICTED BY RF-SCORE:    0.00 PKD
ROOT
HETATM    1  C   UNL     1     -11.333  15.023  65.282  1.00  0.00    -0.349 C  
HETATM    2  C   UNL     1     -12.101  14.058  66.172  1.00  0.00    -0.471 C  
ENDROOT
BRANCH   2   3
HETATM    3  C   UNL     1     -12.144  12.656  65.566  1.00  0.00    -0.515 C  
BRANCH   3   4
HETATM    4  C   UNL     1     -11.973  12.685  64.042  1.00  0.00    -0.530 C  
BRANCH   4   5
HETATM    5  C   UNL     1     -11.179  11.467  63.566  1.00  0.00    -0.412 C  
BRANCH   5   6
HETATM    6  C   UNL     1      -9.868  11.256  64.316  1.00  0.00    -0.273 C  
BRANCH   6   7
HETATM    7  O   UNL     1      -9.709   9.967  64.912  1.00  0.00    -0.296 OA 
BRANCH   7   8
HETATM    8  C   UNL     1      -9.392   9.967  66.232  1.00  0.00    -0.168 C  
HETATM    9  O   UNL     1     -10.187   9.988  67.162  1.00  0.00    -0.203 OA 
BRANCH   8  10
HETATM   10  C   UNL     1      -7.957   9.593  66.390  1.00  0.00    -0.108 A  
HETATM   11  C   UNL     1      -7.050  10.649  66.157  1.00  0.00    -0.138 A  
HETATM   12  C   UNL     1      -5.677  10.476  66.329  1.00  0.00    -0.085 A  
HETATM   13  C   UNL     1      -5.181   9.229  66.690  1.00  0.00    -0.037 A  
HETATM   14  C   UNL     1      -6.060   8.169  66.913  1.00  0.00    -0.054 A  
HETATM   15  C   UNL     1      -7.453   8.350  66.820  1.00  0.00    -0.083 A  
BRANCH  15  16
HETATM   16  C   UNL     1      -8.312   7.174  67.103  1.00  0.00    -0.118 C  
HETATM   17  O   UNL     1      -8.717   6.527  66.138  1.00  0.00    -0.139 OA 
BRANCH  16  18
HETATM   18  C   UNL     1      -8.625   6.696  68.496  1.00  0.00    -0.124 A  
HETATM   19  C   UNL     1      -7.626   5.970  69.157  1.00  0.00    -0.090 A  
HETATM   20  C   UNL     1      -7.838   5.422  70.437  1.00  0.00    -0.088 A  
HETATM   21  C   UNL     1      -9.058   5.557  71.109  1.00  0.00    -0.142 A  
HETATM   22  O   UNL     1     -10.872   7.559  68.595  1.00  0.00    -0.390 OA 
HETATM   23  C   UNL     1     -10.037   6.327  70.455  1.00  0.00    -0.230 A  
HETATM   24  H   UNL     1     -11.694   7.679  69.054  1.00  0.00     0.000 HD 
HETATM   25  C   UNL     1      -9.837   6.873  69.172  1.00  0.00    -0.156 A  
BRANCH  21  26
HETATM   26  N   UNL     1      -9.313   4.979  72.349  1.00  0.00    -0.136 NA 
BRANCH  26  27
HETATM   27  C   UNL     1     -10.077   5.745  73.347  1.00  0.00    -0.195 C  
HETATM   28  C   UNL     1     -10.478   4.858  74.517  1.00  0.00    -0.291 C  
ENDBRANCH  26  27
BRANCH  26  29
HETATM   29  C   UNL     1      -9.260   3.524  72.552  1.00  0.00    -0.102 C  
HETATM   30  C   UNL     1      -9.829   2.802  71.340  1.00  0.00    -0.165 C  
ENDBRANCH  26  29
ENDBRANCH  21  26
ENDBRANCH  16  18
ENDBRANCH  15  16
ENDBRANCH   8  10
ENDBRANCH   7   8
ENDBRANCH   6   7
ENDBRANCH   5   6
ENDBRANCH   4   5
ENDBRANCH   3   4
ENDBRANCH   2   3
TORSDOF 12
ENDMDL
MODEL      221
REMARK 921   NORMALIZED FREE ENERGY PREDICTED BY IDOCK:   -3.37 KCAL/MOL
REMARK 922        TOTAL FREE ENERGY PREDICTED BY IDOCK:   -7.70 KCAL/MOL
REMARK 923 INTER-LIGAND FREE ENERGY PREDICTED BY IDOCK:   -7.05 KCAL/MOL
REMARK 924 INTRA-LIGAND FREE ENERGY PREDICTED BY IDOCK:   -0.65 KCAL/MOL
REMARK 927      BINDING AFFINITY PREDICTED BY RF-SCORE:    0.00 PKD
ROOT
HETATM    1  C   UNL     1      -7.066  11.733  66.636  1.00  0.00     0.026 C  
HETATM    2  C   UNL     1      -7.862  10.772  65.766  1.00  0.00    -0.106 C  
ENDROOT
BRANCH   2   3
HETATM    3  C   UNL     1      -8.600   9.736  66.613  1.00  0.00    -0.134 C  
BRANCH   3   4
HETATM    4  C   UNL     1     -10.121   9.834  66.443  1.00  0.00    -0.313 C  
BRANCH   4   5
HETATM    5  C   UNL     1     -10.520  11.233  65.968  1.00  0.00    -0.310 C  
BRANCH   5   6
HETATM    6  C   UNL     1     -11.771  11.780  66.649  1.00  0.00    -0.093 C  
BRANCH   6   7
HETATM    7  O   UNL     1     -11.546  12.861  67.556  1.00  0.00    -0.313 OA 
BRANCH   7   8
HETATM    8  C   UNL     1     -10.711  12.592  68.592  1.00  0.00    -0.234 C  
HETATM    9  O   UNL     1      -9.614  13.099  68.781  1.00  0.00    -0.078 OA 
BRANCH   8  10
HETATM   10  C   UNL     1     -11.463  11.851  69.645  1.00  0.00    -0.337 A  
HETATM   11  C   UNL     1     -11.085  10.499  69.790  1.00  0.00    -0.354 A  
HETATM   12  C   UNL     1     -11.649   9.690  70.777  1.00  0.00    -0.395 A  
HETATM   13  C   UNL     1     -12.637  10.207  71.606  1.00  0.00    -0.533 A  
HETATM   14  C   UNL     1     -13.034  11.537  71.472  1.00  0.00    -0.485 A  
HETATM   15  C   UNL     1     -12.418  12.386  70.533  1.00  0.00    -0.270 A  
BRANCH  15  16
HETATM   16  C   UNL     1     -12.884  13.793  70.480  1.00  0.00    -0.142 C  
HETATM   17  O   UNL     1     -14.032  14.022  70.858  1.00  0.00     0.011 OA 
BRANCH  16  18
HETATM   18  C   UNL     1     -11.997  14.943  70.077  1.00  0.00    -0.377 A  
HETATM   19  C   UNL     1     -12.103  15.391  68.754  1.00  0.00    -0.183 A  
HETATM   20  C   UNL     1     -11.276  16.416  68.257  1.00  0.00    -0.300 A  
HETATM   21  C   UNL     1     -10.296  17.029  69.047  1.00  0.00    -0.330 A  
HETATM   22  O   UNL     1     -10.872  15.188  72.192  1.00  0.00    -0.356 OA 
HETATM   23  C   UNL     1     -10.231  16.602  70.385  1.00  0.00     0.796 A  
HETATM   24  H   UNL     1     -10.228  15.616  72.744  1.00  0.00     0.000 HD 
HETATM   25  C   UNL     1     -11.050  15.572  70.891  1.00  0.00    -0.348 A  
BRANCH  21  26
HETATM   26  N   UNL     1      -9.428  18.005  68.564  1.00  0.00    -0.311 NA 
BRANCH  26  27
HETATM   27  C   UNL     1      -9.776  19.422  68.756  1.00  0.00    -0.449 C  
HETATM   28  C   UNL     1     -10.286  20.033  67.459  1.00  0.00    -0.519 C  
ENDBRANCH  26  27
BRANCH  26  29
HETATM   29  C   UNL     1      -8.013  17.717  68.287  1.00  0.00    -0.272 C  
HETATM   30  C   UNL     1      -7.135  18.844  68.807  1.00  0.00    -0.342 C  
ENDBRANCH  26  29
ENDBRANCH  21  26
ENDBRANCH  16  18
ENDBRANCH  15  16
ENDBRANCH   8  10
ENDBRANCH   7   8
ENDBRANCH   6   7
ENDBRANCH   5   6
ENDBRANCH   4   5
ENDBRANCH   3   4
ENDBRANCH   2   3
TORSDOF 12
ENDMDL
MODEL      222
REMARK 921   NORMALIZED FREE ENERGY PREDICTED BY IDOCK:   -3.37 KCAL/MOL
REMARK 922        TOTAL FREE ENERGY PREDICTED BY IDOCK:   -7.70 KCAL/MOL
REMARK 923 INTER-LIGAND FREE ENERGY PREDICTED BY IDOCK:   -5.31 KCAL/MOL
REMARK 924 INTRA-LIGAND FREE ENERGY PREDICTED BY IDOCK:   -2.39 KCAL/MOL
REMARK 927      BINDING AFFINITY PREDICTED BY RF-SCORE:    0.00 PKD
ROOT
HETATM    1  C   UNL     1      -7.860   3.334  65.809  1.00  0.00    -0.085 C  
HETATM    2  C   UNL     1      -8.003   4.280  66.992  1.00  0.00    -0.097 C  
ENDROOT
BRANCH   2   3
HETATM    3  C   UNL     1      -8.080   5.736  66.533  1.00  0.00    -0.102 C  
BRANCH   3   4
HETATM    4  C   UNL     1      -6.726   6.447  66.652  1.00  0.00    -0.060 C  
BRANCH   4   5
HETATM    5  C   UNL     1      -6.853   7.917  66.248  1.00  0.00    -0.058 C  
BRANCH   5   6
HETATM    6  C   UNL     1      -6.205   8.883  67.234  1.00  0.00    -0.059 C  
BRANCH   6   7
HETATM    7  O   UNL     1      -7.055   9.928  67.709  1.00  0.00    -0.085 OA 
BRANCH   7   8
HETATM    8  C   UNL     1      -7.610  10.713  66.751  1.00  0.00    -0.120 C  
HETATM    9  O   UNL     1      -7.248  10.789  65.585  1.00  0.00    -0.114 OA 
BRANCH   8  10
HETATM   10  C   UNL     1      -8.932  11.209  67.231  1.00  0.00    -0.147 A  
HETATM   11  C   UNL     1      -8.979  12.597  67.481  1.00  0.00    -0.187 A  
HETATM   12  C   UNL     1     -10.163  13.224  67.872  1.00  0.00    -0.233 A  
HETATM   13  C   UNL     1     -11.310  12.465  68.067  1.00  0.00    -0.340 A  
HETATM   14  C   UNL     1     -11.281  11.089  67.838  1.00  0.00    -0.375 A  
HETATM   15  C   UNL     1     -10.115  10.456  67.367  1.00  0.00    -0.237 A  
BRANCH  15  16
HETATM   16  C   UNL     1     -10.186   8.995  67.123  1.00  0.00    -0.265 C  
HETATM   17  O   UNL     1     -10.159   8.616  65.953  1.00  0.00    -0.102 OA 
BRANCH  16  18
HETATM   18  C   UNL     1     -10.196   7.973  68.230  1.00  0.00    -0.243 A  
HETATM   19  C   UNL     1      -9.389   8.237  69.344  1.00  0.00    -0.155 A  
HETATM   20  C   UNL     1      -9.276   7.318  70.405  1.00  0.00    -0.158 A  
HETATM   21  C   UNL     1      -9.946   6.089  70.397  1.00  0.00    -0.184 A  
HETATM   22  O   UNL     1     -11.706   6.423  67.172  1.00  0.00    -0.602 OA 
HETATM   23  C   UNL     1     -10.789   5.856  69.296  1.00  0.00    -0.414 A  
HETATM   24  H   UNL     1     -12.186   5.603  67.170  1.00  0.00     0.000 HD 
HETATM   25  C   UNL     1     -10.904   6.766  68.226  1.00  0.00    -0.226 A  
BRANCH  21  26
HETATM   26  N   UNL     1      -9.807   5.140  71.407  1.00  0.00    -0.171 NA 
BRANCH  26  27
HETATM   27  C   UNL     1      -8.461   4.641  71.731  1.00  0.00    -0.113 C  
HETATM   28  C   UNL     1      -7.934   3.748  70.615  1.00  0.00    -0.055 C  
ENDBRANCH  26  27
BRANCH  26  29
HETATM   29  C   UNL     1     -10.834   4.950  72.441  1.00  0.00    -0.137 C  
HETATM   30  C   UNL     1     -11.221   6.289  73.050  1.00  0.00    -0.187 C  
ENDBRANCH  26  29
ENDBRANCH  21  26
ENDBRANCH  16  18
ENDBRANCH  15  16
ENDBRANCH   8  10
ENDBRANCH   7   8
ENDBRANCH   6   7
ENDBRANCH   5   6
ENDBRANCH   4   5
ENDBRANCH   3   4
ENDBRANCH   2   3
TORSDOF 12
ENDMDL
MODEL      223
REMARK 921   NORMALIZED FREE ENERGY PREDICTED BY IDOCK:   -3.34 KCAL/MOL
REMARK 922        TOTAL FREE ENERGY PREDICTED BY IDOCK:   -7.64 KCAL/MOL
REMARK 923 INTER-LIGAND FREE ENERGY PREDICTED BY IDOCK:   -5.68 KCAL/MOL
REMARK 924 INTRA-LIGAND FREE ENERGY PREDICTED BY IDOCK:   -1.96 KCAL/MOL
REMARK 927      BINDING AFFINITY PREDICTED BY RF-SCORE:    0.00 PKD
ROOT
HETATM    1  C   UNL     1     -12.275  12.739  70.309  1.00  0.00    -0.351 C  
HETATM    2  C   UNL     1     -11.355  11.592  69.918  1.00  0.00    -0.230 C  
ENDROOT
BRANCH   2   3
HETATM    3  C   UNL     1     -11.651  11.102  68.501  1.00  0.00    -0.385 C  
BRANCH   3   4
HETATM    4  C   UNL     1     -11.711  12.259  67.495  1.00  0.00    -0.402 C  
BRANCH   4   5
HETATM    5  C   UNL     1     -10.408  12.347  66.697  1.00  0.00    -0.245 C  
BRANCH   5   6
HETATM    6  C   UNL     1      -9.448  11.191  66.958  1.00  0.00    -0.177 C  
BRANCH   6   7
HETATM    7  O   UNL     1      -9.427  10.179  65.950  1.00  0.00    -0.172 OA 
BRANCH   7   8
HETATM    8  C   UNL     1      -9.585   8.906  66.395  1.00  0.00    -0.238 C  
HETATM    9  O   UNL     1     -10.623   8.414  66.815  1.00  0.00    -0.295 OA 
BRANCH   8  10
HETATM   10  C   UNL     1      -8.404   8.094  65.980  1.00  0.00    -0.132 A  
HETATM   11  C   UNL     1      -8.528   7.491  64.710  1.00  0.00     0.067 A  
HETATM   12  C   UNL     1      -7.483   6.755  64.152  1.00  0.00    -0.094 A  
HETATM   13  C   UNL     1      -6.312   6.568  64.876  1.00  0.00    -0.041 A  
HETATM   14  C   UNL     1      -6.174   7.144  66.139  1.00  0.00    -0.040 A  
HETATM   15  C   UNL     1      -7.190   7.955  66.680  1.00  0.00    -0.084 A  
BRANCH  15  16
HETATM   16  C   UNL     1      -6.944   8.551  68.016  1.00  0.00    -0.074 C  
HETATM   17  O   UNL     1      -6.046   9.387  68.105  1.00  0.00    -0.051 OA 
BRANCH  16  18
HETATM   18  C   UNL     1      -7.793   8.249  69.224  1.00  0.00    -0.108 A  
HETATM   19  C   UNL     1      -8.255   6.933  69.360  1.00  0.00    -0.131 A  
HETATM   20  C   UNL     1      -9.106   6.558  70.417  1.00  0.00    -0.156 A  
HETATM   21  C   UNL     1      -9.551   7.477  71.374  1.00  0.00    -0.155 A  
HETATM   22  O   UNL     1      -7.801  10.479  70.132  1.00  0.00    -0.394 OA 
HETATM   23  C   UNL     1      -9.043   8.783  71.253  1.00  0.00    -0.300 A  
HETATM   24  H   UNL     1      -8.075  11.104  70.792  1.00  0.00     0.000 HD 
HETATM   25  C   UNL     1      -8.196   9.170  70.195  1.00  0.00    -0.155 A  
BRANCH  21  26
HETATM   26  N   UNL     1     -10.437   7.145  72.395  1.00  0.00    -0.210 NA 
BRANCH  26  27
HETATM   27  C   UNL     1     -11.357   6.013  72.196  1.00  0.00    -0.299 C  
HETATM   28  C   UNL     1     -11.265   5.033  73.357  1.00  0.00    -0.391 C  
ENDBRANCH  26  27
BRANCH  26  29
HETATM   29  C   UNL     1     -10.205   7.553  73.788  1.00  0.00    -0.182 C  
HETATM   30  C   UNL     1      -8.777   7.229  74.200  1.00  0.00    -0.253 C  
ENDBRANCH  26  29
ENDBRANCH  21  26
ENDBRANCH  16  18
ENDBRANCH  15  16
ENDBRANCH   8  10
ENDBRANCH   7   8
ENDBRANCH   6   7
ENDBRANCH   5   6
ENDBRANCH   4   5
ENDBRANCH   3   4
ENDBRANCH   2   3
TORSDOF 12
ENDMDL
MODEL      224
REMARK 921   NORMALIZED FREE ENERGY PREDICTED BY IDOCK:   -3.34 KCAL/MOL
REMARK 922        TOTAL FREE ENERGY PREDICTED BY IDOCK:   -7.64 KCAL/MOL
REMARK 923 INTER-LIGAND FREE ENERGY PREDICTED BY IDOCK:   -6.26 KCAL/MOL
REMARK 924 INTRA-LIGAND FREE ENERGY PREDICTED BY IDOCK:   -1.38 KCAL/MOL
REMARK 927      BINDING AFFINITY PREDICTED BY RF-SCORE:    0.00 PKD
ROOT
HETATM    1  C   UNL     1      -6.598   2.647  67.334  1.00  0.00    -0.036 C  
HETATM    2  C   UNL     1      -7.168   4.043  67.126  1.00  0.00    -0.068 C  
ENDROOT
BRANCH   2   3
HETATM    3  C   UNL     1      -8.572   3.985  66.524  1.00  0.00    -0.110 C  
BRANCH   3   4
HETATM    4  C   UNL     1      -9.654   4.316  67.561  1.00  0.00    -0.217 C  
BRANCH   4   5
HETATM    5  C   UNL     1     -10.446   5.554  67.135  1.00  0.00    -0.321 C  
BRANCH   5   6
HETATM    6  C   UNL     1     -10.663   6.561  68.260  1.00  0.00    -0.278 C  
BRANCH   6   7
HETATM    7  O   UNL     1     -11.644   6.188  69.229  1.00  0.00    -0.329 OA 
BRANCH   7   8
HETATM    8  C   UNL     1     -11.247   6.265  70.525  1.00  0.00    -0.354 C  
HETATM    9  O   UNL     1     -10.222   5.789  70.992  1.00  0.00    -0.199 OA 
BRANCH   8  10
HETATM   10  C   UNL     1     -12.061   7.301  71.224  1.00  0.00    -0.373 A  
HETATM   11  C   UNL     1     -13.385   6.906  71.512  1.00  0.00    -0.303 A  
HETATM   12  C   UNL     1     -14.252   7.738  72.221  1.00  0.00    -0.221 A  
HETATM   13  C   UNL     1     -13.824   9.001  72.613  1.00  0.00    -0.414 A  
HETATM   14  C   UNL     1     -12.524   9.415  72.327  1.00  0.00    -0.338 A  
HETATM   15  C   UNL     1     -11.614   8.555  71.682  1.00  0.00    -0.364 A  
BRANCH  15  16
HETATM   16  C   UNL     1     -10.243   9.071  71.445  1.00  0.00    -0.329 C  
HETATM   17  O   UNL     1      -9.464   9.061  72.397  1.00  0.00    -0.270 OA 
BRANCH  16  18
HETATM   18  C   UNL     1      -9.748   9.510  70.091  1.00  0.00    -0.289 A  
HETATM   19  C   UNL     1      -8.505   9.013  69.680  1.00  0.00    -0.128 A  
HETATM   20  C   UNL     1      -7.921   9.410  68.462  1.00  0.00    -0.093 A  
HETATM   21  C   UNL     1      -8.538  10.331  67.608  1.00  0.00    -0.118 A  
HETATM   22  O   UNL     1     -11.609  10.944  69.559  1.00  0.00    -0.258 OA 
HETATM   23  C   UNL     1      -9.806  10.786  68.010  1.00  0.00    -0.180 A  
HETATM   24  H   UNL     1     -12.048  11.549  68.974  1.00  0.00     0.000 HD 
HETATM   25  C   UNL     1     -10.396  10.401  69.230  1.00  0.00    -0.230 A  
BRANCH  21  26
HETATM   26  N   UNL     1      -7.957  10.782  66.425  1.00  0.00    -0.146 NA 
BRANCH  26  27
HETATM   27  C   UNL     1      -8.758  11.613  65.513  1.00  0.00     0.192 C  
HETATM   28  C   UNL     1      -9.484  10.748  64.493  1.00  0.00    -0.297 C  
ENDBRANCH  26  27
BRANCH  26  29
HETATM   29  C   UNL     1      -6.498  10.856  66.257  1.00  0.00    -0.129 C  
HETATM   30  C   UNL     1      -5.953   9.515  65.789  1.00  0.00    -0.055 C  
ENDBRANCH  26  29
ENDBRANCH  21  26
ENDBRANCH  16  18
ENDBRANCH  15  16
ENDBRANCH   8  10
ENDBRANCH   7   8
ENDBRANCH   6   7
ENDBRANCH   5   6
ENDBRANCH   4   5
ENDBRANCH   3   4
ENDBRANCH   2   3
TORSDOF 12
ENDMDL
MODEL      225
REMARK 921   NORMALIZED FREE ENERGY PREDICTED BY IDOCK:   -3.32 KCAL/MOL
REMARK 922        TOTAL FREE ENERGY PREDICTED BY IDOCK:   -7.62 KCAL/MOL
REMARK 923 INTER-LIGAND FREE ENERGY PREDICTED BY IDOCK:   -6.16 KCAL/MOL
REMARK 924 INTRA-LIGAND FREE ENERGY PREDICTED BY IDOCK:   -1.46 KCAL/MOL
REMARK 927      BINDING AFFINITY PREDICTED BY RF-SCORE:    0.00 PKD
ROOT
HETATM    1  C   UNL     1     -11.189   7.676  72.769  1.00  0.00    -0.431 C  
HETATM    2  C   UNL     1     -12.413   7.911  71.896  1.00  0.00    -0.352 C  
ENDROOT
BRANCH   2   3
HETATM    3  C   UNL     1     -13.107   9.224  72.255  1.00  0.00    -0.517 C  
BRANCH   3   4
HETATM    4  C   UNL     1     -13.215  10.164  71.047  1.00  0.00    -0.412 C  
BRANCH   4   5
HETATM    5  C   UNL     1     -11.916  10.949  70.858  1.00  0.00    -0.416 C  
BRANCH   5   6
HETATM    6  C   UNL     1     -12.130  12.397  70.430  1.00  0.00    -0.297 C  
BRANCH   6   7
HETATM    7  O   UNL     1     -12.401  12.587  69.040  1.00  0.00    -0.071 OA 
BRANCH   7   8
HETATM    8  C   UNL     1     -11.623  11.872  68.189  1.00  0.00    -0.334 C  
HETATM    9  O   UNL     1     -11.990  10.928  67.502  1.00  0.00    -0.442 OA 
BRANCH   8  10
HETATM   10  C   UNL     1     -10.350  12.611  67.951  1.00  0.00    -0.221 A  
HETATM   11  C   UNL     1     -10.519  13.974  67.627  1.00  0.00    -0.245 A  
HETATM   12  C   UNL     1      -9.421  14.815  67.441  1.00  0.00    -0.207 A  
HETATM   13  C   UNL     1      -8.135  14.297  67.529  1.00  0.00    -0.200 A  
HETATM   14  C   UNL     1      -7.947  12.950  67.837  1.00  0.00    -0.156 A  
HETATM   15  C   UNL     1      -9.043  12.107  68.105  1.00  0.00    -0.196 A  
BRANCH  15  16
HETATM   16  C   UNL     1      -8.747  10.696  68.452  1.00  0.00    -0.141 C  
HETATM   17  O   UNL     1      -8.796  10.385  69.642  1.00  0.00    -0.142 OA 
BRANCH  16  18
HETATM   18  C   UNL     1      -8.484   9.630  67.421  1.00  0.00    -0.125 A  
HETATM   19  C   UNL     1      -7.640   8.577  67.800  1.00  0.00    -0.098 A  
HETATM   20  C   UNL     1      -7.277   7.563  66.893  1.00  0.00    -0.085 A  
HETATM   21  C   UNL     1      -7.723   7.558  65.567  1.00  0.00    -0.103 A  
HETATM   22  O   UNL     1      -9.790  10.614  65.653  1.00  0.00    -0.222 OA 
HETATM   23  C   UNL     1      -8.606   8.594  65.213  1.00  0.00    -0.206 A  
HETATM   24  H   UNL     1     -10.120  10.605  64.763  1.00  0.00     0.000 HD 
HETATM   25  C   UNL     1      -8.970   9.618  66.110  1.00  0.00    -0.154 A  
BRANCH  21  26
HETATM   26  N   UNL     1      -7.335   6.598  64.635  1.00  0.00    -0.079 NA 
BRANCH  26  27
HETATM   27  C   UNL     1      -6.982   5.251  65.111  1.00  0.00    -0.061 C  
HETATM   28  C   UNL     1      -7.868   4.200  64.457  1.00  0.00    -0.085 C  
ENDBRANCH  26  27
BRANCH  26  29
HETATM   29  C   UNL     1      -7.682   6.713  63.212  1.00  0.00    -0.106 C  
HETATM   30  C   UNL     1      -6.456   7.100  62.400  1.00  0.00    -0.053 C  
ENDBRANCH  26  29
ENDBRANCH  21  26
ENDBRANCH  16  18
ENDBRANCH  15  16
ENDBRANCH   8  10
ENDBRANCH   7   8
ENDBRANCH   6   7
ENDBRANCH   5   6
ENDBRANCH   4   5
ENDBRANCH   3   4
ENDBRANCH   2   3
TORSDOF 12
ENDMDL
MODEL      226
REMARK 921   NORMALIZED FREE ENERGY PREDICTED BY IDOCK:   -3.32 KCAL/MOL
REMARK 922        TOTAL FREE ENERGY PREDICTED BY IDOCK:   -7.61 KCAL/MOL
REMARK 923 INTER-LIGAND FREE ENERGY PREDICTED BY IDOCK:   -6.22 KCAL/MOL
REMARK 924 INTRA-LIGAND FREE ENERGY PREDICTED BY IDOCK:   -1.39 KCAL/MOL
REMARK 927      BINDING AFFINITY PREDICTED BY RF-SCORE:    0.00 PKD
ROOT
HETATM    1  C   UNL     1      -6.721   5.139  64.805  1.00  0.00    -0.048 C  
HETATM    2  C   UNL     1      -6.453   6.618  65.042  1.00  0.00    -0.042 C  
ENDROOT
BRANCH   2   3
HETATM    3  C   UNL     1      -7.723   7.449  64.864  1.00  0.00    -0.113 C  
BRANCH   3   4
HETATM    4  C   UNL     1      -7.920   7.889  63.408  1.00  0.00    -0.125 C  
BRANCH   4   5
HETATM    5  C   UNL     1      -8.642   9.236  63.345  1.00  0.00    -0.206 C  
BRANCH   5   6
HETATM    6  C   UNL     1      -8.031  10.303  64.247  1.00  0.00    -0.132 C  
BRANCH   6   7
HETATM    7  O   UNL     1      -8.771  10.592  65.435  1.00  0.00    -0.178 OA 
BRANCH   7   8
HETATM    8  C   UNL     1      -9.568  11.690  65.376  1.00  0.00    -0.205 C  
HETATM    9  O   UNL     1     -10.003  12.208  64.357  1.00  0.00    -0.269 OA 
BRANCH   8  10
HETATM   10  C   UNL     1     -10.114  11.970  66.735  1.00  0.00    -0.223 A  
HETATM   11  C   UNL     1     -11.261  11.219  67.069  1.00  0.00    -0.324 A  
HETATM   12  C   UNL     1     -11.851  11.318  68.329  1.00  0.00    -0.299 A  
HETATM   13  C   UNL     1     -11.333  12.209  69.262  1.00  0.00    -0.327 A  
HETATM   14  C   UNL     1     -10.208  12.970  68.947  1.00  0.00    -0.015 A  
HETATM   15  C   UNL     1      -9.555  12.822  67.708  1.00  0.00    -0.204 A  
BRANCH  15  16
HETATM   16  C   UNL     1      -8.348  13.652  67.472  1.00  0.00    -0.188 C  
HETATM   17  O   UNL     1      -7.273  13.065  67.356  1.00  0.00    -0.152 OA 
BRANCH  16  18
HETATM   18  C   UNL     1      -8.398  15.145  67.280  1.00  0.00    -0.225 A  
HETATM   19  C   UNL     1      -8.994  15.613  66.102  1.00  0.00    -0.362 A  
HETATM   20  C   UNL     1      -9.035  16.986  65.793  1.00  0.00     0.132 A  
HETATM   21  C   UNL     1      -8.472  17.953  66.634  1.00  0.00    -0.258 A  
HETATM   22  O   UNL     1      -7.255  15.732  69.317  1.00  0.00    -0.183 OA 
HETATM   23  C   UNL     1      -7.919  17.475  67.835  1.00  0.00    -0.227 A  
HETATM   24  H   UNL     1      -6.894  16.382  69.907  1.00  0.00     0.000 HD 
HETATM   25  C   UNL     1      -7.866  16.102  68.150  1.00  0.00    -0.146 A  
BRANCH  21  26
HETATM   26  N   UNL     1      -8.450  19.311  66.326  1.00  0.00    -0.339 NA 
BRANCH  26  27
HETATM   27  C   UNL     1      -9.602  20.144  66.707  1.00  0.00    -0.427 C  
HETATM   28  C   UNL     1     -10.783  19.886  65.781  1.00  0.00    -0.423 C  
ENDBRANCH  26  27
BRANCH  26  29
HETATM   29  C   UNL     1      -7.194  20.026  66.060  1.00  0.00    -0.301 C  
HETATM   30  C   UNL     1      -6.921  21.040  67.161  1.00  0.00    -0.411 C  
ENDBRANCH  26  29
ENDBRANCH  21  26
ENDBRANCH  16  18
ENDBRANCH  15  16
ENDBRANCH   8  10
ENDBRANCH   7   8
ENDBRANCH   6   7
ENDBRANCH   5   6
ENDBRANCH   4   5
ENDBRANCH   3   4
ENDBRANCH   2   3
TORSDOF 12
ENDMDL
MODEL      227
REMARK 921   NORMALIZED FREE ENERGY PREDICTED BY IDOCK:   -3.32 KCAL/MOL
REMARK 922        TOTAL FREE ENERGY PREDICTED BY IDOCK:   -7.61 KCAL/MOL
REMARK 923 INTER-LIGAND FREE ENERGY PREDICTED BY IDOCK:   -6.04 KCAL/MOL
REMARK 924 INTRA-LIGAND FREE ENERGY PREDICTED BY IDOCK:   -1.58 KCAL/MOL
REMARK 927      BINDING AFFINITY PREDICTED BY RF-SCORE:    0.00 PKD
ROOT
HETATM    1  C   UNL     1      -6.026   7.579  65.322  1.00  0.00    -0.038 C  
HETATM    2  C   UNL     1      -6.169   9.093  65.284  1.00  0.00    -0.064 C  
ENDROOT
BRANCH   2   3
HETATM    3  C   UNL     1      -5.506   9.744  66.497  1.00  0.00    -0.045 C  
BRANCH   3   4
HETATM    4  C   UNL     1      -6.485  10.629  67.280  1.00  0.00    -0.072 C  
BRANCH   4   5
HETATM    5  C   UNL     1      -5.999  10.829  68.717  1.00  0.00    -0.039 C  
BRANCH   5   6
HETATM    6  C   UNL     1      -6.691   9.925  69.731  1.00  0.00    -0.076 C  
BRANCH   6   7
HETATM    7  O   UNL     1      -7.714   9.083  69.196  1.00  0.00    -0.088 OA 
BRANCH   7   8
HETATM    8  C   UNL     1      -7.566   7.755  69.439  1.00  0.00    -0.101 C  
HETATM    9  O   UNL     1      -6.545   7.205  69.826  1.00  0.00    -0.042 OA 
BRANCH   8  10
HETATM   10  C   UNL     1      -8.913   7.117  69.497  1.00  0.00    -0.140 A  
HETATM   11  C   UNL     1      -9.184   6.437  70.703  1.00  0.00    -0.162 A  
HETATM   12  C   UNL     1     -10.425   5.844  70.938  1.00  0.00    -0.305 A  
HETATM   13  C   UNL     1     -11.401   5.879  69.949  1.00  0.00    -0.201 A  
HETATM   14  C   UNL     1     -11.148   6.535  68.745  1.00  0.00    -0.357 A  
HETATM   15  C   UNL     1      -9.929   7.206  68.526  1.00  0.00    -0.163 A  
BRANCH  15  16
HETATM   16  C   UNL     1      -9.760   7.901  67.227  1.00  0.00    -0.176 C  
HETATM   17  O   UNL     1      -9.367   7.229  66.274  1.00  0.00    -0.169 OA 
BRANCH  16  18
HETATM   18  C   UNL     1     -10.129   9.345  67.009  1.00  0.00    -0.304 A  
HETATM   19  C   UNL     1      -9.679   9.943  65.824  1.00  0.00    -0.332 A  
HETATM   20  C   UNL     1      -9.913  11.304  65.551  1.00  0.00    -0.293 A  
HETATM   21  C   UNL     1     -10.590  12.135  66.450  1.00  0.00    -0.241 A  
HETATM   22  O   UNL     1     -11.308   9.655  69.086  1.00  0.00    -0.443 OA 
HETATM   23  C   UNL     1     -11.077  11.514  67.614  1.00  0.00    -0.324 A  
HETATM   24  H   UNL     1     -11.792  10.204  69.691  1.00  0.00     0.000 HD 
HETATM   25  C   UNL     1     -10.842  10.154  67.900  1.00  0.00    -0.284 A  
BRANCH  21  26
HETATM   26  N   UNL     1     -10.786  13.496  66.230  1.00  0.00    -0.288 NA 
BRANCH  26  27
HETATM   27  C   UNL     1     -12.131  14.061  66.428  1.00  0.00    -0.455 C  
HETATM   28  C   UNL     1     -13.012  13.794  65.215  1.00  0.00    -0.328 C  
ENDBRANCH  26  27
BRANCH  26  29
HETATM   29  C   UNL     1      -9.672  14.454  66.253  1.00  0.00    -0.310 C  
HETATM   30  C   UNL     1      -9.490  15.018  67.654  1.00  0.00    -0.195 C  
ENDBRANCH  26  29
ENDBRANCH  21  26
ENDBRANCH  16  18
ENDBRANCH  15  16
ENDBRANCH   8  10
ENDBRANCH   7   8
ENDBRANCH   6   7
ENDBRANCH   5   6
ENDBRANCH   4   5
ENDBRANCH   3   4
ENDBRANCH   2   3
TORSDOF 12
ENDMDL
MODEL      228
REMARK 921   NORMALIZED FREE ENERGY PREDICTED BY IDOCK:   -3.29 KCAL/MOL
REMARK 922        TOTAL FREE ENERGY PREDICTED BY IDOCK:   -7.56 KCAL/MOL
REMARK 923 INTER-LIGAND FREE ENERGY PREDICTED BY IDOCK:   -6.91 KCAL/MOL
REMARK 924 INTRA-LIGAND FREE ENERGY PREDICTED BY IDOCK:   -0.65 KCAL/MOL
REMARK 927      BINDING AFFINITY PREDICTED BY RF-SCORE:    0.00 PKD
ROOT
HETATM    1  C   UNL     1      -8.193   6.717  63.257  1.00  0.00     0.074 C  
HETATM    2  C   UNL     1      -7.968   8.215  63.396  1.00  0.00    -0.147 C  
ENDROOT
BRANCH   2   3
HETATM    3  C   UNL     1      -8.027   8.654  64.858  1.00  0.00    -0.138 C  
BRANCH   3   4
HETATM    4  C   UNL     1      -9.310   9.435  65.171  1.00  0.00    -0.288 C  
BRANCH   4   5
HETATM    5  C   UNL     1      -9.265  10.822  64.526  1.00  0.00    -0.250 C  
BRANCH   5   6
HETATM    6  C   UNL     1     -10.456  11.705  64.884  1.00  0.00    -0.288 C  
BRANCH   6   7
HETATM    7  O   UNL     1     -10.818  11.706  66.266  1.00  0.00    -0.267 OA 
BRANCH   7   8
HETATM    8  C   UNL     1     -10.010  12.430  67.083  1.00  0.00    -0.207 C  
HETATM    9  O   UNL     1      -8.918  12.895  66.785  1.00  0.00    -0.218 OA 
BRANCH   8  10
HETATM   10  C   UNL     1     -10.789  12.869  68.277  1.00  0.00    -0.263 A  
HETATM   11  C   UNL     1     -10.965  14.265  68.377  1.00  0.00    -0.267 A  
HETATM   12  C   UNL     1     -11.726  14.828  69.402  1.00  0.00    -0.358 A  
HETATM   13  C   UNL     1     -12.286  14.006  70.373  1.00  0.00    -0.433 A  
HETATM   14  C   UNL     1     -12.113  12.624  70.298  1.00  0.00    -0.372 A  
HETATM   15  C   UNL     1     -11.414  12.037  69.226  1.00  0.00    -0.361 A  
BRANCH  15  16
HETATM   16  C   UNL     1     -11.305  10.558  69.214  1.00  0.00    -0.262 C  
HETATM   17  O   UNL     1     -11.716   9.970  68.215  1.00  0.00    -0.085 OA 
BRANCH  16  18
HETATM   18  C   UNL     1     -10.641   9.770  70.313  1.00  0.00    -0.348 A  
HETATM   19  C   UNL     1      -9.245   9.657  70.258  1.00  0.00    -0.285 A  
HETATM   20  C   UNL     1      -8.531   8.890  71.198  1.00  0.00    -0.250 A  
HETATM   21  C   UNL     1      -9.174   8.187  72.224  1.00  0.00    -0.201 A  
HETATM   22  O   UNL     1     -12.656   9.152  71.479  1.00  0.00    -0.314 OA 
HETATM   23  C   UNL     1     -10.569   8.346  72.297  1.00  0.00    -0.412 A  
HETATM   24  H   UNL     1     -13.099   8.701  72.187  1.00  0.00     0.000 HD 
HETATM   25  C   UNL     1     -11.293   9.106  71.356  1.00  0.00    -0.344 A  
BRANCH  21  26
HETATM   26  N   UNL     1      -8.497   7.377  73.132  1.00  0.00    -0.122 NA 
BRANCH  26  27
HETATM   27  C   UNL     1      -7.905   6.117  72.655  1.00  0.00    -0.103 C  
HETATM   28  C   UNL     1      -8.911   4.979  72.749  1.00  0.00    -0.124 C  
ENDBRANCH  26  27
BRANCH  26  29
HETATM   29  C   UNL     1      -7.963   7.906  74.396  1.00  0.00    -0.234 C  
HETATM   30  C   UNL     1      -6.756   8.792  74.128  1.00  0.00    -0.045 C  
ENDBRANCH  26  29
ENDBRANCH  21  26
ENDBRANCH  16  18
ENDBRANCH  15  16
ENDBRANCH   8  10
ENDBRANCH   7   8
ENDBRANCH   6   7
ENDBRANCH   5   6
ENDBRANCH   4   5
ENDBRANCH   3   4
ENDBRANCH   2   3
TORSDOF 12
ENDMDL
MODEL      229
REMARK 921   NORMALIZED FREE ENERGY PREDICTED BY IDOCK:   -3.26 KCAL/MOL
REMARK 922        TOTAL FREE ENERGY PREDICTED BY IDOCK:   -7.51 KCAL/MOL
REMARK 923 INTER-LIGAND FREE ENERGY PREDICTED BY IDOCK:   -5.33 KCAL/MOL
REMARK 924 INTRA-LIGAND FREE ENERGY PREDICTED BY IDOCK:   -2.19 KCAL/MOL
REMARK 927      BINDING AFFINITY PREDICTED BY RF-SCORE:    0.00 PKD
ROOT
HETATM    1  C   UNL     1      -5.327   9.989  71.022  1.00  0.00    -0.072 C  
HETATM    2  C   UNL     1      -5.958  10.681  69.823  1.00  0.00    -0.062 C  
ENDROOT
BRANCH   2   3
HETATM    3  C   UNL     1      -6.095   9.725  68.638  1.00  0.00    -0.042 C  
BRANCH   3   4
HETATM    4  C   UNL     1      -6.609   8.346  69.071  1.00  0.00    -0.048 C  
BRANCH   4   5
HETATM    5  C   UNL     1      -7.011   7.515  67.851  1.00  0.00    -0.076 C  
BRANCH   5   6
HETATM    6  C   UNL     1      -7.354   6.066  68.181  1.00  0.00    -0.085 C  
BRANCH   6   7
HETATM    7  O   UNL     1      -8.105   5.376  67.180  1.00  0.00    -0.101 OA 
BRANCH   7   8
HETATM    8  C   UNL     1      -9.307   4.890  67.580  1.00  0.00    -0.130 C  
HETATM    9  O   UNL     1     -10.151   4.375  66.859  1.00  0.00    -0.209 OA 
BRANCH   8  10
HETATM   10  C   UNL     1      -9.311   4.760  69.066  1.00  0.00    -0.193 A  
HETATM   11  C   UNL     1      -8.439   3.771  69.568  1.00  0.00    -0.095 A  
HETATM   12  C   UNL     1      -8.280   3.573  70.940  1.00  0.00    -0.080 A  
HETATM   13  C   UNL     1      -9.028   4.329  71.834  1.00  0.00    -0.152 A  
HETATM   14  C   UNL     1      -9.905   5.303  71.358  1.00  0.00    -0.232 A  
HETATM   15  C   UNL     1     -10.016   5.568  69.979  1.00  0.00    -0.285 A  
BRANCH  15  16
HETATM   16  C   UNL     1     -10.953   6.642  69.567  1.00  0.00    -0.313 C  
HETATM   17  O   UNL     1     -12.148   6.471  69.807  1.00  0.00    -0.167 OA 
BRANCH  16  18
HETATM   18  C   UNL     1     -10.500   7.946  68.963  1.00  0.00    -0.210 A  
HETATM   19  C   UNL     1     -10.153   8.970  69.854  1.00  0.00    -0.213 A  
HETATM   20  C   UNL     1      -9.778  10.247  69.396  1.00  0.00    -0.242 A  
HETATM   21  C   UNL     1      -9.749  10.569  68.034  1.00  0.00    -0.147 A  
HETATM   22  O   UNL     1     -10.772   7.302  66.658  1.00  0.00    -0.506 OA 
HETATM   23  C   UNL     1     -10.054   9.520  67.149  1.00  0.00    -0.290 A  
HETATM   24  H   UNL     1     -10.729   7.502  65.731  1.00  0.00     0.000 HD 
HETATM   25  C   UNL     1     -10.438   8.239  67.598  1.00  0.00    -0.235 A  
BRANCH  21  26
HETATM   26  N   UNL     1      -9.436  11.839  67.558  1.00  0.00    -0.172 NA 
BRANCH  26  27
HETATM   27  C   UNL     1     -10.212  12.991  68.048  1.00  0.00    -0.233 C  
HETATM   28  C   UNL     1     -11.661  12.898  67.592  1.00  0.00    -0.406 C  
ENDBRANCH  26  27
BRANCH  26  29
HETATM   29  C   UNL     1      -8.127  12.145  66.964  1.00  0.00    -0.154 C  
HETATM   30  C   UNL     1      -7.547  13.405  67.589  1.00  0.00    -0.177 C  
ENDBRANCH  26  29
ENDBRANCH  21  26
ENDBRANCH  16  18
ENDBRANCH  15  16
ENDBRANCH   8  10
ENDBRANCH   7   8
ENDBRANCH   6   7
ENDBRANCH   5   6
ENDBRANCH   4   5
ENDBRANCH   3   4
ENDBRANCH   2   3
TORSDOF 12
ENDMDL
MODEL      230
REMARK 921   NORMALIZED FREE ENERGY PREDICTED BY IDOCK:   -3.21 KCAL/MOL
REMARK 922        TOTAL FREE ENERGY PREDICTED BY IDOCK:   -7.42 KCAL/MOL
REMARK 923 INTER-LIGAND FREE ENERGY PREDICTED BY IDOCK:   -5.77 KCAL/MOL
REMARK 924 INTRA-LIGAND FREE ENERGY PREDICTED BY IDOCK:   -1.66 KCAL/MOL
REMARK 927      BINDING AFFINITY PREDICTED BY RF-SCORE:    0.00 PKD
ROOT
HETATM    1  C   UNL     1     -10.190   3.996  72.255  1.00  0.00    -0.227 C  
HETATM    2  C   UNL     1      -9.824   4.635  70.924  1.00  0.00    -0.272 C  
ENDROOT
BRANCH   2   3
HETATM    3  C   UNL     1      -9.161   3.627  69.987  1.00  0.00    -0.197 C  
BRANCH   3   4
HETATM    4  C   UNL     1      -8.289   4.315  68.928  1.00  0.00    -0.092 C  
BRANCH   4   5
HETATM    5  C   UNL     1      -7.961   5.749  69.351  1.00  0.00    -0.097 C  
BRANCH   5   6
HETATM    6  C   UNL     1      -7.044   6.482  68.377  1.00  0.00    -0.083 C  
BRANCH   6   7
HETATM    7  O   UNL     1      -7.701   7.082  67.259  1.00  0.00    -0.105 OA 
BRANCH   7   8
HETATM    8  C   UNL     1      -7.378   8.379  67.018  1.00  0.00    -0.084 C  
HETATM    9  O   UNL     1      -6.641   9.075  67.702  1.00  0.00    -0.060 OA 
BRANCH   8  10
HETATM   10  C   UNL     1      -7.774   8.729  65.623  1.00  0.00    -0.091 A  
HETATM   11  C   UNL     1      -6.930   8.196  64.626  1.00  0.00    -0.075 A  
HETATM   12  C   UNL     1      -7.204   8.379  63.271  1.00  0.00    -0.093 A  
HETATM   13  C   UNL     1      -8.302   9.140  62.889  1.00  0.00    -0.199 A  
HETATM   14  C   UNL     1      -9.141   9.686  63.859  1.00  0.00    -0.229 A  
HETATM   15  C   UNL     1      -8.922   9.444  65.228  1.00  0.00    -0.250 A  
BRANCH  15  16
HETATM   16  C   UNL     1      -9.883  10.041  66.187  1.00  0.00    -0.246 C  
HETATM   17  O   UNL     1     -10.532  11.014  65.804  1.00  0.00    -0.249 OA 
BRANCH  16  18
HETATM   18  C   UNL     1     -10.157   9.462  67.551  1.00  0.00    -0.268 A  
HETATM   19  C   UNL     1      -9.917  10.293  68.652  1.00  0.00    -0.183 A  
HETATM   20  C   UNL     1     -10.080   9.831  69.972  1.00  0.00    -0.301 A  
HETATM   21  C   UNL     1     -10.471   8.517  70.256  1.00  0.00    -0.220 A  
HETATM   22  O   UNL     1     -10.833   7.276  66.800  1.00  0.00    -0.488 OA 
HETATM   23  C   UNL     1     -10.754   7.707  69.142  1.00  0.00    -0.153 A  
HETATM   24  H   UNL     1     -11.125   6.390  66.982  1.00  0.00     0.000 HD 
HETATM   25  C   UNL     1     -10.588   8.158  67.817  1.00  0.00    -0.165 A  
BRANCH  21  26
HETATM   26  N   UNL     1     -10.585   8.019  71.551  1.00  0.00    -0.221 NA 
BRANCH  26  27
HETATM   27  C   UNL     1      -9.647   8.497  72.580  1.00  0.00    -0.254 C  
HETATM   28  C   UNL     1      -8.991   7.325  73.297  1.00  0.00    -0.192 C  
ENDBRANCH  26  27
BRANCH  26  29
HETATM   29  C   UNL     1     -11.830   7.411  72.042  1.00  0.00    -0.298 C  
HETATM   30  C   UNL     1     -12.836   8.492  72.408  1.00  0.00    -0.373 C  
ENDBRANCH  26  29
ENDBRANCH  21  26
ENDBRANCH  16  18
ENDBRANCH  15  16
ENDBRANCH   8  10
ENDBRANCH   7   8
ENDBRANCH   6   7
ENDBRANCH   5   6
ENDBRANCH   4   5
ENDBRANCH   3   4
ENDBRANCH   2   3
TORSDOF 12
ENDMDL
MODEL      231
REMARK 921   NORMALIZED FREE ENERGY PREDICTED BY IDOCK:   -3.19 KCAL/MOL
REMARK 922        TOTAL FREE ENERGY PREDICTED BY IDOCK:   -7.40 KCAL/MOL
REMARK 923 INTER-LIGAND FREE ENERGY PREDICTED BY IDOCK:   -5.23 KCAL/MOL
REMARK 924 INTRA-LIGAND FREE ENERGY PREDICTED BY IDOCK:   -2.16 KCAL/MOL
REMARK 927      BINDING AFFINITY PREDICTED BY RF-SCORE:    0.00 PKD
ROOT
HETATM    1  C   UNL     1      -7.323   8.188  65.882  1.00  0.00    -0.076 C  
HETATM    2  C   UNL     1      -7.769   9.604  65.549  1.00  0.00    -0.112 C  
ENDROOT
BRANCH   2   3
HETATM    3  C   UNL     1      -6.789  10.639  66.100  1.00  0.00    -0.135 C  
BRANCH   3   4
HETATM    4  C   UNL     1      -7.266  11.226  67.435  1.00  0.00    -0.110 C  
BRANCH   4   5
HETATM    5  C   UNL     1      -8.308  12.321  67.199  1.00  0.00    -0.183 C  
BRANCH   5   6
HETATM    6  C   UNL     1      -9.603  12.114  67.978  1.00  0.00    -0.204 C  
BRANCH   6   7
HETATM    7  O   UNL     1      -9.565  11.071  68.955  1.00  0.00    -0.196 OA 
BRANCH   7   8
HETATM    8  C   UNL     1     -10.458  10.065  68.772  1.00  0.00    -0.208 C  
HETATM    9  O   UNL     1     -10.509   9.316  67.806  1.00  0.00    -0.233 OA 
BRANCH   8  10
HETATM   10  C   UNL     1     -11.147   9.782  70.065  1.00  0.00    -0.311 A  
HETATM   11  C   UNL     1     -12.457  10.299  70.153  1.00  0.00    -0.179 A  
HETATM   12  C   UNL     1     -13.255  10.062  71.272  1.00  0.00    -0.469 A  
HETATM   13  C   UNL     1     -12.740   9.344  72.344  1.00  0.00    -0.350 A  
HETATM   14  C   UNL     1     -11.443   8.836  72.282  1.00  0.00    -0.376 A  
HETATM   15  C   UNL     1     -10.654   9.000  71.127  1.00  0.00    -0.361 A  
BRANCH  15  16
HETATM   16  C   UNL     1      -9.297   8.400  71.140  1.00  0.00    -0.177 C  
HETATM   17  O   UNL     1      -8.436   8.967  71.811  1.00  0.00    -0.321 OA 
BRANCH  16  18
HETATM   18  C   UNL     1      -8.962   7.101  70.454  1.00  0.00    -0.155 A  
HETATM   19  C   UNL     1      -9.987   6.152  70.359  1.00  0.00    -0.223 A  
HETATM   20  C   UNL     1      -9.764   4.881  69.795  1.00  0.00    -0.262 A  
HETATM   21  C   UNL     1      -8.507   4.493  69.315  1.00  0.00    -0.078 A  
HETATM   22  O   UNL     1      -6.650   7.605  70.006  1.00  0.00    -0.037 OA 
HETATM   23  C   UNL     1      -7.499   5.471  69.374  1.00  0.00    -0.070 A  
HETATM   24  H   UNL     1      -5.800   7.361  69.659  1.00  0.00     0.000 HD 
HETATM   25  C   UNL     1      -7.711   6.743  69.943  1.00  0.00    -0.109 A  
BRANCH  21  26
HETATM   26  N   UNL     1      -8.246   3.224  68.804  1.00  0.00    -0.060 NA 
BRANCH  26  27
HETATM   27  C   UNL     1      -7.163   3.065  67.821  1.00  0.00    -0.053 C  
HETATM   28  C   UNL     1      -7.729   2.881  66.420  1.00  0.00    -0.077 C  
ENDBRANCH  26  27
BRANCH  26  29
HETATM   29  C   UNL     1      -8.670   2.003  69.504  1.00  0.00    -0.064 C  
HETATM   30  C   UNL     1      -7.857   1.815  70.775  1.00  0.00    -0.040 C  
ENDBRANCH  26  29
ENDBRANCH  21  26
ENDBRANCH  16  18
ENDBRANCH  15  16
ENDBRANCH   8  10
ENDBRANCH   7   8
ENDBRANCH   6   7
ENDBRANCH   5   6
ENDBRANCH   4   5
ENDBRANCH   3   4
ENDBRANCH   2   3
TORSDOF 12
ENDMDL
MODEL      232
REMARK 921   NORMALIZED FREE ENERGY PREDICTED BY IDOCK:   -3.19 KCAL/MOL
REMARK 922        TOTAL FREE ENERGY PREDICTED BY IDOCK:   -7.39 KCAL/MOL
REMARK 923 INTER-LIGAND FREE ENERGY PREDICTED BY IDOCK:   -6.45 KCAL/MOL
REMARK 924 INTRA-LIGAND FREE ENERGY PREDICTED BY IDOCK:   -0.93 KCAL/MOL
REMARK 927      BINDING AFFINITY PREDICTED BY RF-SCORE:    0.00 PKD
ROOT
HETATM    1  C   UNL     1      -5.175   2.896  67.841  1.00  0.00    -0.012 C  
HETATM    2  C   UNL     1      -6.431   3.722  67.604  1.00  0.00    -0.038 C  
ENDROOT
BRANCH   2   3
HETATM    3  C   UNL     1      -7.359   3.047  66.595  1.00  0.00    -0.070 C  
BRANCH   3   4
HETATM    4  C   UNL     1      -8.801   3.557  66.711  1.00  0.00    -0.142 C  
BRANCH   4   5
HETATM    5  C   UNL     1      -9.103   4.572  65.606  1.00  0.00    -0.140 C  
BRANCH   5   6
HETATM    6  C   UNL     1      -9.082   6.021  66.081  1.00  0.00    -0.147 C  
BRANCH   6   7
HETATM    7  O   UNL     1      -8.633   6.215  67.424  1.00  0.00    -0.108 OA 
BRANCH   7   8
HETATM    8  C   UNL     1      -8.590   7.504  67.847  1.00  0.00    -0.121 C  
HETATM    9  O   UNL     1      -8.123   8.449  67.225  1.00  0.00    -0.104 OA 
BRANCH   8  10
HETATM   10  C   UNL     1      -9.494   7.663  69.022  1.00  0.00    -0.150 A  
HETATM   11  C   UNL     1     -10.095   6.464  69.462  1.00  0.00    -0.203 A  
HETATM   12  C   UNL     1     -10.915   6.436  70.590  1.00  0.00    -0.355 A  
HETATM   13  C   UNL     1     -11.188   7.617  71.270  1.00  0.00    -0.277 A  
HETATM   14  C   UNL     1     -10.615   8.814  70.844  1.00  0.00    -0.276 A  
HETATM   15  C   UNL     1      -9.722   8.844  69.755  1.00  0.00    -0.180 A  
BRANCH  15  16
HETATM   16  C   UNL     1      -9.138  10.158  69.391  1.00  0.00    -0.203 C  
HETATM   17  O   UNL     1      -8.014  10.414  69.821  1.00  0.00    -0.150 OA 
BRANCH  16  18
HETATM   18  C   UNL     1      -9.812  11.132  68.460  1.00  0.00    -0.199 A  
HETATM   19  C   UNL     1      -9.308  11.213  67.155  1.00  0.00    -0.176 A  
HETATM   20  C   UNL     1      -9.822  12.136  66.224  1.00  0.00    -0.250 A  
HETATM   21  C   UNL     1     -10.848  13.029  66.553  1.00  0.00    -0.279 A  
HETATM   22  O   UNL     1     -11.408  11.986  70.047  1.00  0.00    -0.496 OA 
HETATM   23  C   UNL     1     -11.377  12.906  67.850  1.00  0.00    -0.336 A  
HETATM   24  H   UNL     1     -12.123  12.570  70.273  1.00  0.00     0.000 HD 
HETATM   25  C   UNL     1     -10.864  11.991  68.792  1.00  0.00    -0.230 A  
BRANCH  21  26
HETATM   26  N   UNL     1     -11.336  13.988  65.669  1.00  0.00    -0.309 NA 
BRANCH  26  27
HETATM   27  C   UNL     1     -10.380  14.882  64.994  1.00  0.00    -0.370 C  
HETATM   28  C   UNL     1      -9.706  15.807  65.997  1.00  0.00    -0.377 C  
ENDBRANCH  26  27
BRANCH  26  29
HETATM   29  C   UNL     1     -12.661  13.865  65.044  1.00  0.00    -0.390 C  
HETATM   30  C   UNL     1     -12.675  12.703  64.063  1.00  0.00    -0.363 C  
ENDBRANCH  26  29
ENDBRANCH  21  26
ENDBRANCH  16  18
ENDBRANCH  15  16
ENDBRANCH   8  10
ENDBRANCH   7   8
ENDBRANCH   6   7
ENDBRANCH   5   6
ENDBRANCH   4   5
ENDBRANCH   3   4
ENDBRANCH   2   3
TORSDOF 12
ENDMDL
MODEL      233
REMARK 921   NORMALIZED FREE ENERGY PREDICTED BY IDOCK:   -3.17 KCAL/MOL
REMARK 922        TOTAL FREE ENERGY PREDICTED BY IDOCK:   -7.36 KCAL/MOL
REMARK 923 INTER-LIGAND FREE ENERGY PREDICTED BY IDOCK:   -6.32 KCAL/MOL
REMARK 924 INTRA-LIGAND FREE ENERGY PREDICTED BY IDOCK:   -1.04 KCAL/MOL
REMARK 927      BINDING AFFINITY PREDICTED BY RF-SCORE:    0.00 PKD
ROOT
HETATM    1  C   UNL     1     -13.323  16.055  72.913  1.00  0.00    -0.537 C  
HETATM    2  C   UNL     1     -13.626  15.001  71.858  1.00  0.00    -0.520 C  
ENDROOT
BRANCH   2   3
HETATM    3  C   UNL     1     -12.925  15.320  70.537  1.00  0.00    -0.380 C  
BRANCH   3   4
HETATM    4  C   UNL     1     -11.650  14.488  70.350  1.00  0.00    -0.308 C  
BRANCH   4   5
HETATM    5  C   UNL     1     -11.856  13.423  69.271  1.00  0.00    -0.385 C  
BRANCH   5   6
HETATM    6  C   UNL     1     -12.258  12.059  69.823  1.00  0.00    -0.159 C  
BRANCH   6   7
HETATM    7  O   UNL     1     -11.186  11.277  70.353  1.00  0.00    -0.133 OA 
BRANCH   7   8
HETATM    8  C   UNL     1     -11.282   9.938  70.152  1.00  0.00    -0.289 C  
HETATM    9  O   UNL     1     -12.151   9.205  70.604  1.00  0.00    -0.206 OA 
BRANCH   8  10
HETATM   10  C   UNL     1     -10.382   9.546  69.029  1.00  0.00    -0.219 A  
HETATM   11  C   UNL     1     -10.900   9.816  67.745  1.00  0.00    -0.306 A  
HETATM   12  C   UNL     1     -10.151   9.568  66.594  1.00  0.00    -0.321 A  
HETATM   13  C   UNL     1      -8.888   9.000  66.706  1.00  0.00    -0.144 A  
HETATM   14  C   UNL     1      -8.363   8.714  67.966  1.00  0.00    -0.123 A  
HETATM   15  C   UNL     1      -9.075   9.032  69.138  1.00  0.00    -0.140 A  
BRANCH  15  16
HETATM   16  C   UNL     1      -8.426   8.719  70.435  1.00  0.00    -0.153 C  
HETATM   17  O   UNL     1      -7.881   9.646  71.032  1.00  0.00    -0.310 OA 
BRANCH  16  18
HETATM   18  C   UNL     1      -8.485   7.359  71.080  1.00  0.00    -0.118 A  
HETATM   19  C   UNL     1      -8.766   6.271  70.243  1.00  0.00    -0.142 A  
HETATM   20  C   UNL     1      -8.907   4.967  70.753  1.00  0.00    -0.154 A  
HETATM   21  C   UNL     1      -8.793   4.688  72.120  1.00  0.00    -0.123 A  
HETATM   22  O   UNL     1      -8.066   8.095  73.335  1.00  0.00    -0.174 OA 
HETATM   23  C   UNL     1      -8.465   5.779  72.944  1.00  0.00    -0.122 A  
HETATM   24  H   UNL     1      -7.960   7.912  74.260  1.00  0.00     0.000 HD 
HETATM   25  C   UNL     1      -8.329   7.090  72.444  1.00  0.00    -0.113 A  
BRANCH  21  26
HETATM   26  N   UNL     1      -8.984   3.417  72.657  1.00  0.00    -0.088 NA 
BRANCH  26  27
HETATM   27  C   UNL     1      -9.812   3.274  73.865  1.00  0.00    -0.108 C  
HETATM   28  C   UNL     1     -11.264   3.623  73.567  1.00  0.00    -0.285 C  
ENDBRANCH  26  27
BRANCH  26  29
HETATM   29  C   UNL     1      -8.790   2.200  71.856  1.00  0.00    -0.072 C  
HETATM   30  C   UNL     1     -10.122   1.499  71.633  1.00  0.00    -0.189 C  
ENDBRANCH  26  29
ENDBRANCH  21  26
ENDBRANCH  16  18
ENDBRANCH  15  16
ENDBRANCH   8  10
ENDBRANCH   7   8
ENDBRANCH   6   7
ENDBRANCH   5   6
ENDBRANCH   4   5
ENDBRANCH   3   4
ENDBRANCH   2   3
TORSDOF 12
ENDMDL
MODEL      234
REMARK 921   NORMALIZED FREE ENERGY PREDICTED BY IDOCK:   -3.15 KCAL/MOL
REMARK 922        TOTAL FREE ENERGY PREDICTED BY IDOCK:   -7.32 KCAL/MOL
REMARK 923 INTER-LIGAND FREE ENERGY PREDICTED BY IDOCK:   -5.41 KCAL/MOL
REMARK 924 INTRA-LIGAND FREE ENERGY PREDICTED BY IDOCK:   -1.91 KCAL/MOL
REMARK 927      BINDING AFFINITY PREDICTED BY RF-SCORE:    0.00 PKD
ROOT
HETATM    1  C   UNL     1      -6.995   4.945  65.026  1.00  0.00    -0.061 C  
HETATM    2  C   UNL     1      -7.260   6.304  65.657  1.00  0.00    -0.074 C  
ENDROOT
BRANCH   2   3
HETATM    3  C   UNL     1      -8.210   7.139  64.800  1.00  0.00    -0.052 C  
BRANCH   3   4
HETATM    4  C   UNL     1      -7.479   7.831  63.642  1.00  0.00    -0.108 C  
BRANCH   4   5
HETATM    5  C   UNL     1      -7.923   9.290  63.521  1.00  0.00    -0.144 C  
BRANCH   5   6
HETATM    6  C   UNL     1      -7.511  10.157  64.706  1.00  0.00    -0.136 C  
BRANCH   6   7
HETATM    7  O   UNL     1      -8.573  10.531  65.585  1.00  0.00    -0.163 OA 
BRANCH   7   8
HETATM    8  C   UNL     1      -8.368  10.263  66.900  1.00  0.00    -0.123 C  
HETATM    9  O   UNL     1      -7.304   9.937  67.409  1.00  0.00    -0.089 OA 
BRANCH   8  10
HETATM   10  C   UNL     1      -9.537  10.752  67.686  1.00  0.00    -0.174 A  
HETATM   11  C   UNL     1      -9.676  12.156  67.712  1.00  0.00    -0.197 A  
HETATM   12  C   UNL     1     -10.757  12.765  68.351  1.00  0.00    -0.269 A  
HETATM   13  C   UNL     1     -11.692  11.982  69.016  1.00  0.00    -0.382 A  
HETATM   14  C   UNL     1     -11.566  10.593  69.013  1.00  0.00    -0.332 A  
HETATM   15  C   UNL     1     -10.524   9.961  68.306  1.00  0.00    -0.246 A  
BRANCH  15  16
HETATM   16  C   UNL     1     -10.485   8.479  68.335  1.00  0.00    -0.171 C  
HETATM   17  O   UNL     1     -10.719   7.888  67.281  1.00  0.00    -0.301 OA 
BRANCH  16  18
HETATM   18  C   UNL     1     -10.089   7.686  69.553  1.00  0.00    -0.192 A  
HETATM   19  C   UNL     1      -8.721   7.449  69.738  1.00  0.00    -0.141 A  
HETATM   20  C   UNL     1      -8.247   6.666  70.808  1.00  0.00    -0.121 A  
HETATM   21  C   UNL     1      -9.114   6.070  71.731  1.00  0.00    -0.145 A  
HETATM   22  O   UNL     1     -12.318   7.301  70.380  1.00  0.00    -0.564 OA 
HETATM   23  C   UNL     1     -10.480   6.353  71.563  1.00  0.00    -0.256 A  
HETATM   24  H   UNL     1     -12.912   6.924  71.017  1.00  0.00     0.000 HD 
HETATM   25  C   UNL     1     -10.965   7.130  70.491  1.00  0.00    -0.262 A  
BRANCH  21  26
HETATM   26  N   UNL     1      -8.675   5.246  72.765  1.00  0.00    -0.120 NA 
BRANCH  26  27
HETATM   27  C   UNL     1      -9.018   5.602  74.151  1.00  0.00    -0.122 C  
HETATM   28  C   UNL     1      -8.443   6.963  74.516  1.00  0.00    -0.195 C  
ENDBRANCH  26  27
BRANCH  26  29
HETATM   29  C   UNL     1      -8.293   3.846  72.531  1.00  0.00    -0.098 C  
HETATM   30  C   UNL     1      -9.526   2.955  72.541  1.00  0.00    -0.168 C  
ENDBRANCH  26  29
ENDBRANCH  21  26
ENDBRANCH  16  18
ENDBRANCH  15  16
ENDBRANCH   8  10
ENDBRANCH   7   8
ENDBRANCH   6   7
ENDBRANCH   5   6
ENDBRANCH   4   5
ENDBRANCH   3   4
ENDBRANCH   2   3
TORSDOF 12
ENDMDL
MODEL      235
REMARK 921   NORMALIZED FREE ENERGY PREDICTED BY IDOCK:   -3.14 KCAL/MOL
REMARK 922        TOTAL FREE ENERGY PREDICTED BY IDOCK:   -7.31 KCAL/MOL
REMARK 923 INTER-LIGAND FREE ENERGY PREDICTED BY IDOCK:   -6.71 KCAL/MOL
REMARK 924 INTRA-LIGAND FREE ENERGY PREDICTED BY IDOCK:   -0.61 KCAL/MOL
REMARK 927      BINDING AFFINITY PREDICTED BY RF-SCORE:    0.00 PKD
ROOT
HETATM    1  C   UNL     1      -5.327   2.682  67.978  1.00  0.00    -0.013 C  
HETATM    2  C   UNL     1      -6.640   3.412  67.738  1.00  0.00    -0.038 C  
ENDROOT
BRANCH   2   3
HETATM    3  C   UNL     1      -7.626   2.541  66.960  1.00  0.00    -0.069 C  
BRANCH   3   4
HETATM    4  C   UNL     1      -9.078   2.805  67.379  1.00  0.00    -0.208 C  
BRANCH   4   5
HETATM    5  C   UNL     1      -9.712   3.868  66.480  1.00  0.00    -0.186 C  
BRANCH   5   6
HETATM    6  C   UNL     1      -9.854   5.232  67.147  1.00  0.00    -0.164 C  
BRANCH   6   7
HETATM    7  O   UNL     1      -9.521   5.267  68.537  1.00  0.00    -0.117 OA 
BRANCH   7   8
HETATM    8  C   UNL     1      -9.355   6.504  69.069  1.00  0.00    -0.128 C  
HETATM    9  O   UNL     1      -9.056   7.518  68.451  1.00  0.00    -0.134 OA 
BRANCH   8  10
HETATM   10  C   UNL     1      -9.919   6.523  70.449  1.00  0.00    -0.202 A  
HETATM   11  C   UNL     1     -10.459   5.291  70.875  1.00  0.00    -0.285 A  
HETATM   12  C   UNL     1     -10.966   5.128  72.165  1.00  0.00    -0.174 A  
HETATM   13  C   UNL     1     -10.984   6.210  73.036  1.00  0.00    -0.278 A  
HETATM   14  C   UNL     1     -10.467   7.440  72.630  1.00  0.00    -0.303 A  
HETATM   15  C   UNL     1      -9.881   7.597  71.359  1.00  0.00    -0.195 A  
BRANCH  15  16
HETATM   16  C   UNL     1      -9.330   8.933  71.025  1.00  0.00    -0.249 C  
HETATM   17  O   UNL     1      -8.241   9.232  71.512  1.00  0.00    -0.327 OA 
BRANCH  16  18
HETATM   18  C   UNL     1      -9.992   9.881  70.060  1.00  0.00    -0.302 A  
HETATM   19  C   UNL     1      -9.149  10.663  69.260  1.00  0.00    -0.117 A  
HETATM   20  C   UNL     1      -9.662  11.626  68.371  1.00  0.00    -0.199 A  
HETATM   21  C   UNL     1     -11.036  11.868  68.251  1.00  0.00    -0.230 A  
HETATM   22  O   UNL     1     -12.265   9.372  70.674  1.00  0.00    -0.452 OA 
HETATM   23  C   UNL     1     -11.873  11.045  69.024  1.00  0.00    -0.399 A  
HETATM   24  H   UNL     1     -13.200   9.509  70.580  1.00  0.00     0.000 HD 
HETATM   25  C   UNL     1     -11.369  10.083  69.922  1.00  0.00    -0.250 A  
BRANCH  21  26
HETATM   26  N   UNL     1     -11.566  12.853  67.421  1.00  0.00    -0.339 NA 
BRANCH  26  27
HETATM   27  C   UNL     1     -11.887  12.508  66.026  1.00  0.00    -0.418 C  
HETATM   28  C   UNL     1     -12.401  13.728  65.275  1.00  0.00    -0.491 C  
ENDBRANCH  26  27
BRANCH  26  29
HETATM   29  C   UNL     1     -12.227  14.049  67.961  1.00  0.00    -0.153 C  
HETATM   30  C   UNL     1     -11.215  14.933  68.675  1.00  0.00    -0.288 C  
ENDBRANCH  26  29
ENDBRANCH  21  26
ENDBRANCH  16  18
ENDBRANCH  15  16
ENDBRANCH   8  10
ENDBRANCH   7   8
ENDBRANCH   6   7
ENDBRANCH   5   6
ENDBRANCH   4   5
ENDBRANCH   3   4
ENDBRANCH   2   3
TORSDOF 12
ENDMDL
MODEL      236
REMARK 921   NORMALIZED FREE ENERGY PREDICTED BY IDOCK:   -3.13 KCAL/MOL
REMARK 922        TOTAL FREE ENERGY PREDICTED BY IDOCK:   -7.29 KCAL/MOL
REMARK 923 INTER-LIGAND FREE ENERGY PREDICTED BY IDOCK:   -6.46 KCAL/MOL
REMARK 924 INTRA-LIGAND FREE ENERGY PREDICTED BY IDOCK:   -0.83 KCAL/MOL
REMARK 927      BINDING AFFINITY PREDICTED BY RF-SCORE:    0.00 PKD
ROOT
HETATM    1  C   UNL     1      -9.521   6.058  73.158  1.00  0.00    -0.142 C  
HETATM    2  C   UNL     1     -10.434   5.223  72.272  1.00  0.00    -0.273 C  
ENDROOT
BRANCH   2   3
HETATM    3  C   UNL     1     -11.288   6.108  71.364  1.00  0.00    -0.336 C  
BRANCH   3   4
HETATM    4  C   UNL     1     -11.611   7.457  72.019  1.00  0.00    -0.321 C  
BRANCH   4   5
HETATM    5  C   UNL     1     -11.452   8.597  71.010  1.00  0.00    -0.324 C  
BRANCH   5   6
HETATM    6  C   UNL     1     -10.070   9.243  71.026  1.00  0.00    -0.303 C  
BRANCH   6   7
HETATM    7  O   UNL     1      -9.264   8.980  69.876  1.00  0.00    -0.156 OA 
BRANCH   7   8
HETATM    8  C   UNL     1      -9.941   8.807  68.712  1.00  0.00    -0.185 C  
HETATM    9  O   UNL     1     -10.805   9.549  68.267  1.00  0.00    -0.213 OA 
BRANCH   8  10
HETATM   10  C   UNL     1      -9.245   7.774  67.892  1.00  0.00    -0.141 A  
HETATM   11  C   UNL     1      -9.744   6.465  68.056  1.00  0.00    -0.122 A  
HETATM   12  C   UNL     1      -9.242   5.399  67.309  1.00  0.00    -0.111 A  
HETATM   13  C   UNL     1      -8.198   5.616  66.418  1.00  0.00    -0.107 A  
HETATM   14  C   UNL     1      -7.682   6.900  66.250  1.00  0.00    -0.094 A  
HETATM   15  C   UNL     1      -8.232   7.999  66.939  1.00  0.00    -0.115 A  
BRANCH  15  16
HETATM   16  C   UNL     1      -7.638   9.332  66.676  1.00  0.00    -0.093 C  
HETATM   17  O   UNL     1      -6.420   9.386  66.512  1.00  0.00    -0.065 OA 
BRANCH  16  18
HETATM   18  C   UNL     1      -8.460  10.584  66.513  1.00  0.00    -0.139 A  
HETATM   19  C   UNL     1      -8.071  11.700  67.265  1.00  0.00    -0.160 A  
HETATM   20  C   UNL     1      -8.806  12.900  67.237  1.00  0.00    -0.206 A  
HETATM   21  C   UNL     1      -9.971  13.039  66.472  1.00  0.00    -0.262 A  
HETATM   22  O   UNL     1     -10.057   9.677  64.955  1.00  0.00    -0.379 OA 
HETATM   23  C   UNL     1     -10.325  11.928  65.686  1.00  0.00    -0.285 A  
HETATM   24  H   UNL     1     -10.831   9.769  64.413  1.00  0.00     0.000 HD 
HETATM   25  C   UNL     1      -9.599  10.720  65.713  1.00  0.00    -0.208 A  
BRANCH  21  26
HETATM   26  N   UNL     1     -10.747  14.195  66.470  1.00  0.00    -0.287 NA 
BRANCH  26  27
HETATM   27  C   UNL     1     -11.958  14.238  67.307  1.00  0.00    -0.405 C  
HETATM   28  C   UNL     1     -11.786  13.375  68.548  1.00  0.00    -0.401 C  
ENDBRANCH  26  27
BRANCH  26  29
HETATM   29  C   UNL     1     -10.203  15.494  66.050  1.00  0.00    -0.330 C  
HETATM   30  C   UNL     1     -10.329  16.507  67.178  1.00  0.00    -0.298 C  
ENDBRANCH  26  29
ENDBRANCH  21  26
ENDBRANCH  16  18
ENDBRANCH  15  16
ENDBRANCH   8  10
ENDBRANCH   7   8
ENDBRANCH   6   7
ENDBRANCH   5   6
ENDBRANCH   4   5
ENDBRANCH   3   4
ENDBRANCH   2   3
TORSDOF 12
ENDMDL
MODEL      237
REMARK 921   NORMALIZED FREE ENERGY PREDICTED BY IDOCK:   -3.09 KCAL/MOL
REMARK 922        TOTAL FREE ENERGY PREDICTED BY IDOCK:   -7.22 KCAL/MOL
REMARK 923 INTER-LIGAND FREE ENERGY PREDICTED BY IDOCK:   -5.56 KCAL/MOL
REMARK 924 INTRA-LIGAND FREE ENERGY PREDICTED BY IDOCK:   -1.65 KCAL/MOL
REMARK 927      BINDING AFFINITY PREDICTED BY RF-SCORE:    0.00 PKD
ROOT
HETATM    1  C   UNL     1      -7.954   7.894  65.509  1.00  0.00    -0.119 C  
HETATM    2  C   UNL     1      -8.205   9.248  64.862  1.00  0.00    -0.146 C  
ENDROOT
BRANCH   2   3
HETATM    3  C   UNL     1      -7.245  10.308  65.400  1.00  0.00    -0.143 C  
BRANCH   3   4
HETATM    4  C   UNL     1      -7.443  10.552  66.901  1.00  0.00    -0.110 C  
BRANCH   4   5
HETATM    5  C   UNL     1      -8.404  11.720  67.134  1.00  0.00    -0.168 C  
BRANCH   5   6
HETATM    6  C   UNL     1      -9.600  11.366  68.012  1.00  0.00    -0.183 C  
BRANCH   6   7
HETATM    7  O   UNL     1      -9.293  10.595  69.175  1.00  0.00    -0.196 OA 
BRANCH   7   8
HETATM    8  C   UNL     1      -9.926   9.398  69.268  1.00  0.00    -0.181 C  
HETATM    9  O   UNL     1      -9.541   8.342  68.785  1.00  0.00    -0.148 OA 
BRANCH   8  10
HETATM   10  C   UNL     1     -10.975   9.481  70.326  1.00  0.00    -0.317 A  
HETATM   11  C   UNL     1     -12.159  10.134  69.923  1.00  0.00    -0.102 A  
HETATM   12  C   UNL     1     -13.258  10.235  70.777  1.00  0.00    -0.283 A  
HETATM   13  C   UNL     1     -13.174   9.724  72.067  1.00  0.00    -0.557 A  
HETATM   14  C   UNL     1     -12.008   9.086  72.488  1.00  0.00    -0.124 A  
HETATM   15  C   UNL     1     -10.921   8.908  71.611  1.00  0.00    -0.415 A  
BRANCH  15  16
HETATM   16  C   UNL     1      -9.733   8.192  72.137  1.00  0.00    -0.244 C  
HETATM   17  O   UNL     1      -8.729   8.862  72.375  1.00  0.00    -0.400 OA 
BRANCH  16  18
HETATM   18  C   UNL     1      -9.736   6.723  72.473  1.00  0.00    -0.166 A  
HETATM   19  C   UNL     1      -9.595   6.381  73.824  1.00  0.00    -0.189 A  
HETATM   20  C   UNL     1      -9.521   5.038  74.240  1.00  0.00    -0.133 A  
HETATM   21  C   UNL     1      -9.566   3.976  73.329  1.00  0.00    -0.115 A  
HETATM   22  O   UNL     1      -9.950   5.915  70.214  1.00  0.00    -0.176 OA 
HETATM   23  C   UNL     1      -9.755   4.330  71.982  1.00  0.00    -0.227 A  
HETATM   24  H   UNL     1     -10.008   5.201  69.591  1.00  0.00     0.000 HD 
HETATM   25  C   UNL     1      -9.823   5.672  71.555  1.00  0.00    -0.168 A  
BRANCH  21  26
HETATM   26  N   UNL     1      -9.439   2.642  73.709  1.00  0.00    -0.083 NA 
BRANCH  26  27
HETATM   27  C   UNL     1      -8.090   2.086  73.905  1.00  0.00    -0.050 C  
HETATM   28  C   UNL     1      -7.509   1.603  72.583  1.00  0.00    -0.035 C  
ENDBRANCH  26  27
BRANCH  26  29
HETATM   29  C   UNL     1     -10.541   1.908  74.346  1.00  0.00    -0.136 C  
HETATM   30  C   UNL     1     -11.632   1.609  73.329  1.00  0.00    -0.249 C  
ENDBRANCH  26  29
ENDBRANCH  21  26
ENDBRANCH  16  18
ENDBRANCH  15  16
ENDBRANCH   8  10
ENDBRANCH   7   8
ENDBRANCH   6   7
ENDBRANCH   5   6
ENDBRANCH   4   5
ENDBRANCH   3   4
ENDBRANCH   2   3
TORSDOF 12
ENDMDL
MODEL      238
REMARK 921   NORMALIZED FREE ENERGY PREDICTED BY IDOCK:   -3.08 KCAL/MOL
REMARK 922        TOTAL FREE ENERGY PREDICTED BY IDOCK:   -7.21 KCAL/MOL
REMARK 923 INTER-LIGAND FREE ENERGY PREDICTED BY IDOCK:   -5.48 KCAL/MOL
REMARK 924 INTRA-LIGAND FREE ENERGY PREDICTED BY IDOCK:   -1.73 KCAL/MOL
REMARK 927      BINDING AFFINITY PREDICTED BY RF-SCORE:    0.00 PKD
ROOT
HETATM    1  C   UNL     1     -11.686  13.341  66.947  1.00  0.00    -0.437 C  
HETATM    2  C   UNL     1     -11.545  12.055  66.146  1.00  0.00    -0.371 C  
ENDROOT
BRANCH   2   3
HETATM    3  C   UNL     1     -10.723  11.014  66.905  1.00  0.00    -0.325 C  
BRANCH   3   4
HETATM    4  C   UNL     1      -9.962  10.081  65.956  1.00  0.00    -0.334 C  
BRANCH   4   5
HETATM    5  C   UNL     1      -8.472  10.429  65.938  1.00  0.00    -0.160 C  
BRANCH   5   6
HETATM    6  C   UNL     1      -7.620   9.443  65.147  1.00  0.00    -0.108 C  
BRANCH   6   7
HETATM    7  O   UNL     1      -8.172   8.132  65.014  1.00  0.00    -0.147 OA 
BRANCH   7   8
HETATM    8  C   UNL     1      -7.661   7.193  65.850  1.00  0.00    -0.093 C  
HETATM    9  O   UNL     1      -6.976   7.409  66.840  1.00  0.00    -0.076 OA 
BRANCH   8  10
HETATM   10  C   UNL     1      -8.333   5.888  65.589  1.00  0.00    -0.143 A  
HETATM   11  C   UNL     1      -7.641   5.044  64.693  1.00  0.00    -0.078 A  
HETATM   12  C   UNL     1      -8.107   3.763  64.398  1.00  0.00    -0.086 A  
HETATM   13  C   UNL     1      -9.300   3.320  64.957  1.00  0.00    -0.150 A  
HETATM   14  C   UNL     1     -10.006   4.143  65.834  1.00  0.00    -0.198 A  
HETATM   15  C   UNL     1      -9.506   5.407  66.203  1.00  0.00    -0.171 A  
BRANCH  15  16
HETATM   16  C   UNL     1     -10.309   6.202  67.164  1.00  0.00    -0.230 C  
HETATM   17  O   UNL     1     -11.384   6.649  66.767  1.00  0.00    -0.270 OA 
BRANCH  16  18
HETATM   18  C   UNL     1      -9.914   6.401  68.604  1.00  0.00    -0.162 A  
HETATM   19  C   UNL     1      -9.719   7.721  69.031  1.00  0.00    -0.157 A  
HETATM   20  C   UNL     1      -9.287   8.015  70.338  1.00  0.00    -0.158 A  
HETATM   21  C   UNL     1      -9.011   7.010  71.273  1.00  0.00    -0.137 A  
HETATM   22  O   UNL     1      -9.835   4.069  69.203  1.00  0.00    -0.153 OA 
HETATM   23  C   UNL     1      -9.255   5.693  70.847  1.00  0.00    -0.178 A  
HETATM   24  H   UNL     1      -9.677   3.381  69.838  1.00  0.00     0.000 HD 
HETATM   25  C   UNL     1      -9.681   5.387  69.539  1.00  0.00    -0.176 A  
BRANCH  21  26
HETATM   26  N   UNL     1      -8.529   7.272  72.553  1.00  0.00    -0.107 NA 
BRANCH  26  27
HETATM   27  C   UNL     1      -9.448   7.833  73.556  1.00  0.00    -0.284 C  
HETATM   28  C   UNL     1     -10.872   7.353  73.311  1.00  0.00    -0.417 C  
ENDBRANCH  26  27
BRANCH  26  29
HETATM   29  C   UNL     1      -7.320   6.620  73.075  1.00  0.00    -0.081 C  
HETATM   30  C   UNL     1      -7.655   5.804  74.315  1.00  0.00    -0.091 C  
ENDBRANCH  26  29
ENDBRANCH  21  26
ENDBRANCH  16  18
ENDBRANCH  15  16
ENDBRANCH   8  10
ENDBRANCH   7   8
ENDBRANCH   6   7
ENDBRANCH   5   6
ENDBRANCH   4   5
ENDBRANCH   3   4
ENDBRANCH   2   3
TORSDOF 12
ENDMDL
MODEL      239
REMARK 921   NORMALIZED FREE ENERGY PREDICTED BY IDOCK:   -3.07 KCAL/MOL
REMARK 922        TOTAL FREE ENERGY PREDICTED BY IDOCK:   -7.19 KCAL/MOL
REMARK 923 INTER-LIGAND FREE ENERGY PREDICTED BY IDOCK:   -5.60 KCAL/MOL
REMARK 924 INTRA-LIGAND FREE ENERGY PREDICTED BY IDOCK:   -1.60 KCAL/MOL
REMARK 927      BINDING AFFINITY PREDICTED BY RF-SCORE:    0.00 PKD
ROOT
HETATM    1  C   UNL     1     -12.224  10.673  70.598  1.00  0.00    -0.459 C  
HETATM    2  C   UNL     1     -12.121   9.159  70.494  1.00  0.00    -0.014 C  
ENDROOT
BRANCH   2   3
HETATM    3  C   UNL     1     -10.727   8.669  70.885  1.00  0.00    -0.269 C  
BRANCH   3   4
HETATM    4  C   UNL     1     -10.768   7.270  71.513  1.00  0.00    -0.241 C  
BRANCH   4   5
HETATM    5  C   UNL     1     -10.234   6.224  70.532  1.00  0.00    -0.240 C  
BRANCH   5   6
HETATM    6  C   UNL     1      -8.968   6.657  69.801  1.00  0.00    -0.143 C  
BRANCH   6   7
HETATM    7  O   UNL     1      -8.353   5.647  68.999  1.00  0.00    -0.099 OA 
BRANCH   7   8
HETATM    8  C   UNL     1      -7.597   6.098  67.966  1.00  0.00    -0.101 C  
HETATM    9  O   UNL     1      -6.502   6.635  68.057  1.00  0.00    -0.051 OA 
BRANCH   8  10
HETATM   10  C   UNL     1      -8.132   5.540  66.690  1.00  0.00    -0.105 A  
HETATM   11  C   UNL     1      -8.742   4.275  66.817  1.00  0.00    -0.113 A  
HETATM   12  C   UNL     1      -9.349   3.650  65.727  1.00  0.00    -0.164 A  
HETATM   13  C   UNL     1      -9.314   4.259  64.479  1.00  0.00    -0.160 A  
HETATM   14  C   UNL     1      -8.704   5.504  64.329  1.00  0.00     0.063 A  
HETATM   15  C   UNL     1      -8.158   6.182  65.436  1.00  0.00    -0.133 A  
BRANCH  15  16
HETATM   16  C   UNL     1      -7.556   7.515  65.188  1.00  0.00    -0.096 C  
HETATM   17  O   UNL     1      -6.367   7.547  64.874  1.00  0.00    -0.038 OA 
BRANCH  16  18
HETATM   18  C   UNL     1      -8.348   8.796  65.213  1.00  0.00    -0.168 A  
HETATM   19  C   UNL     1      -8.699   9.299  66.473  1.00  0.00    -0.145 A  
HETATM   20  C   UNL     1      -9.492  10.455  66.609  1.00  0.00    -0.199 A  
HETATM   21  C   UNL     1      -9.985  11.151  65.499  1.00  0.00    -0.249 A  
HETATM   22  O   UNL     1      -8.513   9.076  62.827  1.00  0.00    -0.193 OA 
HETATM   23  C   UNL     1      -9.587  10.664  64.242  1.00  0.00    -0.350 A  
HETATM   24  H   UNL     1      -8.821   9.557  62.068  1.00  0.00     0.000 HD 
HETATM   25  C   UNL     1      -8.800   9.504  64.095  1.00  0.00    -0.211 A  
BRANCH  21  26
HETATM   26  N   UNL     1     -10.817  12.263  65.606  1.00  0.00    -0.276 NA 
BRANCH  26  27
HETATM   27  C   UNL     1     -10.669  13.150  66.771  1.00  0.00    -0.267 C  
HETATM   28  C   UNL     1     -12.002  13.330  67.484  1.00  0.00    -0.371 C  
ENDBRANCH  26  27
BRANCH  26  29
HETATM   29  C   UNL     1     -11.499  12.837  64.438  1.00  0.00    -0.354 C  
HETATM   30  C   UNL     1     -12.570  11.881  63.931  1.00  0.00    -0.450 C  
ENDBRANCH  26  29
ENDBRANCH  21  26
ENDBRANCH  16  18
ENDBRANCH  15  16
ENDBRANCH   8  10
ENDBRANCH   7   8
ENDBRANCH   6   7
ENDBRANCH   5   6
ENDBRANCH   4   5
ENDBRANCH   3   4
ENDBRANCH   2   3
TORSDOF 12
ENDMDL
MODEL      240
REMARK 921   NORMALIZED FREE ENERGY PREDICTED BY IDOCK:   -3.07 KCAL/MOL
REMARK 922        TOTAL FREE ENERGY PREDICTED BY IDOCK:   -7.19 KCAL/MOL
REMARK 923 INTER-LIGAND FREE ENERGY PREDICTED BY IDOCK:   -5.05 KCAL/MOL
REMARK 924 INTRA-LIGAND FREE ENERGY PREDICTED BY IDOCK:   -2.14 KCAL/MOL
REMARK 927      BINDING AFFINITY PREDICTED BY RF-SCORE:    0.00 PKD
ROOT
HETATM    1  C   UNL     1      -7.702   3.343  65.935  1.00  0.00    -0.081 C  
HETATM    2  C   UNL     1      -7.523   3.953  67.318  1.00  0.00    -0.072 C  
ENDROOT
BRANCH   2   3
HETATM    3  C   UNL     1      -7.826   5.450  67.308  1.00  0.00    -0.101 C  
BRANCH   3   4
HETATM    4  C   UNL     1      -6.566   6.292  67.542  1.00  0.00    -0.052 C  
BRANCH   4   5
HETATM    5  C   UNL     1      -6.840   7.767  67.241  1.00  0.00    -0.069 C  
BRANCH   5   6
HETATM    6  C   UNL     1      -6.151   8.729  68.203  1.00  0.00    -0.051 C  
BRANCH   6   7
HETATM    7  O   UNL     1      -6.712  10.042  68.256  1.00  0.00    -0.055 OA 
BRANCH   7   8
HETATM    8  C   UNL     1      -6.386  10.861  67.223  1.00  0.00    -0.068 C  
HETATM    9  O   UNL     1      -5.616  10.594  66.311  1.00  0.00    -0.064 OA 
BRANCH   8  10
HETATM   10  C   UNL     1      -7.355  11.993  67.173  1.00  0.00    -0.134 A  
HETATM   11  C   UNL     1      -6.779  13.263  67.390  1.00  0.00    -0.086 A  
HETATM   12  C   UNL     1      -7.542  14.429  67.309  1.00  0.00    -0.135 A  
HETATM   13  C   UNL     1      -8.906  14.340  67.057  1.00  0.00    -0.243 A  
HETATM   14  C   UNL     1      -9.497  13.094  66.851  1.00  0.00    -0.244 A  
HETATM   15  C   UNL     1      -8.724  11.916  66.852  1.00  0.00    -0.191 A  
BRANCH  15  16
HETATM   16  C   UNL     1      -9.433  10.639  66.595  1.00  0.00    -0.167 C  
HETATM   17  O   UNL     1      -9.474  10.240  65.432  1.00  0.00    -0.194 OA 
BRANCH  16  18
HETATM   18  C   UNL     1     -10.011   9.781  67.690  1.00  0.00    -0.217 A  
HETATM   19  C   UNL     1     -10.156  10.375  68.951  1.00  0.00    -0.213 A  
HETATM   20  C   UNL     1     -10.626   9.644  70.059  1.00  0.00    -0.300 A  
HETATM   21  C   UNL     1     -10.957   8.288  69.967  1.00  0.00    -0.197 A  
HETATM   22  O   UNL     1     -10.255   7.774  66.381  1.00  0.00    -0.474 OA 
HETATM   23  C   UNL     1     -10.852   7.715  68.687  1.00  0.00    -0.013 A  
HETATM   24  H   UNL     1     -10.503   6.861  66.302  1.00  0.00     0.000 HD 
HETATM   25  C   UNL     1     -10.376   8.436  67.573  1.00  0.00    -0.265 A  
BRANCH  21  26
HETATM   26  N   UNL     1     -11.370   7.529  71.059  1.00  0.00    -0.268 NA 
BRANCH  26  27
HETATM   27  C   UNL     1     -10.731   7.758  72.365  1.00  0.00    -0.290 C  
HETATM   28  C   UNL     1      -9.381   7.058  72.434  1.00  0.00    -0.152 C  
ENDBRANCH  26  27
BRANCH  26  29
HETATM   29  C   UNL     1     -12.677   6.857  71.087  1.00  0.00    -0.275 C  
HETATM   30  C   UNL     1     -13.769   7.844  71.472  1.00  0.00    -0.384 C  
ENDBRANCH  26  29
ENDBRANCH  21  26
ENDBRANCH  16  18
ENDBRANCH  15  16
ENDBRANCH   8  10
ENDBRANCH   7   8
ENDBRANCH   6   7
ENDBRANCH   5   6
ENDBRANCH   4   5
ENDBRANCH   3   4
ENDBRANCH   2   3
TORSDOF 12
ENDMDL
MODEL      241
REMARK 921   NORMALIZED FREE ENERGY PREDICTED BY IDOCK:   -3.04 KCAL/MOL
REMARK 922        TOTAL FREE ENERGY PREDICTED BY IDOCK:   -7.13 KCAL/MOL
REMARK 923 INTER-LIGAND FREE ENERGY PREDICTED BY IDOCK:   -6.13 KCAL/MOL
REMARK 924 INTRA-LIGAND FREE ENERGY PREDICTED BY IDOCK:   -1.00 KCAL/MOL
REMARK 927      BINDING AFFINITY PREDICTED BY RF-SCORE:    0.00 PKD
ROOT
HETATM    1  C   UNL     1     -10.937  15.678  66.270  1.00  0.00    -0.201 C  
HETATM    2  C   UNL     1     -11.409  14.628  67.264  1.00  0.00    -0.364 C  
ENDROOT
BRANCH   2   3
HETATM    3  C   UNL     1     -11.753  13.314  66.564  1.00  0.00    -0.423 C  
BRANCH   3   4
HETATM    4  C   UNL     1     -12.244  13.541  65.128  1.00  0.00    -0.462 C  
BRANCH   4   5
HETATM    5  C   UNL     1     -11.710  12.450  64.198  1.00  0.00    -0.476 C  
BRANCH   5   6
HETATM    6  C   UNL     1     -10.419  11.802  64.688  1.00  0.00    -0.299 C  
BRANCH   6   7
HETATM    7  O   UNL     1     -10.414  10.374  64.681  1.00  0.00    -0.259 OA 
BRANCH   7   8
HETATM    8  C   UNL     1     -10.020   9.783  65.838  1.00  0.00    -0.275 C  
HETATM    9  O   UNL     1     -10.474  10.009  66.951  1.00  0.00    -0.236 OA 
BRANCH   8  10
HETATM   10  C   UNL     1      -9.199   8.580  65.517  1.00  0.00    -0.109 A  
HETATM   11  C   UNL     1      -8.257   8.775  64.484  1.00  0.00    -0.168 A  
HETATM   12  C   UNL     1      -7.370   7.765  64.112  1.00  0.00    -0.090 A  
HETATM   13  C   UNL     1      -7.440   6.525  64.735  1.00  0.00    -0.091 A  
HETATM   14  C   UNL     1      -8.372   6.308  65.750  1.00  0.00    -0.145 A  
HETATM   15  C   UNL     1      -9.220   7.343  66.189  1.00  0.00    -0.148 A  
BRANCH  15  16
HETATM   16  C   UNL     1     -10.159   7.029  67.294  1.00  0.00    -0.204 C  
HETATM   17  O   UNL     1     -11.328   6.794  66.991  1.00  0.00    -0.337 OA 
BRANCH  16  18
HETATM   18  C   UNL     1      -9.729   6.898  68.732  1.00  0.00    -0.137 A  
HETATM   19  C   UNL     1      -9.438   8.085  69.416  1.00  0.00    -0.159 A  
HETATM   20  C   UNL     1      -8.967   8.073  70.743  1.00  0.00    -0.148 A  
HETATM   21  C   UNL     1      -8.747   6.880  71.441  1.00  0.00    -0.126 A  
HETATM   22  O   UNL     1      -9.801   4.493  68.833  1.00  0.00    -0.168 OA 
HETATM   23  C   UNL     1      -9.086   5.698  70.760  1.00  0.00    -0.164 A  
HETATM   24  H   UNL     1      -9.680   3.679  69.307  1.00  0.00     0.000 HD 
HETATM   25  C   UNL     1      -9.552   5.700  69.430  1.00  0.00    -0.143 A  
BRANCH  21  26
HETATM   26  N   UNL     1      -8.228   6.839  72.733  1.00  0.00    -0.110 NA 
BRANCH  26  27
HETATM   27  C   UNL     1      -6.801   7.137  72.935  1.00  0.00    -0.068 C  
HETATM   28  C   UNL     1      -5.974   6.635  71.760  1.00  0.00    -0.037 C  
ENDBRANCH  26  27
BRANCH  26  29
HETATM   29  C   UNL     1      -9.089   6.958  73.919  1.00  0.00    -0.182 C  
HETATM   30  C   UNL     1     -10.492   7.382  73.511  1.00  0.00    -0.396 C  
ENDBRANCH  26  29
ENDBRANCH  21  26
ENDBRANCH  16  18
ENDBRANCH  15  16
ENDBRANCH   8  10
ENDBRANCH   7   8
ENDBRANCH   6   7
ENDBRANCH   5   6
ENDBRANCH   4   5
ENDBRANCH   3   4
ENDBRANCH   2   3
TORSDOF 12
ENDMDL
MODEL      242
REMARK 921   NORMALIZED FREE ENERGY PREDICTED BY IDOCK:   -3.01 KCAL/MOL
REMARK 922        TOTAL FREE ENERGY PREDICTED BY IDOCK:   -7.08 KCAL/MOL
REMARK 923 INTER-LIGAND FREE ENERGY PREDICTED BY IDOCK:   -5.50 KCAL/MOL
REMARK 924 INTRA-LIGAND FREE ENERGY PREDICTED BY IDOCK:   -1.58 KCAL/MOL
REMARK 927      BINDING AFFINITY PREDICTED BY RF-SCORE:    0.00 PKD
ROOT
HETATM    1  C   UNL     1      -7.927   9.351  65.054  1.00  0.00    -0.118 C  
HETATM    2  C   UNL     1      -6.737  10.248  65.364  1.00  0.00    -0.123 C  
ENDROOT
BRANCH   2   3
HETATM    3  C   UNL     1      -5.638   9.479  66.098  1.00  0.00    -0.052 C  
BRANCH   3   4
HETATM    4  C   UNL     1      -5.427  10.003  67.524  1.00  0.00    -0.038 C  
BRANCH   4   5
HETATM    5  C   UNL     1      -5.181   8.843  68.492  1.00  0.00    -0.037 C  
BRANCH   5   6
HETATM    6  C   UNL     1      -6.412   8.445  69.299  1.00  0.00    -0.039 C  
BRANCH   6   7
HETATM    7  O   UNL     1      -7.624   8.345  68.550  1.00  0.00    -0.092 OA 
BRANCH   7   8
HETATM    8  C   UNL     1      -8.510   7.416  68.991  1.00  0.00    -0.129 C  
HETATM    9  O   UNL     1      -8.392   6.203  68.884  1.00  0.00    -0.114 OA 
BRANCH   8  10
HETATM   10  C   UNL     1      -9.476   8.065  69.923  1.00  0.00    -0.160 A  
HETATM   11  C   UNL     1      -9.466   7.540  71.233  1.00  0.00    -0.158 A  
HETATM   12  C   UNL     1     -10.265   8.085  72.239  1.00  0.00    -0.325 A  
HETATM   13  C   UNL     1     -11.125   9.134  71.939  1.00  0.00    -0.385 A  
HETATM   14  C   UNL     1     -11.160   9.659  70.648  1.00  0.00    -0.384 A  
HETATM   15  C   UNL     1     -10.302   9.172  69.643  1.00  0.00    -0.226 A  
BRANCH  15  16
HETATM   16  C   UNL     1     -10.388   9.810  68.307  1.00  0.00    -0.198 C  
HETATM   17  O   UNL     1     -10.838   9.131  67.385  1.00  0.00    -0.243 OA 
BRANCH  16  18
HETATM   18  C   UNL     1     -10.040  11.254  68.058  1.00  0.00    -0.192 A  
HETATM   19  C   UNL     1      -8.678  11.578  68.007  1.00  0.00    -0.151 A  
HETATM   20  C   UNL     1      -8.243  12.907  67.843  1.00  0.00    -0.165 A  
HETATM   21  C   UNL     1      -9.143  13.975  67.740  1.00  0.00    -0.192 A  
HETATM   22  O   UNL     1     -12.301  12.080  67.967  1.00  0.00    -0.329 OA 
HETATM   23  C   UNL     1     -10.506  13.632  67.746  1.00  0.00    -0.241 A  
HETATM   24  H   UNL     1     -12.919  12.794  67.871  1.00  0.00     0.000 HD 
HETATM   25  C   UNL     1     -10.951  12.305  67.917  1.00  0.00    -0.224 A  
BRANCH  21  26
HETATM   26  N   UNL     1      -8.739  15.304  67.634  1.00  0.00    -0.167 NA 
BRANCH  26  27
HETATM   27  C   UNL     1      -7.576  15.756  68.415  1.00  0.00    -0.130 C  
HETATM   28  C   UNL     1      -7.553  17.275  68.517  1.00  0.00    -0.251 C  
ENDBRANCH  26  27
BRANCH  26  29
HETATM   29  C   UNL     1      -9.110  16.138  66.483  1.00  0.00    -0.277 C  
HETATM   30  C   UNL     1      -9.892  15.317  65.468  1.00  0.00    -0.362 C  
ENDBRANCH  26  29
ENDBRANCH  21  26
ENDBRANCH  16  18
ENDBRANCH  15  16
ENDBRANCH   8  10
ENDBRANCH   7   8
ENDBRANCH   6   7
ENDBRANCH   5   6
ENDBRANCH   4   5
ENDBRANCH   3   4
ENDBRANCH   2   3
TORSDOF 12
ENDMDL
MODEL      243
REMARK 921   NORMALIZED FREE ENERGY PREDICTED BY IDOCK:   -2.99 KCAL/MOL
REMARK 922        TOTAL FREE ENERGY PREDICTED BY IDOCK:   -7.06 KCAL/MOL
REMARK 923 INTER-LIGAND FREE ENERGY PREDICTED BY IDOCK:   -6.53 KCAL/MOL
REMARK 924 INTRA-LIGAND FREE ENERGY PREDICTED BY IDOCK:   -0.53 KCAL/MOL
REMARK 927      BINDING AFFINITY PREDICTED BY RF-SCORE:    0.00 PKD
ROOT
HETATM    1  C   UNL     1      -6.989  14.485  67.656  1.00  0.00    -0.204 C  
HETATM    2  C   UNL     1      -6.364  13.101  67.552  1.00  0.00    -0.142 C  
ENDROOT
BRANCH   2   3
HETATM    3  C   UNL     1      -5.210  12.937  68.540  1.00  0.00    -0.062 C  
BRANCH   3   4
HETATM    4  C   UNL     1      -5.219  11.556  69.207  1.00  0.00    -0.047 C  
BRANCH   4   5
HETATM    5  C   UNL     1      -5.182  10.448  68.153  1.00  0.00    -0.034 C  
BRANCH   5   6
HETATM    6  C   UNL     1      -6.527   9.764  67.933  1.00  0.00    -0.060 C  
BRANCH   6   7
HETATM    7  O   UNL     1      -7.067   9.102  69.079  1.00  0.00    -0.065 OA 
BRANCH   7   8
HETATM    8  C   UNL     1      -8.065   9.761  69.720  1.00  0.00    -0.167 C  
HETATM    9  O   UNL     1      -8.379  10.932  69.550  1.00  0.00    -0.019 OA 
BRANCH   8  10
HETATM   10  C   UNL     1      -8.943   8.770  70.407  1.00  0.00    -0.188 A  
HETATM   11  C   UNL     1      -8.698   8.635  71.790  1.00  0.00    -0.266 A  
HETATM   12  C   UNL     1      -9.480   7.796  72.586  1.00  0.00    -0.251 A  
HETATM   13  C   UNL     1     -10.489   7.041  72.002  1.00  0.00    -0.232 A  
HETATM   14  C   UNL     1     -10.739   7.150  70.635  1.00  0.00    -0.255 A  
HETATM   15  C   UNL     1     -10.010   8.052  69.835  1.00  0.00    -0.189 A  
BRANCH  15  16
HETATM   16  C   UNL     1     -10.364   8.122  68.396  1.00  0.00    -0.199 C  
HETATM   17  O   UNL     1     -10.526   7.057  67.802  1.00  0.00    -0.187 OA 
BRANCH  16  18
HETATM   18  C   UNL     1     -10.617   9.418  67.670  1.00  0.00    -0.333 A  
HETATM   19  C   UNL     1      -9.991   9.581  66.427  1.00  0.00    -0.339 A  
HETATM   20  C   UNL     1     -10.108  10.778  65.696  1.00  0.00    -0.327 A  
HETATM   21  C   UNL     1     -10.840  11.871  66.174  1.00  0.00    -0.292 A  
HETATM   22  O   UNL     1     -12.021  10.417  69.353  1.00  0.00    -0.489 OA 
HETATM   23  C   UNL     1     -11.502  11.678  67.399  1.00  0.00    -0.357 A  
HETATM   24  H   UNL     1     -12.541  11.144  69.673  1.00  0.00     0.000 HD 
HETATM   25  C   UNL     1     -11.384  10.487  68.143  1.00  0.00    -0.254 A  
BRANCH  21  26
HETATM   26  N   UNL     1     -10.926  13.085  65.496  1.00  0.00    -0.272 NA 
BRANCH  26  27
HETATM   27  C   UNL     1     -10.472  13.150  64.098  1.00  0.00    -0.326 C  
HETATM   28  C   UNL     1     -11.304  12.229  63.217  1.00  0.00    -0.414 C  
ENDBRANCH  26  27
BRANCH  26  29
HETATM   29  C   UNL     1     -11.834  14.155  65.933  1.00  0.00    -0.384 C  
HETATM   30  C   UNL     1     -12.645  14.672  64.755  1.00  0.00    -0.169 C  
ENDBRANCH  26  29
ENDBRANCH  21  26
ENDBRANCH  16  18
ENDBRANCH  15  16
ENDBRANCH   8  10
ENDBRANCH   7   8
ENDBRANCH   6   7
ENDBRANCH   5   6
ENDBRANCH   4   5
ENDBRANCH   3   4
ENDBRANCH   2   3
TORSDOF 12
ENDMDL
MODEL      244
REMARK 921   NORMALIZED FREE ENERGY PREDICTED BY IDOCK:   -2.87 KCAL/MOL
REMARK 922        TOTAL FREE ENERGY PREDICTED BY IDOCK:   -6.86 KCAL/MOL
REMARK 923 INTER-LIGAND FREE ENERGY PREDICTED BY IDOCK:   -5.50 KCAL/MOL
REMARK 924 INTRA-LIGAND FREE ENERGY PREDICTED BY IDOCK:   -1.35 KCAL/MOL
REMARK 927      BINDING AFFINITY PREDICTED BY RF-SCORE:    0.00 PKD
ROOT
HETATM    1  C   UNL     1     -10.121   3.842  64.656  1.00  0.00    -0.193 C  
HETATM    2  C   UNL     1      -8.862   4.521  65.174  1.00  0.00    -0.143 C  
ENDROOT
BRANCH   2   3
HETATM    3  C   UNL     1      -9.185   5.519  66.285  1.00  0.00    -0.161 C  
BRANCH   3   4
HETATM    4  C   UNL     1     -10.413   5.093  67.100  1.00  0.00    -0.224 C  
BRANCH   4   5
HETATM    5  C   UNL     1     -11.036   6.299  67.806  1.00  0.00    -0.427 C  
BRANCH   5   6
HETATM    6  C   UNL     1     -11.248   6.093  69.302  1.00  0.00    -0.367 C  
BRANCH   6   7
HETATM    7  O   UNL     1     -11.281   7.290  70.082  1.00  0.00    -0.269 OA 
BRANCH   7   8
HETATM    8  C   UNL     1     -11.902   7.188  71.285  1.00  0.00    -0.318 C  
HETATM    9  O   UNL     1     -13.063   7.489  71.522  1.00  0.00    -0.349 OA 
BRANCH   8  10
HETATM   10  C   UNL     1     -11.074   6.340  72.191  1.00  0.00    -0.312 A  
HETATM   11  C   UNL     1     -11.640   5.083  72.491  1.00  0.00    -0.023 A  
HETATM   12  C   UNL     1     -10.958   4.149  73.272  1.00  0.00    -0.324 A  
HETATM   13  C   UNL     1      -9.718   4.476  73.807  1.00  0.00    -0.155 A  
HETATM   14  C   UNL     1      -9.148   5.718  73.533  1.00  0.00    -0.131 A  
HETATM   15  C   UNL     1      -9.789   6.639  72.682  1.00  0.00    -0.180 A  
BRANCH  15  16
HETATM   16  C   UNL     1      -9.093   7.924  72.424  1.00  0.00    -0.172 C  
HETATM   17  O   UNL     1      -8.884   8.656  73.391  1.00  0.00    -0.297 OA 
BRANCH  16  18
HETATM   18  C   UNL     1      -8.563   8.319  71.071  1.00  0.00    -0.165 A  
HETATM   19  C   UNL     1      -8.930   9.582  70.590  1.00  0.00    -0.226 A  
HETATM   20  C   UNL     1      -8.542  10.024  69.311  1.00  0.00    -0.172 A  
HETATM   21  C   UNL     1      -7.786   9.224  68.447  1.00  0.00    -0.094 A  
HETATM   22  O   UNL     1      -7.380   6.270  70.620  1.00  0.00    -0.078 OA 
HETATM   23  C   UNL     1      -7.385   7.977  68.958  1.00  0.00    -0.084 A  
HETATM   24  H   UNL     1      -6.844   5.730  70.052  1.00  0.00     0.000 HD 
HETATM   25  C   UNL     1      -7.774   7.523  70.235  1.00  0.00    -0.092 A  
BRANCH  21  26
HETATM   26  N   UNL     1      -7.437   9.614  67.156  1.00  0.00    -0.088 NA 
BRANCH  26  27
HETATM   27  C   UNL     1      -7.694   8.689  66.041  1.00  0.00    -0.100 C  
HETATM   28  C   UNL     1      -7.544   9.401  64.704  1.00  0.00    -0.109 C  
ENDBRANCH  26  27
BRANCH  26  29
HETATM   29  C   UNL     1      -7.254  11.028  66.796  1.00  0.00    -0.139 C  
HETATM   30  C   UNL     1      -5.857  11.492  67.179  1.00  0.00    -0.110 C  
ENDBRANCH  26  29
ENDBRANCH  21  26
ENDBRANCH  16  18
ENDBRANCH  15  16
ENDBRANCH   8  10
ENDBRANCH   7   8
ENDBRANCH   6   7
ENDBRANCH   5   6
ENDBRANCH   4   5
ENDBRANCH   3   4
ENDBRANCH   2   3
TORSDOF 12
ENDMDL
MODEL      245
REMARK 921   NORMALIZED FREE ENERGY PREDICTED BY IDOCK:   -2.82 KCAL/MOL
REMARK 922        TOTAL FREE ENERGY PREDICTED BY IDOCK:   -6.77 KCAL/MOL
REMARK 923 INTER-LIGAND FREE ENERGY PREDICTED BY IDOCK:   -4.83 KCAL/MOL
REMARK 924 INTRA-LIGAND FREE ENERGY PREDICTED BY IDOCK:   -1.94 KCAL/MOL
REMARK 927      BINDING AFFINITY PREDICTED BY RF-SCORE:    0.00 PKD
ROOT
HETATM    1  C   UNL     1     -11.399   9.215  71.587  1.00  0.00    -0.446 C  
HETATM    2  C   UNL     1     -11.582   8.033  72.527  1.00  0.00    -0.464 C  
ENDROOT
BRANCH   2   3
HETATM    3  C   UNL     1     -10.340   7.810  73.389  1.00  0.00    -0.292 C  
BRANCH   3   4
HETATM    4  C   UNL     1     -10.195   6.344  73.817  1.00  0.00    -0.306 C  
BRANCH   4   5
HETATM    5  C   UNL     1      -9.100   5.652  73.003  1.00  0.00    -0.121 C  
BRANCH   5   6
HETATM    6  C   UNL     1      -8.605   6.472  71.816  1.00  0.00    -0.124 C  
BRANCH   6   7
HETATM    7  O   UNL     1      -7.346   6.064  71.278  1.00  0.00    -0.077 OA 
BRANCH   7   8
HETATM    8  C   UNL     1      -7.223   6.169  69.930  1.00  0.00    -0.074 C  
HETATM    9  O   UNL     1      -6.428   6.882  69.334  1.00  0.00    -0.041 OA 
BRANCH   8  10
HETATM   10  C   UNL     1      -7.956   5.043  69.283  1.00  0.00    -0.079 A  
HETATM   11  C   UNL     1      -7.395   3.770  69.519  1.00  0.00    -0.052 A  
HETATM   12  C   UNL     1      -8.001   2.609  69.037  1.00  0.00    -0.062 A  
HETATM   13  C   UNL     1      -9.156   2.706  68.270  1.00  0.00    -0.228 A  
HETATM   14  C   UNL     1      -9.720   3.955  68.015  1.00  0.00    -0.127 A  
HETATM   15  C   UNL     1      -9.163   5.128  68.561  1.00  0.00    -0.145 A  
BRANCH  15  16
HETATM   16  C   UNL     1      -9.847   6.409  68.261  1.00  0.00    -0.128 C  
HETATM   17  O   UNL     1     -10.849   6.682  68.921  1.00  0.00    -0.245 OA 
BRANCH  16  18
HETATM   18  C   UNL     1      -9.324   7.412  67.266  1.00  0.00    -0.159 A  
HETATM   19  C   UNL     1      -8.970   6.924  66.001  1.00  0.00    -0.131 A  
HETATM   20  C   UNL     1      -8.411   7.763  65.019  1.00  0.00    -0.094 A  
HETATM   21  C   UNL     1      -8.163   9.120  65.255  1.00  0.00    -0.134 A  
HETATM   22  O   UNL     1      -9.425   9.332  68.716  1.00  0.00    -0.147 OA 
HETATM   23  C   UNL     1      -8.565   9.607  66.511  1.00  0.00    -0.135 A  
HETATM   24  H   UNL     1      -9.286  10.258  68.877  1.00  0.00     0.000 HD 
HETATM   25  C   UNL     1      -9.119   8.774  67.504  1.00  0.00    -0.133 A  
BRANCH  21  26
HETATM   26  N   UNL     1      -7.560   9.958  64.321  1.00  0.00    -0.135 NA 
BRANCH  26  27
HETATM   27  C   UNL     1      -6.090   9.992  64.242  1.00  0.00    -0.131 C  
HETATM   28  C   UNL     1      -5.591   9.124  63.096  1.00  0.00    -0.076 C  
ENDBRANCH  26  27
BRANCH  26  29
HETATM   29  C   UNL     1      -8.283  10.451  63.140  1.00  0.00    -0.155 C  
HETATM   30  C   UNL     1      -9.729  10.759  63.499  1.00  0.00    -0.387 C  
ENDBRANCH  26  29
ENDBRANCH  21  26
ENDBRANCH  16  18
ENDBRANCH  15  16
ENDBRANCH   8  10
ENDBRANCH   7   8
ENDBRANCH   6   7
ENDBRANCH   5   6
ENDBRANCH   4   5
ENDBRANCH   3   4
ENDBRANCH   2   3
TORSDOF 12
ENDMDL
MODEL      246
REMARK 921   NORMALIZED FREE ENERGY PREDICTED BY IDOCK:   -2.81 KCAL/MOL
REMARK 922        TOTAL FREE ENERGY PREDICTED BY IDOCK:   -6.74 KCAL/MOL
REMARK 923 INTER-LIGAND FREE ENERGY PREDICTED BY IDOCK:   -5.09 KCAL/MOL
REMARK 924 INTRA-LIGAND FREE ENERGY PREDICTED BY IDOCK:   -1.65 KCAL/MOL
REMARK 927      BINDING AFFINITY PREDICTED BY RF-SCORE:    0.00 PKD
ROOT
HETATM    1  C   UNL     1     -11.213   8.263  71.204  1.00  0.00    -0.296 C  
HETATM    2  C   UNL     1     -12.508   8.830  71.768  1.00  0.00    -0.407 C  
ENDROOT
BRANCH   2   3
HETATM    3  C   UNL     1     -13.223   9.708  70.742  1.00  0.00    -0.108 C  
BRANCH   3   4
HETATM    4  C   UNL     1     -12.915  11.197  70.946  1.00  0.00    -0.276 C  
BRANCH   4   5
HETATM    5  C   UNL     1     -11.727  11.624  70.081  1.00  0.00    -0.381 C  
BRANCH   5   6
HETATM    6  C   UNL     1     -12.125  12.403  68.833  1.00  0.00    -0.123 C  
BRANCH   6   7
HETATM    7  O   UNL     1     -11.640  11.866  67.600  1.00  0.00    -0.363 OA 
BRANCH   7   8
HETATM    8  C   UNL     1     -11.061  12.760  66.759  1.00  0.00    -0.277 C  
HETATM    9  O   UNL     1     -11.649  13.498  65.980  1.00  0.00    -0.318 OA 
BRANCH   8  10
HETATM   10  C   UNL     1      -9.639  12.960  67.161  1.00  0.00    -0.225 A  
HETATM   11  C   UNL     1      -9.394  14.160  67.860  1.00  0.00    -0.204 A  
HETATM   12  C   UNL     1      -8.127  14.461  68.361  1.00  0.00    -0.143 A  
HETATM   13  C   UNL     1      -7.071  13.587  68.130  1.00  0.00    -0.117 A  
HETATM   14  C   UNL     1      -7.290  12.401  67.430  1.00  0.00    -0.149 A  
HETATM   15  C   UNL     1      -8.580  12.048  66.988  1.00  0.00    -0.185 A  
BRANCH  15  16
HETATM   16  C   UNL     1      -8.723  10.753  66.277  1.00  0.00    -0.169 C  
HETATM   17  O   UNL     1      -9.051  10.793  65.092  1.00  0.00    -0.193 OA 
BRANCH  16  18
HETATM   18  C   UNL     1      -8.402   9.424  66.909  1.00  0.00    -0.127 A  
HETATM   19  C   UNL     1      -9.401   8.839  67.698  1.00  0.00    -0.157 A  
HETATM   20  C   UNL     1      -9.182   7.630  68.385  1.00  0.00    -0.140 A  
HETATM   21  C   UNL     1      -7.955   6.959  68.334  1.00  0.00    -0.122 A  
HETATM   22  O   UNL     1      -6.148   9.251  66.078  1.00  0.00    -0.057 OA 
HETATM   23  C   UNL     1      -6.976   7.531  67.503  1.00  0.00    -0.080 A  
HETATM   24  H   UNL     1      -5.321   8.790  66.015  1.00  0.00     0.000 HD 
HETATM   25  C   UNL     1      -7.183   8.745  66.816  1.00  0.00    -0.082 A  
BRANCH  21  26
HETATM   26  N   UNL     1      -7.695   5.792  69.049  1.00  0.00    -0.089 NA 
BRANCH  26  27
HETATM   27  C   UNL     1      -6.548   4.959  68.653  1.00  0.00    -0.049 C  
HETATM   28  C   UNL     1      -6.907   3.481  68.719  1.00  0.00    -0.046 C  
ENDBRANCH  26  27
BRANCH  26  29
HETATM   29  C   UNL     1      -8.205   5.587  70.412  1.00  0.00    -0.104 C  
HETATM   30  C   UNL     1      -7.941   6.819  71.264  1.00  0.00    -0.106 C  
ENDBRANCH  26  29
ENDBRANCH  21  26
ENDBRANCH  16  18
ENDBRANCH  15  16
ENDBRANCH   8  10
ENDBRANCH   7   8
ENDBRANCH   6   7
ENDBRANCH   5   6
ENDBRANCH   4   5
ENDBRANCH   3   4
ENDBRANCH   2   3
TORSDOF 12
ENDMDL
MODEL      247
REMARK 921   NORMALIZED FREE ENERGY PREDICTED BY IDOCK:   -2.80 KCAL/MOL
REMARK 922        TOTAL FREE ENERGY PREDICTED BY IDOCK:   -6.73 KCAL/MOL
REMARK 923 INTER-LIGAND FREE ENERGY PREDICTED BY IDOCK:   -5.20 KCAL/MOL
REMARK 924 INTRA-LIGAND FREE ENERGY PREDICTED BY IDOCK:   -1.54 KCAL/MOL
REMARK 927      BINDING AFFINITY PREDICTED BY RF-SCORE:    0.00 PKD
ROOT
HETATM    1  C   UNL     1      -7.979   6.441  71.439  1.00  0.00    -0.105 C  
HETATM    2  C   UNL     1      -7.718   7.705  70.632  1.00  0.00    -0.088 C  
ENDROOT
BRANCH   2   3
HETATM    3  C   UNL     1      -6.425   8.389  71.074  1.00  0.00    -0.042 C  
BRANCH   3   4
HETATM    4  C   UNL     1      -5.829   9.261  69.962  1.00  0.00    -0.035 C  
BRANCH   4   5
HETATM    5  C   UNL     1      -6.295  10.711  70.106  1.00  0.00    -0.139 C  
BRANCH   5   6
HETATM    6  C   UNL     1      -7.633  10.997  69.434  1.00  0.00    -0.054 C  
BRANCH   6   7
HETATM    7  O   UNL     1      -7.769  10.483  68.107  1.00  0.00    -0.093 OA 
BRANCH   7   8
HETATM    8  C   UNL     1      -7.671  11.399  67.111  1.00  0.00    -0.152 C  
HETATM    9  O   UNL     1      -6.818  11.418  66.233  1.00  0.00    -0.063 OA 
BRANCH   8  10
HETATM   10  C   UNL     1      -8.941  12.177  67.035  1.00  0.00    -0.201 A  
HETATM   11  C   UNL     1      -8.972  13.325  67.856  1.00  0.00    -0.199 A  
HETATM   12  C   UNL     1     -10.064  14.193  67.847  1.00  0.00    -0.235 A  
HETATM   13  C   UNL     1     -11.166  13.902  67.053  1.00  0.00    -0.327 A  
HETATM   14  C   UNL     1     -11.161  12.766  66.244  1.00  0.00    -0.321 A  
HETATM   15  C   UNL     1     -10.034  11.924  66.183  1.00  0.00    -0.254 A  
BRANCH  15  16
HETATM   16  C   UNL     1     -10.107  10.755  65.273  1.00  0.00    -0.290 C  
HETATM   17  O   UNL     1     -10.402  10.971  64.099  1.00  0.00    -0.326 OA 
BRANCH  16  18
HETATM   18  C   UNL     1      -9.751   9.354  65.698  1.00  0.00    -0.336 A  
HETATM   19  C   UNL     1     -10.534   8.780  66.708  1.00  0.00    -0.283 A  
HETATM   20  C   UNL     1     -10.248   7.502  67.224  1.00  0.00    -0.337 A  
HETATM   21  C   UNL     1      -9.161   6.744  66.771  1.00  0.00    -0.150 A  
HETATM   22  O   UNL     1      -7.862   9.081  64.229  1.00  0.00    -0.117 OA 
HETATM   23  C   UNL     1      -8.412   7.311  65.725  1.00  0.00    -0.148 A  
HETATM   24  H   UNL     1      -7.139   8.564  63.896  1.00  0.00     0.000 HD 
HETATM   25  C   UNL     1      -8.685   8.593  65.207  1.00  0.00    -0.165 A  
BRANCH  21  26
HETATM   26  N   UNL     1      -8.824   5.502  67.303  1.00  0.00    -0.107 NA 
BRANCH  26  27
HETATM   27  C   UNL     1      -9.723   4.361  67.066  1.00  0.00    -0.205 C  
HETATM   28  C   UNL     1     -10.404   4.485  65.710  1.00  0.00    -0.287 C  
ENDBRANCH  26  27
BRANCH  26  29
HETATM   29  C   UNL     1      -7.444   5.172  67.687  1.00  0.00    -0.083 C  
HETATM   30  C   UNL     1      -7.441   4.251  68.898  1.00  0.00    -0.055 C  
ENDBRANCH  26  29
ENDBRANCH  21  26
ENDBRANCH  16  18
ENDBRANCH  15  16
ENDBRANCH   8  10
ENDBRANCH   7   8
ENDBRANCH   6   7
ENDBRANCH   5   6
ENDBRANCH   4   5
ENDBRANCH   3   4
ENDBRANCH   2   3
TORSDOF 12
ENDMDL
MODEL      248
REMARK 921   NORMALIZED FREE ENERGY PREDICTED BY IDOCK:   -2.79 KCAL/MOL
REMARK 922        TOTAL FREE ENERGY PREDICTED BY IDOCK:   -6.71 KCAL/MOL
REMARK 923 INTER-LIGAND FREE ENERGY PREDICTED BY IDOCK:   -5.45 KCAL/MOL
REMARK 924 INTRA-LIGAND FREE ENERGY PREDICTED BY IDOCK:   -1.26 KCAL/MOL
REMARK 927      BINDING AFFINITY PREDICTED BY RF-SCORE:    0.00 PKD
ROOT
HETATM    1  C   UNL     1      -5.155   7.445  71.114  1.00  0.00    -0.027 C  
HETATM    2  C   UNL     1      -5.525   7.573  72.584  1.00  0.00    -0.037 C  
ENDROOT
BRANCH   2   3
HETATM    3  C   UNL     1      -6.823   8.358  72.765  1.00  0.00    -0.099 C  
BRANCH   3   4
HETATM    4  C   UNL     1      -7.916   7.513  73.433  1.00  0.00    -0.150 C  
BRANCH   4   5
HETATM    5  C   UNL     1      -8.865   6.933  72.382  1.00  0.00    -0.139 C  
BRANCH   5   6
HETATM    6  C   UNL     1      -8.617   7.459  70.973  1.00  0.00    -0.134 C  
BRANCH   6   7
HETATM    7  O   UNL     1      -9.306   8.667  70.644  1.00  0.00    -0.163 OA 
BRANCH   7   8
HETATM    8  C   UNL     1     -10.434   8.515  69.904  1.00  0.00    -0.219 C  
HETATM    9  O   UNL     1     -11.449   9.193  69.993  1.00  0.00    -0.158 OA 
BRANCH   8  10
HETATM   10  C   UNL     1     -10.138   7.634  68.738  1.00  0.00    -0.202 A  
HETATM   11  C   UNL     1     -10.868   6.426  68.720  1.00  0.00    -0.378 A  
HETATM   12  C   UNL     1     -10.752   5.525  67.661  1.00  0.00    -0.198 A  
HETATM   13  C   UNL     1      -9.867   5.794  66.624  1.00  0.00    -0.194 A  
HETATM   14  C   UNL     1      -9.126   6.976  66.630  1.00  0.00    -0.175 A  
HETATM   15  C   UNL     1      -9.292   7.931  67.651  1.00  0.00    -0.161 A  
BRANCH  15  16
HETATM   16  C   UNL     1      -8.484   9.171  67.560  1.00  0.00    -0.116 C  
HETATM   17  O   UNL     1      -7.313   9.110  67.931  1.00  0.00    -0.082 OA 
BRANCH  16  18
HETATM   18  C   UNL     1      -9.001  10.451  66.957  1.00  0.00    -0.150 A  
HETATM   19  C   UNL     1      -9.384  11.462  67.849  1.00  0.00    -0.164 A  
HETATM   20  C   UNL     1      -9.940  12.673  67.394  1.00  0.00    -0.204 A  
HETATM   21  C   UNL     1     -10.157  12.925  66.035  1.00  0.00    -0.285 A  
HETATM   22  O   UNL     1      -8.840   9.768  64.654  1.00  0.00    -0.181 OA 
HETATM   23  C   UNL     1      -9.726  11.923  65.148  1.00  0.00    -0.197 A  
HETATM   24  H   UNL     1      -8.958   9.941  63.727  1.00  0.00     0.000 HD 
HETATM   25  C   UNL     1      -9.175  10.705  65.593  1.00  0.00    -0.196 A  
BRANCH  21  26
HETATM   26  N   UNL     1     -10.757  14.090  65.563  1.00  0.00    -0.300 NA 
BRANCH  26  27
HETATM   27  C   UNL     1     -12.203  14.275  65.762  1.00  0.00    -0.403 C  
HETATM   28  C   UNL     1     -12.995  13.302  64.899  1.00  0.00    -0.199 C  
ENDBRANCH  26  27
BRANCH  26  29
HETATM   29  C   UNL     1      -9.980  15.308  65.293  1.00  0.00    -0.287 C  
HETATM   30  C   UNL     1     -10.599  16.498  66.009  1.00  0.00    -0.259 C  
ENDBRANCH  26  29
ENDBRANCH  21  26
ENDBRANCH  16  18
ENDBRANCH  15  16
ENDBRANCH   8  10
ENDBRANCH   7   8
ENDBRANCH   6   7
ENDBRANCH   5   6
ENDBRANCH   4   5
ENDBRANCH   3   4
ENDBRANCH   2   3
TORSDOF 12
ENDMDL
MODEL      249
REMARK 921   NORMALIZED FREE ENERGY PREDICTED BY IDOCK:   -2.75 KCAL/MOL
REMARK 922        TOTAL FREE ENERGY PREDICTED BY IDOCK:   -6.65 KCAL/MOL
REMARK 923 INTER-LIGAND FREE ENERGY PREDICTED BY IDOCK:   -5.98 KCAL/MOL
REMARK 924 INTRA-LIGAND FREE ENERGY PREDICTED BY IDOCK:   -0.67 KCAL/MOL
REMARK 927      BINDING AFFINITY PREDICTED BY RF-SCORE:    0.00 PKD
ROOT
HETATM    1  C   UNL     1     -10.133   2.880  64.111  1.00  0.00    -0.109 C  
HETATM    2  C   UNL     1      -9.060   3.806  63.559  1.00  0.00    -0.109 C  
ENDROOT
BRANCH   2   3
HETATM    3  C   UNL     1      -8.780   4.964  64.516  1.00  0.00    -0.148 C  
BRANCH   3   4
HETATM    4  C   UNL     1      -8.753   4.505  65.979  1.00  0.00    -0.115 C  
BRANCH   4   5
HETATM    5  C   UNL     1      -9.790   5.271  66.802  1.00  0.00    -0.195 C  
BRANCH   5   6
HETATM    6  C   UNL     1      -9.183   6.161  67.882  1.00  0.00    -0.115 C  
BRANCH   6   7
HETATM    7  O   UNL     1     -10.095   7.066  68.508  1.00  0.00    -0.154 OA 
BRANCH   7   8
HETATM    8  C   UNL     1     -10.690   6.608  69.639  1.00  0.00    -0.260 C  
HETATM    9  O   UNL     1     -11.883   6.374  69.779  1.00  0.00    -0.357 OA 
BRANCH   8  10
HETATM   10  C   UNL     1      -9.642   6.108  70.575  1.00  0.00    -0.192 A  
HETATM   11  C   UNL     1      -9.339   4.737  70.432  1.00  0.00    -0.216 A  
HETATM   12  C   UNL     1      -8.334   4.134  71.189  1.00  0.00    -0.094 A  
HETATM   13  C   UNL     1      -7.646   4.882  72.137  1.00  0.00    -0.089 A  
HETATM   14  C   UNL     1      -7.939   6.235  72.302  1.00  0.00    -0.104 A  
HETATM   15  C   UNL     1      -8.896   6.875  71.490  1.00  0.00    -0.132 A  
BRANCH  15  16
HETATM   16  C   UNL     1      -9.121   8.324  71.718  1.00  0.00    -0.193 C  
HETATM   17  O   UNL     1      -9.057   8.729  72.877  1.00  0.00    -0.311 OA 
BRANCH  16  18
HETATM   18  C   UNL     1      -9.328   9.313  70.600  1.00  0.00    -0.329 A  
HETATM   19  C   UNL     1     -10.602   9.884  70.488  1.00  0.00    -0.359 A  
HETATM   20  C   UNL     1     -10.921  10.770  69.442  1.00  0.00    -0.305 A  
HETATM   21  C   UNL     1      -9.993  11.115  68.452  1.00  0.00    -0.187 A  
HETATM   22  O   UNL     1      -7.112   9.158  69.669  1.00  0.00    -0.055 OA 
HETATM   23  C   UNL     1      -8.705  10.572  68.602  1.00  0.00    -0.143 A  
HETATM   24  H   UNL     1      -6.467   9.407  69.017  1.00  0.00     0.000 HD 
HETATM   25  C   UNL     1      -8.378   9.678  69.641  1.00  0.00    -0.168 A  
BRANCH  21  26
HETATM   26  N   UNL     1     -10.300  11.945  67.376  1.00  0.00    -0.205 NA 
BRANCH  26  27
HETATM   27  C   UNL     1      -9.410  11.945  66.204  1.00  0.00    -0.219 C  
HETATM   28  C   UNL     1      -9.788  10.830  65.239  1.00  0.00    -0.329 C  
ENDBRANCH  26  27
BRANCH  26  29
HETATM   29  C   UNL     1     -11.659  12.462  67.158  1.00  0.00    -0.365 C  
HETATM   30  C   UNL     1     -11.801  13.845  67.773  1.00  0.00    -0.415 C  
ENDBRANCH  26  29
ENDBRANCH  21  26
ENDBRANCH  16  18
ENDBRANCH  15  16
ENDBRANCH   8  10
ENDBRANCH   7   8
ENDBRANCH   6   7
ENDBRANCH   5   6
ENDBRANCH   4   5
ENDBRANCH   3   4
ENDBRANCH   2   3
TORSDOF 12
ENDMDL
MODEL      250
REMARK 921   NORMALIZED FREE ENERGY PREDICTED BY IDOCK:   -2.72 KCAL/MOL
REMARK 922        TOTAL FREE ENERGY PREDICTED BY IDOCK:   -6.59 KCAL/MOL
REMARK 923 INTER-LIGAND FREE ENERGY PREDICTED BY IDOCK:   -5.30 KCAL/MOL
REMARK 924 INTRA-LIGAND FREE ENERGY PREDICTED BY IDOCK:   -1.29 KCAL/MOL
REMARK 927      BINDING AFFINITY PREDICTED BY RF-SCORE:    0.00 PKD
ROOT
HETATM    1  C   UNL     1     -12.097  13.948  63.783  1.00  0.00    -0.330 C  
HETATM    2  C   UNL     1     -12.706  12.586  63.481  1.00  0.00    -0.366 C  
ENDROOT
BRANCH   2   3
HETATM    3  C   UNL     1     -11.634  11.500  63.412  1.00  0.00    -0.232 C  
BRANCH   3   4
HETATM    4  C   UNL     1     -10.222  12.078  63.574  1.00  0.00    -0.477 C  
BRANCH   4   5
HETATM    5  C   UNL     1      -9.508  11.428  64.761  1.00  0.00    -0.176 C  
BRANCH   5   6
HETATM    6  C   UNL     1      -8.934  10.049  64.453  1.00  0.00    -0.231 C  
BRANCH   6   7
HETATM    7  O   UNL     1      -8.231   9.429  65.531  1.00  0.00    -0.119 OA 
BRANCH   7   8
HETATM    8  C   UNL     1      -8.948   8.539  66.263  1.00  0.00    -0.168 C  
HETATM    9  O   UNL     1     -10.163   8.399  66.236  1.00  0.00    -0.212 OA 
BRANCH   8  10
HETATM   10  C   UNL     1      -8.021   7.527  66.848  1.00  0.00    -0.115 A  
HETATM   11  C   UNL     1      -7.464   6.634  65.908  1.00  0.00    -0.081 A  
HETATM   12  C   UNL     1      -6.528   5.672  66.288  1.00  0.00    -0.044 A  
HETATM   13  C   UNL     1      -6.168   5.556  67.625  1.00  0.00    -0.034 A  
HETATM   14  C   UNL     1      -6.716   6.420  68.572  1.00  0.00    -0.068 A  
HETATM   15  C   UNL     1      -7.601   7.446  68.190  1.00  0.00    -0.114 A  
BRANCH  15  16
HETATM   16  C   UNL     1      -8.112   8.337  69.261  1.00  0.00    -0.116 C  
HETATM   17  O   UNL     1      -8.121   7.892  70.408  1.00  0.00    -0.109 OA 
BRANCH  16  18
HETATM   18  C   UNL     1      -8.525   9.766  69.020  1.00  0.00    -0.137 A  
HETATM   19  C   UNL     1      -9.831  10.118  69.386  1.00  0.00    -0.247 A  
HETATM   20  C   UNL     1     -10.339  11.409  69.146  1.00  0.00    -0.122 A  
HETATM   21  C   UNL     1      -9.579  12.401  68.516  1.00  0.00    -0.118 A  
HETATM   22  O   UNL     1      -6.457  10.497  68.026  1.00  0.00    -0.058 OA 
HETATM   23  C   UNL     1      -8.256  12.049  68.196  1.00  0.00    -0.163 A  
HETATM   24  H   UNL     1      -5.924  11.171  67.623  1.00  0.00     0.000 HD 
HETATM   25  C   UNL     1      -7.739  10.758  68.426  1.00  0.00    -0.113 A  
BRANCH  21  26
HETATM   26  N   UNL     1     -10.076  13.667  68.217  1.00  0.00    -0.235 NA 
BRANCH  26  27
HETATM   27  C   UNL     1      -9.163  14.671  67.647  1.00  0.00    -0.193 C  
HETATM   28  C   UNL     1      -9.561  15.013  66.218  1.00  0.00    -0.335 C  
ENDBRANCH  26  27
BRANCH  26  29
HETATM   29  C   UNL     1     -11.512  13.908  68.016  1.00  0.00    -0.307 C  
HETATM   30  C   UNL     1     -12.101  12.852  67.094  1.00  0.00    -0.283 C  
ENDBRANCH  26  29
ENDBRANCH  21  26
ENDBRANCH  16  18
ENDBRANCH  15  16
ENDBRANCH   8  10
ENDBRANCH   7   8
ENDBRANCH   6   7
ENDBRANCH   5   6
ENDBRANCH   4   5
ENDBRANCH   3   4
ENDBRANCH   2   3
TORSDOF 12
ENDMDL
MODEL      251
REMARK 921   NORMALIZED FREE ENERGY PREDICTED BY IDOCK:   -2.70 KCAL/MOL
REMARK 922        TOTAL FREE ENERGY PREDICTED BY IDOCK:   -6.56 KCAL/MOL
REMARK 923 INTER-LIGAND FREE ENERGY PREDICTED BY IDOCK:   -6.17 KCAL/MOL
REMARK 924 INTRA-LIGAND FREE ENERGY PREDICTED BY IDOCK:   -0.39 KCAL/MOL
REMARK 927      BINDING AFFINITY PREDICTED BY RF-SCORE:    0.00 PKD
ROOT
HETATM    1  C   UNL     1      -8.293   5.875  65.255  1.00  0.00    -0.146 C  
HETATM    2  C   UNL     1      -7.994   7.365  65.189  1.00  0.00    -0.128 C  
ENDROOT
BRANCH   2   3
HETATM    3  C   UNL     1      -7.408   7.755  63.833  1.00  0.00    -0.096 C  
BRANCH   3   4
HETATM    4  C   UNL     1      -6.155   8.628  63.980  1.00  0.00    -0.071 C  
BRANCH   4   5
HETATM    5  C   UNL     1      -6.541  10.099  64.155  1.00  0.00    -0.113 C  
BRANCH   5   6
HETATM    6  C   UNL     1      -6.591  10.552  65.610  1.00  0.00    -0.116 C  
BRANCH   6   7
HETATM    7  O   UNL     1      -7.895  10.862  66.106  1.00  0.00    -0.157 OA 
BRANCH   7   8
HETATM    8  C   UNL     1      -7.941  11.800  67.086  1.00  0.00    -0.166 C  
HETATM    9  O   UNL     1      -6.980  12.259  67.687  1.00  0.00    -0.102 OA 
BRANCH   8  10
HETATM   10  C   UNL     1      -9.289  12.439  67.087  1.00  0.00    -0.199 A  
HETATM   11  C   UNL     1      -9.266  13.849  67.029  1.00  0.00    -0.257 A  
HETATM   12  C   UNL     1     -10.446  14.590  66.956  1.00  0.00    -0.268 A  
HETATM   13  C   UNL     1     -11.671  13.936  66.989  1.00  0.00    -0.426 A  
HETATM   14  C   UNL     1     -11.716  12.544  67.059  1.00  0.00    -0.437 A  
HETATM   15  C   UNL     1     -10.533  11.779  67.053  1.00  0.00    -0.252 A  
BRANCH  15  16
HETATM   16  C   UNL     1     -10.677  10.304  67.101  1.00  0.00    -0.241 C  
HETATM   17  O   UNL     1     -10.772   9.711  66.027  1.00  0.00     0.046 OA 
BRANCH  16  18
HETATM   18  C   UNL     1     -10.621   9.509  68.380  1.00  0.00    -0.261 A  
HETATM   19  C   UNL     1     -10.479   8.121  68.258  1.00  0.00    -0.210 A  
HETATM   20  C   UNL     1     -10.481   7.279  69.386  1.00  0.00    -0.223 A  
HETATM   21  C   UNL     1     -10.640   7.778  70.684  1.00  0.00    -0.222 A  
HETATM   22  O   UNL     1     -10.897  11.370  69.884  1.00  0.00    -0.461 OA 
HETATM   23  C   UNL     1     -10.735   9.176  70.797  1.00  0.00    -0.327 A  
HETATM   24  H   UNL     1     -10.978  11.721  70.762  1.00  0.00     0.000 HD 
HETATM   25  C   UNL     1     -10.742  10.027  69.673  1.00  0.00    -0.255 A  
BRANCH  21  26
HETATM   26  N   UNL     1     -10.701   6.962  71.811  1.00  0.00    -0.220 NA 
BRANCH  26  27
HETATM   27  C   UNL     1     -12.019   6.630  72.377  1.00  0.00    -0.146 C  
HETATM   28  C   UNL     1     -13.134   7.228  71.530  1.00  0.00    -0.434 C  
ENDBRANCH  26  27
BRANCH  26  29
HETATM   29  C   UNL     1      -9.593   6.072  72.186  1.00  0.00    -0.151 C  
HETATM   30  C   UNL     1      -9.074   6.430  73.570  1.00  0.00    -0.134 C  
ENDBRANCH  26  29
ENDBRANCH  21  26
ENDBRANCH  16  18
ENDBRANCH  15  16
ENDBRANCH   8  10
ENDBRANCH   7   8
ENDBRANCH   6   7
ENDBRANCH   5   6
ENDBRANCH   4   5
ENDBRANCH   3   4
ENDBRANCH   2   3
TORSDOF 12
ENDMDL
MODEL      252
REMARK 921   NORMALIZED FREE ENERGY PREDICTED BY IDOCK:   -2.68 KCAL/MOL
REMARK 922        TOTAL FREE ENERGY PREDICTED BY IDOCK:   -6.52 KCAL/MOL
REMARK 923 INTER-LIGAND FREE ENERGY PREDICTED BY IDOCK:   -6.75 KCAL/MOL
REMARK 924 INTRA-LIGAND FREE ENERGY PREDICTED BY IDOCK:    0.22 KCAL/MOL
REMARK 927      BINDING AFFINITY PREDICTED BY RF-SCORE:    0.00 PKD
ROOT
HETATM    1  C   UNL     1     -14.407  14.423  72.077  1.00  0.00    -0.636 C  
HETATM    2  C   UNL     1     -12.916  14.145  72.194  1.00  0.00    -0.463 C  
ENDROOT
BRANCH   2   3
HETATM    3  C   UNL     1     -12.316  13.754  70.843  1.00  0.00    -0.456 C  
BRANCH   3   4
HETATM    4  C   UNL     1     -12.716  14.734  69.733  1.00  0.00    -0.062 C  
BRANCH   4   5
HETATM    5  C   UNL     1     -11.557  15.678  69.407  1.00  0.00    -0.378 C  
BRANCH   5   6
HETATM    6  C   UNL     1     -11.444  16.024  67.925  1.00  0.00    -0.140 C  
BRANCH   6   7
HETATM    7  O   UNL     1     -11.777  14.964  67.027  1.00  0.00    -0.348 OA 
BRANCH   7   8
HETATM    8  C   UNL     1     -10.932  14.798  65.978  1.00  0.00    -0.328 C  
HETATM    9  O   UNL     1     -11.161  15.104  64.816  1.00  0.00    -0.395 OA 
BRANCH   8  10
HETATM   10  C   UNL     1      -9.564  14.507  66.494  1.00  0.00    -0.311 A  
HETATM   11  C   UNL     1      -8.720  15.635  66.576  1.00  0.00    -0.342 A  
HETATM   12  C   UNL     1      -7.431  15.539  67.101  1.00  0.00    -0.244 A  
HETATM   13  C   UNL     1      -6.945  14.303  67.509  1.00  0.00    -0.177 A  
HETATM   14  C   UNL     1      -7.759  13.173  67.424  1.00  0.00    -0.151 A  
HETATM   15  C   UNL     1      -9.089  13.270  66.970  1.00  0.00    -0.232 A  
BRANCH  15  16
HETATM   16  C   UNL     1      -9.889  12.021  66.942  1.00  0.00    -0.204 C  
HETATM   17  O   UNL     1     -11.105  12.134  66.793  1.00  0.00    -0.268 OA 
BRANCH  16  18
HETATM   18  C   UNL     1      -9.277  10.646  66.994  1.00  0.00    -0.167 A  
HETATM   19  C   UNL     1      -8.555  10.317  68.149  1.00  0.00    -0.119 A  
HETATM   20  C   UNL     1      -7.889   9.083  68.274  1.00  0.00    -0.100 A  
HETATM   21  C   UNL     1      -7.896   8.129  67.250  1.00  0.00    -0.105 A  
HETATM   22  O   UNL     1      -9.998   9.930  64.810  1.00  0.00    -0.395 OA 
HETATM   23  C   UNL     1      -8.662   8.451  66.116  1.00  0.00    -0.175 A  
HETATM   24  H   UNL     1     -10.031   9.278  64.121  1.00  0.00     0.000 HD 
HETATM   25  C   UNL     1      -9.326   9.687  65.978  1.00  0.00    -0.207 A  
BRANCH  21  26
HETATM   26  N   UNL     1      -7.200   6.925  67.326  1.00  0.00    -0.087 NA 
BRANCH  26  27
HETATM   27  C   UNL     1      -5.744   6.933  67.111  1.00  0.00    -0.017 C  
HETATM   28  C   UNL     1      -5.300   8.242  66.473  1.00  0.00    -0.028 C  
ENDBRANCH  26  27
BRANCH  26  29
HETATM   29  C   UNL     1      -7.744   5.757  68.033  1.00  0.00    -0.096 C  
HETATM   30  C   UNL     1      -9.195   6.003  68.418  1.00  0.00    -0.114 C  
ENDBRANCH  26  29
ENDBRANCH  21  26
ENDBRANCH  16  18
ENDBRANCH  15  16
ENDBRANCH   8  10
ENDBRANCH   7   8
ENDBRANCH   6   7
ENDBRANCH   5   6
ENDBRANCH   4   5
ENDBRANCH   3   4
ENDBRANCH   2   3
TORSDOF 12
ENDMDL
MODEL      253
REMARK 921   NORMALIZED FREE ENERGY PREDICTED BY IDOCK:   -2.67 KCAL/MOL
REMARK 922        TOTAL FREE ENERGY PREDICTED BY IDOCK:   -6.51 KCAL/MOL
REMARK 923 INTER-LIGAND FREE ENERGY PREDICTED BY IDOCK:   -5.61 KCAL/MOL
REMARK 924 INTRA-LIGAND FREE ENERGY PREDICTED BY IDOCK:   -0.90 KCAL/MOL
REMARK 927      BINDING AFFINITY PREDICTED BY RF-SCORE:    0.00 PKD
ROOT
HETATM    1  C   UNL     1     -10.551   3.747  72.475  1.00  0.00    -0.107 C  
HETATM    2  C   UNL     1     -10.028   4.600  71.329  1.00  0.00    -0.268 C  
ENDROOT
BRANCH   2   3
HETATM    3  C   UNL     1      -9.677   3.743  70.114  1.00  0.00    -0.217 C  
BRANCH   3   4
HETATM    4  C   UNL     1      -9.174   4.593  68.940  1.00  0.00    -0.181 C  
BRANCH   4   5
HETATM    5  C   UNL     1      -8.786   5.994  69.417  1.00  0.00    -0.121 C  
BRANCH   5   6
HETATM    6  C   UNL     1      -8.170   6.865  68.327  1.00  0.00    -0.123 C  
BRANCH   6   7
HETATM    7  O   UNL     1      -8.770   8.152  68.165  1.00  0.00    -0.135 OA 
BRANCH   7   8
HETATM    8  C   UNL     1     -10.118   8.154  68.008  1.00  0.00    -0.197 C  
HETATM    9  O   UNL     1     -10.782   7.268  67.487  1.00  0.00    -0.254 OA 
BRANCH   8  10
HETATM   10  C   UNL     1     -10.708   9.225  68.861  1.00  0.00    -0.182 A  
HETATM   11  C   UNL     1     -10.911   8.854  70.207  1.00  0.00    -0.266 A  
HETATM   12  C   UNL     1     -11.394   9.766  71.146  1.00  0.00    -0.459 A  
HETATM   13  C   UNL     1     -11.728  11.053  70.744  1.00  0.00    -0.286 A  
HETATM   14  C   UNL     1     -11.547  11.437  69.415  1.00  0.00    -0.391 A  
HETATM   15  C   UNL     1     -10.987  10.551  68.474  1.00  0.00    -0.300 A  
BRANCH  15  16
HETATM   16  C   UNL     1     -10.804  11.055  67.091  1.00  0.00    -0.282 C  
HETATM   17  O   UNL     1     -11.545  11.964  66.719  1.00  0.00    -0.461 OA 
BRANCH  16  18
HETATM   18  C   UNL     1      -9.711  10.572  66.174  1.00  0.00    -0.259 A  
HETATM   19  C   UNL     1     -10.110   9.947  64.986  1.00  0.00    -0.110 A  
HETATM   20  C   UNL     1      -9.171   9.402  64.089  1.00  0.00    -0.042 A  
HETATM   21  C   UNL     1      -7.795   9.440  64.342  1.00  0.00    -0.123 A  
HETATM   22  O   UNL     1      -7.859  11.237  67.564  1.00  0.00    -0.115 OA 
HETATM   23  C   UNL     1      -7.404  10.111  65.514  1.00  0.00    -0.143 A  
HETATM   24  H   UNL     1      -6.926  11.292  67.731  1.00  0.00     0.000 HD 
HETATM   25  C   UNL     1      -8.337  10.653  66.421  1.00  0.00    -0.151 A  
BRANCH  21  26
HETATM   26  N   UNL     1      -6.850   8.860  63.499  1.00  0.00    -0.089 NA 
BRANCH  26  27
HETATM   27  C   UNL     1      -6.723   7.394  63.478  1.00  0.00    -0.053 C  
HETATM   28  C   UNL     1      -5.430   6.955  64.150  1.00  0.00    -0.032 C  
ENDBRANCH  26  27
BRANCH  26  29
HETATM   29  C   UNL     1      -6.306   9.574  62.336  1.00  0.00    -0.096 C  
HETATM   30  C   UNL     1      -5.287  10.612  62.783  1.00  0.00    -0.168 C  
ENDBRANCH  26  29
ENDBRANCH  21  26
ENDBRANCH  16  18
ENDBRANCH  15  16
ENDBRANCH   8  10
ENDBRANCH   7   8
ENDBRANCH   6   7
ENDBRANCH   5   6
ENDBRANCH   4   5
ENDBRANCH   3   4
ENDBRANCH   2   3
TORSDOF 12
ENDMDL
MODEL      254
REMARK 921   NORMALIZED FREE ENERGY PREDICTED BY IDOCK:   -2.66 KCAL/MOL
REMARK 922        TOTAL FREE ENERGY PREDICTED BY IDOCK:   -6.50 KCAL/MOL
REMARK 923 INTER-LIGAND FREE ENERGY PREDICTED BY IDOCK:   -4.48 KCAL/MOL
REMARK 924 INTRA-LIGAND FREE ENERGY PREDICTED BY IDOCK:   -2.02 KCAL/MOL
REMARK 927      BINDING AFFINITY PREDICTED BY RF-SCORE:    0.00 PKD
ROOT
HETATM    1  C   UNL     1      -9.815   5.163  73.331  1.00  0.00    -0.170 C  
HETATM    2  C   UNL     1      -8.403   4.645  73.102  1.00  0.00    -0.100 C  
ENDROOT
BRANCH   2   3
HETATM    3  C   UNL     1      -8.309   3.841  71.806  1.00  0.00    -0.083 C  
BRANCH   3   4
HETATM    4  C   UNL     1      -9.668   3.723  71.105  1.00  0.00    -0.245 C  
BRANCH   4   5
HETATM    5  C   UNL     1      -9.577   4.231  69.665  1.00  0.00    -0.275 C  
BRANCH   5   6
HETATM    6  C   UNL     1     -10.512   5.399  69.366  1.00  0.00    -0.261 C  
BRANCH   6   7
HETATM    7  O   UNL     1      -9.878   6.565  68.837  1.00  0.00    -0.133 OA 
BRANCH   7   8
HETATM    8  C   UNL     1     -10.103   6.809  67.521  1.00  0.00    -0.170 C  
HETATM    9  O   UNL     1     -11.053   7.424  67.057  1.00  0.00    -0.268 OA 
BRANCH   8  10
HETATM   10  C   UNL     1      -8.860   6.520  66.751  1.00  0.00    -0.130 A  
HETATM   11  C   UNL     1      -9.004   5.524  65.761  1.00  0.00    -0.158 A  
HETATM   12  C   UNL     1      -7.950   5.187  64.912  1.00  0.00    -0.102 A  
HETATM   13  C   UNL     1      -6.716   5.807  65.070  1.00  0.00    -0.047 A  
HETATM   14  C   UNL     1      -6.549   6.784  66.050  1.00  0.00    -0.051 A  
HETATM   15  C   UNL     1      -7.626   7.191  66.861  1.00  0.00    -0.101 A  
BRANCH  15  16
HETATM   16  C   UNL     1      -7.362   8.258  67.857  1.00  0.00    -0.096 C  
HETATM   17  O   UNL     1      -6.557   8.007  68.753  1.00  0.00    -0.047 OA 
BRANCH  16  18
HETATM   18  C   UNL     1      -7.958   9.638  67.766  1.00  0.00    -0.105 A  
HETATM   19  C   UNL     1      -7.456  10.480  66.764  1.00  0.00    -0.115 A  
HETATM   20  C   UNL     1      -7.897  11.810  66.632  1.00  0.00    -0.043 A  
HETATM   21  C   UNL     1      -8.843  12.368  67.500  1.00  0.00    -0.181 A  
HETATM   22  O   UNL     1      -9.468   9.421  69.629  1.00  0.00    -0.167 OA 
HETATM   23  C   UNL     1      -9.373  11.501  68.471  1.00  0.00    -0.171 A  
HETATM   24  H   UNL     1     -10.130   9.782  70.206  1.00  0.00     0.000 HD 
HETATM   25  C   UNL     1      -8.933  10.169  68.616  1.00  0.00    -0.136 A  
BRANCH  21  26
HETATM   26  N   UNL     1      -9.254  13.697  67.425  1.00  0.00    -0.213 NA 
BRANCH  26  27
HETATM   27  C   UNL     1     -10.633  14.035  67.812  1.00  0.00    -0.242 C  
HETATM   28  C   UNL     1     -11.305  14.873  66.733  1.00  0.00    -0.328 C  
ENDBRANCH  26  27
BRANCH  26  29
HETATM   29  C   UNL     1      -8.292  14.808  67.420  1.00  0.00    -0.200 C  
HETATM   30  C   UNL     1      -7.762  15.053  68.825  1.00  0.00    -0.141 C  
ENDBRANCH  26  29
ENDBRANCH  21  26
ENDBRANCH  16  18
ENDBRANCH  15  16
ENDBRANCH   8  10
ENDBRANCH   7   8
ENDBRANCH   6   7
ENDBRANCH   5   6
ENDBRANCH   4   5
ENDBRANCH   3   4
ENDBRANCH   2   3
TORSDOF 12
ENDMDL
MODEL      255
REMARK 921   NORMALIZED FREE ENERGY PREDICTED BY IDOCK:   -2.64 KCAL/MOL
REMARK 922        TOTAL FREE ENERGY PREDICTED BY IDOCK:   -6.45 KCAL/MOL
REMARK 923 INTER-LIGAND FREE ENERGY PREDICTED BY IDOCK:   -4.48 KCAL/MOL
REMARK 924 INTRA-LIGAND FREE ENERGY PREDICTED BY IDOCK:   -1.97 KCAL/MOL
REMARK 927      BINDING AFFINITY PREDICTED BY RF-SCORE:    0.00 PKD
ROOT
HETATM    1  C   UNL     1      -7.885   5.158  71.093  1.00  0.00    -0.101 C  
HETATM    2  C   UNL     1      -9.357   5.267  71.461  1.00  0.00    -0.182 C  
ENDROOT
BRANCH   2   3
HETATM    3  C   UNL     1      -9.923   6.637  71.090  1.00  0.00    -0.198 C  
BRANCH   3   4
HETATM    4  C   UNL     1      -8.884   7.752  71.261  1.00  0.00    -0.144 C  
BRANCH   4   5
HETATM    5  C   UNL     1      -8.959   8.741  70.095  1.00  0.00    -0.173 C  
BRANCH   5   6
HETATM    6  C   UNL     1     -10.116   9.729  70.201  1.00  0.00    -0.265 C  
BRANCH   6   7
HETATM    7  O   UNL     1     -10.780  10.022  68.970  1.00  0.00    -0.204 OA 
BRANCH   7   8
HETATM    8  C   UNL     1     -10.581  11.272  68.480  1.00  0.00    -0.199 C  
HETATM    9  O   UNL     1     -11.258  12.259  68.733  1.00  0.00    -0.230 OA 
BRANCH   8  10
HETATM   10  C   UNL     1      -9.225  11.344  67.863  1.00  0.00    -0.164 A  
HETATM   11  C   UNL     1      -8.318  12.181  68.547  1.00  0.00    -0.093 A  
HETATM   12  C   UNL     1      -6.991  12.303  68.133  1.00  0.00    -0.087 A  
HETATM   13  C   UNL     1      -6.561  11.626  66.998  1.00  0.00    -0.144 A  
HETATM   14  C   UNL     1      -7.445  10.804  66.301  1.00  0.00    -0.138 A  
HETATM   15  C   UNL     1      -8.765  10.610  66.753  1.00  0.00    -0.133 A  
BRANCH  15  16
HETATM   16  C   UNL     1      -9.626   9.695  65.964  1.00  0.00    -0.242 C  
HETATM   17  O   UNL     1     -10.480  10.207  65.241  1.00  0.00    -0.193 OA 
BRANCH  16  18
HETATM   18  C   UNL     1      -9.440   8.200  65.943  1.00  0.00    -0.082 A  
HETATM   19  C   UNL     1     -10.331   7.440  66.712  1.00  0.00    -0.321 A  
HETATM   20  C   UNL     1     -10.207   6.041  66.813  1.00  0.00    -0.268 A  
HETATM   21  C   UNL     1      -9.182   5.338  66.168  1.00  0.00    -0.154 A  
HETATM   22  O   UNL     1      -7.515   8.173  64.496  1.00  0.00    -0.090 OA 
HETATM   23  C   UNL     1      -8.323   6.106  65.363  1.00  0.00    -0.150 A  
HETATM   24  H   UNL     1      -6.832   7.702  64.033  1.00  0.00     0.000 HD 
HETATM   25  C   UNL     1      -8.435   7.508  65.260  1.00  0.00    -0.063 A  
BRANCH  21  26
HETATM   26  N   UNL     1      -9.004   3.963  66.297  1.00  0.00    -0.125 NA 
BRANCH  26  27
HETATM   27  C   UNL     1      -8.396   3.439  67.531  1.00  0.00    -0.086 C  
HETATM   28  C   UNL     1      -9.308   2.412  68.187  1.00  0.00    -0.263 C  
ENDBRANCH  26  27
BRANCH  26  29
HETATM   29  C   UNL     1      -9.776   3.002  65.497  1.00  0.00     0.116 C  
HETATM   30  C   UNL     1      -8.969   2.555  64.287  1.00  0.00    -0.108 C  
ENDBRANCH  26  29
ENDBRANCH  21  26
ENDBRANCH  16  18
ENDBRANCH  15  16
ENDBRANCH   8  10
ENDBRANCH   7   8
ENDBRANCH   6   7
ENDBRANCH   5   6
ENDBRANCH   4   5
ENDBRANCH   3   4
ENDBRANCH   2   3
TORSDOF 12
ENDMDL
MODEL      256
REMARK 921   NORMALIZED FREE ENERGY PREDICTED BY IDOCK:   -2.58 KCAL/MOL
REMARK 922        TOTAL FREE ENERGY PREDICTED BY IDOCK:   -6.36 KCAL/MOL
REMARK 923 INTER-LIGAND FREE ENERGY PREDICTED BY IDOCK:   -4.29 KCAL/MOL
REMARK 924 INTRA-LIGAND FREE ENERGY PREDICTED BY IDOCK:   -2.07 KCAL/MOL
REMARK 927      BINDING AFFINITY PREDICTED BY RF-SCORE:    0.00 PKD
ROOT
HETATM    1  C   UNL     1     -10.248   4.336  72.014  1.00  0.00    -0.220 C  
HETATM    2  C   UNL     1     -10.129   4.963  70.633  1.00  0.00    -0.306 C  
ENDROOT
BRANCH   2   3
HETATM    3  C   UNL     1      -9.816   3.911  69.570  1.00  0.00    -0.080 C  
BRANCH   3   4
HETATM    4  C   UNL     1      -9.132   4.523  68.341  1.00  0.00    -0.161 C  
BRANCH   4   5
HETATM    5  C   UNL     1      -8.352   5.780  68.730  1.00  0.00    -0.104 C  
BRANCH   5   6
HETATM    6  C   UNL     1      -7.558   6.391  67.580  1.00  0.00    -0.100 C  
BRANCH   6   7
HETATM    7  O   UNL     1      -8.214   7.452  66.884  1.00  0.00    -0.117 OA 
BRANCH   7   8
HETATM    8  C   UNL     1      -7.487   8.588  66.728  1.00  0.00    -0.083 C  
HETATM    9  O   UNL     1      -6.277   8.650  66.563  1.00  0.00    -0.055 OA 
BRANCH   8  10
HETATM   10  C   UNL     1      -8.411   9.724  66.444  1.00  0.00    -0.128 A  
HETATM   11  C   UNL     1      -9.204   9.557  65.288  1.00  0.00    -0.307 A  
HETATM   12  C   UNL     1     -10.164  10.501  64.925  1.00  0.00    -0.371 A  
HETATM   13  C   UNL     1     -10.315  11.654  65.685  1.00  0.00    -0.306 A  
HETATM   14  C   UNL     1      -9.533  11.845  66.824  1.00  0.00    -0.207 A  
HETATM   15  C   UNL     1      -8.616  10.863  67.246  1.00  0.00    -0.128 A  
BRANCH  15  16
HETATM   16  C   UNL     1      -7.848  11.139  68.485  1.00  0.00    -0.136 C  
HETATM   17  O   UNL     1      -7.456  12.292  68.661  1.00  0.00    -0.111 OA 
BRANCH  16  18
HETATM   18  C   UNL     1      -7.613  10.108  69.558  1.00  0.00    -0.139 A  
HETATM   19  C   UNL     1      -8.718   9.343  69.954  1.00  0.00    -0.209 A  
HETATM   20  C   UNL     1      -8.623   8.397  70.993  1.00  0.00    -0.181 A  
HETATM   21  C   UNL     1      -7.431   8.181  71.694  1.00  0.00    -0.085 A  
HETATM   22  O   UNL     1      -5.279  10.587  69.908  1.00  0.00    -0.038 OA 
HETATM   23  C   UNL     1      -6.319   8.921  71.256  1.00  0.00    -0.063 A  
HETATM   24  H   UNL     1      -4.459  10.429  70.360  1.00  0.00     0.000 HD 
HETATM   25  C   UNL     1      -6.405   9.876  70.223  1.00  0.00    -0.094 A  
BRANCH  21  26
HETATM   26  N   UNL     1      -7.326   7.293  72.761  1.00  0.00    -0.075 NA 
BRANCH  26  27
HETATM   27  C   UNL     1      -6.405   6.151  72.645  1.00  0.00    -0.058 C  
HETATM   28  C   UNL     1      -6.771   5.283  71.449  1.00  0.00    -0.048 C  
ENDBRANCH  26  27
BRANCH  26  29
HETATM   29  C   UNL     1      -7.723   7.668  74.126  1.00  0.00    -0.155 C  
HETATM   30  C   UNL     1      -8.963   6.893  74.545  1.00  0.00    -0.222 C  
ENDBRANCH  26  29
ENDBRANCH  21  26
ENDBRANCH  16  18
ENDBRANCH  15  16
ENDBRANCH   8  10
ENDBRANCH   7   8
ENDBRANCH   6   7
ENDBRANCH   5   6
ENDBRANCH   4   5
ENDBRANCH   3   4
ENDBRANCH   2   3
TORSDOF 12
ENDMDL
MODEL      257
REMARK 921   NORMALIZED FREE ENERGY PREDICTED BY IDOCK:   -2.53 KCAL/MOL
REMARK 922        TOTAL FREE ENERGY PREDICTED BY IDOCK:   -6.26 KCAL/MOL
REMARK 923 INTER-LIGAND FREE ENERGY PREDICTED BY IDOCK:   -4.52 KCAL/MOL
REMARK 924 INTRA-LIGAND FREE ENERGY PREDICTED BY IDOCK:   -1.75 KCAL/MOL
REMARK 927      BINDING AFFINITY PREDICTED BY RF-SCORE:    0.00 PKD
ROOT
HETATM    1  C   UNL     1      -5.954   4.167  71.356  1.00  0.00    -0.013 C  
HETATM    2  C   UNL     1      -6.443   4.917  72.586  1.00  0.00    -0.043 C  
ENDROOT
BRANCH   2   3
HETATM    3  C   UNL     1      -6.416   6.429  72.362  1.00  0.00    -0.059 C  
BRANCH   3   4
HETATM    4  C   UNL     1      -5.727   6.801  71.043  1.00  0.00    -0.028 C  
BRANCH   4   5
HETATM    5  C   UNL     1      -6.732   7.412  70.065  1.00  0.00    -0.047 C  
BRANCH   5   6
HETATM    6  C   UNL     1      -6.093   8.294  68.997  1.00  0.00    -0.043 C  
BRANCH   6   7
HETATM    7  O   UNL     1      -6.977   9.222  68.366  1.00  0.00    -0.066 OA 
BRANCH   7   8
HETATM    8  C   UNL     1      -6.627   9.603  67.111  1.00  0.00    -0.071 C  
HETATM    9  O   UNL     1      -5.903  10.546  66.822  1.00  0.00    -0.054 OA 
BRANCH   8  10
HETATM   10  C   UNL     1      -6.967   8.510  66.155  1.00  0.00    -0.076 A  
HETATM   11  C   UNL     1      -5.849   7.852  65.599  1.00  0.00    -0.038 A  
HETATM   12  C   UNL     1      -6.002   6.765  64.738  1.00  0.00    -0.035 A  
HETATM   13  C   UNL     1      -7.278   6.345  64.382  1.00  0.00    -0.065 A  
HETATM   14  C   UNL     1      -8.396   6.989  64.911  1.00  0.00    -0.016 A  
HETATM   15  C   UNL     1      -8.256   8.037  65.841  1.00  0.00    -0.127 A  
BRANCH  15  16
HETATM   16  C   UNL     1      -9.501   8.644  66.373  1.00  0.00    -0.230 C  
HETATM   17  O   UNL     1     -10.065   9.482  65.671  1.00  0.00    -0.285 OA 
BRANCH  16  18
HETATM   18  C   UNL     1     -10.139   8.218  67.670  1.00  0.00    -0.268 A  
HETATM   19  C   UNL     1     -10.146   9.155  68.711  1.00  0.00    -0.212 A  
HETATM   20  C   UNL     1     -10.659   8.839  69.983  1.00  0.00    -0.232 A  
HETATM   21  C   UNL     1     -11.172   7.571  70.282  1.00  0.00    -0.236 A  
HETATM   22  O   UNL     1     -10.707   5.979  66.986  1.00  0.00    -0.276 OA 
HETATM   23  C   UNL     1     -11.202   6.654  69.217  1.00  0.00    -0.326 A  
HETATM   24  H   UNL     1     -11.077   5.125  67.171  1.00  0.00     0.000 HD 
HETATM   25  C   UNL     1     -10.684   6.959  67.942  1.00  0.00    -0.232 A  
BRANCH  21  26
HETATM   26  N   UNL     1     -11.633   7.215  71.547  1.00  0.00    -0.265 NA 
BRANCH  26  27
HETATM   27  C   UNL     1     -12.736   7.986  72.143  1.00  0.00    -0.261 C  
HETATM   28  C   UNL     1     -14.069   7.288  71.908  1.00  0.00    -0.415 C  
ENDBRANCH  26  27
BRANCH  26  29
HETATM   29  C   UNL     1     -11.399   5.878  72.110  1.00  0.00    -0.288 C  
HETATM   30  C   UNL     1     -10.260   5.922  73.117  1.00  0.00    -0.212 C  
ENDBRANCH  26  29
ENDBRANCH  21  26
ENDBRANCH  16  18
ENDBRANCH  15  16
ENDBRANCH   8  10
ENDBRANCH   7   8
ENDBRANCH   6   7
ENDBRANCH   5   6
ENDBRANCH   4   5
ENDBRANCH   3   4
ENDBRANCH   2   3
TORSDOF 12
ENDMDL
MODEL      258
REMARK 921   NORMALIZED FREE ENERGY PREDICTED BY IDOCK:   -2.48 KCAL/MOL
REMARK 922        TOTAL FREE ENERGY PREDICTED BY IDOCK:   -6.19 KCAL/MOL
REMARK 923 INTER-LIGAND FREE ENERGY PREDICTED BY IDOCK:   -4.43 KCAL/MOL
REMARK 924 INTRA-LIGAND FREE ENERGY PREDICTED BY IDOCK:   -1.76 KCAL/MOL
REMARK 927      BINDING AFFINITY PREDICTED BY RF-SCORE:    0.00 PKD
ROOT
HETATM    1  C   UNL     1     -11.121   6.489  68.423  1.00  0.00    -0.340 C  
HETATM    2  C   UNL     1     -10.487   7.281  69.557  1.00  0.00    -0.238 C  
ENDROOT
BRANCH   2   3
HETATM    3  C   UNL     1     -11.411   7.347  70.772  1.00  0.00    -0.313 C  
BRANCH   3   4
HETATM    4  C   UNL     1     -11.697   8.794  71.196  1.00  0.00    -0.344 C  
BRANCH   4   5
HETATM    5  C   UNL     1     -12.668   9.459  70.218  1.00  0.00     0.487 C  
BRANCH   5   6
HETATM    6  C   UNL     1     -11.993  10.033  68.977  1.00  0.00     0.449 C  
BRANCH   6   7
HETATM    7  O   UNL     1     -12.533  11.270  68.508  1.00  0.00    -0.434 OA 
BRANCH   7   8
HETATM    8  C   UNL     1     -11.834  12.382  68.851  1.00  0.00    -0.301 C  
HETATM    9  O   UNL     1     -11.487  12.692  69.983  1.00  0.00    -0.169 OA 
BRANCH   8  10
HETATM   10  C   UNL     1     -11.256  12.994  67.620  1.00  0.00    -0.315 A  
HETATM   11  C   UNL     1     -12.103  13.920  66.976  1.00  0.00    -0.451 A  
HETATM   12  C   UNL     1     -11.681  14.627  65.850  1.00  0.00    -0.301 A  
HETATM   13  C   UNL     1     -10.420  14.384  65.319  1.00  0.00    -0.410 A  
HETATM   14  C   UNL     1      -9.572  13.463  65.933  1.00  0.00    -0.127 A  
HETATM   15  C   UNL     1      -9.955  12.802  67.116  1.00  0.00    -0.218 A  
BRANCH  15  16
HETATM   16  C   UNL     1      -8.977  11.861  67.716  1.00  0.00    -0.173 C  
HETATM   17  O   UNL     1      -8.519  12.151  68.821  1.00  0.00    -0.050 OA 
BRANCH  16  18
HETATM   18  C   UNL     1      -8.598  10.548  67.082  1.00  0.00    -0.127 A  
HETATM   19  C   UNL     1      -9.648   9.732  66.641  1.00  0.00    -0.239 A  
HETATM   20  C   UNL     1      -9.409   8.457  66.093  1.00  0.00    -0.267 A  
HETATM   21  C   UNL     1      -8.117   7.930  65.976  1.00  0.00    -0.112 A  
HETATM   22  O   UNL     1      -6.216  10.778  67.351  1.00  0.00    -0.052 OA 
HETATM   23  C   UNL     1      -7.070   8.777  66.379  1.00  0.00    -0.083 A  
HETATM   24  H   UNL     1      -5.334  10.441  67.251  1.00  0.00     0.000 HD 
HETATM   25  C   UNL     1      -7.299  10.052  66.935  1.00  0.00    -0.092 A  
BRANCH  21  26
HETATM   26  N   UNL     1      -7.858   6.651  65.490  1.00  0.00    -0.101 NA 
BRANCH  26  27
HETATM   27  C   UNL     1      -6.587   6.001  65.848  1.00  0.00    -0.047 C  
HETATM   28  C   UNL     1      -6.643   5.452  67.267  1.00  0.00    -0.053 C  
ENDBRANCH  26  27
BRANCH  26  29
HETATM   29  C   UNL     1      -8.934   5.762  65.033  1.00  0.00     0.112 C  
HETATM   30  C   UNL     1      -8.358   4.607  64.227  1.00  0.00    -0.119 C  
ENDBRANCH  26  29
ENDBRANCH  21  26
ENDBRANCH  16  18
ENDBRANCH  15  16
ENDBRANCH   8  10
ENDBRANCH   7   8
ENDBRANCH   6   7
ENDBRANCH   5   6
ENDBRANCH   4   5
ENDBRANCH   3   4
ENDBRANCH   2   3
TORSDOF 12
ENDMDL
MODEL      259
REMARK 921   NORMALIZED FREE ENERGY PREDICTED BY IDOCK:   -2.46 KCAL/MOL
REMARK 922        TOTAL FREE ENERGY PREDICTED BY IDOCK:   -6.15 KCAL/MOL
REMARK 923 INTER-LIGAND FREE ENERGY PREDICTED BY IDOCK:   -4.68 KCAL/MOL
REMARK 924 INTRA-LIGAND FREE ENERGY PREDICTED BY IDOCK:   -1.48 KCAL/MOL
REMARK 927      BINDING AFFINITY PREDICTED BY RF-SCORE:    0.00 PKD
ROOT
HETATM    1  C   UNL     1      -9.542   9.261  67.104  1.00  0.00    -0.208 C  
HETATM    2  C   UNL     1      -8.188   9.423  67.778  1.00  0.00    -0.114 C  
ENDROOT
BRANCH   2   3
HETATM    3  C   UNL     1      -8.150   8.712  69.130  1.00  0.00    -0.116 C  
BRANCH   3   4
HETATM    4  C   UNL     1      -7.555   9.602  70.229  1.00  0.00    -0.175 C  
BRANCH   4   5
HETATM    5  C   UNL     1      -6.336   8.931  70.864  1.00  0.00    -0.054 C  
BRANCH   5   6
HETATM    6  C   UNL     1      -6.587   7.493  71.307  1.00  0.00    -0.042 C  
BRANCH   6   7
HETATM    7  O   UNL     1      -6.755   6.550  70.246  1.00  0.00    -0.047 OA 
BRANCH   7   8
HETATM    8  C   UNL     1      -6.525   5.253  70.574  1.00  0.00    -0.031 C  
HETATM    9  O   UNL     1      -5.712   4.511  70.040  1.00  0.00    -0.012 OA 
BRANCH   8  10
HETATM   10  C   UNL     1      -7.156   4.963  71.893  1.00  0.00    -0.062 A  
HETATM   11  C   UNL     1      -6.239   4.719  72.938  1.00  0.00    -0.030 A  
HETATM   12  C   UNL     1      -6.672   4.497  74.245  1.00  0.00    -0.064 A  
HETATM   13  C   UNL     1      -8.033   4.468  74.523  1.00  0.00    -0.087 A  
HETATM   14  C   UNL     1      -8.956   4.694  73.502  1.00  0.00    -0.104 A  
HETATM   15  C   UNL     1      -8.532   4.997  72.194  1.00  0.00    -0.125 A  
BRANCH  15  16
HETATM   16  C   UNL     1      -9.584   5.252  71.180  1.00  0.00    -0.163 C  
HETATM   17  O   UNL     1      -9.957   4.296  70.501  1.00  0.00    -0.209 OA 
BRANCH  16  18
HETATM   18  C   UNL     1     -10.266   6.585  71.014  1.00  0.00    -0.218 A  
HETATM   19  C   UNL     1      -9.982   7.566  71.973  1.00  0.00    -0.212 A  
HETATM   20  C   UNL     1     -10.613   8.824  71.949  1.00  0.00    -0.425 A  
HETATM   21  C   UNL     1     -11.567   9.156  70.980  1.00  0.00    -0.306 A  
HETATM   22  O   UNL     1     -11.533   6.014  69.047  1.00  0.00    -0.316 OA 
HETATM   23  C   UNL     1     -11.810   8.181  69.997  1.00  0.00     0.422 A  
HETATM   24  H   UNL     1     -12.160   6.240  68.370  1.00  0.00     0.000 HD 
HETATM   25  C   UNL     1     -11.188   6.917  70.017  1.00  0.00    -0.299 A  
BRANCH  21  26
HETATM   26  N   UNL     1     -12.247  10.372  70.967  1.00  0.00    -0.358 NA 
BRANCH  26  27
HETATM   27  C   UNL     1     -13.285  10.616  71.982  1.00  0.00    -0.368 C  
HETATM   28  C   UNL     1     -13.621  12.098  72.063  1.00  0.00    -0.263 C  
ENDBRANCH  26  27
BRANCH  26  29
HETATM   29  C   UNL     1     -11.694  11.563  70.306  1.00  0.00    -0.289 C  
HETATM   30  C   UNL     1     -11.714  11.385  68.796  1.00  0.00    -0.404 C  
ENDBRANCH  26  29
ENDBRANCH  21  26
ENDBRANCH  16  18
ENDBRANCH  15  16
ENDBRANCH   8  10
ENDBRANCH   7   8
ENDBRANCH   6   7
ENDBRANCH   5   6
ENDBRANCH   4   5
ENDBRANCH   3   4
ENDBRANCH   2   3
TORSDOF 12
ENDMDL
MODEL      260
REMARK 921   NORMALIZED FREE ENERGY PREDICTED BY IDOCK:   -2.34 KCAL/MOL
REMARK 922        TOTAL FREE ENERGY PREDICTED BY IDOCK:   -5.95 KCAL/MOL
REMARK 923 INTER-LIGAND FREE ENERGY PREDICTED BY IDOCK:   -4.39 KCAL/MOL
REMARK 924 INTRA-LIGAND FREE ENERGY PREDICTED BY IDOCK:   -1.56 KCAL/MOL
REMARK 927      BINDING AFFINITY PREDICTED BY RF-SCORE:    0.00 PKD
ROOT
HETATM    1  C   UNL     1      -7.739   3.168  70.267  1.00  0.00    -0.043 C  
HETATM    2  C   UNL     1      -6.256   3.143  70.609  1.00  0.00    -0.023 C  
ENDROOT
BRANCH   2   3
HETATM    3  C   UNL     1      -5.433   3.907  69.573  1.00  0.00    -0.016 C  
BRANCH   3   4
HETATM    4  C   UNL     1      -6.259   4.254  68.328  1.00  0.00    -0.032 C  
BRANCH   4   5
HETATM    5  C   UNL     1      -6.311   5.769  68.121  1.00  0.00    -0.041 C  
BRANCH   5   6
HETATM    6  C   UNL     1      -7.328   6.213  67.075  1.00  0.00    -0.083 C  
BRANCH   6   7
HETATM    7  O   UNL     1      -8.102   7.361  67.427  1.00  0.00    -0.110 OA 
BRANCH   7   8
HETATM    8  C   UNL     1      -8.674   8.023  66.389  1.00  0.00    -0.151 C  
HETATM    9  O   UNL     1      -9.873   8.195  66.220  1.00  0.00    -0.213 OA 
BRANCH   8  10
HETATM   10  C   UNL     1      -7.626   8.803  65.670  1.00  0.00    -0.086 A  
HETATM   11  C   UNL     1      -7.341   8.335  64.370  1.00  0.00    -0.092 A  
HETATM   12  C   UNL     1      -6.431   8.998  63.544  1.00  0.00    -0.089 A  
HETATM   13  C   UNL     1      -5.755  10.113  64.024  1.00  0.00    -0.135 A  
HETATM   14  C   UNL     1      -6.013  10.583  65.311  1.00  0.00    -0.124 A  
HETATM   15  C   UNL     1      -6.986   9.972  66.125  1.00  0.00    -0.107 A  
BRANCH  15  16
HETATM   16  C   UNL     1      -7.214  10.559  67.469  1.00  0.00    -0.090 C  
HETATM   17  O   UNL     1      -6.483  10.177  68.382  1.00  0.00    -0.053 OA 
BRANCH  16  18
HETATM   18  C   UNL     1      -8.221  11.647  67.735  1.00  0.00    -0.141 A  
HETATM   19  C   UNL     1      -7.765  12.968  67.643  1.00  0.00    -0.161 A  
HETATM   20  C   UNL     1      -8.606  14.059  67.934  1.00  0.00    -0.181 A  
HETATM   21  C   UNL     1      -9.932  13.884  68.346  1.00  0.00    -0.233 A  
HETATM   22  O   UNL     1     -10.080  10.199  68.233  1.00  0.00    -0.148 OA 
HETATM   23  C   UNL     1     -10.392  12.556  68.389  1.00  0.00    -0.237 A  
HETATM   24  H   UNL     1     -10.986  10.071  68.485  1.00  0.00     0.000 HD 
HETATM   25  C   UNL     1      -9.555  11.457  68.106  1.00  0.00    -0.190 A  
BRANCH  21  26
HETATM   26  N   UNL     1     -10.768  14.943  68.693  1.00  0.00    -0.243 NA 
BRANCH  26  27
HETATM   27  C   UNL     1     -11.152  15.109  70.105  1.00  0.00    -0.274 C  
HETATM   28  C   UNL     1     -12.583  14.643  70.332  1.00  0.00    -0.399 C  
ENDBRANCH  26  27
BRANCH  26  29
HETATM   29  C   UNL     1     -10.915  16.129  67.838  1.00  0.00    -0.318 C  
HETATM   30  C   UNL     1     -10.288  17.342  68.507  1.00  0.00    -0.378 C  
ENDBRANCH  26  29
ENDBRANCH  21  26
ENDBRANCH  16  18
ENDBRANCH  15  16
ENDBRANCH   8  10
ENDBRANCH   7   8
ENDBRANCH   6   7
ENDBRANCH   5   6
ENDBRANCH   4   5
ENDBRANCH   3   4
ENDBRANCH   2   3
TORSDOF 12
ENDMDL
MODEL      261
REMARK 921   NORMALIZED FREE ENERGY PREDICTED BY IDOCK:   -2.25 KCAL/MOL
REMARK 922        TOTAL FREE ENERGY PREDICTED BY IDOCK:   -5.79 KCAL/MOL
REMARK 923 INTER-LIGAND FREE ENERGY PREDICTED BY IDOCK:   -3.80 KCAL/MOL
REMARK 924 INTRA-LIGAND FREE ENERGY PREDICTED BY IDOCK:   -1.99 KCAL/MOL
REMARK 927      BINDING AFFINITY PREDICTED BY RF-SCORE:    0.00 PKD
ROOT
HETATM    1  C   UNL     1     -12.384  13.869  66.003  1.00  0.00    -0.511 C  
HETATM    2  C   UNL     1     -11.691  12.535  65.769  1.00  0.00    -0.478 C  
ENDROOT
BRANCH   2   3
HETATM    3  C   UNL     1     -10.884  12.106  66.994  1.00  0.00    -0.289 C  
BRANCH   3   4
HETATM    4  C   UNL     1      -9.516  11.531  66.608  1.00  0.00    -0.208 C  
BRANCH   4   5
HETATM    5  C   UNL     1      -8.584  11.497  67.821  1.00  0.00    -0.138 C  
BRANCH   5   6
HETATM    6  C   UNL     1      -7.136  11.169  67.474  1.00  0.00    -0.093 C  
BRANCH   6   7
HETATM    7  O   UNL     1      -6.953  10.423  66.269  1.00  0.00    -0.104 OA 
BRANCH   7   8
HETATM    8  C   UNL     1      -6.211   9.292  66.386  1.00  0.00    -0.065 C  
HETATM    9  O   UNL     1      -5.394   9.058  67.266  1.00  0.00    -0.036 OA 
BRANCH   8  10
HETATM   10  C   UNL     1      -6.777   8.241  65.493  1.00  0.00    -0.055 A  
HETATM   11  C   UNL     1      -6.018   7.995  64.329  1.00  0.00    -0.057 A  
HETATM   12  C   UNL     1      -6.380   6.994  63.426  1.00  0.00    -0.044 A  
HETATM   13  C   UNL     1      -7.536   6.255  63.647  1.00  0.00    -0.080 A  
HETATM   14  C   UNL     1      -8.307   6.492  64.784  1.00  0.00    -0.019 A  
HETATM   15  C   UNL     1      -7.910   7.444  65.744  1.00  0.00    -0.108 A  
BRANCH  15  16
HETATM   16  C   UNL     1      -8.777   7.608  66.937  1.00  0.00    -0.129 C  
HETATM   17  O   UNL     1      -9.838   8.212  66.785  1.00  0.00    -0.214 OA 
BRANCH  16  18
HETATM   18  C   UNL     1      -8.460   6.998  68.277  1.00  0.00    -0.123 A  
HETATM   19  C   UNL     1      -7.281   6.247  68.369  1.00  0.00    -0.085 A  
HETATM   20  C   UNL     1      -6.924   5.581  69.557  1.00  0.00    -0.062 A  
HETATM   21  C   UNL     1      -7.730   5.618  70.701  1.00  0.00    -0.092 A  
HETATM   22  O   UNL     1     -10.432   7.780  69.419  1.00  0.00    -0.217 OA 
HETATM   23  C   UNL     1      -8.887   6.413  70.610  1.00  0.00    -0.144 A  
HETATM   24  H   UNL     1     -10.972   7.834  70.197  1.00  0.00     0.000 HD 
HETATM   25  C   UNL     1      -9.257   7.077  69.424  1.00  0.00    -0.147 A  
BRANCH  21  26
HETATM   26  N   UNL     1      -7.428   4.924  71.869  1.00  0.00    -0.082 NA 
BRANCH  26  27
HETATM   27  C   UNL     1      -8.076   5.333  73.126  1.00  0.00    -0.108 C  
HETATM   28  C   UNL     1      -7.359   6.528  73.737  1.00  0.00    -0.084 C  
ENDBRANCH  26  27
BRANCH  26  29
HETATM   29  C   UNL     1      -6.869   3.565  71.841  1.00  0.00    -0.026 C  
HETATM   30  C   UNL     1      -5.408   3.587  72.262  1.00  0.00     0.000 C  
ENDBRANCH  26  29
ENDBRANCH  21  26
ENDBRANCH  16  18
ENDBRANCH  15  16
ENDBRANCH   8  10
ENDBRANCH   7   8
ENDBRANCH   6   7
ENDBRANCH   5   6
ENDBRANCH   4   5
ENDBRANCH   3   4
ENDBRANCH   2   3
TORSDOF 12
ENDMDL
MODEL      262
REMARK 921   NORMALIZED FREE ENERGY PREDICTED BY IDOCK:   -2.12 KCAL/MOL
REMARK 922        TOTAL FREE ENERGY PREDICTED BY IDOCK:   -5.58 KCAL/MOL
REMARK 923 INTER-LIGAND FREE ENERGY PREDICTED BY IDOCK:   -4.61 KCAL/MOL
REMARK 924 INTRA-LIGAND FREE ENERGY PREDICTED BY IDOCK:   -0.97 KCAL/MOL
REMARK 927      BINDING AFFINITY PREDICTED BY RF-SCORE:    0.00 PKD
ROOT
HETATM    1  C   UNL     1      -5.286   9.261  73.677  1.00  0.00    -0.108 C  
HETATM    2  C   UNL     1      -6.723   8.762  73.674  1.00  0.00     0.036 C  
ENDROOT
BRANCH   2   3
HETATM    3  C   UNL     1      -7.071   8.075  72.354  1.00  0.00    -0.101 C  
BRANCH   3   4
HETATM    4  C   UNL     1      -7.604   6.654  72.571  1.00  0.00    -0.097 C  
BRANCH   4   5
HETATM    5  C   UNL     1      -6.882   5.662  71.656  1.00  0.00    -0.067 C  
BRANCH   5   6
HETATM    6  C   UNL     1      -7.358   4.222  71.812  1.00  0.00    -0.064 C  
BRANCH   6   7
HETATM    7  O   UNL     1      -7.607   3.528  70.589  1.00  0.00    -0.040 OA 
BRANCH   7   8
HETATM    8  C   UNL     1      -8.708   3.926  69.902  1.00  0.00    -0.075 C  
HETATM    9  O   UNL     1      -8.951   3.680  68.729  1.00  0.00    -0.104 OA 
BRANCH   8  10
HETATM   10  C   UNL     1      -9.736   4.413  70.867  1.00  0.00    -0.267 A  
HETATM   11  C   UNL     1      -9.811   3.668  72.063  1.00  0.00    -0.244 A  
HETATM   12  C   UNL     1     -10.677   4.037  73.093  1.00  0.00    -0.272 A  
HETATM   13  C   UNL     1     -11.518   5.131  72.925  1.00  0.00    -0.329 A  
HETATM   14  C   UNL     1     -11.468   5.872  71.745  1.00  0.00    -0.262 A  
HETATM   15  C   UNL     1     -10.543   5.559  70.730  1.00  0.00    -0.320 A  
BRANCH  15  16
HETATM   16  C   UNL     1     -10.541   6.420  69.523  1.00  0.00    -0.253 C  
HETATM   17  O   UNL     1     -11.329   6.133  68.623  1.00  0.00    -0.319 OA 
BRANCH  16  18
HETATM   18  C   UNL     1      -9.697   7.662  69.395  1.00  0.00    -0.165 A  
HETATM   19  C   UNL     1      -8.448   7.517  68.777  1.00  0.00    -0.129 A  
HETATM   20  C   UNL     1      -7.553   8.599  68.664  1.00  0.00    -0.097 A  
HETATM   21  C   UNL     1      -7.854   9.867  69.175  1.00  0.00    -0.105 A  
HETATM   22  O   UNL     1     -11.222   9.159  70.504  1.00  0.00    -0.252 OA 
HETATM   23  C   UNL     1      -9.128  10.010  69.751  1.00  0.00    -0.219 A  
HETATM   24  H   UNL     1     -11.447  10.022  70.830  1.00  0.00     0.000 HD 
HETATM   25  C   UNL     1     -10.028   8.932  69.876  1.00  0.00    -0.188 A  
BRANCH  21  26
HETATM   26  N   UNL     1      -6.965  10.938  69.126  1.00  0.00    -0.085 NA 
BRANCH  26  27
HETATM   27  C   UNL     1      -7.193  12.005  68.138  1.00  0.00    -0.090 C  
HETATM   28  C   UNL     1      -8.231  11.575  67.111  1.00  0.00    -0.161 C  
ENDBRANCH  26  27
BRANCH  26  29
HETATM   29  C   UNL     1      -6.103  11.284  70.266  1.00  0.00    -0.146 C  
HETATM   30  C   UNL     1      -5.249  12.497  69.931  1.00  0.00    -0.084 C  
ENDBRANCH  26  29
ENDBRANCH  21  26
ENDBRANCH  16  18
ENDBRANCH  15  16
ENDBRANCH   8  10
ENDBRANCH   7   8
ENDBRANCH   6   7
ENDBRANCH   5   6
ENDBRANCH   4   5
ENDBRANCH   3   4
ENDBRANCH   2   3
TORSDOF 12
ENDMDL
MODEL      263
REMARK 921   NORMALIZED FREE ENERGY PREDICTED BY IDOCK:   -2.11 KCAL/MOL
REMARK 922        TOTAL FREE ENERGY PREDICTED BY IDOCK:   -5.55 KCAL/MOL
REMARK 923 INTER-LIGAND FREE ENERGY PREDICTED BY IDOCK:   -3.57 KCAL/MOL
REMARK 924 INTRA-LIGAND FREE ENERGY PREDICTED BY IDOCK:   -1.98 KCAL/MOL
REMARK 927      BINDING AFFINITY PREDICTED BY RF-SCORE:    0.00 PKD
ROOT
HETATM    1  C   UNL     1      -5.216   8.851  73.572  1.00  0.00    -0.089 C  
HETATM    2  C   UNL     1      -6.615   8.306  73.817  1.00  0.00    -0.143 C  
ENDROOT
BRANCH   2   3
HETATM    3  C   UNL     1      -7.075   7.417  72.662  1.00  0.00    -0.069 C  
BRANCH   3   4
HETATM    4  C   UNL     1      -7.420   5.998  73.133  1.00  0.00    -0.097 C  
BRANCH   4   5
HETATM    5  C   UNL     1      -6.209   5.074  72.986  1.00  0.00    -0.038 C  
BRANCH   5   6
HETATM    6  C   UNL     1      -6.359   3.745  73.718  1.00  0.00    -0.029 C  
BRANCH   6   7
HETATM    7  O   UNL     1      -5.926   2.596  72.987  1.00  0.00    -0.007 OA 
BRANCH   7   8
HETATM    8  C   UNL     1      -6.771   2.167  72.015  1.00  0.00    -0.015 C  
HETATM    9  O   UNL     1      -6.445   1.626  70.967  1.00  0.00    -0.022 OA 
BRANCH   8  10
HETATM   10  C   UNL     1      -8.161   2.139  72.553  1.00  0.00    -0.054 A  
HETATM   11  C   UNL     1      -8.269   1.624  73.863  1.00  0.00    -0.046 A  
HETATM   12  C   UNL     1      -9.494   1.592  74.531  1.00  0.00    -0.091 A  
HETATM   13  C   UNL     1     -10.641   2.032  73.882  1.00  0.00    -0.215 A  
HETATM   14  C   UNL     1     -10.558   2.533  72.583  1.00  0.00    -0.156 A  
HETATM   15  C   UNL     1      -9.317   2.644  71.927  1.00  0.00    -0.183 A  
BRANCH  15  16
HETATM   16  C   UNL     1      -9.321   3.216  70.558  1.00  0.00    -0.157 C  
HETATM   17  O   UNL     1      -9.510   2.439  69.623  1.00  0.00    -0.116 OA 
BRANCH  16  18
HETATM   18  C   UNL     1      -9.198   4.691  70.279  1.00  0.00    -0.195 A  
HETATM   19  C   UNL     1     -10.222   5.515  70.763  1.00  0.00    -0.302 A  
HETATM   20  C   UNL     1     -10.238   6.899  70.504  1.00  0.00    -0.209 A  
HETATM   21  C   UNL     1      -9.247   7.522  69.736  1.00  0.00    -0.147 A  
HETATM   22  O   UNL     1      -7.146   4.573  69.023  1.00  0.00    -0.050 OA 
HETATM   23  C   UNL     1      -8.200   6.692  69.296  1.00  0.00    -0.124 A  
HETATM   24  H   UNL     1      -6.454   4.991  68.525  1.00  0.00     0.000 HD 
HETATM   25  C   UNL     1      -8.179   5.305  69.544  1.00  0.00    -0.095 A  
BRANCH  21  26
HETATM   26  N   UNL     1      -9.269   8.877  69.418  1.00  0.00    -0.145 NA 
BRANCH  26  27
HETATM   27  C   UNL     1     -10.490   9.446  68.824  1.00  0.00    -0.212 C  
HETATM   28  C   UNL     1     -10.554   9.146  67.333  1.00  0.00    -0.315 C  
ENDBRANCH  26  27
BRANCH  26  29
HETATM   29  C   UNL     1      -8.343   9.835  70.038  1.00  0.00    -0.192 C  
HETATM   30  C   UNL     1      -6.934   9.628  69.503  1.00  0.00    -0.059 C  
ENDBRANCH  26  29
ENDBRANCH  21  26
ENDBRANCH  16  18
ENDBRANCH  15  16
ENDBRANCH   8  10
ENDBRANCH   7   8
ENDBRANCH   6   7
ENDBRANCH   5   6
ENDBRANCH   4   5
ENDBRANCH   3   4
ENDBRANCH   2   3
TORSDOF 12
ENDMDL
MODEL      264
REMARK 921   NORMALIZED FREE ENERGY PREDICTED BY IDOCK:   -2.08 KCAL/MOL
REMARK 922        TOTAL FREE ENERGY PREDICTED BY IDOCK:   -5.51 KCAL/MOL
REMARK 923 INTER-LIGAND FREE ENERGY PREDICTED BY IDOCK:   -4.53 KCAL/MOL
REMARK 924 INTRA-LIGAND FREE ENERGY PREDICTED BY IDOCK:   -0.98 KCAL/MOL
REMARK 927      BINDING AFFINITY PREDICTED BY RF-SCORE:    0.00 PKD
ROOT
HETATM    1  C   UNL     1      -6.124   5.081  72.025  1.00  0.00    -0.025 C  
HETATM    2  C   UNL     1      -7.202   5.486  73.019  1.00  0.00    -0.091 C  
ENDROOT
BRANCH   2   3
HETATM    3  C   UNL     1      -7.239   7.002  73.212  1.00  0.00    -0.073 C  
BRANCH   3   4
HETATM    4  C   UNL     1      -6.348   7.731  72.198  1.00  0.00    -0.044 C  
BRANCH   4   5
HETATM    5  C   UNL     1      -7.201   8.406  71.121  1.00  0.00    -0.068 C  
BRANCH   5   6
HETATM    6  C   UNL     1      -6.507   9.577  70.434  1.00  0.00    -0.079 C  
BRANCH   6   7
HETATM    7  O   UNL     1      -7.378  10.501  69.779  1.00  0.00    -0.145 OA 
BRANCH   7   8
HETATM    8  C   UNL     1      -6.766  11.473  69.056  1.00  0.00    -0.098 C  
HETATM    9  O   UNL     1      -6.053  12.361  69.505  1.00  0.00    -0.098 OA 
BRANCH   8  10
HETATM   10  C   UNL     1      -6.805  11.106  67.611  1.00  0.00    -0.076 A  
HETATM   11  C   UNL     1      -5.542  10.838  67.043  1.00  0.00    -0.048 A  
HETATM   12  C   UNL     1      -5.417  10.417  65.719  1.00  0.00    -0.086 A  
HETATM   13  C   UNL     1      -6.552  10.304  64.925  1.00  0.00    -0.105 A  
HETATM   14  C   UNL     1      -7.808  10.576  65.463  1.00  0.00    -0.138 A  
HETATM   15  C   UNL     1      -7.956  10.925  66.820  1.00  0.00    -0.143 A  
BRANCH  15  16
HETATM   16  C   UNL     1      -9.334  11.169  67.313  1.00  0.00    -0.160 C  
HETATM   17  O   UNL     1      -9.926  12.153  66.870  1.00  0.00    -0.201 OA 
BRANCH  16  18
HETATM   18  C   UNL     1     -10.056  10.230  68.244  1.00  0.00    -0.176 A  
HETATM   19  C   UNL     1     -10.437  10.743  69.491  1.00  0.00    -0.205 A  
HETATM   20  C   UNL     1     -11.060   9.934  70.460  1.00  0.00    -0.398 A  
HETATM   21  C   UNL     1     -11.316   8.576  70.239  1.00  0.00    -0.130 A  
HETATM   22  O   UNL     1      -9.994   8.299  66.806  1.00  0.00    -0.235 OA 
HETATM   23  C   UNL     1     -10.972   8.085  68.967  1.00  0.00     0.086 A  
HETATM   24  H   UNL     1     -10.188   7.386  66.636  1.00  0.00     0.000 HD 
HETATM   25  C   UNL     1     -10.342   8.885  67.993  1.00  0.00    -0.219 A  
BRANCH  21  26
HETATM   26  N   UNL     1     -11.880   7.741  71.201  1.00  0.00    -0.291 NA 
BRANCH  26  27
HETATM   27  C   UNL     1     -13.128   8.159  71.859  1.00  0.00    -0.327 C  
HETATM   28  C   UNL     1     -14.330   7.484  71.213  1.00  0.00    -0.434 C  
ENDBRANCH  26  27
BRANCH  26  29
HETATM   29  C   UNL     1     -11.560   6.308  71.268  1.00  0.00    -0.274 C  
HETATM   30  C   UNL     1     -10.106   6.074  70.885  1.00  0.00    -0.246 C  
ENDBRANCH  26  29
ENDBRANCH  21  26
ENDBRANCH  16  18
ENDBRANCH  15  16
ENDBRANCH   8  10
ENDBRANCH   7   8
ENDBRANCH   6   7
ENDBRANCH   5   6
ENDBRANCH   4   5
ENDBRANCH   3   4
ENDBRANCH   2   3
TORSDOF 12
ENDMDL
MODEL      265
REMARK 921   NORMALIZED FREE ENERGY PREDICTED BY IDOCK:   -1.92 KCAL/MOL
REMARK 922        TOTAL FREE ENERGY PREDICTED BY IDOCK:   -5.23 KCAL/MOL
REMARK 923 INTER-LIGAND FREE ENERGY PREDICTED BY IDOCK:   -3.42 KCAL/MOL
REMARK 924 INTRA-LIGAND FREE ENERGY PREDICTED BY IDOCK:   -1.81 KCAL/MOL
REMARK 927      BINDING AFFINITY PREDICTED BY RF-SCORE:    0.00 PKD
ROOT
HETATM    1  C   UNL     1     -11.134   6.437  68.345  1.00  0.00    -0.374 C  
HETATM    2  C   UNL     1     -10.605   7.422  69.377  1.00  0.00    -0.231 C  
ENDROOT
BRANCH   2   3
HETATM    3  C   UNL     1     -11.654   7.724  70.447  1.00  0.00    -0.112 C  
BRANCH   3   4
HETATM    4  C   UNL     1     -11.791   6.576  71.455  1.00  0.00    -0.386 C  
BRANCH   4   5
HETATM    5  C   UNL     1     -10.547   6.488  72.342  1.00  0.00    -0.242 C  
BRANCH   5   6
HETATM    6  C   UNL     1      -9.335   5.881  71.642  1.00  0.00    -0.149 C  
BRANCH   6   7
HETATM    7  O   UNL     1      -8.593   4.938  72.417  1.00  0.00    -0.121 OA 
BRANCH   7   8
HETATM    8  C   UNL     1      -8.871   3.632  72.173  1.00  0.00    -0.092 C  
HETATM    9  O   UNL     1      -9.980   3.115  72.201  1.00  0.00    -0.160 OA 
BRANCH   8  10
HETATM   10  C   UNL     1      -7.685   2.992  71.534  1.00  0.00    -0.048 A  
HETATM   11  C   UNL     1      -6.814   2.345  72.437  1.00  0.00    -0.019 A  
HETATM   12  C   UNL     1      -5.695   1.643  71.987  1.00  0.00    -0.008 A  
HETATM   13  C   UNL     1      -5.401   1.616  70.629  1.00  0.00    -0.004 A  
HETATM   14  C   UNL     1      -6.243   2.260  69.722  1.00  0.00    -0.025 A  
HETATM   15  C   UNL     1      -7.418   2.905  70.154  1.00  0.00    -0.043 A  
BRANCH  15  16
HETATM   16  C   UNL     1      -8.267   3.537  69.115  1.00  0.00    -0.060 C  
HETATM   17  O   UNL     1      -9.395   3.074  68.950  1.00  0.00    -0.155 OA 
BRANCH  16  18
HETATM   18  C   UNL     1      -7.848   4.756  68.335  1.00  0.00    -0.081 A  
HETATM   19  C   UNL     1      -7.333   5.832  69.070  1.00  0.00    -0.083 A  
HETATM   20  C   UNL     1      -6.972   7.042  68.447  1.00  0.00    -0.076 A  
HETATM   21  C   UNL     1      -7.122   7.242  67.070  1.00  0.00    -0.087 A  
HETATM   22  O   UNL     1      -8.472   3.931  66.160  1.00  0.00    -0.108 OA 
HETATM   23  C   UNL     1      -7.596   6.139  66.338  1.00  0.00    -0.094 A  
HETATM   24  H   UNL     1      -8.553   4.047  65.221  1.00  0.00     0.000 HD 
HETATM   25  C   UNL     1      -7.967   4.926  66.952  1.00  0.00    -0.103 A  
BRANCH  21  26
HETATM   26  N   UNL     1      -6.825   8.447  66.438  1.00  0.00    -0.069 NA 
BRANCH  26  27
HETATM   27  C   UNL     1      -7.448   8.738  65.136  1.00  0.00    -0.090 C  
HETATM   28  C   UNL     1      -8.892   9.183  65.317  1.00  0.00    -0.240 C  
ENDBRANCH  26  27
BRANCH  26  29
HETATM   29  C   UNL     1      -6.304   9.604  67.180  1.00  0.00    -0.065 C  
HETATM   30  C   UNL     1      -5.733  10.633  66.216  1.00  0.00    -0.098 C  
ENDBRANCH  26  29
ENDBRANCH  21  26
ENDBRANCH  16  18
ENDBRANCH  15  16
ENDBRANCH   8  10
ENDBRANCH   7   8
ENDBRANCH   6   7
ENDBRANCH   5   6
ENDBRANCH   4   5
ENDBRANCH   3   4
ENDBRANCH   2   3
TORSDOF 12
ENDMDL
MODEL      266
REMARK 921   NORMALIZED FREE ENERGY PREDICTED BY IDOCK:   -1.90 KCAL/MOL
REMARK 922        TOTAL FREE ENERGY PREDICTED BY IDOCK:   -5.20 KCAL/MOL
REMARK 923 INTER-LIGAND FREE ENERGY PREDICTED BY IDOCK:   -4.18 KCAL/MOL
REMARK 924 INTRA-LIGAND FREE ENERGY PREDICTED BY IDOCK:   -1.02 KCAL/MOL
REMARK 927      BINDING AFFINITY PREDICTED BY RF-SCORE:    0.00 PKD
ROOT
HETATM    1  C   UNL     1      -5.347   7.485  70.704  1.00  0.00    -0.023 C  
HETATM    2  C   UNL     1      -6.046   7.639  72.047  1.00  0.00    -0.039 C  
ENDROOT
BRANCH   2   3
HETATM    3  C   UNL     1      -7.413   8.304  71.889  1.00  0.00    -0.118 C  
BRANCH   3   4
HETATM    4  C   UNL     1      -8.532   7.274  71.692  1.00  0.00    -0.114 C  
BRANCH   4   5
HETATM    5  C   UNL     1      -8.745   6.990  70.203  1.00  0.00    -0.141 C  
BRANCH   5   6
HETATM    6  C   UNL     1      -8.068   7.999  69.282  1.00  0.00    -0.118 C  
BRANCH   6   7
HETATM    7  O   UNL     1      -8.766   9.235  69.118  1.00  0.00    -0.132 OA 
BRANCH   7   8
HETATM    8  C   UNL     1      -9.667   9.270  68.104  1.00  0.00    -0.150 C  
HETATM    9  O   UNL     1     -10.805   9.714  68.169  1.00  0.00    -0.237 OA 
BRANCH   8  10
HETATM   10  C   UNL     1      -8.964   9.006  66.816  1.00  0.00    -0.160 A  
HETATM   11  C   UNL     1      -9.429   7.870  66.119  1.00  0.00    -0.158 A  
HETATM   12  C   UNL     1      -8.917   7.528  64.867  1.00  0.00     0.516 A  
HETATM   13  C   UNL     1      -7.897   8.289  64.311  1.00  0.00    -0.144 A  
HETATM   14  C   UNL     1      -7.414   9.409  64.989  1.00  0.00    -0.106 A  
HETATM   15  C   UNL     1      -7.976   9.811  66.216  1.00  0.00    -0.109 A  
BRANCH  15  16
HETATM   16  C   UNL     1      -7.419  11.031  66.851  1.00  0.00    -0.133 C  
HETATM   17  O   UNL     1      -6.221  11.024  67.132  1.00  0.00    -0.061 OA 
BRANCH  16  18
HETATM   18  C   UNL     1      -8.223  12.285  67.076  1.00  0.00    -0.155 A  
HETATM   19  C   UNL     1      -9.324  12.491  66.235  1.00  0.00    -0.177 A  
HETATM   20  C   UNL     1     -10.104  13.660  66.318  1.00  0.00    -0.301 A  
HETATM   21  C   UNL     1      -9.814  14.683  67.228  1.00  0.00    -0.231 A  
HETATM   22  O   UNL     1      -6.880  13.165  68.871  1.00  0.00    -0.098 OA 
HETATM   23  C   UNL     1      -8.735  14.444  68.097  1.00  0.00    -0.175 A  
HETATM   24  H   UNL     1      -6.691  13.841  69.510  1.00  0.00     0.000 HD 
HETATM   25  C   UNL     1      -7.944  13.280  68.018  1.00  0.00    -0.152 A  
BRANCH  21  26
HETATM   26  N   UNL     1     -10.535  15.873  67.292  1.00  0.00    -0.305 NA 
BRANCH  26  27
HETATM   27  C   UNL     1     -10.999  16.351  68.604  1.00  0.00    -0.345 C  
HETATM   28  C   UNL     1     -11.941  15.340  69.244  1.00  0.00    -0.327 C  
ENDBRANCH  26  27
BRANCH  26  29
HETATM   29  C   UNL     1     -10.468  16.879  66.222  1.00  0.00    -0.262 C  
HETATM   30  C   UNL     1      -9.119  17.580  66.241  1.00  0.00    -0.221 C  
ENDBRANCH  26  29
ENDBRANCH  21  26
ENDBRANCH  16  18
ENDBRANCH  15  16
ENDBRANCH   8  10
ENDBRANCH   7   8
ENDBRANCH   6   7
ENDBRANCH   5   6
ENDBRANCH   4   5
ENDBRANCH   3   4
ENDBRANCH   2   3
TORSDOF 12
ENDMDL
MODEL      267
REMARK 921   NORMALIZED FREE ENERGY PREDICTED BY IDOCK:   -1.86 KCAL/MOL
REMARK 922        TOTAL FREE ENERGY PREDICTED BY IDOCK:   -5.13 KCAL/MOL
REMARK 923 INTER-LIGAND FREE ENERGY PREDICTED BY IDOCK:   -4.96 KCAL/MOL
REMARK 924 INTRA-LIGAND FREE ENERGY PREDICTED BY IDOCK:   -0.17 KCAL/MOL
REMARK 927      BINDING AFFINITY PREDICTED BY RF-SCORE:    0.00 PKD
ROOT
HETATM    1  C   UNL     1     -13.549  13.262  71.694  1.00  0.00    -0.263 C  
HETATM    2  C   UNL     1     -13.231  14.731  71.455  1.00  0.00    -0.442 C  
ENDROOT
BRANCH   2   3
HETATM    3  C   UNL     1     -13.169  15.049  69.962  1.00  0.00     0.236 C  
BRANCH   3   4
HETATM    4  C   UNL     1     -11.999  15.983  69.623  1.00  0.00    -0.189 C  
BRANCH   4   5
HETATM    5  C   UNL     1     -10.691  15.438  70.199  1.00  0.00    -0.326 C  
BRANCH   5   6
HETATM    6  C   UNL     1      -9.830  14.702  69.177  1.00  0.00    -0.124 C  
BRANCH   6   7
HETATM    7  O   UNL     1     -10.232  13.360  68.896  1.00  0.00    -0.164 OA 
BRANCH   7   8
HETATM    8  C   UNL     1      -9.309  12.592  68.265  1.00  0.00    -0.193 C  
HETATM    9  O   UNL     1      -8.275  12.161  68.757  1.00  0.00    -0.073 OA 
BRANCH   8  10
HETATM   10  C   UNL     1      -9.895  12.064  66.999  1.00  0.00    -0.205 A  
HETATM   11  C   UNL     1     -11.067  12.727  66.579  1.00  0.00    -0.321 A  
HETATM   12  C   UNL     1     -11.697  12.394  65.379  1.00  0.00    -0.452 A  
HETATM   13  C   UNL     1     -11.192  11.359  64.602  1.00  0.00    -0.220 A  
HETATM   14  C   UNL     1     -10.042  10.682  65.007  1.00  0.00    -0.388 A  
HETATM   15  C   UNL     1      -9.351  11.060  66.174  1.00  0.00    -0.214 A  
BRANCH  15  16
HETATM   16  C   UNL     1      -8.120  10.303  66.510  1.00  0.00    -0.121 C  
HETATM   17  O   UNL     1      -7.045  10.797  66.174  1.00  0.00    -0.130 OA 
BRANCH  16  18
HETATM   18  C   UNL     1      -8.128   9.027  67.311  1.00  0.00    -0.103 A  
HETATM   19  C   UNL     1      -7.312   8.988  68.449  1.00  0.00    -0.078 A  
HETATM   20  C   UNL     1      -7.196   7.824  69.232  1.00  0.00    -0.081 A  
HETATM   21  C   UNL     1      -7.873   6.642  68.908  1.00  0.00    -0.111 A  
HETATM   22  O   UNL     1      -9.653   7.813  65.897  1.00  0.00    -0.425 OA 
HETATM   23  C   UNL     1      -8.724   6.708  67.792  1.00  0.00    -0.116 A  
HETATM   24  H   UNL     1     -10.137   7.024  65.684  1.00  0.00     0.000 HD 
HETATM   25  C   UNL     1      -8.842   7.866  66.998  1.00  0.00    -0.130 A  
BRANCH  21  26
HETATM   26  N   UNL     1      -7.732   5.461  69.633  1.00  0.00    -0.073 NA 
BRANCH  26  27
HETATM   27  C   UNL     1      -6.608   4.564  69.316  1.00  0.00    -0.040 C  
HETATM   28  C   UNL     1      -5.280   5.293  69.457  1.00  0.00    -0.003 C  
ENDBRANCH  26  27
BRANCH  26  29
HETATM   29  C   UNL     1      -8.350   5.283  70.955  1.00  0.00    -0.116 C  
HETATM   30  C   UNL     1      -7.409   5.769  72.046  1.00  0.00    -0.094 C  
ENDBRANCH  26  29
ENDBRANCH  21  26
ENDBRANCH  16  18
ENDBRANCH  15  16
ENDBRANCH   8  10
ENDBRANCH   7   8
ENDBRANCH   6   7
ENDBRANCH   5   6
ENDBRANCH   4   5
ENDBRANCH   3   4
ENDBRANCH   2   3
TORSDOF 12
ENDMDL
MODEL      268
REMARK 921   NORMALIZED FREE ENERGY PREDICTED BY IDOCK:   -1.69 KCAL/MOL
REMARK 922        TOTAL FREE ENERGY PREDICTED BY IDOCK:   -4.84 KCAL/MOL
REMARK 923 INTER-LIGAND FREE ENERGY PREDICTED BY IDOCK:   -4.63 KCAL/MOL
REMARK 924 INTRA-LIGAND FREE ENERGY PREDICTED BY IDOCK:   -0.21 KCAL/MOL
REMARK 927      BINDING AFFINITY PREDICTED BY RF-SCORE:    0.00 PKD
ROOT
HETATM    1  C   UNL     1     -14.053  15.865  73.287  1.00  0.00     0.228 C  
HETATM    2  C   UNL     1     -13.394  15.096  72.152  1.00  0.00    -0.501 C  
ENDROOT
BRANCH   2   3
HETATM    3  C   UNL     1     -12.237  15.887  71.542  1.00  0.00    -0.525 C  
BRANCH   3   4
HETATM    4  C   UNL     1     -10.980  15.025  71.373  1.00  0.00    -0.028 C  
BRANCH   4   5
HETATM    5  C   UNL     1     -10.825  14.580  69.917  1.00  0.00    -0.083 C  
BRANCH   5   6
HETATM    6  C   UNL     1     -11.963  13.696  69.421  1.00  0.00    -0.342 C  
BRANCH   6   7
HETATM    7  O   UNL     1     -12.144  12.475  70.141  1.00  0.00    -0.340 OA 
BRANCH   7   8
HETATM    8  C   UNL     1     -11.340  11.448  69.765  1.00  0.00    -0.255 C  
HETATM    9  O   UNL     1     -10.237  11.553  69.245  1.00  0.00    -0.084 OA 
BRANCH   8  10
HETATM   10  C   UNL     1     -11.837  10.186  70.383  1.00  0.00    -0.373 A  
HETATM   11  C   UNL     1     -12.714  10.376  71.472  1.00  0.00    -0.564 A  
HETATM   12  C   UNL     1     -13.317   9.294  72.115  1.00  0.00    -0.537 A  
HETATM   13  C   UNL     1     -13.015   8.000  71.710  1.00  0.00    -0.354 A  
HETATM   14  C   UNL     1     -12.141   7.790  70.644  1.00  0.00    -0.030 A  
HETATM   15  C   UNL     1     -11.588   8.874  69.935  1.00  0.00     0.204 A  
BRANCH  15  16
HETATM   16  C   UNL     1     -10.692   8.555  68.797  1.00  0.00    -0.054 C  
HETATM   17  O   UNL     1     -11.003   8.999  67.692  1.00  0.00    -0.152 OA 
BRANCH  16  18
HETATM   18  C   UNL     1      -9.395   7.804  68.951  1.00  0.00    -0.146 A  
HETATM   19  C   UNL     1      -9.475   6.406  69.003  1.00  0.00    -0.131 A  
HETATM   20  C   UNL     1      -8.332   5.610  69.209  1.00  0.00    -0.107 A  
HETATM   21  C   UNL     1      -7.062   6.170  69.391  1.00  0.00    -0.069 A  
HETATM   22  O   UNL     1      -7.959   9.734  69.066  1.00  0.00    -0.087 OA 
HETATM   23  C   UNL     1      -6.988   7.570  69.290  1.00  0.00    -0.068 A  
HETATM   24  H   UNL     1      -7.098  10.121  69.161  1.00  0.00     0.000 HD 
HETATM   25  C   UNL     1      -8.127   8.375  69.091  1.00  0.00    -0.119 A  
BRANCH  21  26
HETATM   26  N   UNL     1      -5.925   5.409  69.652  1.00  0.00    -0.017 NA 
BRANCH  26  27
HETATM   27  C   UNL     1      -5.537   5.170  71.052  1.00  0.00    -0.012 C  
HETATM   28  C   UNL     1      -6.719   4.649  71.857  1.00  0.00    -0.035 C  
ENDBRANCH  26  27
BRANCH  26  29
HETATM   29  C   UNL     1      -5.368   4.480  68.659  1.00  0.00    -0.011 C  
HETATM   30  C   UNL     1      -6.464   3.982  67.729  1.00  0.00    -0.038 C  
ENDBRANCH  26  29
ENDBRANCH  21  26
ENDBRANCH  16  18
ENDBRANCH  15  16
ENDBRANCH   8  10
ENDBRANCH   7   8
ENDBRANCH   6   7
ENDBRANCH   5   6
ENDBRANCH   4   5
ENDBRANCH   3   4
ENDBRANCH   2   3
TORSDOF 12
ENDMDL
MODEL      269
REMARK 921   NORMALIZED FREE ENERGY PREDICTED BY IDOCK:   -1.31 KCAL/MOL
REMARK 922        TOTAL FREE ENERGY PREDICTED BY IDOCK:   -4.19 KCAL/MOL
REMARK 923 INTER-LIGAND FREE ENERGY PREDICTED BY IDOCK:   -3.07 KCAL/MOL
REMARK 924 INTRA-LIGAND FREE ENERGY PREDICTED BY IDOCK:   -1.12 KCAL/MOL
REMARK 927      BINDING AFFINITY PREDICTED BY RF-SCORE:    0.00 PKD
ROOT
HETATM    1  C   UNL     1      -5.717   8.937  73.442  1.00  0.00    -0.093 C  
HETATM    2  C   UNL     1      -7.068   8.314  73.763  1.00  0.00    -0.170 C  
ENDROOT
BRANCH   2   3
HETATM    3  C   UNL     1      -7.697   7.681  72.522  1.00  0.00    -0.112 C  
BRANCH   3   4
HETATM    4  C   UNL     1      -7.782   6.154  72.638  1.00  0.00    -0.102 C  
BRANCH   4   5
HETATM    5  C   UNL     1      -6.427   5.514  72.332  1.00  0.00    -0.053 C  
BRANCH   5   6
HETATM    6  C   UNL     1      -6.309   4.068  72.803  1.00  0.00    -0.017 C  
BRANCH   6   7
HETATM    7  O   UNL     1      -5.441   3.243  72.023  1.00  0.00    -0.007 OA 
BRANCH   7   8
HETATM    8  C   UNL     1      -5.984   2.724  70.893  1.00  0.00    -0.018 C  
HETATM    9  O   UNL     1      -5.369   2.369  69.897  1.00  0.00    -0.011 OA 
BRANCH   8  10
HETATM   10  C   UNL     1      -7.396   2.329  71.168  1.00  0.00    -0.033 A  
HETATM   11  C   UNL     1      -7.619   1.827  72.468  1.00  0.00    -0.043 A  
HETATM   12  C   UNL     1      -8.899   1.477  72.899  1.00  0.00    -0.062 A  
HETATM   13  C   UNL     1      -9.971   1.577  72.022  1.00  0.00    -0.210 A  
HETATM   14  C   UNL     1      -9.770   2.059  70.729  1.00  0.00    -0.108 A  
HETATM   15  C   UNL     1      -8.498   2.490  70.305  1.00  0.00    -0.087 A  
BRANCH  15  16
HETATM   16  C   UNL     1      -8.384   3.015  68.923  1.00  0.00    -0.060 C  
HETATM   17  O   UNL     1      -8.148   2.203  68.029  1.00  0.00    -0.058 OA 
BRANCH  16  18
HETATM   18  C   UNL     1      -8.630   4.457  68.564  1.00  0.00    -0.107 A  
HETATM   19  C   UNL     1      -9.112   5.290  69.582  1.00  0.00    -0.149 A  
HETATM   20  C   UNL     1      -9.437   6.638  69.338  1.00  0.00    -0.146 A  
HETATM   21  C   UNL     1      -9.313   7.213  68.068  1.00  0.00    -0.129 A  
HETATM   22  O   UNL     1      -8.010   4.284  66.243  1.00  0.00    -0.097 OA 
HETATM   23  C   UNL     1      -8.785   6.381  67.066  1.00  0.00    -0.115 A  
HETATM   24  H   UNL     1      -7.897   4.672  65.384  1.00  0.00     0.000 HD 
HETATM   25  C   UNL     1      -8.464   5.028  67.298  1.00  0.00    -0.105 A  
BRANCH  21  26
HETATM   26  N   UNL     1      -9.679   8.528  67.788  1.00  0.00    -0.156 NA 
BRANCH  26  27
HETATM   27  C   UNL     1      -8.890   9.624  68.372  1.00  0.00    -0.123 C  
HETATM   28  C   UNL     1      -9.637  10.268  69.531  1.00  0.00    -0.225 C  
ENDBRANCH  26  27
BRANCH  26  29
HETATM   29  C   UNL     1     -10.500   8.872  66.618  1.00  0.00    -0.161 C  
HETATM   30  C   UNL     1     -10.054  10.204  66.035  1.00  0.00    -0.317 C  
ENDBRANCH  26  29
ENDBRANCH  21  26
ENDBRANCH  16  18
ENDBRANCH  15  16
ENDBRANCH   8  10
ENDBRANCH   7   8
ENDBRANCH   6   7
ENDBRANCH   5   6
ENDBRANCH   4   5
ENDBRANCH   3   4
ENDBRANCH   2   3
TORSDOF 12
ENDMDL
MODEL      270
REMARK 921   NORMALIZED FREE ENERGY PREDICTED BY IDOCK:   -1.29 KCAL/MOL
REMARK 922        TOTAL FREE ENERGY PREDICTED BY IDOCK:   -4.16 KCAL/MOL
REMARK 923 INTER-LIGAND FREE ENERGY PREDICTED BY IDOCK:   -3.15 KCAL/MOL
REMARK 924 INTRA-LIGAND FREE ENERGY PREDICTED BY IDOCK:   -1.01 KCAL/MOL
REMARK 927      BINDING AFFINITY PREDICTED BY RF-SCORE:    0.00 PKD
ROOT
HETATM    1  C   UNL     1      -7.335  13.277  67.524  1.00  0.00    -0.159 C  
HETATM    2  C   UNL     1      -7.467  11.773  67.336  1.00  0.00    -0.143 C  
ENDROOT
BRANCH   2   3
HETATM    3  C   UNL     1      -6.099  11.111  67.176  1.00  0.00    -0.082 C  
BRANCH   3   4
HETATM    4  C   UNL     1      -5.836  10.067  68.268  1.00  0.00    -0.042 C  
BRANCH   4   5
HETATM    5  C   UNL     1      -6.039   8.653  67.721  1.00  0.00    -0.048 C  
BRANCH   5   6
HETATM    6  C   UNL     1      -7.504   8.263  67.553  1.00  0.00    -0.094 C  
BRANCH   6   7
HETATM    7  O   UNL     1      -8.186   7.925  68.763  1.00  0.00    -0.124 OA 
BRANCH   7   8
HETATM    8  C   UNL     1      -9.286   7.144  68.616  1.00  0.00    -0.134 C  
HETATM    9  O   UNL     1      -9.987   7.070  67.616  1.00  0.00    -0.140 OA 
BRANCH   8  10
HETATM   10  C   UNL     1      -9.323   6.140  69.718  1.00  0.00    -0.162 A  
HETATM   11  C   UNL     1     -10.381   6.317  70.635  1.00  0.00    -0.254 A  
HETATM   12  C   UNL     1     -10.590   5.420  71.683  1.00  0.00    -0.284 A  
HETATM   13  C   UNL     1      -9.714   4.357  71.862  1.00  0.00    -0.233 A  
HETATM   14  C   UNL     1      -8.654   4.171  70.974  1.00  0.00    -0.113 A  
HETATM   15  C   UNL     1      -8.478   5.022  69.866  1.00  0.00    -0.092 A  
BRANCH  15  16
HETATM   16  C   UNL     1      -7.341   4.731  68.959  1.00  0.00    -0.053 C  
HETATM   17  O   UNL     1      -6.207   4.821  69.429  1.00  0.00    -0.025 OA 
BRANCH  16  18
HETATM   18  C   UNL     1      -7.517   4.250  67.543  1.00  0.00    -0.069 A  
HETATM   19  C   UNL     1      -7.118   5.124  66.523  1.00  0.00    -0.069 A  
HETATM   20  C   UNL     1      -7.297   4.801  65.164  1.00  0.00    -0.072 A  
HETATM   21  C   UNL     1      -7.896   3.602  64.760  1.00  0.00    -0.082 A  
HETATM   22  O   UNL     1      -8.508   2.123  68.084  1.00  0.00    -0.061 OA 
HETATM   23  C   UNL     1      -8.249   2.713  65.791  1.00  0.00    -0.087 A  
HETATM   24  H   UNL     1      -8.891   1.295  67.820  1.00  0.00     0.000 HD 
HETATM   25  C   UNL     1      -8.080   3.031  67.154  1.00  0.00    -0.079 A  
BRANCH  21  26
HETATM   26  N   UNL     1      -8.135   3.282  63.426  1.00  0.00    -0.083 NA 
BRANCH  26  27
HETATM   27  C   UNL     1      -7.674   1.982  62.914  1.00  0.00    -0.054 C  
HETATM   28  C   UNL     1      -6.465   1.492  63.698  1.00  0.00    -0.014 C  
ENDBRANCH  26  27
BRANCH  26  29
HETATM   29  C   UNL     1      -9.186   3.950  62.645  1.00  0.00    -0.109 C  
HETATM   30  C   UNL     1     -10.513   3.890  63.387  1.00  0.00    -0.193 C  
ENDBRANCH  26  29
ENDBRANCH  21  26
ENDBRANCH  16  18
ENDBRANCH  15  16
ENDBRANCH   8  10
ENDBRANCH   7   8
ENDBRANCH   6   7
ENDBRANCH   5   6
ENDBRANCH   4   5
ENDBRANCH   3   4
ENDBRANCH   2   3
TORSDOF 12
ENDMDL
MODEL      271
REMARK 921   NORMALIZED FREE ENERGY PREDICTED BY IDOCK:   -0.57 KCAL/MOL
REMARK 922        TOTAL FREE ENERGY PREDICTED BY IDOCK:   -2.93 KCAL/MOL
REMARK 923 INTER-LIGAND FREE ENERGY PREDICTED BY IDOCK:   -7.15 KCAL/MOL
REMARK 924 INTRA-LIGAND FREE ENERGY PREDICTED BY IDOCK:    4.21 KCAL/MOL
REMARK 927      BINDING AFFINITY PREDICTED BY RF-SCORE:    0.00 PKD
ROOT
HETATM    1  C   UNL     1     -11.387  14.400  64.630  1.00  0.00    -0.373 C  
HETATM    2  C   UNL     1     -12.487  13.396  64.316  1.00  0.00    -0.321 C  
ENDROOT
BRANCH   2   3
HETATM    3  C   UNL     1     -11.905  12.052  63.879  1.00  0.00    -0.543 C  
BRANCH   3   4
HETATM    4  C   UNL     1     -10.439  11.897  64.306  1.00  0.00    -0.370 C  
BRANCH   4   5
HETATM    5  C   UNL     1     -10.049  12.992  65.300  1.00  0.00    -0.247 C  
BRANCH   5   6
HETATM    6  C   UNL     1     -10.081  12.539  66.756  1.00  0.00    -0.223 C  
BRANCH   6   7
HETATM    7  O   UNL     1     -10.068  13.593  67.721  1.00  0.00    -0.233 OA 
BRANCH   7   8
HETATM    8  C   UNL     1     -11.285  14.079  68.074  1.00  0.00    -0.279 C  
HETATM    9  O   UNL     1     -11.994  14.806  67.392  1.00  0.00    -0.357 OA 
BRANCH   8  10
HETATM   10  C   UNL     1     -11.785  13.329  69.262  1.00  0.00    -0.380 A  
HETATM   11  C   UNL     1     -12.150  11.992  68.996  1.00  0.00    -0.223 A  
HETATM   12  C   UNL     1     -12.574  11.139  70.016  1.00  0.00    -0.213 A  
HETATM   13  C   UNL     1     -12.687  11.624  71.313  1.00  0.00    -0.444 A  
HETATM   14  C   UNL     1     -12.343  12.946  71.595  1.00  0.00     0.130 A  
HETATM   15  C   UNL     1     -11.839  13.794  70.590  1.00  0.00    -0.261 A  
BRANCH  15  16
HETATM   16  C   UNL     1     -11.472  15.175  70.988  1.00  0.00    -0.330 C  
HETATM   17  O   UNL     1     -11.845  15.561  72.095  1.00  0.00    -0.377 OA 
BRANCH  16  18
HETATM   18  C   UNL     1     -10.601  16.073  70.148  1.00  0.00    -0.269 A  
HETATM   19  C   UNL     1     -11.129  17.324  69.802  1.00  0.00     0.681 A  
HETATM   20  C   UNL     1     -10.426  18.214  68.968  1.00  0.00     0.004 A  
HETATM   21  C   UNL     1      -9.175  17.892  68.426  1.00  0.00    -0.286 A  
HETATM   22  O   UNL     1      -8.750  14.548  69.925  1.00  0.00    -0.147 OA 
HETATM   23  C   UNL     1      -8.637  16.654  68.818  1.00  0.00    -0.261 A  
HETATM   24  H   UNL     1      -7.891  14.332  69.585  1.00  0.00     0.000 HD 
HETATM   25  C   UNL     1      -9.335  15.754  69.647  1.00  0.00    -0.176 A  
BRANCH  21  26
HETATM   26  N   UNL     1      -8.485  18.731  67.554  1.00  0.00    -0.268 NA 
BRANCH  26  27
HETATM   27  C   UNL     1      -7.029  18.566  67.416  1.00  0.00    -0.204 C  
HETATM   28  C   UNL     1      -6.676  18.021  66.040  1.00  0.00    -0.323 C  
ENDBRANCH  26  27
BRANCH  26  29
HETATM   29  C   UNL     1      -9.163  19.441  66.461  1.00  0.00    -0.356 C  
HETATM   30  C   UNL     1     -10.522  18.813  66.188  1.00  0.00    -0.499 C  
ENDBRANCH  26  29
ENDBRANCH  21  26
ENDBRANCH  16  18
ENDBRANCH  15  16
ENDBRANCH   8  10
ENDBRANCH   7   8
ENDBRANCH   6   7
ENDBRANCH   5   6
ENDBRANCH   4   5
ENDBRANCH   3   4
ENDBRANCH   2   3
TORSDOF 12
ENDMDL
MODEL      272
REMARK 921   NORMALIZED FREE ENERGY PREDICTED BY IDOCK:    2.48 KCAL/MOL
REMARK 922        TOTAL FREE ENERGY PREDICTED BY IDOCK:    2.26 KCAL/MOL
REMARK 923 INTER-LIGAND FREE ENERGY PREDICTED BY IDOCK:    2.49 KCAL/MOL
REMARK 924 INTRA-LIGAND FREE ENERGY PREDICTED BY IDOCK:   -0.23 KCAL/MOL
REMARK 927      BINDING AFFINITY PREDICTED BY RF-SCORE:    0.00 PKD
ROOT
HETATM    1  C   UNL     1     -11.262   5.679  67.522  1.00  0.00     0.480 C  
HETATM    2  C   UNL     1     -11.175   6.793  68.554  1.00  0.00    -0.155 C  
ENDROOT
BRANCH   2   3
HETATM    3  C   UNL     1     -12.563   7.279  68.967  1.00  0.00     3.643 C  
BRANCH   3   4
HETATM    4  C   UNL     1     -12.959   6.772  70.359  1.00  0.00     0.775 C  
BRANCH   4   5
HETATM    5  C   UNL     1     -11.835   7.031  71.365  1.00  0.00    -0.359 C  
BRANCH   5   6
HETATM    6  C   UNL     1     -10.486   6.462  70.940  1.00  0.00    -0.228 C  
BRANCH   6   7
HETATM    7  O   UNL     1      -9.480   6.459  71.954  1.00  0.00    -0.153 OA 
BRANCH   7   8
HETATM    8  C   UNL     1      -9.491   5.387  72.787  1.00  0.00    -0.145 C  
HETATM    9  O   UNL     1     -10.471   4.934  73.362  1.00  0.00    -0.177 OA 
BRANCH   8  10
HETATM   10  C   UNL     1      -8.211   4.636  72.633  1.00  0.00    -0.107 A  
HETATM   11  C   UNL     1      -7.387   4.647  73.778  1.00  0.00    -0.081 A  
HETATM   12  C   UNL     1      -6.188   3.935  73.815  1.00  0.00    -0.024 A  
HETATM   13  C   UNL     1      -5.768   3.238  72.688  1.00  0.00    -0.008 A  
HETATM   14  C   UNL     1      -6.562   3.226  71.542  1.00  0.00    -0.022 A  
HETATM   15  C   UNL     1      -7.812   3.874  71.518  1.00  0.00    -0.061 A  
BRANCH  15  16
HETATM   16  C   UNL     1      -8.601   3.783  70.265  1.00  0.00    -0.061 C  
HETATM   17  O   UNL     1      -9.719   3.275  70.339  1.00  0.00    -0.167 OA 
BRANCH  16  18
HETATM   18  C   UNL     1      -8.136   4.357  68.952  1.00  0.00    -0.072 A  
HETATM   19  C   UNL     1      -7.931   5.742  68.904  1.00  0.00    -0.098 A  
HETATM   20  C   UNL     1      -7.559   6.390  67.711  1.00  0.00    -0.102 A  
HETATM   21  C   UNL     1      -7.391   5.692  66.509  1.00  0.00    -0.079 A  
HETATM   22  O   UNL     1      -8.123   2.286  67.723  1.00  0.00    -0.062 OA 
HETATM   23  C   UNL     1      -7.554   4.298  66.581  1.00  0.00    -0.085 A  
HETATM   24  H   UNL     1      -7.985   1.800  66.920  1.00  0.00     0.000 HD 
HETATM   25  C   UNL     1      -7.933   3.641  67.769  1.00  0.00    -0.081 A  
BRANCH  21  26
HETATM   26  N   UNL     1      -7.078   6.316  65.304  1.00  0.00    -0.062 NA 
BRANCH  26  27
HETATM   27  C   UNL     1      -7.281   5.575  64.048  1.00  0.00    -0.051 C  
HETATM   28  C   UNL     1      -8.749   5.585  63.647  1.00  0.00     0.131 C  
ENDBRANCH  26  27
BRANCH  26  29
HETATM   29  C   UNL     1      -6.992   7.778  65.186  1.00  0.00    -0.059 C  
HETATM   30  C   UNL     1      -5.550   8.236  65.346  1.00  0.00    -0.043 C  
ENDBRANCH  26  29
ENDBRANCH  21  26
ENDBRANCH  16  18
ENDBRANCH  15  16
ENDBRANCH   8  10
ENDBRANCH   7   8
ENDBRANCH   6   7
ENDBRANCH   5   6
ENDBRANCH   4   5
ENDBRANCH   3   4
ENDBRANCH   2   3
TORSDOF 12
ENDMDL
MODEL      273
REMARK 921   NORMALIZED FREE ENERGY PREDICTED BY IDOCK:    3.30 KCAL/MOL
REMARK 922        TOTAL FREE ENERGY PREDICTED BY IDOCK:    3.66 KCAL/MOL
REMARK 923 INTER-LIGAND FREE ENERGY PREDICTED BY IDOCK:   -3.11 KCAL/MOL
REMARK 924 INTRA-LIGAND FREE ENERGY PREDICTED BY IDOCK:    6.77 KCAL/MOL
REMARK 927      BINDING AFFINITY PREDICTED BY RF-SCORE:    0.00 PKD
ROOT
HETATM    1  C   UNL     1     -10.414  11.059  67.330  1.00  0.00    -0.270 C  
HETATM    2  C   UNL     1      -9.423  11.209  66.185  1.00  0.00    -0.229 C  
ENDROOT
BRANCH   2   3
HETATM    3  C   UNL     1      -9.766  12.410  65.306  1.00  0.00    -0.104 C  
BRANCH   3   4
HETATM    4  C   UNL     1     -11.248  12.427  64.910  1.00  0.00    -0.353 C  
BRANCH   4   5
HETATM    5  C   UNL     1     -12.133  12.593  66.147  1.00  0.00    -0.399 C  
BRANCH   5   6
HETATM    6  C   UNL     1     -11.351  12.767  67.444  1.00  0.00    -0.313 C  
BRANCH   6   7
HETATM    7  O   UNL     1     -10.347  13.783  67.418  1.00  0.00    -0.249 OA 
BRANCH   7   8
HETATM    8  C   UNL     1      -9.851  14.149  68.627  1.00  0.00    -0.206 C  
HETATM    9  O   UNL     1      -8.679  14.393  68.880  1.00  0.00    -0.154 OA 
BRANCH   8  10
HETATM   10  C   UNL     1     -10.980  14.543  69.519  1.00  0.00    -0.253 A  
HETATM   11  C   UNL     1     -11.178  13.685  70.622  1.00  0.00     0.722 A  
HETATM   12  C   UNL     1     -12.152  13.955  71.584  1.00  0.00    -0.014 A  
HETATM   13  C   UNL     1     -12.977  15.063  71.433  1.00  0.00    -0.445 A  
HETATM   14  C   UNL     1     -12.806  15.916  70.344  1.00  0.00     0.122 A  
HETATM   15  C   UNL     1     -11.775  15.700  69.408  1.00  0.00    -0.395 A  
BRANCH  15  16
HETATM   16  C   UNL     1     -11.649  16.675  68.298  1.00  0.00     0.153 C  
HETATM   17  O   UNL     1     -12.641  16.858  67.592  1.00  0.00     2.315 OA 
BRANCH  16  18
HETATM   18  C   UNL     1     -10.412  17.501  68.060  1.00  0.00    -0.387 A  
HETATM   19  C   UNL     1      -9.225  17.048  68.650  1.00  0.00    -0.266 A  
HETATM   20  C   UNL     1      -8.026  17.777  68.544  1.00  0.00    -0.294 A  
HETATM   21  C   UNL     1      -7.957  18.998  67.863  1.00  0.00    -0.277 A  
HETATM   22  O   UNL     1     -11.466  19.221  66.744  1.00  0.00     0.194 OA 
HETATM   23  C   UNL     1      -9.143  19.419  67.236  1.00  0.00    -0.356 A  
HETATM   24  H   UNL     1     -11.424  20.035  66.257  1.00  0.00     0.000 HD 
HETATM   25  C   UNL     1     -10.351  18.699  67.342  1.00  0.00    -0.406 A  
BRANCH  21  26
HETATM   26  N   UNL     1      -6.798  19.767  67.792  1.00  0.00    -0.237 NA 
BRANCH  26  27
HETATM   27  C   UNL     1      -5.714  19.507  68.753  1.00  0.00    -0.215 C  
HETATM   28  C   UNL     1      -6.104  19.981  70.146  1.00  0.00    -0.393 C  
ENDBRANCH  26  27
BRANCH  26  29
HETATM   29  C   UNL     1      -6.419  20.488  66.569  1.00  0.00    -0.236 C  
HETATM   30  C   UNL     1      -5.412  19.677  65.769  1.00  0.00    -0.173 C  
ENDBRANCH  26  29
ENDBRANCH  21  26
ENDBRANCH  16  18
ENDBRANCH  15  16
ENDBRANCH   8  10
ENDBRANCH   7   8
ENDBRANCH   6   7
ENDBRANCH   5   6
ENDBRANCH   4   5
ENDBRANCH   3   4
ENDBRANCH   2   3
TORSDOF 12
ENDMDL
MODEL      274
REMARK 921   NORMALIZED FREE ENERGY PREDICTED BY IDOCK:    3.78 KCAL/MOL
REMARK 922        TOTAL FREE ENERGY PREDICTED BY IDOCK:    4.46 KCAL/MOL
REMARK 923 INTER-LIGAND FREE ENERGY PREDICTED BY IDOCK:    1.04 KCAL/MOL
REMARK 924 INTRA-LIGAND FREE ENERGY PREDICTED BY IDOCK:    3.42 KCAL/MOL
REMARK 927      BINDING AFFINITY PREDICTED BY RF-SCORE:    0.00 PKD
ROOT
HETATM    1  C   UNL     1      -9.049   6.182  63.257  1.00  0.00     0.972 C  
HETATM    2  C   UNL     1      -8.646   7.618  63.558  1.00  0.00     0.426 C  
ENDROOT
BRANCH   2   3
HETATM    3  C   UNL     1      -8.998   8.005  64.994  1.00  0.00     0.246 C  
BRANCH   3   4
HETATM    4  C   UNL     1      -9.863   9.270  65.052  1.00  0.00     0.273 C  
BRANCH   4   5
HETATM    5  C   UNL     1      -9.154  10.438  64.363  1.00  0.00    -0.267 C  
BRANCH   5   6
HETATM    6  C   UNL     1      -9.879  11.772  64.512  1.00  0.00    -0.202 C  
BRANCH   6   7
HETATM    7  O   UNL     1     -10.027  12.235  65.856  1.00  0.00    -0.246 OA 
BRANCH   7   8
HETATM    8  C   UNL     1     -11.292  12.209  66.348  1.00  0.00    -0.356 C  
HETATM    9  O   UNL     1     -12.224  11.556  65.900  1.00  0.00     0.044 OA 
BRANCH   8  10
HETATM   10  C   UNL     1     -11.299  12.820  67.709  1.00  0.00    -0.342 A  
HETATM   11  C   UNL     1     -11.966  12.053  68.688  1.00  0.00    -0.290 A  
HETATM   12  C   UNL     1     -12.002  12.456  70.023  1.00  0.00    -0.372 A  
HETATM   13  C   UNL     1     -11.413  13.659  70.394  1.00  0.00     0.020 A  
HETATM   14  C   UNL     1     -10.761  14.438  69.439  1.00  0.00    -0.184 A  
HETATM   15  C   UNL     1     -10.648  14.004  68.104  1.00  0.00    -0.252 A  
BRANCH  15  16
HETATM   16  C   UNL     1      -9.911  14.884  67.164  1.00  0.00    -0.231 C  
HETATM   17  O   UNL     1      -9.655  14.430  66.049  1.00  0.00    -0.302 OA 
BRANCH  16  18
HETATM   18  C   UNL     1      -9.552  16.313  67.479  1.00  0.00    -0.230 A  
HETATM   19  C   UNL     1      -9.555  17.217  66.409  1.00  0.00    -0.290 A  
HETATM   20  C   UNL     1      -9.173  18.561  66.580  1.00  0.00    -0.306 A  
HETATM   21  C   UNL     1      -8.755  19.062  67.819  1.00  0.00    -0.298 A  
HETATM   22  O   UNL     1      -9.132  15.990  69.828  1.00  0.00    -0.086 OA 
HETATM   23  C   UNL     1      -8.801  18.156  68.894  1.00  0.00    -0.131 A  
HETATM   24  H   UNL     1      -8.876  16.326  70.678  1.00  0.00     0.000 HD 
HETATM   25  C   UNL     1      -9.175  16.807  68.731  1.00  0.00    -0.260 A  
BRANCH  21  26
HETATM   26  N   UNL     1      -8.319  20.371  68.004  1.00  0.00    -0.094 NA 
BRANCH  26  27
HETATM   27  C   UNL     1      -7.632  21.053  66.895  1.00  0.00    -0.025 C  
HETATM   28  C   UNL     1      -6.141  20.749  66.916  1.00  0.00    -0.289 C  
ENDBRANCH  26  27
BRANCH  26  29
HETATM   29  C   UNL     1      -8.888  21.239  69.045  1.00  0.00     2.900 C  
HETATM   30  C   UNL     1     -10.407  21.238  68.960  1.00  0.00     1.216 C  
ENDBRANCH  26  29
ENDBRANCH  21  26
ENDBRANCH  16  18
ENDBRANCH  15  16
ENDBRANCH   8  10
ENDBRANCH   7   8
ENDBRANCH   6   7
ENDBRANCH   5   6
ENDBRANCH   4   5
ENDBRANCH   3   4
ENDBRANCH   2   3
TORSDOF 12
ENDMDL
MODEL      275
REMARK 921   NORMALIZED FREE ENERGY PREDICTED BY IDOCK:    5.92 KCAL/MOL
REMARK 922        TOTAL FREE ENERGY PREDICTED BY IDOCK:    8.11 KCAL/MOL
REMARK 923 INTER-LIGAND FREE ENERGY PREDICTED BY IDOCK:   -4.61 KCAL/MOL
REMARK 924 INTRA-LIGAND FREE ENERGY PREDICTED BY IDOCK:   12.72 KCAL/MOL
REMARK 927      BINDING AFFINITY PREDICTED BY RF-SCORE:    0.00 PKD
ROOT
HETATM    1  C   UNL     1     -10.555   4.976  65.469  1.00  0.00     0.012 C  
HETATM    2  C   UNL     1     -10.175   5.932  66.590  1.00  0.00    -0.258 C  
ENDROOT
BRANCH   2   3
HETATM    3  C   UNL     1     -10.559   5.367  67.957  1.00  0.00    -0.157 C  
BRANCH   3   4
HETATM    4  C   UNL     1      -9.336   5.187  68.866  1.00  0.00    -0.168 C  
BRANCH   4   5
HETATM    5  C   UNL     1      -8.144   5.983  68.329  1.00  0.00    -0.110 C  
BRANCH   5   6
HETATM    6  C   UNL     1      -8.146   6.143  66.812  1.00  0.00    -0.109 C  
BRANCH   6   7
HETATM    7  O   UNL     1      -9.339   6.703  66.261  1.00  0.00    -0.162 OA 
BRANCH   7   8
HETATM    8  C   UNL     1      -9.325   8.049  66.079  1.00  0.00    -0.091 C  
HETATM    9  O   UNL     1     -10.301   8.786  66.094  1.00  0.00    -0.159 OA 
BRANCH   8  10
HETATM   10  C   UNL     1      -7.923   8.543  66.198  1.00  0.00    -0.102 A  
HETATM   11  C   UNL     1      -7.027   7.986  65.261  1.00  0.00    -0.063 A  
HETATM   12  C   UNL     1      -5.694   8.396  65.201  1.00  0.00    -0.044 A  
HETATM   13  C   UNL     1      -5.223   9.336  66.109  1.00  0.00    -0.036 A  
HETATM   14  C   UNL     1      -6.089   9.889  67.051  1.00  0.00    -0.059 A  
HETATM   15  C   UNL     1      -7.454   9.543  67.072  1.00  0.00    -0.091 A  
BRANCH  15  16
HETATM   16  C   UNL     1      -8.307  10.204  68.090  1.00  0.00    -0.117 C  
HETATM   17  O   UNL     1      -8.603   9.549  69.089  1.00  0.00    -0.127 OA 
BRANCH  16  18
HETATM   18  C   UNL     1      -8.740  11.644  67.997  1.00  0.00    -0.157 A  
HETATM   19  C   UNL     1      -9.718  11.950  67.042  1.00  0.00    -0.204 A  
HETATM   20  C   UNL     1     -10.148  13.274  66.827  1.00  0.00    -0.258 A  
HETATM   21  C   UNL     1      -9.613  14.353  67.541  1.00  0.00    -0.215 A  
HETATM   22  O   UNL     1      -7.257  12.498  69.691  1.00  0.00    -0.313 OA 
HETATM   23  C   UNL     1      -8.667  14.027  68.528  1.00  0.00    -0.156 A  
HETATM   24  H   UNL     1      -6.907  13.220  70.199  1.00  0.00     0.000 HD 
HETATM   25  C   UNL     1      -8.225  12.706  68.745  1.00  0.00     0.119 A  
BRANCH  21  26
HETATM   26  N   UNL     1      -9.980  15.676  67.309  1.00  0.00    -0.234 NA 
BRANCH  26  27
HETATM   27  C   UNL     1      -9.936  16.193  65.932  1.00  0.00    -0.356 C  
HETATM   28  C   UNL     1     -11.189  15.792  65.166  1.00  0.00    -0.252 C  
ENDBRANCH  26  27
BRANCH  26  29
HETATM   29  C   UNL     1     -10.814  16.427  68.257  1.00  0.00    -0.347 C  
HETATM   30  C   UNL     1     -11.700  15.476  69.048  1.00  0.00    -0.392 C  
ENDBRANCH  26  29
ENDBRANCH  21  26
ENDBRANCH  16  18
ENDBRANCH  15  16
ENDBRANCH   8  10
ENDBRANCH   7   8
ENDBRANCH   6   7
ENDBRANCH   5   6
ENDBRANCH   4   5
ENDBRANCH   3   4
ENDBRANCH   2   3
TORSDOF 12
ENDMDL
MODEL      276
REMARK 921   NORMALIZED FREE ENERGY PREDICTED BY IDOCK:    6.55 KCAL/MOL
REMARK 922        TOTAL FREE ENERGY PREDICTED BY IDOCK:    9.18 KCAL/MOL
REMARK 923 INTER-LIGAND FREE ENERGY PREDICTED BY IDOCK:    5.37 KCAL/MOL
REMARK 924 INTRA-LIGAND FREE ENERGY PREDICTED BY IDOCK:    3.81 KCAL/MOL
REMARK 927      BINDING AFFINITY PREDICTED BY RF-SCORE:    0.00 PKD
ROOT
HETATM    1  C   UNL     1     -10.872   4.868  66.505  1.00  0.00     0.056 C  
HETATM    2  C   UNL     1     -10.784   6.110  67.380  1.00  0.00    -0.403 C  
ENDROOT
BRANCH   2   3
HETATM    3  C   UNL     1     -12.171   6.674  67.684  1.00  0.00     3.690 C  
BRANCH   3   4
HETATM    4  C   UNL     1     -12.600   6.392  69.130  1.00  0.00     3.788 C  
BRANCH   4   5
HETATM    5  C   UNL     1     -11.465   6.719  70.102  1.00  0.00    -0.404 C  
BRANCH   5   6
HETATM    6  C   UNL     1     -10.091   6.271  69.615  1.00  0.00    -0.174 C  
BRANCH   6   7
HETATM    7  O   UNL     1      -9.087   6.178  70.628  1.00  0.00    -0.148 OA 
BRANCH   7   8
HETATM    8  C   UNL     1      -8.965   4.963  71.222  1.00  0.00    -0.133 C  
HETATM    9  O   UNL     1      -9.864   4.336  71.766  1.00  0.00    -0.164 OA 
BRANCH   8  10
HETATM   10  C   UNL     1      -7.666   4.351  70.820  1.00  0.00    -0.056 A  
HETATM   11  C   UNL     1      -6.880   3.892  71.897  1.00  0.00    -0.026 A  
HETATM   12  C   UNL     1      -5.667   3.236  71.681  1.00  0.00    -0.009 A  
HETATM   13  C   UNL     1      -5.197   3.070  70.384  1.00  0.00    -0.004 A  
HETATM   14  C   UNL     1      -5.954   3.528  69.306  1.00  0.00    -0.023 A  
HETATM   15  C   UNL     1      -7.215   4.121  69.505  1.00  0.00    -0.050 A  
BRANCH  15  16
HETATM   16  C   UNL     1      -7.962   4.552  68.298  1.00  0.00    -0.080 C  
HETATM   17  O   UNL     1      -9.030   3.988  68.064  1.00  0.00    -0.106 OA 
BRANCH  16  18
HETATM   18  C   UNL     1      -7.521   5.691  67.416  1.00  0.00    -0.084 A  
HETATM   19  C   UNL     1      -7.375   5.415  66.050  1.00  0.00    -0.078 A  
HETATM   20  C   UNL     1      -6.907   6.390  65.149  1.00  0.00    -0.047 A  
HETATM   21  C   UNL     1      -6.546   7.676  65.568  1.00  0.00    -0.045 A  
HETATM   22  O   UNL     1      -7.302   7.335  69.163  1.00  0.00    -0.083 OA 
HETATM   23  C   UNL     1      -6.740   7.954  66.932  1.00  0.00    -0.068 A  
HETATM   24  H   UNL     1      -7.086   8.213  69.452  1.00  0.00     0.000 HD 
HETATM   25  C   UNL     1      -7.201   6.983  67.844  1.00  0.00    -0.091 A  
BRANCH  21  26
HETATM   26  N   UNL     1      -6.027   8.640  64.706  1.00  0.00    -0.063 NA 
BRANCH  26  27
HETATM   27  C   UNL     1      -5.378   9.829  65.281  1.00  0.00    -0.051 C  
HETATM   28  C   UNL     1      -5.600  11.046  64.395  1.00  0.00     0.379 C  
ENDBRANCH  26  27
BRANCH  26  29
HETATM   29  C   UNL     1      -5.695   8.332  63.308  1.00  0.00    -0.068 C  
HETATM   30  C   UNL     1      -6.938   7.877  62.559  1.00  0.00    -0.085 C  
ENDBRANCH  26  29
ENDBRANCH  21  26
ENDBRANCH  16  18
ENDBRANCH  15  16
ENDBRANCH   8  10
ENDBRANCH   7   8
ENDBRANCH   6   7
ENDBRANCH   5   6
ENDBRANCH   4   5
ENDBRANCH   3   4
ENDBRANCH   2   3
TORSDOF 12
ENDMDL
MODEL      277
REMARK 921   NORMALIZED FREE ENERGY PREDICTED BY IDOCK:    9.44 KCAL/MOL
REMARK 922        TOTAL FREE ENERGY PREDICTED BY IDOCK:   14.10 KCAL/MOL
REMARK 923 INTER-LIGAND FREE ENERGY PREDICTED BY IDOCK:    9.10 KCAL/MOL
REMARK 924 INTRA-LIGAND FREE ENERGY PREDICTED BY IDOCK:    4.99 KCAL/MOL
REMARK 927      BINDING AFFINITY PREDICTED BY RF-SCORE:    0.00 PKD
ROOT
HETATM    1  C   UNL     1     -10.913   4.857  66.498  1.00  0.00     0.302 C  
HETATM    2  C   UNL     1     -11.024   6.089  67.385  1.00  0.00    -0.344 C  
ENDROOT
BRANCH   2   3
HETATM    3  C   UNL     1     -12.482   6.497  67.589  1.00  0.00     5.769 C  
BRANCH   3   4
HETATM    4  C   UNL     1     -12.997   6.106  68.980  1.00  0.00     7.731 C  
BRANCH   4   5
HETATM    5  C   UNL     1     -11.987   6.503  70.059  1.00  0.00    -0.133 C  
BRANCH   5   6
HETATM    6  C   UNL     1     -10.533   6.296  69.646  1.00  0.00    -0.238 C  
BRANCH   6   7
HETATM    7  O   UNL     1      -9.597   6.240  70.724  1.00  0.00    -0.174 OA 
BRANCH   7   8
HETATM    8  C   UNL     1      -8.387   5.704  70.421  1.00  0.00    -0.119 C  
HETATM    9  O   UNL     1      -8.188   4.575  69.993  1.00  0.00    -0.066 OA 
BRANCH   8  10
HETATM   10  C   UNL     1      -7.371   6.794  70.359  1.00  0.00    -0.081 A  
HETATM   11  C   UNL     1      -6.216   6.559  71.134  1.00  0.00    -0.040 A  
HETATM   12  C   UNL     1      -5.145   7.454  71.129  1.00  0.00    -0.027 A  
HETATM   13  C   UNL     1      -5.233   8.625  70.386  1.00  0.00    -0.021 A  
HETATM   14  C   UNL     1      -6.372   8.882  69.624  1.00  0.00    -0.042 A  
HETATM   15  C   UNL     1      -7.425   7.950  69.557  1.00  0.00    -0.093 A  
BRANCH  15  16
HETATM   16  C   UNL     1      -8.584   8.295  68.697  1.00  0.00    -0.133 C  
HETATM   17  O   UNL     1      -8.762   7.612  67.690  1.00  0.00    -0.122 OA 
BRANCH  16  18
HETATM   18  C   UNL     1      -9.584   9.366  69.049  1.00  0.00    -0.164 A  
HETATM   19  C   UNL     1      -9.792  10.375  68.099  1.00  0.00    -0.168 A  
HETATM   20  C   UNL     1     -10.656  11.457  68.353  1.00  0.00    -0.230 A  
HETATM   21  C   UNL     1     -11.337  11.594  69.568  1.00  0.00    -0.260 A  
HETATM   22  O   UNL     1     -10.135   8.532  71.240  1.00  0.00    -0.193 OA 
HETATM   23  C   UNL     1     -11.156  10.551  70.494  1.00  0.00    -0.267 A  
HETATM   24  H   UNL     1     -10.614   8.602  72.057  1.00  0.00     0.000 HD 
HETATM   25  C   UNL     1     -10.288   9.467  70.252  1.00  0.00    -0.269 A  
BRANCH  21  26
HETATM   26  N   UNL     1     -12.153  12.682  69.865  1.00  0.00    -0.287 NA 
BRANCH  26  27
HETATM   27  C   UNL     1     -12.566  12.899  71.261  1.00  0.00    -0.256 C  
HETATM   28  C   UNL     1     -13.550  14.057  71.359  1.00  0.00    -0.327 C  
ENDBRANCH  26  27
BRANCH  26  29
HETATM   29  C   UNL     1     -12.249  13.846  68.973  1.00  0.00    -0.239 C  
HETATM   30  C   UNL     1     -11.792  13.474  67.570  1.00  0.00    -0.406 C  
ENDBRANCH  26  29
ENDBRANCH  21  26
ENDBRANCH  16  18
ENDBRANCH  15  16
ENDBRANCH   8  10
ENDBRANCH   7   8
ENDBRANCH   6   7
ENDBRANCH   5   6
ENDBRANCH   4   5
ENDBRANCH   3   4
ENDBRANCH   2   3
TORSDOF 12
ENDMDL
MODEL      278
REMARK 921   NORMALIZED FREE ENERGY PREDICTED BY IDOCK:   11.85 KCAL/MOL
REMARK 922        TOTAL FREE ENERGY PREDICTED BY IDOCK:   18.20 KCAL/MOL
REMARK 923 INTER-LIGAND FREE ENERGY PREDICTED BY IDOCK:    2.03 KCAL/MOL
REMARK 924 INTRA-LIGAND FREE ENERGY PREDICTED BY IDOCK:   16.17 KCAL/MOL
REMARK 927      BINDING AFFINITY PREDICTED BY RF-SCORE:    0.00 PKD
ROOT
HETATM    1  C   UNL     1     -10.462  11.491  68.376  1.00  0.00    -0.226 C  
HETATM    2  C   UNL     1      -9.458  11.709  67.255  1.00  0.00    -0.173 C  
ENDROOT
BRANCH   2   3
HETATM    3  C   UNL     1     -10.013  12.651  66.187  1.00  0.00    -0.269 C  
BRANCH   3   4
HETATM    4  C   UNL     1     -11.497  12.384  65.903  1.00  0.00    -0.422 C  
BRANCH   4   5
HETATM    5  C   UNL     1     -12.279  12.251  67.211  1.00  0.00     0.263 C  
BRANCH   5   6
HETATM    6  C   UNL     1     -11.408  12.336  68.459  1.00  0.00    -0.286 C  
BRANCH   6   7
HETATM    7  O   UNL     1     -10.297  13.229  68.366  1.00  0.00    -0.242 OA 
BRANCH   7   8
HETATM    8  C   UNL     1      -9.962  13.871  69.514  1.00  0.00     0.557 C  
HETATM    9  O   UNL     1      -8.829  14.019  69.950  1.00  0.00     1.062 OA 
BRANCH   8  10
HETATM   10  C   UNL     1     -11.133  14.662  69.990  1.00  0.00    -0.204 A  
HETATM   11  C   UNL     1     -11.544  14.361  71.306  1.00  0.00    -0.061 A  
HETATM   12  C   UNL     1     -12.583  15.062  71.919  1.00  0.00    -0.403 A  
HETATM   13  C   UNL     1     -13.261  16.045  71.209  1.00  0.00     0.304 A  
HETATM   14  C   UNL     1     -12.878  16.350  69.903  1.00  0.00     2.004 A  
HETATM   15  C   UNL     1     -11.781  15.705  69.300  1.00  0.00    -0.388 A  
BRANCH  15  16
HETATM   16  C   UNL     1     -11.428  16.114  67.919  1.00  0.00    -0.103 C  
HETATM   17  O   UNL     1     -12.156  15.718  67.010  1.00  0.00     0.540 OA 
BRANCH  16  18
HETATM   18  C   UNL     1     -10.292  17.050  67.599  1.00  0.00    -0.332 A  
HETATM   19  C   UNL     1     -10.204  17.514  66.280  1.00  0.00    -0.356 A  
HETATM   20  C   UNL     1      -9.146  18.341  65.859  1.00  0.00     0.193 A  
HETATM   21  C   UNL     1      -8.118  18.730  66.727  1.00  0.00    -0.265 A  
HETATM   22  O   UNL     1      -9.295  17.047  69.792  1.00  0.00     0.376 OA 
HETATM   23  C   UNL     1      -8.242  18.297  68.058  1.00  0.00    -0.274 A  
HETATM   24  H   UNL     1      -8.617  17.328  70.395  1.00  0.00     0.000 HD 
HETATM   25  C   UNL     1      -9.294  17.463  68.488  1.00  0.00    -0.281 A  
BRANCH  21  26
HETATM   26  N   UNL     1      -7.031  19.501  66.322  1.00  0.00    -0.220 NA 
BRANCH  26  27
HETATM   27  C   UNL     1      -7.175  20.364  65.138  1.00  0.00    -0.013 C  
HETATM   28  C   UNL     1      -8.575  20.956  65.069  1.00  0.00     1.765 C  
ENDBRANCH  26  27
BRANCH  26  29
HETATM   29  C   UNL     1      -5.935  19.840  67.241  1.00  0.00    -0.180 C  
HETATM   30  C   UNL     1      -5.503  21.284  67.036  1.00  0.00    -0.339 C  
ENDBRANCH  26  29
ENDBRANCH  21  26
ENDBRANCH  16  18
ENDBRANCH  15  16
ENDBRANCH   8  10
ENDBRANCH   7   8
ENDBRANCH   6   7
ENDBRANCH   5   6
ENDBRANCH   4   5
ENDBRANCH   3   4
ENDBRANCH   2   3
TORSDOF 12
ENDMDL
MODEL      279
REMARK 921   NORMALIZED FREE ENERGY PREDICTED BY IDOCK:   12.33 KCAL/MOL
REMARK 922        TOTAL FREE ENERGY PREDICTED BY IDOCK:   19.02 KCAL/MOL
REMARK 923 INTER-LIGAND FREE ENERGY PREDICTED BY IDOCK:   14.34 KCAL/MOL
REMARK 924 INTRA-LIGAND FREE ENERGY PREDICTED BY IDOCK:    4.67 KCAL/MOL
REMARK 927      BINDING AFFINITY PREDICTED BY RF-SCORE:    0.00 PKD
ROOT
HETATM    1  C   UNL     1     -13.881  13.254  72.334  1.00  0.00    -0.630 C  
HETATM    2  C   UNL     1     -14.055  14.690  71.861  1.00  0.00    -0.606 C  
ENDROOT
BRANCH   2   3
HETATM    3  C   UNL     1     -13.557  14.868  70.428  1.00  0.00     0.228 C  
BRANCH   3   4
HETATM    4  C   UNL     1     -12.489  15.964  70.324  1.00  0.00    -0.152 C  
BRANCH   4   5
HETATM    5  C   UNL     1     -11.556  15.923  71.536  1.00  0.00    -0.537 C  
BRANCH   5   6
HETATM    6  C   UNL     1     -10.313  15.064  71.327  1.00  0.00     0.968 C  
BRANCH   6   7
HETATM    7  O   UNL     1     -10.553  13.658  71.248  1.00  0.00     3.101 OA 
BRANCH   7   8
HETATM    8  C   UNL     1      -9.623  12.942  70.565  1.00  0.00     5.872 C  
HETATM    9  O   UNL     1      -8.590  12.478  71.029  1.00  0.00     8.216 OA 
BRANCH   8  10
HETATM   10  C   UNL     1     -10.199  12.512  69.259  1.00  0.00     0.373 A  
HETATM   11  C   UNL     1     -11.312  13.270  68.834  1.00  0.00    -0.333 A  
HETATM   12  C   UNL     1     -11.922  13.034  67.602  1.00  0.00    -0.353 A  
HETATM   13  C   UNL     1     -11.460  12.002  66.793  1.00  0.00    -0.410 A  
HETATM   14  C   UNL     1     -10.370  11.234  67.200  1.00  0.00    -0.244 A  
HETATM   15  C   UNL     1      -9.695  11.512  68.404  1.00  0.00    -0.202 A  
BRANCH  15  16
HETATM   16  C   UNL     1      -8.528  10.661  68.742  1.00  0.00    -0.149 C  
HETATM   17  O   UNL     1      -8.130  10.685  69.906  1.00  0.00     0.008 OA 
BRANCH  16  18
HETATM   18  C   UNL     1      -7.882   9.718  67.761  1.00  0.00    -0.094 A  
HETATM   19  C   UNL     1      -7.035   8.736  68.290  1.00  0.00    -0.073 A  
HETATM   20  C   UNL     1      -6.331   7.845  67.457  1.00  0.00    -0.055 A  
HETATM   21  C   UNL     1      -6.425   7.902  66.062  1.00  0.00    -0.046 A  
HETATM   22  O   UNL     1      -8.815  10.697  65.768  1.00  0.00    -0.171 OA 
HETATM   23  C   UNL     1      -7.314   8.861  65.545  1.00  0.00    -0.085 A  
HETATM   24  H   UNL     1      -8.907  10.726  64.823  1.00  0.00     0.000 HD 
HETATM   25  C   UNL     1      -8.017   9.762  66.370  1.00  0.00    -0.109 A  
BRANCH  21  26
HETATM   26  N   UNL     1      -5.697   7.070  65.215  1.00  0.00    -0.031 NA 
BRANCH  26  27
HETATM   27  C   UNL     1      -5.351   5.716  65.676  1.00  0.00    -0.009 C  
HETATM   28  C   UNL     1      -6.598   4.850  65.789  1.00  0.00    -0.044 C  
ENDBRANCH  26  27
BRANCH  26  29
HETATM   29  C   UNL     1      -5.649   7.292  63.763  1.00  0.00    -0.037 C  
HETATM   30  C   UNL     1      -6.962   6.870  63.121  1.00  0.00    -0.053 C  
ENDBRANCH  26  29
ENDBRANCH  21  26
ENDBRANCH  16  18
ENDBRANCH  15  16
ENDBRANCH   8  10
ENDBRANCH   7   8
ENDBRANCH   6   7
ENDBRANCH   5   6
ENDBRANCH   4   5
ENDBRANCH   3   4
ENDBRANCH   2   3
TORSDOF 12
ENDMDL
MODEL      280
REMARK 921   NORMALIZED FREE ENERGY PREDICTED BY IDOCK:   17.84 KCAL/MOL
REMARK 922        TOTAL FREE ENERGY PREDICTED BY IDOCK:   28.39 KCAL/MOL
REMARK 923 INTER-LIGAND FREE ENERGY PREDICTED BY IDOCK:   -0.62 KCAL/MOL
REMARK 924 INTRA-LIGAND FREE ENERGY PREDICTED BY IDOCK:   29.02 KCAL/MOL
REMARK 927      BINDING AFFINITY PREDICTED BY RF-SCORE:    0.00 PKD
ROOT
HETATM    1  C   UNL     1      -9.387   6.071  63.579  1.00  0.00     1.431 C  
HETATM    2  C   UNL     1      -9.116   7.539  63.871  1.00  0.00     1.549 C  
ENDROOT
BRANCH   2   3
HETATM    3  C   UNL     1      -9.380   7.871  65.339  1.00  0.00     0.394 C  
BRANCH   3   4
HETATM    4  C   UNL     1     -10.217   9.148  65.497  1.00  0.00     0.535 C  
BRANCH   4   5
HETATM    5  C   UNL     1      -9.643  10.276  64.638  1.00  0.00    -0.374 C  
BRANCH   5   6
HETATM    6  C   UNL     1     -10.046  11.671  65.106  1.00  0.00    -0.262 C  
BRANCH   6   7
HETATM    7  O   UNL     1      -9.726  11.972  66.465  1.00  0.00    -0.206 OA 
BRANCH   7   8
HETATM    8  C   UNL     1     -10.782  12.272  67.263  1.00  0.00    -0.231 C  
HETATM    9  O   UNL     1     -11.670  13.075  67.010  1.00  0.00    -0.345 OA 
BRANCH   8  10
HETATM   10  C   UNL     1     -10.893  11.240  68.334  1.00  0.00    -0.248 A  
HETATM   11  C   UNL     1     -11.715  11.611  69.420  1.00  0.00    -0.405 A  
HETATM   12  C   UNL     1     -11.972  10.729  70.469  1.00  0.00    -0.456 A  
HETATM   13  C   UNL     1     -11.373   9.475  70.475  1.00  0.00    -0.343 A  
HETATM   14  C   UNL     1     -10.548   9.093  69.418  1.00  0.00    -0.232 A  
HETATM   15  C   UNL     1     -10.343   9.943  68.314  1.00  0.00    -0.232 A  
BRANCH  15  16
HETATM   16  C   UNL     1      -9.472   9.442  67.223  1.00  0.00    -0.133 C  
HETATM   17  O   UNL     1      -9.308  10.176  66.249  1.00  0.00    -0.161 OA 
BRANCH  16  18
HETATM   18  C   UNL     1      -8.724   8.137  67.297  1.00  0.00    -0.125 A  
HETATM   19  C   UNL     1      -7.580   8.016  66.497  1.00  0.00    -0.092 A  
HETATM   20  C   UNL     1      -6.843   6.818  66.442  1.00  0.00    -0.061 A  
HETATM   21  C   UNL     1      -7.220   5.681  67.166  1.00  0.00    -0.075 A  
HETATM   22  O   UNL     1     -10.201   7.048  68.856  1.00  0.00    -0.168 OA 
HETATM   23  C   UNL     1      -8.342   5.829  68.000  1.00  0.00    -0.103 A  
HETATM   24  H   UNL     1     -10.450   6.291  69.372  1.00  0.00     0.000 HD 
HETATM   25  C   UNL     1      -9.091   7.022  68.057  1.00  0.00    -0.127 A  
BRANCH  21  26
HETATM   26  N   UNL     1      -6.542   4.467  67.086  1.00  0.00    -0.045 NA 
BRANCH  26  27
HETATM   27  C   UNL     1      -5.876   4.108  65.823  1.00  0.00    -0.023 C  
HETATM   28  C   UNL     1      -6.844   4.219  64.653  1.00  0.00    -0.046 C  
ENDBRANCH  26  27
BRANCH  26  29
HETATM   29  C   UNL     1      -6.080   3.756  68.286  1.00  0.00    -0.031 C  
HETATM   30  C   UNL     1      -5.294   4.697  69.187  1.00  0.00    -0.008 C  
ENDBRANCH  26  29
ENDBRANCH  21  26
ENDBRANCH  16  18
ENDBRANCH  15  16
ENDBRANCH   8  10
ENDBRANCH   7   8
ENDBRANCH   6   7
ENDBRANCH   5   6
ENDBRANCH   4   5
ENDBRANCH   3   4
ENDBRANCH   2   3
TORSDOF 12
ENDMDL
MODEL      281
REMARK 921   NORMALIZED FREE ENERGY PREDICTED BY IDOCK:   22.69 KCAL/MOL
REMARK 922        TOTAL FREE ENERGY PREDICTED BY IDOCK:   36.64 KCAL/MOL
REMARK 923 INTER-LIGAND FREE ENERGY PREDICTED BY IDOCK:   -0.57 KCAL/MOL
REMARK 924 INTRA-LIGAND FREE ENERGY PREDICTED BY IDOCK:   37.21 KCAL/MOL
REMARK 927      BINDING AFFINITY PREDICTED BY RF-SCORE:    0.00 PKD
ROOT
HETATM    1  C   UNL     1     -10.526   4.112  64.818  1.00  0.00    -0.194 C  
HETATM    2  C   UNL     1      -9.967   4.911  65.986  1.00  0.00    -0.243 C  
ENDROOT
BRANCH   2   3
HETATM    3  C   UNL     1     -10.467   4.365  67.323  1.00  0.00     0.335 C  
BRANCH   3   4
HETATM    4  C   UNL     1      -9.386   3.560  68.054  1.00  0.00    -0.237 C  
BRANCH   4   5
HETATM    5  C   UNL     1      -8.145   3.400  67.173  1.00  0.00    -0.083 C  
BRANCH   5   6
HETATM    6  C   UNL     1      -8.464   3.111  65.710  1.00  0.00    -0.108 C  
BRANCH   6   7
HETATM    7  O   UNL     1      -9.628   3.764  65.200  1.00  0.00    -0.160 OA 
BRANCH   7   8
HETATM    8  C   UNL     1      -9.433   5.019  64.721  1.00  0.00     0.131 C  
HETATM    9  O   UNL     1     -10.263   5.918  64.703  1.00  0.00     1.811 OA 
BRANCH   8  10
HETATM   10  C   UNL     1      -7.972   5.250  64.536  1.00  0.00    -0.113 A  
HETATM   11  C   UNL     1      -7.384   4.476  63.513  1.00  0.00    -0.054 A  
HETATM   12  C   UNL     1      -6.039   4.625  63.173  1.00  0.00    -0.018 A  
HETATM   13  C   UNL     1      -5.246   5.518  63.884  1.00  0.00    -0.013 A  
HETATM   14  C   UNL     1      -5.804   6.283  64.907  1.00  0.00    -0.022 A  
HETATM   15  C   UNL     1      -7.178   6.200  65.208  1.00  0.00    -0.070 A  
BRANCH  15  16
HETATM   16  C   UNL     1      -7.690   7.073  66.293  1.00  0.00    -0.094 C  
HETATM   17  O   UNL     1      -7.919   8.248  66.010  1.00  0.00    -0.092 OA 
BRANCH  16  18
HETATM   18  C   UNL     1      -8.021   6.567  67.673  1.00  0.00    -0.114 A  
HETATM   19  C   UNL     1      -7.110   5.678  68.257  1.00  0.00    -0.074 A  
HETATM   20  C   UNL     1      -7.354   5.096  69.515  1.00  0.00    -0.057 A  
HETATM   21  C   UNL     1      -8.522   5.359  70.241  1.00  0.00    -0.119 A  
HETATM   22  O   UNL     1     -10.122   7.721  67.902  1.00  0.00    -0.168 OA 
HETATM   23  C   UNL     1      -9.405   6.289  69.666  1.00  0.00    -0.150 A  
HETATM   24  H   UNL     1     -10.905   7.927  68.399  1.00  0.00     0.000 HD 
HETATM   25  C   UNL     1      -9.174   6.871  68.403  1.00  0.00    -0.124 A  
BRANCH  21  26
HETATM   26  N   UNL     1      -8.813   4.754  71.461  1.00  0.00    -0.127 NA 
BRANCH  26  27
HETATM   27  C   UNL     1      -8.732   3.288  71.563  1.00  0.00    -0.077 C  
HETATM   28  C   UNL     1     -10.112   2.686  71.789  1.00  0.00    -0.113 C  
ENDBRANCH  26  27
BRANCH  26  29
HETATM   29  C   UNL     1      -8.754   5.496  72.729  1.00  0.00    -0.119 C  
HETATM   30  C   UNL     1      -7.792   6.668  72.609  1.00  0.00    -0.101 C  
ENDBRANCH  26  29
ENDBRANCH  21  26
ENDBRANCH  16  18
ENDBRANCH  15  16
ENDBRANCH   8  10
ENDBRANCH   7   8
ENDBRANCH   6   7
ENDBRANCH   5   6
ENDBRANCH   4   5
ENDBRANCH   3   4
ENDBRANCH   2   3
TORSDOF 12
ENDMDL
MODEL      282
REMARK 921   NORMALIZED FREE ENERGY PREDICTED BY IDOCK:   41.97 KCAL/MOL
REMARK 922        TOTAL FREE ENERGY PREDICTED BY IDOCK:   69.44 KCAL/MOL
REMARK 923 INTER-LIGAND FREE ENERGY PREDICTED BY IDOCK:   63.11 KCAL/MOL
REMARK 924 INTRA-LIGAND FREE ENERGY PREDICTED BY IDOCK:    6.33 KCAL/MOL
REMARK 927      BINDING AFFINITY PREDICTED BY RF-SCORE:    0.00 PKD
ROOT
HETATM    1  C   UNL     1     -13.322  14.154  73.216  1.00  0.00     0.117 C  
HETATM    2  C   UNL     1     -13.414  15.586  72.709  1.00  0.00    -0.650 C  
ENDROOT
BRANCH   2   3
HETATM    3  C   UNL     1     -12.824  15.718  71.305  1.00  0.00    -0.486 C  
BRANCH   3   4
HETATM    4  C   UNL     1     -11.706  16.767  71.249  1.00  0.00     0.489 C  
BRANCH   4   5
HETATM    5  C   UNL     1     -10.921  16.787  72.562  1.00  0.00     1.960 C  
BRANCH   5   6
HETATM    6  C   UNL     1      -9.788  15.767  72.616  1.00  0.00     6.202 C  
BRANCH   6   7
HETATM    7  O   UNL     1     -10.197  14.413  72.816  1.00  0.00     3.673 OA 
BRANCH   7   8
HETATM    8  C   UNL     1      -9.375  13.469  72.290  1.00  0.00    14.105 C  
HETATM    9  O   UNL     1      -8.377  13.007  72.825  1.00  0.00    13.787 OA 
BRANCH   8  10
HETATM   10  C   UNL     1     -10.048  12.831  71.122  1.00  0.00     8.308 A  
HETATM   11  C   UNL     1     -11.105  13.588  70.573  1.00  0.00     0.905 A  
HETATM   12  C   UNL     1     -11.790  13.157  69.436  1.00  0.00    -0.383 A  
HETATM   13  C   UNL     1     -11.462  11.937  68.857  1.00  0.00    -0.358 A  
HETATM   14  C   UNL     1     -10.429  11.168  69.393  1.00  0.00    -0.132 A  
HETATM   15  C   UNL     1      -9.677  11.627  70.491  1.00  0.00     4.222 A  
BRANCH  15  16
HETATM   16  C   UNL     1      -8.579  10.756  70.975  1.00  0.00     4.327 C  
HETATM   17  O   UNL     1      -8.113  10.999  72.088  1.00  0.00     8.046 OA 
BRANCH  16  18
HETATM   18  C   UNL     1      -8.083   9.553  70.215  1.00  0.00    -0.200 A  
HETATM   19  C   UNL     1      -7.287   8.642  70.921  1.00  0.00    -0.077 A  
HETATM   20  C   UNL     1      -6.719   7.518  70.290  1.00  0.00    -0.047 A  
HETATM   21  C   UNL     1      -6.903   7.261  68.927  1.00  0.00    -0.072 A  
HETATM   22  O   UNL     1      -9.063  10.133  68.093  1.00  0.00    -0.127 OA 
HETATM   23  C   UNL     1      -7.741   8.157  68.240  1.00  0.00    -0.114 A  
HETATM   24  H   UNL     1      -9.216   9.953  67.173  1.00  0.00     0.000 HD 
HETATM   25  C   UNL     1      -8.308   9.288  68.861  1.00  0.00    -0.120 A  
BRANCH  21  26
HETATM   26  N   UNL     1      -6.307   6.189  68.267  1.00  0.00    -0.041 NA 
BRANCH  26  27
HETATM   27  C   UNL     1      -6.044   4.951  69.019  1.00  0.00    -0.029 C  
HETATM   28  C   UNL     1      -7.218   4.612  69.926  1.00  0.00    -0.054 C  
ENDBRANCH  26  27
BRANCH  26  29
HETATM   29  C   UNL     1      -6.340   6.063  66.803  1.00  0.00    -0.041 C  
HETATM   30  C   UNL     1      -7.767   6.202  66.295  1.00  0.00    -0.099 C  
ENDBRANCH  26  29
ENDBRANCH  21  26
ENDBRANCH  16  18
ENDBRANCH  15  16
ENDBRANCH   8  10
ENDBRANCH   7   8
ENDBRANCH   6   7
ENDBRANCH   5   6
ENDBRANCH   4   5
ENDBRANCH   3   4
ENDBRANCH   2   3
TORSDOF 12
ENDMDL
MODEL      283
REMARK 921   NORMALIZED FREE ENERGY PREDICTED BY IDOCK:   45.65 KCAL/MOL
REMARK 922        TOTAL FREE ENERGY PREDICTED BY IDOCK:   75.72 KCAL/MOL
REMARK 923 INTER-LIGAND FREE ENERGY PREDICTED BY IDOCK:   67.19 KCAL/MOL
REMARK 924 INTRA-LIGAND FREE ENERGY PREDICTED BY IDOCK:    8.52 KCAL/MOL
REMARK 927      BINDING AFFINITY PREDICTED BY RF-SCORE:    0.00 PKD
ROOT
HETATM    1  C   UNL     1     -13.305  14.152  73.236  1.00  0.00     0.117 C  
HETATM    2  C   UNL     1     -13.235  15.565  72.674  1.00  0.00    -0.579 C  
ENDROOT
BRANCH   2   3
HETATM    3  C   UNL     1     -12.613  15.578  71.278  1.00  0.00    -0.509 C  
BRANCH   3   4
HETATM    4  C   UNL     1     -11.346  16.440  71.224  1.00  0.00    -0.178 C  
BRANCH   4   5
HETATM    5  C   UNL     1     -10.615  16.408  72.568  1.00  0.00     3.324 C  
BRANCH   5   6
HETATM    6  C   UNL     1      -9.779  15.151  72.783  1.00  0.00     6.135 C  
BRANCH   6   7
HETATM    7  O   UNL     1     -10.510  14.001  73.215  1.00  0.00     4.545 OA 
BRANCH   7   8
HETATM    8  C   UNL     1     -10.022  12.805  72.797  1.00  0.00    18.717 C  
HETATM    9  O   UNL     1      -9.116  12.175  73.326  1.00  0.00    20.734 OA 
BRANCH   8  10
HETATM   10  C   UNL     1     -10.968  12.208  71.811  1.00  0.00     6.539 A  
HETATM   11  C   UNL     1     -11.806  13.143  71.167  1.00  0.00     0.499 A  
HETATM   12  C   UNL     1     -12.700  12.750  70.171  1.00  0.00     0.162 A  
HETATM   13  C   UNL     1     -12.805  11.406  69.835  1.00  0.00     0.175 A  
HETATM   14  C   UNL     1     -11.995  10.464  70.468  1.00  0.00    -0.427 A  
HETATM   15  C   UNL     1     -11.033  10.857  71.419  1.00  0.00     2.115 A  
BRANCH  15  16
HETATM   16  C   UNL     1     -10.195   9.790  72.019  1.00  0.00     1.723 C  
HETATM   17  O   UNL     1      -9.514  10.092  72.998  1.00  0.00     4.832 OA 
BRANCH  16  18
HETATM   18  C   UNL     1     -10.215   8.360  71.546  1.00  0.00    -0.294 A  
HETATM   19  C   UNL     1      -9.618   7.408  72.383  1.00  0.00    -0.192 A  
HETATM   20  C   UNL     1      -9.524   6.054  72.007  1.00  0.00    -0.161 A  
HETATM   21  C   UNL     1     -10.004   5.590  70.777  1.00  0.00    -0.201 A  
HETATM   22  O   UNL     1     -11.323   8.769  69.447  1.00  0.00    -0.430 OA 
HETATM   23  C   UNL     1     -10.642   6.546  69.967  1.00  0.00    -0.280 A  
HETATM   24  H   UNL     1     -11.676   8.460  68.622  1.00  0.00     0.000 HD 
HETATM   25  C   UNL     1     -10.734   7.905  70.330  1.00  0.00    -0.233 A  
BRANCH  21  26
HETATM   26  N   UNL     1      -9.874   4.269  70.358  1.00  0.00    -0.211 NA 
BRANCH  26  27
HETATM   27  C   UNL     1      -9.842   3.203  71.373  1.00  0.00    -0.108 C  
HETATM   28  C   UNL     1     -10.874   3.464  72.461  1.00  0.00     0.111 C  
ENDBRANCH  26  27
BRANCH  26  29
HETATM   29  C   UNL     1     -10.214   3.851  68.990  1.00  0.00     0.701 C  
HETATM   30  C   UNL     1      -9.970   2.359  68.819  1.00  0.00     0.567 C  
ENDBRANCH  26  29
ENDBRANCH  21  26
ENDBRANCH  16  18
ENDBRANCH  15  16
ENDBRANCH   8  10
ENDBRANCH   7   8
ENDBRANCH   6   7
ENDBRANCH   5   6
ENDBRANCH   4   5
ENDBRANCH   3   4
ENDBRANCH   2   3
TORSDOF 12
ENDMDL
