MODEL        1
REMARK 921   NORMALIZED FREE ENERGY PREDICTED BY IDOCK:   -4.97 KCAL/MOL
REMARK 922        TOTAL FREE ENERGY PREDICTED BY IDOCK:   -6.03 KCAL/MOL
REMARK 923 INTER-LIGAND FREE ENERGY PREDICTED BY IDOCK:   -5.85 KCAL/MOL
REMARK 924 INTRA-LIGAND FREE ENERGY PREDICTED BY IDOCK:   -0.18 KCAL/MOL
REMARK 927      BINDING AFFINITY PREDICTED BY RF-SCORE:    0.00 PKD
ROOT
HETATM    1  C   UNL     1     -11.867  12.783  63.637  1.00  0.00    -0.603 C  
HETATM    2  C   UNL     1     -12.372  14.024  64.359  1.00  0.00    -0.367 C  
ENDROOT
BRANCH   2   3
HETATM    3  N   UNL     1     -11.360  14.623  65.233  1.00  0.00    -0.341 N  
HETATM    4  O   UNL     1     -11.321  16.510  63.890  1.00  0.00    -1.057 OA 
HETATM    5  C   UNL     1     -10.974  15.944  64.926  1.00  0.00    -0.411 C  
BRANCH   3   6
HETATM    6  C   UNL     1     -10.957  13.891  66.442  1.00  0.00    -0.303 C  
HETATM    7  C   UNL     1     -11.863  13.991  67.658  1.00  0.00    -0.430 C  
ENDBRANCH   3   6
BRANCH   5   8
HETATM    8  C   UNL     1     -10.095  16.717  65.854  1.00  0.00    -0.324 A  
HETATM    9  C   UNL     1     -10.523  17.886  66.489  1.00  0.00    -0.315 A  
HETATM   10  C   UNL     1      -9.746  18.481  67.488  1.00  0.00    -0.318 A  
HETATM   11  C   UNL     1     -10.307  19.600  68.315  1.00  0.00    -0.539 C  
HETATM   12  C   UNL     1      -8.459  17.994  67.726  1.00  0.00    -0.247 A  
HETATM   13  C   UNL     1      -7.970  16.901  67.004  1.00  0.00    -0.228 A  
HETATM   14  C   UNL     1      -8.794  16.251  66.080  1.00  0.00    -0.362 A  
ENDBRANCH   5   8
ENDBRANCH   2   3
TORSDOF 3
ENDMDL
MODEL        2
REMARK 921   NORMALIZED FREE ENERGY PREDICTED BY IDOCK:   -4.97 KCAL/MOL
REMARK 922        TOTAL FREE ENERGY PREDICTED BY IDOCK:   -6.02 KCAL/MOL
REMARK 923 INTER-LIGAND FREE ENERGY PREDICTED BY IDOCK:   -5.60 KCAL/MOL
REMARK 924 INTRA-LIGAND FREE ENERGY PREDICTED BY IDOCK:   -0.42 KCAL/MOL
REMARK 927      BINDING AFFINITY PREDICTED BY RF-SCORE:    0.00 PKD
ROOT
HETATM    1  C   UNL     1     -11.856  12.900  63.586  1.00  0.00    -0.599 C  
HETATM    2  C   UNL     1     -12.273  14.174  64.306  1.00  0.00    -0.420 C  
ENDROOT
BRANCH   2   3
HETATM    3  N   UNL     1     -11.276  14.629  65.278  1.00  0.00    -0.342 N  
HETATM    4  O   UNL     1     -11.167  16.678  64.204  1.00  0.00    -1.103 OA 
HETATM    5  C   UNL     1     -10.859  15.971  65.162  1.00  0.00    -0.395 C  
BRANCH   3   6
HETATM    6  C   UNL     1     -10.919  13.733  66.387  1.00  0.00    -0.298 C  
HETATM    7  C   UNL     1     -11.874  13.660  67.567  1.00  0.00    -0.416 C  
ENDBRANCH   3   6
BRANCH   5   8
HETATM    8  C   UNL     1      -9.992  16.594  66.208  1.00  0.00    -0.336 A  
HETATM    9  C   UNL     1      -8.600  16.478  66.191  1.00  0.00    -0.334 A  
HETATM   10  C   UNL     1      -7.812  17.223  67.074  1.00  0.00    -0.243 A  
HETATM   11  C   UNL     1      -6.322  17.265  66.905  1.00  0.00    -0.225 C  
HETATM   12  C   UNL     1      -8.435  17.953  68.089  1.00  0.00    -0.268 A  
HETATM   13  C   UNL     1      -9.829  17.972  68.195  1.00  0.00    -0.341 A  
HETATM   14  C   UNL     1     -10.609  17.307  67.244  1.00  0.00    -0.283 A  
ENDBRANCH   5   8
ENDBRANCH   2   3
TORSDOF 3
ENDMDL
MODEL        3
REMARK 921   NORMALIZED FREE ENERGY PREDICTED BY IDOCK:   -4.92 KCAL/MOL
REMARK 922        TOTAL FREE ENERGY PREDICTED BY IDOCK:   -5.97 KCAL/MOL
REMARK 923 INTER-LIGAND FREE ENERGY PREDICTED BY IDOCK:   -5.71 KCAL/MOL
REMARK 924 INTRA-LIGAND FREE ENERGY PREDICTED BY IDOCK:   -0.26 KCAL/MOL
REMARK 927      BINDING AFFINITY PREDICTED BY RF-SCORE:    0.00 PKD
ROOT
HETATM    1  C   UNL     1     -10.408  16.007  65.930  1.00  0.00    -0.386 C  
HETATM    2  C   UNL     1      -9.872  15.414  67.226  1.00  0.00    -0.217 C  
ENDROOT
BRANCH   2   3
HETATM    3  N   UNL     1     -10.913  14.762  68.024  1.00  0.00    -0.263 N  
HETATM    4  O   UNL     1      -9.902  15.525  69.963  1.00  0.00    -0.283 OA 
HETATM    5  C   UNL     1     -10.858  14.977  69.416  1.00  0.00    -0.260 C  
BRANCH   3   6
HETATM    6  C   UNL     1     -12.018  14.093  67.322  1.00  0.00    -0.414 C  
HETATM    7  C   UNL     1     -11.776  12.682  66.814  1.00  0.00    -0.460 C  
ENDBRANCH   3   6
BRANCH   5   8
HETATM    8  C   UNL     1     -11.970  14.519  70.304  1.00  0.00    -0.379 A  
HETATM    9  C   UNL     1     -12.218  13.167  70.554  1.00  0.00    -0.405 A  
HETATM   10  C   UNL     1     -13.143  12.780  71.528  1.00  0.00    -0.380 A  
HETATM   11  C   UNL     1     -13.244  11.343  71.946  1.00  0.00    -0.485 C  
HETATM   12  C   UNL     1     -13.943  13.755  72.130  1.00  0.00    -0.638 A  
HETATM   13  C   UNL     1     -13.791  15.103  71.792  1.00  0.00    -0.605 A  
HETATM   14  C   UNL     1     -12.792  15.488  70.891  1.00  0.00    -0.535 A  
ENDBRANCH   5   8
ENDBRANCH   2   3
TORSDOF 3
ENDMDL
MODEL        4
REMARK 921   NORMALIZED FREE ENERGY PREDICTED BY IDOCK:   -4.91 KCAL/MOL
REMARK 922        TOTAL FREE ENERGY PREDICTED BY IDOCK:   -5.95 KCAL/MOL
REMARK 923 INTER-LIGAND FREE ENERGY PREDICTED BY IDOCK:   -5.93 KCAL/MOL
REMARK 924 INTRA-LIGAND FREE ENERGY PREDICTED BY IDOCK:   -0.02 KCAL/MOL
REMARK 927      BINDING AFFINITY PREDICTED BY RF-SCORE:    0.00 PKD
ROOT
HETATM    1  C   UNL     1     -10.737  19.407  67.178  1.00  0.00    -0.593 C  
HETATM    2  C   UNL     1     -10.217  18.490  66.080  1.00  0.00    -0.398 C  
ENDROOT
BRANCH   2   3
HETATM    3  N   UNL     1     -10.518  17.078  66.331  1.00  0.00    -0.289 N  
HETATM    4  O   UNL     1     -11.336  16.870  64.174  1.00  0.00    -1.208 OA 
HETATM    5  C   UNL     1     -11.006  16.340  65.234  1.00  0.00    -0.236 C  
BRANCH   3   6
HETATM    6  C   UNL     1     -10.132  16.500  67.626  1.00  0.00    -0.266 C  
HETATM    7  C   UNL     1     -11.239  16.220  68.629  1.00  0.00    -0.354 C  
ENDBRANCH   3   6
BRANCH   5   8
HETATM    8  C   UNL     1     -11.167  14.856  65.323  1.00  0.00    -0.369 A  
HETATM    9  C   UNL     1     -10.124  14.014  65.714  1.00  0.00    -0.345 A  
HETATM   10  C   UNL     1     -10.357  12.659  65.964  1.00  0.00    -0.287 A  
HETATM   11  C   UNL     1      -9.291  11.811  66.594  1.00  0.00    -0.205 C  
HETATM   12  C   UNL     1     -11.606  12.116  65.653  1.00  0.00    -0.409 A  
HETATM   13  C   UNL     1     -12.622  12.927  65.137  1.00  0.00    -0.536 A  
HETATM   14  C   UNL     1     -12.408  14.302  64.988  1.00  0.00    -0.434 A  
ENDBRANCH   5   8
ENDBRANCH   2   3
TORSDOF 3
ENDMDL
MODEL        5
REMARK 921   NORMALIZED FREE ENERGY PREDICTED BY IDOCK:   -4.88 KCAL/MOL
REMARK 922        TOTAL FREE ENERGY PREDICTED BY IDOCK:   -5.91 KCAL/MOL
REMARK 923 INTER-LIGAND FREE ENERGY PREDICTED BY IDOCK:   -5.55 KCAL/MOL
REMARK 924 INTRA-LIGAND FREE ENERGY PREDICTED BY IDOCK:   -0.36 KCAL/MOL
REMARK 927      BINDING AFFINITY PREDICTED BY RF-SCORE:    0.00 PKD
ROOT
HETATM    1  C   UNL     1     -10.406  14.406  67.182  1.00  0.00    -0.262 C  
HETATM    2  C   UNL     1     -11.817  14.105  67.665  1.00  0.00    -0.392 C  
ENDROOT
BRANCH   2   3
HETATM    3  N   UNL     1     -11.839  13.262  68.862  1.00  0.00    -0.319 N  
HETATM    4  O   UNL     1     -12.028  11.377  67.529  1.00  0.00    -0.626 OA 
HETATM    5  C   UNL     1     -11.858  11.869  68.644  1.00  0.00    -0.308 C  
BRANCH   3   6
HETATM    6  C   UNL     1     -11.663  13.902  70.174  1.00  0.00    -0.244 C  
HETATM    7  C   UNL     1     -12.912  14.370  70.901  1.00  0.00    -0.413 C  
ENDBRANCH   3   6
BRANCH   5   8
HETATM    8  C   UNL     1     -11.691  10.915  69.782  1.00  0.00    -0.413 A  
HETATM    9  C   UNL     1     -12.739  10.595  70.649  1.00  0.00    -0.445 A  
HETATM   10  C   UNL     1     -12.602   9.566  71.585  1.00  0.00    -0.476 A  
HETATM   11  C   UNL     1     -13.794   9.081  72.355  1.00  0.00    -0.540 C  
HETATM   12  C   UNL     1     -11.349   8.974  71.764  1.00  0.00    -0.447 A  
HETATM   13  C   UNL     1     -10.258   9.377  70.988  1.00  0.00    -0.369 A  
HETATM   14  C   UNL     1     -10.432  10.335  69.984  1.00  0.00    -0.293 A  
ENDBRANCH   5   8
ENDBRANCH   2   3
TORSDOF 3
ENDMDL
MODEL        6
REMARK 921   NORMALIZED FREE ENERGY PREDICTED BY IDOCK:   -4.86 KCAL/MOL
REMARK 922        TOTAL FREE ENERGY PREDICTED BY IDOCK:   -5.90 KCAL/MOL
REMARK 923 INTER-LIGAND FREE ENERGY PREDICTED BY IDOCK:   -5.62 KCAL/MOL
REMARK 924 INTRA-LIGAND FREE ENERGY PREDICTED BY IDOCK:   -0.28 KCAL/MOL
REMARK 927      BINDING AFFINITY PREDICTED BY RF-SCORE:    0.00 PKD
ROOT
HETATM    1  C   UNL     1     -12.083  15.156  70.051  1.00  0.00    -0.384 C  
HETATM    2  C   UNL     1     -12.002  13.713  69.573  1.00  0.00    -0.341 C  
ENDROOT
BRANCH   2   3
HETATM    3  N   UNL     1     -11.554  13.600  68.183  1.00  0.00    -0.311 N  
HETATM    4  O   UNL     1     -12.155  11.363  68.173  1.00  0.00    -0.623 OA 
HETATM    5  C   UNL     1     -11.776  12.357  67.555  1.00  0.00    -0.357 C  
BRANCH   3   6
HETATM    6  C   UNL     1     -11.080  14.811  67.499  1.00  0.00    -0.319 C  
HETATM    7  C   UNL     1      -9.584  14.952  67.274  1.00  0.00    -0.216 C  
ENDBRANCH   3   6
BRANCH   5   8
HETATM    8  C   UNL     1     -11.534  12.187  66.091  1.00  0.00    -0.429 A  
HETATM    9  C   UNL     1     -10.427  11.498  65.591  1.00  0.00    -0.317 A  
HETATM   10  C   UNL     1     -10.328  11.199  64.229  1.00  0.00    -0.413 A  
HETATM   11  C   UNL     1      -9.256  10.273  63.734  1.00  0.00    -0.312 C  
HETATM   12  C   UNL     1     -11.260  11.746  63.345  1.00  0.00    -0.440 A  
HETATM   13  C   UNL     1     -12.303  12.547  63.821  1.00  0.00    -0.595 A  
HETATM   14  C   UNL     1     -12.451  12.754  65.196  1.00  0.00    -0.565 A  
ENDBRANCH   5   8
ENDBRANCH   2   3
TORSDOF 3
ENDMDL
MODEL        7
REMARK 921   NORMALIZED FREE ENERGY PREDICTED BY IDOCK:   -4.72 KCAL/MOL
REMARK 922        TOTAL FREE ENERGY PREDICTED BY IDOCK:   -5.73 KCAL/MOL
REMARK 923 INTER-LIGAND FREE ENERGY PREDICTED BY IDOCK:   -5.32 KCAL/MOL
REMARK 924 INTRA-LIGAND FREE ENERGY PREDICTED BY IDOCK:   -0.41 KCAL/MOL
REMARK 927      BINDING AFFINITY PREDICTED BY RF-SCORE:    0.00 PKD
ROOT
HETATM    1  C   UNL     1     -10.688  13.631  64.750  1.00  0.00    -0.420 C  
HETATM    2  C   UNL     1     -11.473  14.718  65.469  1.00  0.00    -0.329 C  
ENDROOT
BRANCH   2   3
HETATM    3  N   UNL     1     -10.609  15.711  66.112  1.00  0.00    -0.313 N  
HETATM    4  O   UNL     1     -11.202  17.268  64.503  1.00  0.00    -1.083 OA 
HETATM    5  C   UNL     1     -10.635  17.010  65.564  1.00  0.00    -0.173 C  
BRANCH   3   6
HETATM    6  C   UNL     1      -9.929  15.343  67.362  1.00  0.00    -0.229 C  
HETATM    7  C   UNL     1     -10.778  15.231  68.618  1.00  0.00    -0.245 C  
ENDBRANCH   3   6
BRANCH   5   8
HETATM    8  C   UNL     1      -9.943  18.142  66.250  1.00  0.00    -0.342 A  
HETATM    9  C   UNL     1      -8.578  18.393  66.088  1.00  0.00    -0.136 A  
HETATM   10  C   UNL     1      -8.002  19.562  66.593  1.00  0.00    -0.311 A  
HETATM   11  C   UNL     1      -6.595  19.931  66.228  1.00  0.00    -0.224 C  
HETATM   12  C   UNL     1      -8.767  20.396  67.412  1.00  0.00    -0.415 A  
HETATM   13  C   UNL     1     -10.103  20.087  67.687  1.00  0.00    -0.562 A  
HETATM   14  C   UNL     1     -10.697  18.969  67.092  1.00  0.00    -0.541 A  
ENDBRANCH   5   8
ENDBRANCH   2   3
TORSDOF 3
ENDMDL
MODEL        8
REMARK 921   NORMALIZED FREE ENERGY PREDICTED BY IDOCK:   -4.67 KCAL/MOL
REMARK 922        TOTAL FREE ENERGY PREDICTED BY IDOCK:   -5.67 KCAL/MOL
REMARK 923 INTER-LIGAND FREE ENERGY PREDICTED BY IDOCK:   -5.30 KCAL/MOL
REMARK 924 INTRA-LIGAND FREE ENERGY PREDICTED BY IDOCK:   -0.37 KCAL/MOL
REMARK 927      BINDING AFFINITY PREDICTED BY RF-SCORE:    0.00 PKD
ROOT
HETATM    1  C   UNL     1     -10.557  14.308  68.305  1.00  0.00    -0.247 C  
HETATM    2  C   UNL     1     -11.990  13.819  68.461  1.00  0.00    -0.367 C  
ENDROOT
BRANCH   2   3
HETATM    3  N   UNL     1     -12.148  12.866  69.562  1.00  0.00    -0.258 N  
HETATM    4  O   UNL     1     -12.115  11.113  68.049  1.00  0.00    -0.635 OA 
HETATM    5  C   UNL     1     -12.105  11.500  69.217  1.00  0.00    -0.278 C  
BRANCH   3   6
HETATM    6  C   UNL     1     -12.161  13.383  70.938  1.00  0.00    -0.282 C  
HETATM    7  C   UNL     1     -13.485  13.890  71.486  1.00  0.00    -0.383 C  
ENDBRANCH   3   6
BRANCH   5   8
HETATM    8  C   UNL     1     -12.065  10.446  70.275  1.00  0.00    -0.370 A  
HETATM    9  C   UNL     1     -10.884   9.794  70.638  1.00  0.00    -0.396 A  
HETATM   10  C   UNL     1     -10.847   8.951  71.752  1.00  0.00    -0.436 A  
HETATM   11  C   UNL     1      -9.536   8.434  72.266  1.00  0.00    -0.374 C  
HETATM   12  C   UNL     1     -12.043   8.629  72.399  1.00  0.00    -0.415 A  
HETATM   13  C   UNL     1     -13.254   9.176  71.963  1.00  0.00    -0.505 A  
HETATM   14  C   UNL     1     -13.263  10.098  70.911  1.00  0.00    -0.360 A  
ENDBRANCH   5   8
ENDBRANCH   2   3
TORSDOF 3
ENDMDL
MODEL        9
REMARK 921   NORMALIZED FREE ENERGY PREDICTED BY IDOCK:   -4.67 KCAL/MOL
REMARK 922        TOTAL FREE ENERGY PREDICTED BY IDOCK:   -5.67 KCAL/MOL
REMARK 923 INTER-LIGAND FREE ENERGY PREDICTED BY IDOCK:   -5.40 KCAL/MOL
REMARK 924 INTRA-LIGAND FREE ENERGY PREDICTED BY IDOCK:   -0.27 KCAL/MOL
REMARK 927      BINDING AFFINITY PREDICTED BY RF-SCORE:    0.00 PKD
ROOT
HETATM    1  C   UNL     1     -12.586  14.106  65.662  1.00  0.00    -0.495 C  
HETATM    2  C   UNL     1     -11.321  14.042  66.507  1.00  0.00    -0.336 C  
ENDROOT
BRANCH   2   3
HETATM    3  N   UNL     1     -10.959  15.338  67.084  1.00  0.00    -0.330 N  
HETATM    4  O   UNL     1      -9.586  15.762  65.268  1.00  0.00    -0.331 OA 
HETATM    5  C   UNL     1     -10.128  16.162  66.297  1.00  0.00    -0.321 C  
BRANCH   3   6
HETATM    6  C   UNL     1     -11.612  15.755  68.333  1.00  0.00    -0.338 C  
HETATM    7  C   UNL     1     -11.915  14.679  69.362  1.00  0.00    -0.351 C  
ENDBRANCH   3   6
BRANCH   5   8
HETATM    8  C   UNL     1      -9.850  17.574  66.700  1.00  0.00    -0.308 A  
HETATM    9  C   UNL     1      -8.961  17.896  67.728  1.00  0.00    -0.254 A  
HETATM   10  C   UNL     1      -8.585  19.223  67.955  1.00  0.00    -0.357 A  
HETATM   11  C   UNL     1      -7.468  19.540  68.906  1.00  0.00    -0.392 C  
HETATM   12  C   UNL     1      -9.238  20.242  67.259  1.00  0.00    -0.523 A  
HETATM   13  C   UNL     1     -10.225  19.937  66.317  1.00  0.00    -0.614 A  
HETATM   14  C   UNL     1     -10.520  18.601  66.024  1.00  0.00    -0.456 A  
ENDBRANCH   5   8
ENDBRANCH   2   3
TORSDOF 3
ENDMDL
MODEL       10
REMARK 921   NORMALIZED FREE ENERGY PREDICTED BY IDOCK:   -4.65 KCAL/MOL
REMARK 922        TOTAL FREE ENERGY PREDICTED BY IDOCK:   -5.65 KCAL/MOL
REMARK 923 INTER-LIGAND FREE ENERGY PREDICTED BY IDOCK:   -5.92 KCAL/MOL
REMARK 924 INTRA-LIGAND FREE ENERGY PREDICTED BY IDOCK:    0.27 KCAL/MOL
REMARK 927      BINDING AFFINITY PREDICTED BY RF-SCORE:    0.00 PKD
ROOT
HETATM    1  C   UNL     1     -10.647  19.214  67.546  1.00  0.00    -0.567 C  
HETATM    2  C   UNL     1     -10.516  18.512  66.202  1.00  0.00    -0.413 C  
ENDROOT
BRANCH   2   3
HETATM    3  N   UNL     1     -10.656  17.058  66.306  1.00  0.00    -0.241 N  
HETATM    4  O   UNL     1     -11.324  16.965  64.090  1.00  0.00    -1.208 OA 
HETATM    5  C   UNL     1     -10.991  16.376  65.118  1.00  0.00    -0.232 C  
BRANCH   3   6
HETATM    6  C   UNL     1     -10.273  16.406  67.566  1.00  0.00    -0.273 C  
HETATM    7  C   UNL     1     -11.388  15.858  68.442  1.00  0.00    -0.361 C  
ENDBRANCH   3   6
BRANCH   5   8
HETATM    8  C   UNL     1     -10.974  14.883  65.063  1.00  0.00    -0.432 A  
HETATM    9  C   UNL     1     -12.015  14.144  64.496  1.00  0.00    -0.476 A  
HETATM   10  C   UNL     1     -11.886  12.767  64.295  1.00  0.00    -0.460 A  
HETATM   11  C   UNL     1     -12.908  12.021  63.488  1.00  0.00    -0.472 C  
HETATM   12  C   UNL     1     -10.776  12.106  64.825  1.00  0.00    -0.342 A  
HETATM   13  C   UNL     1      -9.787  12.818  65.510  1.00  0.00    -0.169 A  
HETATM   14  C   UNL     1      -9.877  14.210  65.614  1.00  0.00    -0.278 A  
ENDBRANCH   5   8
ENDBRANCH   2   3
TORSDOF 3
ENDMDL
MODEL       11
REMARK 921   NORMALIZED FREE ENERGY PREDICTED BY IDOCK:   -4.64 KCAL/MOL
REMARK 922        TOTAL FREE ENERGY PREDICTED BY IDOCK:   -5.64 KCAL/MOL
REMARK 923 INTER-LIGAND FREE ENERGY PREDICTED BY IDOCK:   -5.28 KCAL/MOL
REMARK 924 INTRA-LIGAND FREE ENERGY PREDICTED BY IDOCK:   -0.35 KCAL/MOL
REMARK 927      BINDING AFFINITY PREDICTED BY RF-SCORE:    0.00 PKD
ROOT
HETATM    1  C   UNL     1     -10.296  16.320  65.808  1.00  0.00    -0.393 C  
HETATM    2  C   UNL     1     -10.080  14.817  65.917  1.00  0.00    -0.321 C  
ENDROOT
BRANCH   2   3
HETATM    3  N   UNL     1     -10.993  14.180  66.868  1.00  0.00    -0.296 N  
HETATM    4  O   UNL     1      -9.364  14.297  68.509  1.00  0.00    -0.201 OA 
HETATM    5  C   UNL     1     -10.527  14.056  68.193  1.00  0.00    -0.243 C  
BRANCH   3   6
HETATM    6  C   UNL     1     -12.364  13.883  66.430  1.00  0.00    -0.426 C  
HETATM    7  C   UNL     1     -12.536  12.997  65.207  1.00  0.00    -0.555 C  
ENDBRANCH   3   6
BRANCH   5   8
HETATM    8  C   UNL     1     -11.440  13.596  69.283  1.00  0.00    -0.344 A  
HETATM    9  C   UNL     1     -11.675  12.244  69.541  1.00  0.00    -0.398 A  
HETATM   10  C   UNL     1     -12.384  11.846  70.678  1.00  0.00    -0.405 A  
HETATM   11  C   UNL     1     -12.441  10.399  71.067  1.00  0.00    -0.488 C  
HETATM   12  C   UNL     1     -13.006  12.820  71.464  1.00  0.00    -0.388 A  
HETATM   13  C   UNL     1     -12.885  14.175  71.141  1.00  0.00    -0.431 A  
HETATM   14  C   UNL     1     -12.088  14.565  70.060  1.00  0.00    -0.395 A  
ENDBRANCH   5   8
ENDBRANCH   2   3
TORSDOF 3
ENDMDL
MODEL       12
REMARK 921   NORMALIZED FREE ENERGY PREDICTED BY IDOCK:   -4.59 KCAL/MOL
REMARK 922        TOTAL FREE ENERGY PREDICTED BY IDOCK:   -5.58 KCAL/MOL
REMARK 923 INTER-LIGAND FREE ENERGY PREDICTED BY IDOCK:   -5.19 KCAL/MOL
REMARK 924 INTRA-LIGAND FREE ENERGY PREDICTED BY IDOCK:   -0.39 KCAL/MOL
REMARK 927      BINDING AFFINITY PREDICTED BY RF-SCORE:    0.00 PKD
ROOT
HETATM    1  C   UNL     1     -10.414  11.618  63.335  1.00  0.00    -0.482 C  
HETATM    2  C   UNL     1     -11.555  12.095  64.223  1.00  0.00    -0.370 C  
ENDROOT
BRANCH   2   3
HETATM    3  N   UNL     1     -11.090  12.858  65.383  1.00  0.00    -0.277 N  
HETATM    4  O   UNL     1     -13.027  14.125  65.324  1.00  0.00    -0.725 OA 
HETATM    5  C   UNL     1     -11.988  13.813  65.903  1.00  0.00    -0.406 C  
BRANCH   3   6
HETATM    6  C   UNL     1      -9.825  12.463  66.020  1.00  0.00    -0.257 C  
HETATM    7  C   UNL     1      -9.875  11.351  67.054  1.00  0.00    -0.214 C  
ENDBRANCH   3   6
BRANCH   5   8
HETATM    8  C   UNL     1     -11.698  14.512  67.191  1.00  0.00    -0.420 A  
HETATM    9  C   UNL     1     -10.992  15.716  67.245  1.00  0.00    -0.275 A  
HETATM   10  C   UNL     1     -10.898  16.435  68.440  1.00  0.00    -0.342 A  
HETATM   11  C   UNL     1     -10.335  17.825  68.444  1.00  0.00    -0.378 C  
HETATM   12  C   UNL     1     -11.369  15.854  69.620  1.00  0.00    -0.342 A  
HETATM   13  C   UNL     1     -11.964  14.589  69.599  1.00  0.00    -0.375 A  
HETATM   14  C   UNL     1     -12.144  13.924  68.381  1.00  0.00    -0.327 A  
ENDBRANCH   5   8
ENDBRANCH   2   3
TORSDOF 3
ENDMDL
MODEL       13
REMARK 921   NORMALIZED FREE ENERGY PREDICTED BY IDOCK:   -4.58 KCAL/MOL
REMARK 922        TOTAL FREE ENERGY PREDICTED BY IDOCK:   -5.57 KCAL/MOL
REMARK 923 INTER-LIGAND FREE ENERGY PREDICTED BY IDOCK:   -5.34 KCAL/MOL
REMARK 924 INTRA-LIGAND FREE ENERGY PREDICTED BY IDOCK:   -0.23 KCAL/MOL
REMARK 927      BINDING AFFINITY PREDICTED BY RF-SCORE:    0.00 PKD
ROOT
HETATM    1  C   UNL     1     -10.511  14.820  67.683  1.00  0.00    -0.254 C  
HETATM    2  C   UNL     1     -11.889  14.216  67.914  1.00  0.00    -0.370 C  
ENDROOT
BRANCH   2   3
HETATM    3  N   UNL     1     -11.913  13.268  69.030  1.00  0.00    -0.311 N  
HETATM    4  O   UNL     1     -11.975  11.505  67.530  1.00  0.00    -0.629 OA 
HETATM    5  C   UNL     1     -11.864  11.901  68.689  1.00  0.00    -0.308 C  
BRANCH   3   6
HETATM    6  C   UNL     1     -11.809  13.795  70.398  1.00  0.00    -0.253 C  
HETATM    7  C   UNL     1     -12.631  15.026  70.743  1.00  0.00    -0.429 C  
ENDBRANCH   3   6
BRANCH   5   8
HETATM    8  C   UNL     1     -11.693  10.856  69.744  1.00  0.00    -0.413 A  
HETATM    9  C   UNL     1     -10.501  10.147  69.907  1.00  0.00    -0.322 A  
HETATM   10  C   UNL     1     -10.312   9.314  71.014  1.00  0.00    -0.388 A  
HETATM   11  C   UNL     1      -8.959   8.733  71.301  1.00  0.00    -0.295 C  
HETATM   12  C   UNL     1     -11.391   9.061  71.864  1.00  0.00    -0.438 A  
HETATM   13  C   UNL     1     -12.630   9.667  71.636  1.00  0.00    -0.493 A  
HETATM   14  C   UNL     1     -12.777  10.579  70.585  1.00  0.00    -0.441 A  
ENDBRANCH   5   8
ENDBRANCH   2   3
TORSDOF 3
ENDMDL
MODEL       14
REMARK 921   NORMALIZED FREE ENERGY PREDICTED BY IDOCK:   -4.57 KCAL/MOL
REMARK 922        TOTAL FREE ENERGY PREDICTED BY IDOCK:   -5.55 KCAL/MOL
REMARK 923 INTER-LIGAND FREE ENERGY PREDICTED BY IDOCK:   -5.15 KCAL/MOL
REMARK 924 INTRA-LIGAND FREE ENERGY PREDICTED BY IDOCK:   -0.40 KCAL/MOL
REMARK 927      BINDING AFFINITY PREDICTED BY RF-SCORE:    0.00 PKD
ROOT
HETATM    1  C   UNL     1     -10.770  19.145  67.197  1.00  0.00    -0.567 C  
HETATM    2  C   UNL     1     -10.316  18.146  68.253  1.00  0.00    -0.363 C  
ENDROOT
BRANCH   2   3
HETATM    3  N   UNL     1     -10.229  16.778  67.738  1.00  0.00    -0.292 N  
HETATM    4  O   UNL     1     -11.735  16.078  69.353  1.00  0.00    -0.337 OA 
HETATM    5  C   UNL     1     -11.083  15.830  68.340  1.00  0.00    -0.341 C  
BRANCH   3   6
HETATM    6  C   UNL     1      -9.411  16.529  66.543  1.00  0.00    -0.273 C  
HETATM    7  C   UNL     1      -8.040  15.906  66.747  1.00  0.00    -0.301 C  
ENDBRANCH   3   6
BRANCH   5   8
HETATM    8  C   UNL     1     -11.217  14.454  67.772  1.00  0.00    -0.316 A  
HETATM    9  C   UNL     1     -11.988  14.184  66.640  1.00  0.00    -0.470 A  
HETATM   10  C   UNL     1     -11.944  12.928  66.029  1.00  0.00    -0.505 A  
HETATM   11  C   UNL     1     -12.595  12.711  64.695  1.00  0.00    -0.517 C  
HETATM   12  C   UNL     1     -11.255  11.890  66.662  1.00  0.00    -0.384 A  
HETATM   13  C   UNL     1     -10.584  12.117  67.867  1.00  0.00    -0.230 A  
HETATM   14  C   UNL     1     -10.549  13.403  68.414  1.00  0.00    -0.259 A  
ENDBRANCH   5   8
ENDBRANCH   2   3
TORSDOF 3
ENDMDL
MODEL       15
REMARK 921   NORMALIZED FREE ENERGY PREDICTED BY IDOCK:   -4.55 KCAL/MOL
REMARK 922        TOTAL FREE ENERGY PREDICTED BY IDOCK:   -5.53 KCAL/MOL
REMARK 923 INTER-LIGAND FREE ENERGY PREDICTED BY IDOCK:   -5.58 KCAL/MOL
REMARK 924 INTRA-LIGAND FREE ENERGY PREDICTED BY IDOCK:    0.05 KCAL/MOL
REMARK 927      BINDING AFFINITY PREDICTED BY RF-SCORE:    0.00 PKD
ROOT
HETATM    1  C   UNL     1     -10.607   7.187  73.373  1.00  0.00    -0.424 C  
HETATM    2  C   UNL     1     -11.772   7.524  72.453  1.00  0.00    -0.290 C  
ENDROOT
BRANCH   2   3
HETATM    3  N   UNL     1     -11.636   8.840  71.824  1.00  0.00    -0.321 N  
HETATM    4  O   UNL     1     -13.894   9.231  72.156  1.00  0.00    -0.427 OA 
HETATM    5  C   UNL     1     -12.788   9.652  71.819  1.00  0.00    -0.421 C  
BRANCH   3   6
HETATM    6  C   UNL     1     -10.296   9.283  71.411  1.00  0.00    -0.321 C  
HETATM    7  C   UNL     1      -9.705   8.660  70.157  1.00  0.00    -0.182 C  
ENDBRANCH   3   6
BRANCH   5   8
HETATM    8  C   UNL     1     -12.716  11.077  71.377  1.00  0.00    -0.534 A  
HETATM    9  C   UNL     1     -13.176  12.131  72.171  1.00  0.00    -0.438 A  
HETATM   10  C   UNL     1     -12.926  13.458  71.810  1.00  0.00    -0.435 A  
HETATM   11  C   UNL     1     -13.224  14.572  72.770  1.00  0.00    -0.600 C  
HETATM   12  C   UNL     1     -12.364  13.727  70.559  1.00  0.00    -0.429 A  
HETATM   13  C   UNL     1     -12.018  12.680  69.699  1.00  0.00    -0.352 A  
HETATM   14  C   UNL     1     -12.177  11.354  70.114  1.00  0.00    -0.401 A  
ENDBRANCH   5   8
ENDBRANCH   2   3
TORSDOF 3
ENDMDL
MODEL       16
REMARK 921   NORMALIZED FREE ENERGY PREDICTED BY IDOCK:   -4.55 KCAL/MOL
REMARK 922        TOTAL FREE ENERGY PREDICTED BY IDOCK:   -5.53 KCAL/MOL
REMARK 923 INTER-LIGAND FREE ENERGY PREDICTED BY IDOCK:   -5.60 KCAL/MOL
REMARK 924 INTRA-LIGAND FREE ENERGY PREDICTED BY IDOCK:    0.07 KCAL/MOL
REMARK 927      BINDING AFFINITY PREDICTED BY RF-SCORE:    0.00 PKD
ROOT
HETATM    1  C   UNL     1     -12.685  16.298  73.909  1.00  0.00    -0.586 C  
HETATM    2  C   UNL     1     -13.441  15.616  72.777  1.00  0.00    -0.574 C  
ENDROOT
BRANCH   2   3
HETATM    3  N   UNL     1     -12.647  14.585  72.105  1.00  0.00    -0.325 N  
HETATM    4  O   UNL     1     -14.329  13.040  72.491  1.00  0.00    -0.548 OA 
HETATM    5  C   UNL     1     -13.264  13.327  71.947  1.00  0.00    -0.431 C  
BRANCH   3   6
HETATM    6  C   UNL     1     -11.366  14.973  71.497  1.00  0.00    -0.269 C  
HETATM    7  C   UNL     1     -11.398  16.024  70.400  1.00  0.00    -0.405 C  
ENDBRANCH   3   6
BRANCH   5   8
HETATM    8  C   UNL     1     -12.626  12.263  71.114  1.00  0.00    -0.353 A  
HETATM    9  C   UNL     1     -12.097  12.523  69.847  1.00  0.00    -0.322 A  
HETATM   10  C   UNL     1     -11.346  11.553  69.175  1.00  0.00    -0.351 A  
HETATM   11  C   UNL     1     -10.598  11.909  67.925  1.00  0.00    -0.229 C  
HETATM   12  C   UNL     1     -11.275  10.263  69.705  1.00  0.00    -0.339 A  
HETATM   13  C   UNL     1     -11.911   9.956  70.912  1.00  0.00    -0.434 A  
HETATM   14  C   UNL     1     -12.572  10.961  71.626  1.00  0.00    -0.431 A  
ENDBRANCH   5   8
ENDBRANCH   2   3
TORSDOF 3
ENDMDL
MODEL       17
REMARK 921   NORMALIZED FREE ENERGY PREDICTED BY IDOCK:   -4.54 KCAL/MOL
REMARK 922        TOTAL FREE ENERGY PREDICTED BY IDOCK:   -5.52 KCAL/MOL
REMARK 923 INTER-LIGAND FREE ENERGY PREDICTED BY IDOCK:   -5.11 KCAL/MOL
REMARK 924 INTRA-LIGAND FREE ENERGY PREDICTED BY IDOCK:   -0.41 KCAL/MOL
REMARK 927      BINDING AFFINITY PREDICTED BY RF-SCORE:    0.00 PKD
ROOT
HETATM    1  C   UNL     1     -11.883  13.697  68.020  1.00  0.00    -0.397 C  
HETATM    2  C   UNL     1     -10.498  14.206  68.392  1.00  0.00    -0.254 C  
ENDROOT
BRANCH   2   3
HETATM    3  N   UNL     1     -10.175  15.486  67.758  1.00  0.00    -0.240 N  
HETATM    4  O   UNL     1     -10.847  16.603  69.673  1.00  0.00    -0.341 OA 
HETATM    5  C   UNL     1     -10.317  16.635  68.564  1.00  0.00    -0.303 C  
BRANCH   3   6
HETATM    6  C   UNL     1      -9.571  15.472  66.418  1.00  0.00    -0.291 C  
HETATM    7  C   UNL     1     -10.504  15.597  65.225  1.00  0.00    -0.439 C  
ENDBRANCH   3   6
BRANCH   5   8
HETATM    8  C   UNL     1      -9.838  17.967  68.085  1.00  0.00    -0.341 A  
HETATM    9  C   UNL     1      -8.575  18.468  68.407  1.00  0.00    -0.355 A  
HETATM   10  C   UNL     1      -8.089  19.627  67.795  1.00  0.00    -0.336 A  
HETATM   11  C   UNL     1      -6.656  20.034  67.975  1.00  0.00    -0.302 C  
HETATM   12  C   UNL     1      -8.946  20.378  66.987  1.00  0.00    -0.423 A  
HETATM   13  C   UNL     1     -10.259  19.953  66.760  1.00  0.00    -0.603 A  
HETATM   14  C   UNL     1     -10.700  18.738  67.295  1.00  0.00    -0.490 A  
ENDBRANCH   5   8
ENDBRANCH   2   3
TORSDOF 3
ENDMDL
MODEL       18
REMARK 921   NORMALIZED FREE ENERGY PREDICTED BY IDOCK:   -4.54 KCAL/MOL
REMARK 922        TOTAL FREE ENERGY PREDICTED BY IDOCK:   -5.51 KCAL/MOL
REMARK 923 INTER-LIGAND FREE ENERGY PREDICTED BY IDOCK:   -5.13 KCAL/MOL
REMARK 924 INTRA-LIGAND FREE ENERGY PREDICTED BY IDOCK:   -0.39 KCAL/MOL
REMARK 927      BINDING AFFINITY PREDICTED BY RF-SCORE:    0.00 PKD
ROOT
HETATM    1  C   UNL     1     -11.036  15.683  64.873  1.00  0.00    -0.447 C  
HETATM    2  C   UNL     1     -10.679  14.209  64.743  1.00  0.00    -0.419 C  
ENDROOT
BRANCH   2   3
HETATM    3  N   UNL     1     -10.531  13.545  66.040  1.00  0.00    -0.293 N  
HETATM    4  O   UNL     1     -12.502  12.385  65.671  1.00  0.00    -0.640 OA 
HETATM    5  C   UNL     1     -11.492  12.561  66.352  1.00  0.00    -0.365 C  
BRANCH   3   6
HETATM    6  C   UNL     1      -9.321  13.813  66.830  1.00  0.00    -0.261 C  
HETATM    7  C   UNL     1      -9.448  14.762  68.011  1.00  0.00    -0.204 C  
ENDBRANCH   3   6
BRANCH   5   8
HETATM    8  C   UNL     1     -11.333  11.692  67.557  1.00  0.00    -0.364 A  
HETATM    9  C   UNL     1     -11.830  12.054  68.811  1.00  0.00    -0.358 A  
HETATM   10  C   UNL     1     -11.827  11.142  69.870  1.00  0.00    -0.439 A  
HETATM   11  C   UNL     1     -12.558  11.456  71.141  1.00  0.00    -0.490 C  
HETATM   12  C   UNL     1     -11.165   9.922  69.712  1.00  0.00    -0.279 A  
HETATM   13  C   UNL     1     -10.550   9.601  68.498  1.00  0.00    -0.253 A  
HETATM   14  C   UNL     1     -10.649  10.478  67.414  1.00  0.00    -0.313 A  
ENDBRANCH   5   8
ENDBRANCH   2   3
TORSDOF 3
ENDMDL
MODEL       19
REMARK 921   NORMALIZED FREE ENERGY PREDICTED BY IDOCK:   -4.53 KCAL/MOL
REMARK 922        TOTAL FREE ENERGY PREDICTED BY IDOCK:   -5.50 KCAL/MOL
REMARK 923 INTER-LIGAND FREE ENERGY PREDICTED BY IDOCK:   -5.19 KCAL/MOL
REMARK 924 INTRA-LIGAND FREE ENERGY PREDICTED BY IDOCK:   -0.31 KCAL/MOL
REMARK 927      BINDING AFFINITY PREDICTED BY RF-SCORE:    0.00 PKD
ROOT
HETATM    1  C   UNL     1      -9.256  16.523  68.404  1.00  0.00    -0.222 C  
HETATM    2  C   UNL     1     -10.719  16.628  67.999  1.00  0.00    -0.350 C  
ENDROOT
BRANCH   2   3
HETATM    3  N   UNL     1     -11.178  15.470  67.228  1.00  0.00    -0.276 N  
HETATM    4  O   UNL     1     -10.252  16.383  65.311  1.00  0.00    -0.575 OA 
HETATM    5  C   UNL     1     -10.790  15.430  65.873  1.00  0.00    -0.325 C  
BRANCH   3   6
HETATM    6  C   UNL     1     -11.843  14.371  67.942  1.00  0.00    -0.349 C  
HETATM    7  C   UNL     1     -10.961  13.372  68.672  1.00  0.00    -0.288 C  
ENDBRANCH   3   6
BRANCH   5   8
HETATM    8  C   UNL     1     -11.039  14.212  65.044  1.00  0.00    -0.372 A  
HETATM    9  C   UNL     1     -10.188  13.104  65.068  1.00  0.00    -0.296 A  
HETATM   10  C   UNL     1     -10.546  11.915  64.425  1.00  0.00    -0.366 A  
HETATM   11  C   UNL     1      -9.740  10.668  64.639  1.00  0.00    -0.360 C  
HETATM   12  C   UNL     1     -11.682  11.899  63.613  1.00  0.00    -0.572 A  
HETATM   13  C   UNL     1     -12.473  13.044  63.478  1.00  0.00    -0.388 A  
HETATM   14  C   UNL     1     -12.162  14.196  64.207  1.00  0.00    -0.449 A  
ENDBRANCH   5   8
ENDBRANCH   2   3
TORSDOF 3
ENDMDL
MODEL       20
REMARK 921   NORMALIZED FREE ENERGY PREDICTED BY IDOCK:   -4.50 KCAL/MOL
REMARK 922        TOTAL FREE ENERGY PREDICTED BY IDOCK:   -5.47 KCAL/MOL
REMARK 923 INTER-LIGAND FREE ENERGY PREDICTED BY IDOCK:   -5.04 KCAL/MOL
REMARK 924 INTRA-LIGAND FREE ENERGY PREDICTED BY IDOCK:   -0.43 KCAL/MOL
REMARK 927      BINDING AFFINITY PREDICTED BY RF-SCORE:    0.00 PKD
ROOT
HETATM    1  C   UNL     1     -10.244  11.639  63.242  1.00  0.00    -0.445 C  
HETATM    2  C   UNL     1     -11.430  12.011  64.120  1.00  0.00    -0.383 C  
ENDROOT
BRANCH   2   3
HETATM    3  N   UNL     1     -11.040  12.780  65.304  1.00  0.00    -0.282 N  
HETATM    4  O   UNL     1     -12.921  14.108  65.060  1.00  0.00    -0.721 OA 
HETATM    5  C   UNL     1     -11.946  13.772  65.730  1.00  0.00    -0.399 C  
BRANCH   3   6
HETATM    6  C   UNL     1      -9.848  12.356  66.053  1.00  0.00    -0.257 C  
HETATM    7  C   UNL     1     -10.001  11.193  67.019  1.00  0.00    -0.223 C  
ENDBRANCH   3   6
BRANCH   5   8
HETATM    8  C   UNL     1     -11.743  14.485  67.028  1.00  0.00    -0.412 A  
HETATM    9  C   UNL     1     -12.249  13.998  68.235  1.00  0.00    -0.195 A  
HETATM   10  C   UNL     1     -11.886  14.587  69.450  1.00  0.00    -0.367 A  
HETATM   11  C   UNL     1     -12.250  13.929  70.748  1.00  0.00    -0.441 C  
HETATM   12  C   UNL     1     -11.151  15.775  69.435  1.00  0.00    -0.314 A  
HETATM   13  C   UNL     1     -10.748  16.344  68.223  1.00  0.00    -0.337 A  
HETATM   14  C   UNL     1     -11.028  15.690  67.019  1.00  0.00    -0.261 A  
ENDBRANCH   5   8
ENDBRANCH   2   3
TORSDOF 3
ENDMDL
MODEL       21
REMARK 921   NORMALIZED FREE ENERGY PREDICTED BY IDOCK:   -4.48 KCAL/MOL
REMARK 922        TOTAL FREE ENERGY PREDICTED BY IDOCK:   -5.45 KCAL/MOL
REMARK 923 INTER-LIGAND FREE ENERGY PREDICTED BY IDOCK:   -5.12 KCAL/MOL
REMARK 924 INTRA-LIGAND FREE ENERGY PREDICTED BY IDOCK:   -0.34 KCAL/MOL
REMARK 927      BINDING AFFINITY PREDICTED BY RF-SCORE:    0.00 PKD
ROOT
HETATM    1  C   UNL     1     -10.522  11.245  63.801  1.00  0.00    -0.459 C  
HETATM    2  C   UNL     1     -10.411  12.685  64.281  1.00  0.00    -0.392 C  
ENDROOT
BRANCH   2   3
HETATM    3  N   UNL     1     -10.435  12.800  65.741  1.00  0.00    -0.271 N  
HETATM    4  O   UNL     1     -12.750  12.867  65.697  1.00  0.00    -0.537 OA 
HETATM    5  C   UNL     1     -11.708  12.792  66.347  1.00  0.00    -0.403 C  
BRANCH   3   6
HETATM    6  C   UNL     1      -9.160  12.737  66.469  1.00  0.00    -0.147 C  
HETATM    7  C   UNL     1      -8.582  14.042  66.990  1.00  0.00    -0.193 C  
ENDBRANCH   3   6
BRANCH   5   8
HETATM    8  C   UNL     1     -11.846  12.714  67.833  1.00  0.00    -0.388 A  
HETATM    9  C   UNL     1     -11.915  13.853  68.638  1.00  0.00    -0.401 A  
HETATM   10  C   UNL     1     -12.228  13.749  69.996  1.00  0.00    -0.407 A  
HETATM   11  C   UNL     1     -12.518  14.980  70.802  1.00  0.00    -0.411 C  
HETATM   12  C   UNL     1     -12.301  12.482  70.580  1.00  0.00    -0.369 A  
HETATM   13  C   UNL     1     -12.106  11.333  69.807  1.00  0.00    -0.394 A  
HETATM   14  C   UNL     1     -11.895  11.448  68.429  1.00  0.00    -0.344 A  
ENDBRANCH   5   8
ENDBRANCH   2   3
TORSDOF 3
ENDMDL
MODEL       22
REMARK 921   NORMALIZED FREE ENERGY PREDICTED BY IDOCK:   -4.46 KCAL/MOL
REMARK 922        TOTAL FREE ENERGY PREDICTED BY IDOCK:   -5.42 KCAL/MOL
REMARK 923 INTER-LIGAND FREE ENERGY PREDICTED BY IDOCK:   -5.00 KCAL/MOL
REMARK 924 INTRA-LIGAND FREE ENERGY PREDICTED BY IDOCK:   -0.42 KCAL/MOL
REMARK 927      BINDING AFFINITY PREDICTED BY RF-SCORE:    0.00 PKD
ROOT
HETATM    1  C   UNL     1     -11.541  12.459  66.325  1.00  0.00    -0.449 C  
HETATM    2  C   UNL     1     -12.118  13.863  66.437  1.00  0.00    -0.455 C  
ENDROOT
BRANCH   2   3
HETATM    3  N   UNL     1     -11.128  14.850  66.875  1.00  0.00    -0.332 N  
HETATM    4  O   UNL     1     -11.004  15.681  64.717  1.00  0.00    -0.436 OA 
HETATM    5  C   UNL     1     -10.706  15.783  65.906  1.00  0.00    -0.313 C  
BRANCH   3   6
HETATM    6  C   UNL     1     -10.784  14.911  68.303  1.00  0.00    -0.249 C  
HETATM    7  C   UNL     1     -11.778  15.578  69.238  1.00  0.00    -0.380 C  
ENDBRANCH   3   6
BRANCH   5   8
HETATM    8  C   UNL     1      -9.847  16.945  66.287  1.00  0.00    -0.320 A  
HETATM    9  C   UNL     1     -10.378  18.129  66.805  1.00  0.00    -0.376 A  
HETATM   10  C   UNL     1      -9.540  19.121  67.322  1.00  0.00    -0.375 A  
HETATM   11  C   UNL     1     -10.118  20.283  68.073  1.00  0.00    -0.451 C  
HETATM   12  C   UNL     1      -8.158  18.993  67.159  1.00  0.00    -0.280 A  
HETATM   13  C   UNL     1      -7.620  17.869  66.526  1.00  0.00    -0.285 A  
HETATM   14  C   UNL     1      -8.463  16.836  66.105  1.00  0.00    -0.298 A  
ENDBRANCH   5   8
ENDBRANCH   2   3
TORSDOF 3
ENDMDL
MODEL       23
REMARK 921   NORMALIZED FREE ENERGY PREDICTED BY IDOCK:   -4.46 KCAL/MOL
REMARK 922        TOTAL FREE ENERGY PREDICTED BY IDOCK:   -5.42 KCAL/MOL
REMARK 923 INTER-LIGAND FREE ENERGY PREDICTED BY IDOCK:   -4.99 KCAL/MOL
REMARK 924 INTRA-LIGAND FREE ENERGY PREDICTED BY IDOCK:   -0.43 KCAL/MOL
REMARK 927      BINDING AFFINITY PREDICTED BY RF-SCORE:    0.00 PKD
ROOT
HETATM    1  C   UNL     1     -10.597   8.043  67.065  1.00  0.00    -0.364 C  
HETATM    2  C   UNL     1     -10.122   9.354  67.675  1.00  0.00    -0.211 C  
ENDROOT
BRANCH   2   3
HETATM    3  N   UNL     1     -10.252  10.487  66.756  1.00  0.00    -0.226 N  
HETATM    4  O   UNL     1     -12.119  11.214  67.918  1.00  0.00    -0.627 OA 
HETATM    5  C   UNL     1     -11.270  11.418  67.052  1.00  0.00    -0.283 C  
BRANCH   3   6
HETATM    6  C   UNL     1      -9.227  10.668  65.718  1.00  0.00    -0.189 C  
HETATM    7  C   UNL     1      -9.571  10.224  64.305  1.00  0.00    -0.375 C  
ENDBRANCH   3   6
BRANCH   5   8
HETATM    8  C   UNL     1     -11.372  12.703  66.297  1.00  0.00    -0.376 A  
HETATM    9  C   UNL     1     -10.608  13.825  66.625  1.00  0.00    -0.274 A  
HETATM   10  C   UNL     1     -10.591  14.946  65.790  1.00  0.00    -0.342 A  
HETATM   11  C   UNL     1      -9.605  16.052  66.027  1.00  0.00    -0.385 C  
HETATM   12  C   UNL     1     -11.480  15.003  64.713  1.00  0.00    -0.403 A  
HETATM   13  C   UNL     1     -12.344  13.936  64.451  1.00  0.00    -0.400 A  
HETATM   14  C   UNL     1     -12.278  12.778  65.232  1.00  0.00    -0.535 A  
ENDBRANCH   5   8
ENDBRANCH   2   3
TORSDOF 3
ENDMDL
MODEL       24
REMARK 921   NORMALIZED FREE ENERGY PREDICTED BY IDOCK:   -4.44 KCAL/MOL
REMARK 922        TOTAL FREE ENERGY PREDICTED BY IDOCK:   -5.40 KCAL/MOL
REMARK 923 INTER-LIGAND FREE ENERGY PREDICTED BY IDOCK:   -5.14 KCAL/MOL
REMARK 924 INTRA-LIGAND FREE ENERGY PREDICTED BY IDOCK:   -0.26 KCAL/MOL
REMARK 927      BINDING AFFINITY PREDICTED BY RF-SCORE:    0.00 PKD
ROOT
HETATM    1  C   UNL     1     -11.355  16.197  64.521  1.00  0.00    -0.273 C  
HETATM    2  C   UNL     1     -10.661  14.890  64.876  1.00  0.00    -0.405 C  
ENDROOT
BRANCH   2   3
HETATM    3  N   UNL     1     -11.249  14.236  66.047  1.00  0.00    -0.319 N  
HETATM    4  O   UNL     1      -9.522  15.043  67.363  1.00  0.00    -0.198 OA 
HETATM    5  C   UNL     1     -10.609  14.474  67.281  1.00  0.00    -0.280 C  
BRANCH   3   6
HETATM    6  C   UNL     1     -12.535  13.542  65.890  1.00  0.00    -0.429 C  
HETATM    7  C   UNL     1     -12.695  12.622  64.692  1.00  0.00    -0.458 C  
ENDBRANCH   3   6
BRANCH   5   8
HETATM    8  C   UNL     1     -11.227  14.015  68.562  1.00  0.00    -0.291 A  
HETATM    9  C   UNL     1     -11.841  14.898  69.454  1.00  0.00    -0.356 A  
HETATM   10  C   UNL     1     -12.568  14.418  70.547  1.00  0.00    -0.417 A  
HETATM   11  C   UNL     1     -13.406  15.353  71.368  1.00  0.00    -0.601 C  
HETATM   12  C   UNL     1     -12.530  13.053  70.839  1.00  0.00    -0.396 A  
HETATM   13  C   UNL     1     -11.810  12.173  70.025  1.00  0.00    -0.383 A  
HETATM   14  C   UNL     1     -11.172  12.652  68.876  1.00  0.00    -0.329 A  
ENDBRANCH   5   8
ENDBRANCH   2   3
TORSDOF 3
ENDMDL
MODEL       25
REMARK 921   NORMALIZED FREE ENERGY PREDICTED BY IDOCK:   -4.43 KCAL/MOL
REMARK 922        TOTAL FREE ENERGY PREDICTED BY IDOCK:   -5.38 KCAL/MOL
REMARK 923 INTER-LIGAND FREE ENERGY PREDICTED BY IDOCK:   -5.26 KCAL/MOL
REMARK 924 INTRA-LIGAND FREE ENERGY PREDICTED BY IDOCK:   -0.12 KCAL/MOL
REMARK 927      BINDING AFFINITY PREDICTED BY RF-SCORE:    0.00 PKD
ROOT
HETATM    1  C   UNL     1     -12.355   6.874  71.531  1.00  0.00    -0.420 C  
HETATM    2  C   UNL     1     -11.894   8.119  72.275  1.00  0.00    -0.382 C  
ENDROOT
BRANCH   2   3
HETATM    3  N   UNL     1     -11.529   9.215  71.375  1.00  0.00    -0.320 N  
HETATM    4  O   UNL     1     -13.748   9.870  71.275  1.00  0.00    -0.275 OA 
HETATM    5  C   UNL     1     -12.568  10.095  71.010  1.00  0.00    -0.381 C  
BRANCH   3   6
HETATM    6  C   UNL     1     -10.107   9.423  71.065  1.00  0.00    -0.283 C  
HETATM    7  C   UNL     1      -9.090   8.624  71.862  1.00  0.00    -0.326 C  
ENDBRANCH   3   6
BRANCH   5   8
HETATM    8  C   UNL     1     -12.276  11.350  70.253  1.00  0.00    -0.433 A  
HETATM    9  C   UNL     1     -11.862  11.339  68.919  1.00  0.00    -0.413 A  
HETATM   10  C   UNL     1     -11.776  12.528  68.189  1.00  0.00    -0.400 A  
HETATM   11  C   UNL     1     -11.549  12.491  66.707  1.00  0.00    -0.446 C  
HETATM   12  C   UNL     1     -11.940  13.746  68.854  1.00  0.00    -0.394 A  
HETATM   13  C   UNL     1     -12.228  13.773  70.222  1.00  0.00    -0.429 A  
HETATM   14  C   UNL     1     -12.413  12.575  70.919  1.00  0.00    -0.361 A  
ENDBRANCH   5   8
ENDBRANCH   2   3
TORSDOF 3
ENDMDL
MODEL       26
REMARK 921   NORMALIZED FREE ENERGY PREDICTED BY IDOCK:   -4.41 KCAL/MOL
REMARK 922        TOTAL FREE ENERGY PREDICTED BY IDOCK:   -5.36 KCAL/MOL
REMARK 923 INTER-LIGAND FREE ENERGY PREDICTED BY IDOCK:   -4.99 KCAL/MOL
REMARK 924 INTRA-LIGAND FREE ENERGY PREDICTED BY IDOCK:   -0.37 KCAL/MOL
REMARK 927      BINDING AFFINITY PREDICTED BY RF-SCORE:    0.00 PKD
ROOT
HETATM    1  C   UNL     1     -11.184   4.798  73.415  1.00  0.00    -0.425 C  
HETATM    2  C   UNL     1     -10.440   5.423  72.244  1.00  0.00    -0.219 C  
ENDROOT
BRANCH   2   3
HETATM    3  N   UNL     1     -10.586   6.879  72.191  1.00  0.00    -0.210 N  
HETATM    4  O   UNL     1     -11.893   6.679  70.289  1.00  0.00    -0.395 OA 
HETATM    5  C   UNL     1     -11.436   7.386  71.187  1.00  0.00    -0.279 C  
BRANCH   3   6
HETATM    6  C   UNL     1      -9.995   7.681  73.272  1.00  0.00    -0.320 C  
HETATM    7  C   UNL     1      -8.548   8.118  73.113  1.00  0.00    -0.299 C  
ENDBRANCH   3   6
BRANCH   5   8
HETATM    8  C   UNL     1     -11.807   8.833  71.158  1.00  0.00    -0.345 A  
HETATM    9  C   UNL     1     -11.166   9.752  70.324  1.00  0.00    -0.347 A  
HETATM   10  C   UNL     1     -11.657  11.054  70.186  1.00  0.00    -0.421 A  
HETATM   11  C   UNL     1     -11.104  11.963  69.129  1.00  0.00    -0.285 C  
HETATM   12  C   UNL     1     -12.692  11.480  71.022  1.00  0.00    -0.426 A  
HETATM   13  C   UNL     1     -13.256  10.604  71.954  1.00  0.00    -0.528 A  
HETATM   14  C   UNL     1     -12.826   9.275  72.011  1.00  0.00    -0.495 A  
ENDBRANCH   5   8
ENDBRANCH   2   3
TORSDOF 3
ENDMDL
MODEL       27
REMARK 921   NORMALIZED FREE ENERGY PREDICTED BY IDOCK:   -4.37 KCAL/MOL
REMARK 922        TOTAL FREE ENERGY PREDICTED BY IDOCK:   -5.32 KCAL/MOL
REMARK 923 INTER-LIGAND FREE ENERGY PREDICTED BY IDOCK:   -5.21 KCAL/MOL
REMARK 924 INTRA-LIGAND FREE ENERGY PREDICTED BY IDOCK:   -0.11 KCAL/MOL
REMARK 927      BINDING AFFINITY PREDICTED BY RF-SCORE:    0.00 PKD
ROOT
HETATM    1  C   UNL     1      -8.982   9.900  66.993  1.00  0.00    -0.152 C  
HETATM    2  C   UNL     1     -10.215   9.397  67.731  1.00  0.00    -0.222 C  
ENDROOT
BRANCH   2   3
HETATM    3  N   UNL     1     -10.535  10.199  68.914  1.00  0.00    -0.198 N  
HETATM    4  O   UNL     1     -12.037  11.442  67.664  1.00  0.00    -0.630 OA 
HETATM    5  C   UNL     1     -11.557  11.158  68.760  1.00  0.00    -0.322 C  
BRANCH   3   6
HETATM    6  C   UNL     1      -9.911   9.837  70.194  1.00  0.00    -0.255 C  
HETATM    7  C   UNL     1     -10.143   8.429  70.717  1.00  0.00    -0.226 C  
ENDBRANCH   3   6
BRANCH   5   8
HETATM    8  C   UNL     1     -12.094  11.898  69.942  1.00  0.00    -0.344 A  
HETATM    9  C   UNL     1     -11.984  13.284  70.069  1.00  0.00    -0.399 A  
HETATM   10  C   UNL     1     -12.655  13.963  71.091  1.00  0.00    -0.446 A  
HETATM   11  C   UNL     1     -12.715  15.462  71.091  1.00  0.00    -0.503 C  
HETATM   12  C   UNL     1     -13.297  13.224  72.088  1.00  0.00    -0.618 A  
HETATM   13  C   UNL     1     -13.304  11.827  72.041  1.00  0.00    -0.417 A  
HETATM   14  C   UNL     1     -12.718  11.163  70.959  1.00  0.00    -0.476 A  
ENDBRANCH   5   8
ENDBRANCH   2   3
TORSDOF 3
ENDMDL
MODEL       28
REMARK 921   NORMALIZED FREE ENERGY PREDICTED BY IDOCK:   -4.36 KCAL/MOL
REMARK 922        TOTAL FREE ENERGY PREDICTED BY IDOCK:   -5.31 KCAL/MOL
REMARK 923 INTER-LIGAND FREE ENERGY PREDICTED BY IDOCK:   -5.01 KCAL/MOL
REMARK 924 INTRA-LIGAND FREE ENERGY PREDICTED BY IDOCK:   -0.30 KCAL/MOL
REMARK 927      BINDING AFFINITY PREDICTED BY RF-SCORE:    0.00 PKD
ROOT
HETATM    1  C   UNL     1      -9.031  16.513  66.251  1.00  0.00    -0.359 C  
HETATM    2  C   UNL     1     -10.249  15.600  66.262  1.00  0.00    -0.299 C  
ENDROOT
BRANCH   2   3
HETATM    3  N   UNL     1     -10.459  14.951  67.558  1.00  0.00    -0.251 N  
HETATM    4  O   UNL     1     -12.534  14.207  66.847  1.00  0.00    -0.359 OA 
HETATM    5  C   UNL     1     -11.639  14.191  67.690  1.00  0.00    -0.365 C  
BRANCH   3   6
HETATM    6  C   UNL     1      -9.370  14.986  68.544  1.00  0.00    -0.196 C  
HETATM    7  C   UNL     1      -8.412  13.807  68.576  1.00  0.00    -0.117 C  
ENDBRANCH   3   6
BRANCH   5   8
HETATM    8  C   UNL     1     -11.865  13.335  68.895  1.00  0.00    -0.367 A  
HETATM    9  C   UNL     1     -12.346  13.852  70.099  1.00  0.00    -0.400 A  
HETATM   10  C   UNL     1     -12.720  13.000  71.143  1.00  0.00    -0.372 A  
HETATM   11  C   UNL     1     -13.440  13.544  72.342  1.00  0.00    -0.685 C  
HETATM   12  C   UNL     1     -12.445  11.635  71.036  1.00  0.00    -0.436 A  
HETATM   13  C   UNL     1     -11.843  11.122  69.883  1.00  0.00    -0.439 A  
HETATM   14  C   UNL     1     -11.569  11.969  68.804  1.00  0.00    -0.366 A  
ENDBRANCH   5   8
ENDBRANCH   2   3
TORSDOF 3
ENDMDL
MODEL       29
REMARK 921   NORMALIZED FREE ENERGY PREDICTED BY IDOCK:   -4.36 KCAL/MOL
REMARK 922        TOTAL FREE ENERGY PREDICTED BY IDOCK:   -5.31 KCAL/MOL
REMARK 923 INTER-LIGAND FREE ENERGY PREDICTED BY IDOCK:   -4.94 KCAL/MOL
REMARK 924 INTRA-LIGAND FREE ENERGY PREDICTED BY IDOCK:   -0.37 KCAL/MOL
REMARK 927      BINDING AFFINITY PREDICTED BY RF-SCORE:    0.00 PKD
ROOT
HETATM    1  C   UNL     1      -7.143  18.541  65.790  1.00  0.00    -0.255 C  
HETATM    2  C   UNL     1      -7.957  17.980  66.948  1.00  0.00    -0.231 C  
ENDROOT
BRANCH   2   3
HETATM    3  N   UNL     1      -9.155  17.265  66.505  1.00  0.00    -0.257 N  
HETATM    4  O   UNL     1      -8.044  15.248  66.760  1.00  0.00    -0.222 OA 
HETATM    5  C   UNL     1      -9.091  15.856  66.543  1.00  0.00    -0.286 C  
BRANCH   3   6
HETATM    6  C   UNL     1     -10.372  18.041  66.228  1.00  0.00    -0.382 C  
HETATM    7  C   UNL     1     -10.838  19.021  67.292  1.00  0.00    -0.494 C  
ENDBRANCH   3   6
BRANCH   5   8
HETATM    8  C   UNL     1     -10.311  15.030  66.295  1.00  0.00    -0.304 A  
HETATM    9  C   UNL     1     -10.711  14.654  65.011  1.00  0.00    -0.448 A  
HETATM   10  C   UNL     1     -11.745  13.732  64.827  1.00  0.00    -0.399 A  
HETATM   11  C   UNL     1     -12.021  13.167  63.465  1.00  0.00    -0.580 C  
HETATM   12  C   UNL     1     -12.492  13.320  65.933  1.00  0.00    -0.433 A  
HETATM   13  C   UNL     1     -12.181  13.791  67.212  1.00  0.00    -0.315 A  
HETATM   14  C   UNL     1     -11.079  14.633  67.397  1.00  0.00    -0.331 A  
ENDBRANCH   5   8
ENDBRANCH   2   3
TORSDOF 3
ENDMDL
MODEL       30
REMARK 921   NORMALIZED FREE ENERGY PREDICTED BY IDOCK:   -4.36 KCAL/MOL
REMARK 922        TOTAL FREE ENERGY PREDICTED BY IDOCK:   -5.31 KCAL/MOL
REMARK 923 INTER-LIGAND FREE ENERGY PREDICTED BY IDOCK:   -4.96 KCAL/MOL
REMARK 924 INTRA-LIGAND FREE ENERGY PREDICTED BY IDOCK:   -0.35 KCAL/MOL
REMARK 927      BINDING AFFINITY PREDICTED BY RF-SCORE:    0.00 PKD
ROOT
HETATM    1  C   UNL     1      -9.314  10.549  63.859  1.00  0.00    -0.314 C  
HETATM    2  C   UNL     1     -10.124  11.804  64.151  1.00  0.00    -0.310 C  
ENDROOT
BRANCH   2   3
HETATM    3  N   UNL     1     -10.224  12.094  65.583  1.00  0.00    -0.250 N  
HETATM    4  O   UNL     1     -12.486  12.526  65.337  1.00  0.00    -0.630 OA 
HETATM    5  C   UNL     1     -11.517  12.363  66.077  1.00  0.00    -0.382 C  
BRANCH   3   6
HETATM    6  C   UNL     1      -9.028  11.914  66.419  1.00  0.00    -0.180 C  
HETATM    7  C   UNL     1      -8.362  13.162  66.972  1.00  0.00    -0.094 C  
ENDBRANCH   3   6
BRANCH   5   8
HETATM    8  C   UNL     1     -11.763  12.485  67.546  1.00  0.00    -0.439 A  
HETATM    9  C   UNL     1     -11.811  11.373  68.390  1.00  0.00    -0.344 A  
HETATM   10  C   UNL     1     -11.858  11.533  69.778  1.00  0.00    -0.429 A  
HETATM   11  C   UNL     1     -11.686  10.348  70.682  1.00  0.00    -0.444 C  
HETATM   12  C   UNL     1     -12.032  12.814  70.308  1.00  0.00    -0.358 A  
HETATM   13  C   UNL     1     -12.115  13.924  69.463  1.00  0.00    -0.393 A  
HETATM   14  C   UNL     1     -11.963  13.763  68.082  1.00  0.00    -0.394 A  
ENDBRANCH   5   8
ENDBRANCH   2   3
TORSDOF 3
ENDMDL
MODEL       31
REMARK 921   NORMALIZED FREE ENERGY PREDICTED BY IDOCK:   -4.35 KCAL/MOL
REMARK 922        TOTAL FREE ENERGY PREDICTED BY IDOCK:   -5.30 KCAL/MOL
REMARK 923 INTER-LIGAND FREE ENERGY PREDICTED BY IDOCK:   -5.08 KCAL/MOL
REMARK 924 INTRA-LIGAND FREE ENERGY PREDICTED BY IDOCK:   -0.22 KCAL/MOL
REMARK 927      BINDING AFFINITY PREDICTED BY RF-SCORE:    0.00 PKD
ROOT
HETATM    1  C   UNL     1      -9.784  11.085  66.881  1.00  0.00    -0.215 C  
HETATM    2  C   UNL     1     -11.267  11.143  67.217  1.00  0.00    -0.277 C  
ENDROOT
BRANCH   2   3
HETATM    3  N   UNL     1     -11.665  12.424  67.806  1.00  0.00    -0.353 N  
HETATM    4  O   UNL     1     -11.442  11.517  69.926  1.00  0.00    -0.289 OA 
HETATM    5  C   UNL     1     -11.624  12.503  69.214  1.00  0.00    -0.319 C  
BRANCH   3   6
HETATM    6  C   UNL     1     -11.902  13.564  66.909  1.00  0.00    -0.407 C  
HETATM    7  C   UNL     1     -12.637  13.293  65.607  1.00  0.00    -0.469 C  
ENDBRANCH   3   6
BRANCH   5   8
HETATM    8  C   UNL     1     -11.826  13.809  69.911  1.00  0.00    -0.394 A  
HETATM    9  C   UNL     1     -13.004  14.117  70.596  1.00  0.00    -0.290 A  
HETATM   10  C   UNL     1     -13.089  15.265  71.389  1.00  0.00    -0.529 A  
HETATM   11  C   UNL     1     -14.268  15.474  72.292  1.00  0.00    -0.617 C  
HETATM   12  C   UNL     1     -12.045  16.193  71.353  1.00  0.00    -0.384 A  
HETATM   13  C   UNL     1     -10.913  15.956  70.568  1.00  0.00    -0.346 A  
HETATM   14  C   UNL     1     -10.794  14.755  69.860  1.00  0.00    -0.185 A  
ENDBRANCH   5   8
ENDBRANCH   2   3
TORSDOF 3
ENDMDL
MODEL       32
REMARK 921   NORMALIZED FREE ENERGY PREDICTED BY IDOCK:   -4.34 KCAL/MOL
REMARK 922        TOTAL FREE ENERGY PREDICTED BY IDOCK:   -5.29 KCAL/MOL
REMARK 923 INTER-LIGAND FREE ENERGY PREDICTED BY IDOCK:   -4.90 KCAL/MOL
REMARK 924 INTRA-LIGAND FREE ENERGY PREDICTED BY IDOCK:   -0.38 KCAL/MOL
REMARK 927      BINDING AFFINITY PREDICTED BY RF-SCORE:    0.00 PKD
ROOT
HETATM    1  C   UNL     1     -11.646  12.504  66.677  1.00  0.00    -0.442 C  
HETATM    2  C   UNL     1     -12.064  13.699  67.522  1.00  0.00    -0.316 C  
ENDROOT
BRANCH   2   3
HETATM    3  N   UNL     1     -11.223  14.876  67.294  1.00  0.00    -0.337 N  
HETATM    4  O   UNL     1     -11.731  15.649  69.418  1.00  0.00    -0.341 OA 
HETATM    5  C   UNL     1     -11.067  15.753  68.387  1.00  0.00    -0.341 C  
BRANCH   3   6
HETATM    6  C   UNL     1     -10.475  14.969  66.032  1.00  0.00    -0.315 C  
HETATM    7  C   UNL     1     -11.149  15.669  64.864  1.00  0.00    -0.414 C  
ENDBRANCH   3   6
BRANCH   5   8
HETATM    8  C   UNL     1     -10.087  16.880  68.329  1.00  0.00    -0.302 A  
HETATM    9  C   UNL     1     -10.404  18.117  67.764  1.00  0.00    -0.413 A  
HETATM   10  C   UNL     1      -9.532  19.203  67.891  1.00  0.00    -0.381 A  
HETATM   11  C   UNL     1      -9.972  20.578  67.481  1.00  0.00    -0.497 C  
HETATM   12  C   UNL     1      -8.264  18.995  68.437  1.00  0.00    -0.382 A  
HETATM   13  C   UNL     1      -7.887  17.726  68.889  1.00  0.00    -0.186 A  
HETATM   14  C   UNL     1      -8.805  16.672  68.851  1.00  0.00    -0.238 A  
ENDBRANCH   5   8
ENDBRANCH   2   3
TORSDOF 3
ENDMDL
MODEL       33
REMARK 921   NORMALIZED FREE ENERGY PREDICTED BY IDOCK:   -4.34 KCAL/MOL
REMARK 922        TOTAL FREE ENERGY PREDICTED BY IDOCK:   -5.29 KCAL/MOL
REMARK 923 INTER-LIGAND FREE ENERGY PREDICTED BY IDOCK:   -4.90 KCAL/MOL
REMARK 924 INTRA-LIGAND FREE ENERGY PREDICTED BY IDOCK:   -0.39 KCAL/MOL
REMARK 927      BINDING AFFINITY PREDICTED BY RF-SCORE:    0.00 PKD
ROOT
HETATM    1  C   UNL     1     -12.355  12.093  63.533  1.00  0.00    -0.682 C  
HETATM    2  C   UNL     1     -11.249  11.854  64.552  1.00  0.00    -0.319 C  
ENDROOT
BRANCH   2   3
HETATM    3  N   UNL     1     -11.053  12.991  65.453  1.00  0.00    -0.273 N  
HETATM    4  O   UNL     1     -11.835  11.720  67.224  1.00  0.00    -0.596 OA 
HETATM    5  C   UNL     1     -11.309  12.755  66.820  1.00  0.00    -0.313 C  
BRANCH   3   6
HETATM    6  C   UNL     1     -10.449  14.217  64.914  1.00  0.00    -0.430 C  
HETATM    7  C   UNL     1     -11.350  15.429  64.742  1.00  0.00    -0.381 C  
ENDBRANCH   3   6
BRANCH   5   8
HETATM    8  C   UNL     1     -10.963  13.781  67.850  1.00  0.00    -0.270 A  
HETATM    9  C   UNL     1      -9.658  13.965  68.313  1.00  0.00    -0.218 A  
HETATM   10  C   UNL     1      -9.339  15.051  69.134  1.00  0.00    -0.189 A  
HETATM   11  C   UNL     1      -7.907  15.368  69.446  1.00  0.00    -0.232 C  
HETATM   12  C   UNL     1     -10.370  15.853  69.630  1.00  0.00    -0.299 A  
HETATM   13  C   UNL     1     -11.698  15.599  69.274  1.00  0.00    -0.388 A  
HETATM   14  C   UNL     1     -11.994  14.574  68.370  1.00  0.00    -0.309 A  
ENDBRANCH   5   8
ENDBRANCH   2   3
TORSDOF 3
ENDMDL
MODEL       34
REMARK 921   NORMALIZED FREE ENERGY PREDICTED BY IDOCK:   -4.34 KCAL/MOL
REMARK 922        TOTAL FREE ENERGY PREDICTED BY IDOCK:   -5.28 KCAL/MOL
REMARK 923 INTER-LIGAND FREE ENERGY PREDICTED BY IDOCK:   -4.91 KCAL/MOL
REMARK 924 INTRA-LIGAND FREE ENERGY PREDICTED BY IDOCK:   -0.37 KCAL/MOL
REMARK 927      BINDING AFFINITY PREDICTED BY RF-SCORE:    0.00 PKD
ROOT
HETATM    1  C   UNL     1      -9.671  10.087  65.570  1.00  0.00    -0.355 C  
HETATM    2  C   UNL     1      -9.543  11.555  65.950  1.00  0.00    -0.230 C  
ENDROOT
BRANCH   2   3
HETATM    3  N   UNL     1      -9.964  11.824  67.326  1.00  0.00    -0.191 N  
HETATM    4  O   UNL     1     -12.146  12.105  66.603  1.00  0.00    -0.622 OA 
HETATM    5  C   UNL     1     -11.348  12.000  67.533  1.00  0.00    -0.319 C  
BRANCH   3   6
HETATM    6  C   UNL     1      -8.964  11.716  68.398  1.00  0.00    -0.176 C  
HETATM    7  C   UNL     1      -8.803  10.366  69.077  1.00  0.00    -0.176 C  
ENDBRANCH   3   6
BRANCH   5   8
HETATM    8  C   UNL     1     -11.908  12.091  68.915  1.00  0.00    -0.356 A  
HETATM    9  C   UNL     1     -12.346  10.967  69.619  1.00  0.00    -0.303 A  
HETATM   10  C   UNL     1     -12.691  11.062  70.970  1.00  0.00    -0.485 A  
HETATM   11  C   UNL     1     -12.945   9.821  71.774  1.00  0.00    -0.536 C  
HETATM   12  C   UNL     1     -12.759  12.323  71.567  1.00  0.00    -0.339 A  
HETATM   13  C   UNL     1     -12.447  13.471  70.833  1.00  0.00    -0.448 A  
HETATM   14  C   UNL     1     -12.004  13.355  69.511  1.00  0.00    -0.377 A  
ENDBRANCH   5   8
ENDBRANCH   2   3
TORSDOF 3
ENDMDL
MODEL       35
REMARK 921   NORMALIZED FREE ENERGY PREDICTED BY IDOCK:   -4.32 KCAL/MOL
REMARK 922        TOTAL FREE ENERGY PREDICTED BY IDOCK:   -5.26 KCAL/MOL
REMARK 923 INTER-LIGAND FREE ENERGY PREDICTED BY IDOCK:   -4.96 KCAL/MOL
REMARK 924 INTRA-LIGAND FREE ENERGY PREDICTED BY IDOCK:   -0.31 KCAL/MOL
REMARK 927      BINDING AFFINITY PREDICTED BY RF-SCORE:    0.00 PKD
ROOT
HETATM    1  C   UNL     1     -11.366   4.674  73.306  1.00  0.00    -0.393 C  
HETATM    2  C   UNL     1     -10.480   5.370  72.281  1.00  0.00    -0.219 C  
ENDROOT
BRANCH   2   3
HETATM    3  N   UNL     1     -11.120   6.544  71.683  1.00  0.00    -0.248 N  
HETATM    4  O   UNL     1     -10.360   7.850  73.439  1.00  0.00    -0.311 OA 
HETATM    5  C   UNL     1     -10.901   7.774  72.337  1.00  0.00    -0.303 C  
BRANCH   3   6
HETATM    6  C   UNL     1     -11.780   6.394  70.379  1.00  0.00    -0.321 C  
HETATM    7  C   UNL     1     -10.897   6.141  69.169  1.00  0.00    -0.418 C  
ENDBRANCH   3   6
BRANCH   5   8
HETATM    8  C   UNL     1     -11.345   9.059  71.715  1.00  0.00    -0.447 A  
HETATM    9  C   UNL     1     -10.625   9.681  70.692  1.00  0.00    -0.386 A  
HETATM   10  C   UNL     1     -11.160  10.777  70.009  1.00  0.00    -0.327 A  
HETATM   11  C   UNL     1     -10.488  11.300  68.773  1.00  0.00    -0.232 C  
HETATM   12  C   UNL     1     -12.345  11.353  70.472  1.00  0.00    -0.439 A  
HETATM   13  C   UNL     1     -13.009  10.815  71.578  1.00  0.00    -0.562 A  
HETATM   14  C   UNL     1     -12.519   9.656  72.190  1.00  0.00    -0.350 A  
ENDBRANCH   5   8
ENDBRANCH   2   3
TORSDOF 3
ENDMDL
MODEL       36
REMARK 921   NORMALIZED FREE ENERGY PREDICTED BY IDOCK:   -4.31 KCAL/MOL
REMARK 922        TOTAL FREE ENERGY PREDICTED BY IDOCK:   -5.25 KCAL/MOL
REMARK 923 INTER-LIGAND FREE ENERGY PREDICTED BY IDOCK:   -4.83 KCAL/MOL
REMARK 924 INTRA-LIGAND FREE ENERGY PREDICTED BY IDOCK:   -0.42 KCAL/MOL
REMARK 927      BINDING AFFINITY PREDICTED BY RF-SCORE:    0.00 PKD
ROOT
HETATM    1  C   UNL     1     -10.379   5.245  71.013  1.00  0.00    -0.298 C  
HETATM    2  C   UNL     1     -10.989   6.065  72.141  1.00  0.00    -0.267 C  
ENDROOT
BRANCH   2   3
HETATM    3  N   UNL     1     -11.666   7.272  71.663  1.00  0.00    -0.271 N  
HETATM    4  O   UNL     1      -9.964   8.574  72.542  1.00  0.00    -0.293 OA 
HETATM    5  C   UNL     1     -10.982   8.490  71.857  1.00  0.00    -0.324 C  
BRANCH   3   6
HETATM    6  C   UNL     1     -12.897   7.118  70.874  1.00  0.00    -0.119 C  
HETATM    7  C   UNL     1     -14.222   7.230  71.609  1.00  0.00    -0.558 C  
ENDBRANCH   3   6
BRANCH   5   8
HETATM    8  C   UNL     1     -11.488   9.755  71.243  1.00  0.00    -0.457 A  
HETATM    9  C   UNL     1     -12.436  10.564  71.874  1.00  0.00    -0.243 A  
HETATM   10  C   UNL     1     -12.749  11.827  71.363  1.00  0.00    -0.413 A  
HETATM   11  C   UNL     1     -13.595  12.776  72.159  1.00  0.00    -0.547 C  
HETATM   12  C   UNL     1     -12.233  12.204  70.121  1.00  0.00    -0.308 A  
HETATM   13  C   UNL     1     -11.382  11.346  69.418  1.00  0.00    -0.365 A  
HETATM   14  C   UNL     1     -10.995  10.128  69.987  1.00  0.00    -0.364 A  
ENDBRANCH   5   8
ENDBRANCH   2   3
TORSDOF 3
ENDMDL
MODEL       37
REMARK 921   NORMALIZED FREE ENERGY PREDICTED BY IDOCK:   -4.30 KCAL/MOL
REMARK 922        TOTAL FREE ENERGY PREDICTED BY IDOCK:   -5.24 KCAL/MOL
REMARK 923 INTER-LIGAND FREE ENERGY PREDICTED BY IDOCK:   -5.32 KCAL/MOL
REMARK 924 INTRA-LIGAND FREE ENERGY PREDICTED BY IDOCK:    0.08 KCAL/MOL
REMARK 927      BINDING AFFINITY PREDICTED BY RF-SCORE:    0.00 PKD
ROOT
HETATM    1  C   UNL     1      -8.718  13.138  67.030  1.00  0.00    -0.193 C  
HETATM    2  C   UNL     1     -10.034  13.897  66.936  1.00  0.00    -0.264 C  
ENDROOT
BRANCH   2   3
HETATM    3  N   UNL     1     -10.676  14.083  68.239  1.00  0.00    -0.247 N  
HETATM    4  O   UNL     1     -12.128  12.341  67.770  1.00  0.00    -0.478 OA 
HETATM    5  C   UNL     1     -11.680  13.153  68.578  1.00  0.00    -0.352 C  
BRANCH   3   6
HETATM    6  C   UNL     1     -10.121  15.088  69.156  1.00  0.00    -0.245 C  
HETATM    7  C   UNL     1     -10.271  16.551  68.770  1.00  0.00    -0.267 C  
ENDBRANCH   3   6
BRANCH   5   8
HETATM    8  C   UNL     1     -12.268  13.130  69.952  1.00  0.00    -0.293 A  
HETATM    9  C   UNL     1     -12.650  14.296  70.620  1.00  0.00    -0.424 A  
HETATM   10  C   UNL     1     -13.363  14.229  71.821  1.00  0.00    -0.450 A  
HETATM   11  C   UNL     1     -13.961  15.470  72.416  1.00  0.00    -0.653 C  
HETATM   12  C   UNL     1     -13.540  12.987  72.436  1.00  0.00    -0.628 A  
HETATM   13  C   UNL     1     -13.047  11.824  71.838  1.00  0.00    -0.482 A  
HETATM   14  C   UNL     1     -12.426  11.892  70.587  1.00  0.00    -0.347 A  
ENDBRANCH   5   8
ENDBRANCH   2   3
TORSDOF 3
ENDMDL
MODEL       38
REMARK 921   NORMALIZED FREE ENERGY PREDICTED BY IDOCK:   -4.29 KCAL/MOL
REMARK 922        TOTAL FREE ENERGY PREDICTED BY IDOCK:   -5.23 KCAL/MOL
REMARK 923 INTER-LIGAND FREE ENERGY PREDICTED BY IDOCK:   -5.03 KCAL/MOL
REMARK 924 INTRA-LIGAND FREE ENERGY PREDICTED BY IDOCK:   -0.20 KCAL/MOL
REMARK 927      BINDING AFFINITY PREDICTED BY RF-SCORE:    0.00 PKD
ROOT
HETATM    1  C   UNL     1     -12.634  10.509  71.132  1.00  0.00    -0.520 C  
HETATM    2  C   UNL     1     -12.095  11.827  70.594  1.00  0.00    -0.311 C  
ENDROOT
BRANCH   2   3
HETATM    3  N   UNL     1     -11.786  11.772  69.163  1.00  0.00    -0.321 N  
HETATM    4  O   UNL     1     -12.352  14.008  68.956  1.00  0.00    -0.307 OA 
HETATM    5  C   UNL     1     -11.874  12.990  68.458  1.00  0.00    -0.325 C  
BRANCH   3   6
HETATM    6  C   UNL     1     -11.247  10.521  68.611  1.00  0.00    -0.270 C  
HETATM    7  C   UNL     1      -9.754  10.275  68.756  1.00  0.00    -0.178 C  
ENDBRANCH   3   6
BRANCH   5   8
HETATM    8  C   UNL     1     -11.402  13.090  67.044  1.00  0.00    -0.343 A  
HETATM    9  C   UNL     1     -11.983  12.354  66.009  1.00  0.00    -0.419 A  
HETATM   10  C   UNL     1     -11.644  12.607  64.676  1.00  0.00    -0.392 A  
HETATM   11  C   UNL     1     -12.426  11.974  63.564  1.00  0.00    -0.654 C  
HETATM   12  C   UNL     1     -10.591  13.482  64.399  1.00  0.00    -0.394 A  
HETATM   13  C   UNL     1      -9.915  14.128  65.437  1.00  0.00    -0.321 A  
HETATM   14  C   UNL     1     -10.331  13.947  66.760  1.00  0.00    -0.272 A  
ENDBRANCH   5   8
ENDBRANCH   2   3
TORSDOF 3
ENDMDL
MODEL       39
REMARK 921   NORMALIZED FREE ENERGY PREDICTED BY IDOCK:   -4.26 KCAL/MOL
REMARK 922        TOTAL FREE ENERGY PREDICTED BY IDOCK:   -5.19 KCAL/MOL
REMARK 923 INTER-LIGAND FREE ENERGY PREDICTED BY IDOCK:   -5.21 KCAL/MOL
REMARK 924 INTRA-LIGAND FREE ENERGY PREDICTED BY IDOCK:    0.02 KCAL/MOL
REMARK 927      BINDING AFFINITY PREDICTED BY RF-SCORE:    0.00 PKD
ROOT
HETATM    1  C   UNL     1     -12.532  11.727  63.359  1.00  0.00    -0.490 C  
HETATM    2  C   UNL     1     -11.382  12.028  64.310  1.00  0.00    -0.364 C  
ENDROOT
BRANCH   2   3
HETATM    3  N   UNL     1     -11.837  12.530  65.608  1.00  0.00    -0.424 N  
HETATM    4  O   UNL     1     -10.631  10.864  66.673  1.00  0.00    -0.246 OA 
HETATM    5  C   UNL     1     -11.300  11.894  66.746  1.00  0.00    -0.330 C  
BRANCH   3   6
HETATM    6  C   UNL     1     -12.661  13.747  65.639  1.00  0.00    -0.509 C  
HETATM    7  C   UNL     1     -12.155  14.958  64.874  1.00  0.00    -0.275 C  
ENDBRANCH   3   6
BRANCH   5   8
HETATM    8  C   UNL     1     -11.545  12.442  68.115  1.00  0.00    -0.395 A  
HETATM    9  C   UNL     1     -11.311  13.781  68.436  1.00  0.00    -0.326 A  
HETATM   10  C   UNL     1     -11.723  14.302  69.666  1.00  0.00    -0.362 A  
HETATM   11  C   UNL     1     -11.671  15.780  69.916  1.00  0.00    -0.365 C  
HETATM   12  C   UNL     1     -12.214  13.431  70.641  1.00  0.00    -0.427 A  
HETATM   13  C   UNL     1     -12.332  12.064  70.375  1.00  0.00    -0.317 A  
HETATM   14  C   UNL     1     -12.014  11.571  69.105  1.00  0.00    -0.386 A  
ENDBRANCH   5   8
ENDBRANCH   2   3
TORSDOF 3
ENDMDL
MODEL       40
REMARK 921   NORMALIZED FREE ENERGY PREDICTED BY IDOCK:   -4.25 KCAL/MOL
REMARK 922        TOTAL FREE ENERGY PREDICTED BY IDOCK:   -5.18 KCAL/MOL
REMARK 923 INTER-LIGAND FREE ENERGY PREDICTED BY IDOCK:   -4.75 KCAL/MOL
REMARK 924 INTRA-LIGAND FREE ENERGY PREDICTED BY IDOCK:   -0.43 KCAL/MOL
REMARK 927      BINDING AFFINITY PREDICTED BY RF-SCORE:    0.00 PKD
ROOT
HETATM    1  C   UNL     1     -13.365  15.519  71.479  1.00  0.00    -0.593 C  
HETATM    2  C   UNL     1     -12.731  14.159  71.225  1.00  0.00    -0.361 C  
ENDROOT
BRANCH   2   3
HETATM    3  N   UNL     1     -11.975  14.112  69.971  1.00  0.00    -0.319 N  
HETATM    4  O   UNL     1     -12.134  11.801  69.964  1.00  0.00    -0.319 OA 
HETATM    5  C   UNL     1     -11.819  12.839  69.384  1.00  0.00    -0.300 C  
BRANCH   3   6
HETATM    6  C   UNL     1     -11.594  15.381  69.335  1.00  0.00    -0.340 C  
HETATM    7  C   UNL     1     -10.176  15.880  69.554  1.00  0.00    -0.279 C  
ENDBRANCH   3   6
BRANCH   5   8
HETATM    8  C   UNL     1     -11.233  12.695  68.017  1.00  0.00    -0.308 A  
HETATM    9  C   UNL     1     -12.016  12.733  66.861  1.00  0.00    -0.380 A  
HETATM   10  C   UNL     1     -11.420  12.782  65.597  1.00  0.00    -0.379 A  
HETATM   11  C   UNL     1     -12.253  13.045  64.378  1.00  0.00    -0.471 C  
HETATM   12  C   UNL     1     -10.037  12.617  65.493  1.00  0.00    -0.279 A  
HETATM   13  C   UNL     1      -9.255  12.448  66.639  1.00  0.00    -0.218 A  
HETATM   14  C   UNL     1      -9.850  12.505  67.904  1.00  0.00    -0.207 A  
ENDBRANCH   5   8
ENDBRANCH   2   3
TORSDOF 3
ENDMDL
MODEL       41
REMARK 921   NORMALIZED FREE ENERGY PREDICTED BY IDOCK:   -4.24 KCAL/MOL
REMARK 922        TOTAL FREE ENERGY PREDICTED BY IDOCK:   -5.16 KCAL/MOL
REMARK 923 INTER-LIGAND FREE ENERGY PREDICTED BY IDOCK:   -4.79 KCAL/MOL
REMARK 924 INTRA-LIGAND FREE ENERGY PREDICTED BY IDOCK:   -0.38 KCAL/MOL
REMARK 927      BINDING AFFINITY PREDICTED BY RF-SCORE:    0.00 PKD
ROOT
HETATM    1  C   UNL     1      -9.682   4.044  71.048  1.00  0.00    -0.252 C  
HETATM    2  C   UNL     1      -9.205   5.463  70.769  1.00  0.00    -0.149 C  
ENDROOT
BRANCH   2   3
HETATM    3  N   UNL     1     -10.295   6.441  70.788  1.00  0.00    -0.196 N  
HETATM    4  O   UNL     1      -9.167   7.665  72.398  1.00  0.00    -0.137 OA 
HETATM    5  C   UNL     1     -10.103   7.574  71.605  1.00  0.00    -0.180 C  
BRANCH   3   6
HETATM    6  C   UNL     1     -11.406   6.269  69.841  1.00  0.00    -0.434 C  
HETATM    7  C   UNL     1     -11.072   6.250  68.359  1.00  0.00    -0.371 C  
ENDBRANCH   3   6
BRANCH   5   8
HETATM    8  C   UNL     1     -11.059   8.722  71.557  1.00  0.00    -0.377 A  
HETATM    9  C   UNL     1     -10.858   9.826  70.725  1.00  0.00    -0.403 A  
HETATM   10  C   UNL     1     -11.858  10.790  70.566  1.00  0.00    -0.453 A  
HETATM   11  C   UNL     1     -11.728  11.848  69.511  1.00  0.00    -0.410 C  
HETATM   12  C   UNL     1     -12.992  10.732  71.380  1.00  0.00    -0.535 A  
HETATM   13  C   UNL     1     -13.144   9.699  72.310  1.00  0.00    -0.468 A  
HETATM   14  C   UNL     1     -12.185   8.683  72.387  1.00  0.00    -0.419 A  
ENDBRANCH   5   8
ENDBRANCH   2   3
TORSDOF 3
ENDMDL
MODEL       42
REMARK 921   NORMALIZED FREE ENERGY PREDICTED BY IDOCK:   -4.24 KCAL/MOL
REMARK 922        TOTAL FREE ENERGY PREDICTED BY IDOCK:   -5.16 KCAL/MOL
REMARK 923 INTER-LIGAND FREE ENERGY PREDICTED BY IDOCK:   -4.85 KCAL/MOL
REMARK 924 INTRA-LIGAND FREE ENERGY PREDICTED BY IDOCK:   -0.31 KCAL/MOL
REMARK 927      BINDING AFFINITY PREDICTED BY RF-SCORE:    0.00 PKD
ROOT
HETATM    1  C   UNL     1     -12.005   7.852  71.565  1.00  0.00    -0.333 C  
HETATM    2  C   UNL     1     -10.943   8.883  71.213  1.00  0.00    -0.293 C  
ENDROOT
BRANCH   2   3
HETATM    3  N   UNL     1     -11.495  10.055  70.529  1.00  0.00    -0.306 N  
HETATM    4  O   UNL     1      -9.472  10.374  69.446  1.00  0.00    -0.216 OA 
HETATM    5  C   UNL     1     -10.658  10.674  69.577  1.00  0.00    -0.230 C  
BRANCH   3   6
HETATM    6  C   UNL     1     -12.910  10.389  70.743  1.00  0.00    -0.364 C  
HETATM    7  C   UNL     1     -13.238  11.382  71.846  1.00  0.00    -0.485 C  
ENDBRANCH   3   6
BRANCH   5   8
HETATM    8  C   UNL     1     -11.181  11.755  68.688  1.00  0.00    -0.312 A  
HETATM    9  C   UNL     1     -11.421  13.051  69.149  1.00  0.00    -0.353 A  
HETATM   10  C   UNL     1     -11.732  14.080  68.256  1.00  0.00    -0.392 A  
HETATM   11  C   UNL     1     -11.769  15.504  68.726  1.00  0.00    -0.372 C  
HETATM   12  C   UNL     1     -11.972  13.766  66.916  1.00  0.00    -0.460 A  
HETATM   13  C   UNL     1     -11.861  12.446  66.467  1.00  0.00    -0.407 A  
HETATM   14  C   UNL     1     -11.448  11.442  67.349  1.00  0.00    -0.328 A  
ENDBRANCH   5   8
ENDBRANCH   2   3
TORSDOF 3
ENDMDL
MODEL       43
REMARK 921   NORMALIZED FREE ENERGY PREDICTED BY IDOCK:   -4.22 KCAL/MOL
REMARK 922        TOTAL FREE ENERGY PREDICTED BY IDOCK:   -5.15 KCAL/MOL
REMARK 923 INTER-LIGAND FREE ENERGY PREDICTED BY IDOCK:   -5.12 KCAL/MOL
REMARK 924 INTRA-LIGAND FREE ENERGY PREDICTED BY IDOCK:   -0.02 KCAL/MOL
REMARK 927      BINDING AFFINITY PREDICTED BY RF-SCORE:    0.00 PKD
ROOT
HETATM    1  C   UNL     1     -11.162   6.385  72.037  1.00  0.00    -0.324 C  
HETATM    2  C   UNL     1     -11.652   7.594  72.820  1.00  0.00    -0.281 C  
ENDROOT
BRANCH   2   3
HETATM    3  N   UNL     1     -12.057   8.705  71.954  1.00  0.00    -0.330 N  
HETATM    4  O   UNL     1      -9.830   9.206  71.560  1.00  0.00    -0.304 OA 
HETATM    5  C   UNL     1     -11.017   9.394  71.297  1.00  0.00    -0.370 C  
BRANCH   3   6
HETATM    6  C   UNL     1     -13.490   8.905  71.696  1.00  0.00    -0.378 C  
HETATM    7  C   UNL     1     -14.364   7.668  71.582  1.00  0.00    -0.613 C  
ENDBRANCH   3   6
BRANCH   5   8
HETATM    8  C   UNL     1     -11.321  10.415  70.249  1.00  0.00    -0.406 A  
HETATM    9  C   UNL     1     -11.802  11.688  70.564  1.00  0.00    -0.328 A  
HETATM   10  C   UNL     1     -11.900  12.677  69.581  1.00  0.00    -0.379 A  
HETATM   11  C   UNL     1     -12.202  14.096  69.962  1.00  0.00    -0.418 C  
HETATM   12  C   UNL     1     -11.677  12.331  68.246  1.00  0.00    -0.392 A  
HETATM   13  C   UNL     1     -11.320  11.023  67.903  1.00  0.00    -0.381 A  
HETATM   14  C   UNL     1     -11.125  10.068  68.906  1.00  0.00    -0.219 A  
ENDBRANCH   5   8
ENDBRANCH   2   3
TORSDOF 3
ENDMDL
MODEL       44
REMARK 921   NORMALIZED FREE ENERGY PREDICTED BY IDOCK:   -4.22 KCAL/MOL
REMARK 922        TOTAL FREE ENERGY PREDICTED BY IDOCK:   -5.14 KCAL/MOL
REMARK 923 INTER-LIGAND FREE ENERGY PREDICTED BY IDOCK:   -5.25 KCAL/MOL
REMARK 924 INTRA-LIGAND FREE ENERGY PREDICTED BY IDOCK:    0.11 KCAL/MOL
REMARK 927      BINDING AFFINITY PREDICTED BY RF-SCORE:    0.00 PKD
ROOT
HETATM    1  C   UNL     1     -10.063  15.560  66.631  1.00  0.00    -0.275 C  
HETATM    2  C   UNL     1      -9.488  14.685  67.736  1.00  0.00    -0.205 C  
ENDROOT
BRANCH   2   3
HETATM    3  N   UNL     1     -10.455  14.405  68.799  1.00  0.00    -0.241 N  
HETATM    4  O   UNL     1      -9.945  16.433  69.796  1.00  0.00    -0.155 OA 
HETATM    5  C   UNL     1     -10.657  15.431  69.745  1.00  0.00    -0.295 C  
BRANCH   3   6
HETATM    6  C   UNL     1     -11.259  13.178  68.709  1.00  0.00    -0.281 C  
HETATM    7  C   UNL     1     -10.812  12.116  67.718  1.00  0.00    -0.263 C  
ENDBRANCH   3   6
BRANCH   5   8
HETATM    8  C   UNL     1     -11.752  15.331  70.758  1.00  0.00    -0.377 A  
HETATM    9  C   UNL     1     -11.506  15.389  72.132  1.00  0.00    -0.525 A  
HETATM   10  C   UNL     1     -12.563  15.478  73.043  1.00  0.00    -0.557 A  
HETATM   11  C   UNL     1     -12.291  15.763  74.490  1.00  0.00    -0.776 C  
HETATM   12  C   UNL     1     -13.872  15.333  72.578  1.00  0.00    -0.626 A  
HETATM   13  C   UNL     1     -14.124  15.145  71.216  1.00  0.00    -0.537 A  
HETATM   14  C   UNL     1     -13.065  15.161  70.303  1.00  0.00    -0.138 A  
ENDBRANCH   5   8
ENDBRANCH   2   3
TORSDOF 3
ENDMDL
MODEL       45
REMARK 921   NORMALIZED FREE ENERGY PREDICTED BY IDOCK:   -4.21 KCAL/MOL
REMARK 922        TOTAL FREE ENERGY PREDICTED BY IDOCK:   -5.14 KCAL/MOL
REMARK 923 INTER-LIGAND FREE ENERGY PREDICTED BY IDOCK:   -4.95 KCAL/MOL
REMARK 924 INTRA-LIGAND FREE ENERGY PREDICTED BY IDOCK:   -0.19 KCAL/MOL
REMARK 927      BINDING AFFINITY PREDICTED BY RF-SCORE:    0.00 PKD
ROOT
HETATM    1  C   UNL     1     -11.031  11.389  63.544  1.00  0.00    -0.406 C  
HETATM    2  C   UNL     1     -10.376  12.202  64.652  1.00  0.00    -0.297 C  
ENDROOT
BRANCH   2   3
HETATM    3  N   UNL     1     -11.229  12.342  65.833  1.00  0.00    -0.320 N  
HETATM    4  O   UNL     1      -9.624  11.275  67.118  1.00  0.00    -0.175 OA 
HETATM    5  C   UNL     1     -10.680  11.903  67.056  1.00  0.00    -0.240 C  
BRANCH   3   6
HETATM    6  C   UNL     1     -12.496  13.075  65.699  1.00  0.00    -0.390 C  
HETATM    7  C   UNL     1     -12.427  14.520  65.232  1.00  0.00    -0.281 C  
ENDBRANCH   3   6
BRANCH   5   8
HETATM    8  C   UNL     1     -11.382  12.170  68.348  1.00  0.00    -0.336 A  
HETATM    9  C   UNL     1     -11.921  11.146  69.130  1.00  0.00    -0.413 A  
HETATM   10  C   UNL     1     -12.405  11.409  70.415  1.00  0.00    -0.404 A  
HETATM   11  C   UNL     1     -12.775  10.280  71.330  1.00  0.00    -0.547 C  
HETATM   12  C   UNL     1     -12.504  12.735  70.844  1.00  0.00    -0.373 A  
HETATM   13  C   UNL     1     -12.086  13.781  70.016  1.00  0.00    -0.416 A  
HETATM   14  C   UNL     1     -11.508  13.498  68.774  1.00  0.00    -0.349 A  
ENDBRANCH   5   8
ENDBRANCH   2   3
TORSDOF 3
ENDMDL
MODEL       46
REMARK 921   NORMALIZED FREE ENERGY PREDICTED BY IDOCK:   -4.21 KCAL/MOL
REMARK 922        TOTAL FREE ENERGY PREDICTED BY IDOCK:   -5.13 KCAL/MOL
REMARK 923 INTER-LIGAND FREE ENERGY PREDICTED BY IDOCK:   -4.81 KCAL/MOL
REMARK 924 INTRA-LIGAND FREE ENERGY PREDICTED BY IDOCK:   -0.32 KCAL/MOL
REMARK 927      BINDING AFFINITY PREDICTED BY RF-SCORE:    0.00 PKD
ROOT
HETATM    1  C   UNL     1      -7.379  18.290  67.755  1.00  0.00    -0.218 C  
HETATM    2  C   UNL     1      -8.004  17.866  66.433  1.00  0.00    -0.267 C  
ENDROOT
BRANCH   2   3
HETATM    3  N   UNL     1      -8.725  16.595  66.529  1.00  0.00    -0.255 N  
HETATM    4  O   UNL     1     -10.471  17.495  65.301  1.00  0.00    -0.643 OA 
HETATM    5  C   UNL     1      -9.943  16.514  65.822  1.00  0.00    -0.274 C  
BRANCH   3   6
HETATM    6  C   UNL     1      -8.063  15.461  67.189  1.00  0.00    -0.217 C  
HETATM    7  C   UNL     1      -8.560  15.062  68.568  1.00  0.00    -0.166 C  
ENDBRANCH   3   6
BRANCH   5   8
HETATM    8  C   UNL     1     -10.666  15.212  65.694  1.00  0.00    -0.374 A  
HETATM    9  C   UNL     1     -10.425  14.324  64.643  1.00  0.00    -0.325 A  
HETATM   10  C   UNL     1     -10.980  13.041  64.652  1.00  0.00    -0.364 A  
HETATM   11  C   UNL     1     -10.543  12.021  63.643  1.00  0.00    -0.503 C  
HETATM   12  C   UNL     1     -11.918  12.714  65.635  1.00  0.00    -0.507 A  
HETATM   13  C   UNL     1     -12.265  13.644  66.620  1.00  0.00    -0.437 A  
HETATM   14  C   UNL     1     -11.626  14.888  66.660  1.00  0.00    -0.265 A  
ENDBRANCH   5   8
ENDBRANCH   2   3
TORSDOF 3
ENDMDL
MODEL       47
REMARK 921   NORMALIZED FREE ENERGY PREDICTED BY IDOCK:   -4.20 KCAL/MOL
REMARK 922        TOTAL FREE ENERGY PREDICTED BY IDOCK:   -5.12 KCAL/MOL
REMARK 923 INTER-LIGAND FREE ENERGY PREDICTED BY IDOCK:   -5.35 KCAL/MOL
REMARK 924 INTRA-LIGAND FREE ENERGY PREDICTED BY IDOCK:    0.23 KCAL/MOL
REMARK 927      BINDING AFFINITY PREDICTED BY RF-SCORE:    0.00 PKD
ROOT
HETATM    1  C   UNL     1     -10.858  10.452  70.066  1.00  0.00    -0.348 C  
HETATM    2  C   UNL     1     -12.112  11.250  69.740  1.00  0.00    -0.325 C  
ENDROOT
BRANCH   2   3
HETATM    3  N   UNL     1     -11.833  12.441  68.935  1.00  0.00    -0.313 N  
HETATM    4  O   UNL     1     -11.582  11.110  67.056  1.00  0.00    -0.463 OA 
HETATM    5  C   UNL     1     -11.669  12.233  67.550  1.00  0.00    -0.332 C  
BRANCH   3   6
HETATM    6  C   UNL     1     -11.919  13.758  69.581  1.00  0.00    -0.342 C  
HETATM    7  C   UNL     1     -12.527  13.821  70.972  1.00  0.00    -0.458 C  
ENDBRANCH   3   6
BRANCH   5   8
HETATM    8  C   UNL     1     -11.569  13.392  66.611  1.00  0.00    -0.399 A  
HETATM    9  C   UNL     1     -10.686  14.453  66.825  1.00  0.00    -0.292 A  
HETATM   10  C   UNL     1     -10.485  15.424  65.839  1.00  0.00    -0.354 A  
HETATM   11  C   UNL     1      -9.381  16.429  65.981  1.00  0.00    -0.335 C  
HETATM   12  C   UNL     1     -11.304  15.420  64.707  1.00  0.00    -0.381 A  
HETATM   13  C   UNL     1     -12.281  14.434  64.543  1.00  0.00    -0.483 A  
HETATM   14  C   UNL     1     -12.403  13.409  65.486  1.00  0.00    -0.528 A  
ENDBRANCH   5   8
ENDBRANCH   2   3
TORSDOF 3
ENDMDL
MODEL       48
REMARK 921   NORMALIZED FREE ENERGY PREDICTED BY IDOCK:   -4.20 KCAL/MOL
REMARK 922        TOTAL FREE ENERGY PREDICTED BY IDOCK:   -5.12 KCAL/MOL
REMARK 923 INTER-LIGAND FREE ENERGY PREDICTED BY IDOCK:   -4.78 KCAL/MOL
REMARK 924 INTRA-LIGAND FREE ENERGY PREDICTED BY IDOCK:   -0.34 KCAL/MOL
REMARK 927      BINDING AFFINITY PREDICTED BY RF-SCORE:    0.00 PKD
ROOT
HETATM    1  C   UNL     1     -10.691  15.734  65.390  1.00  0.00    -0.420 C  
HETATM    2  C   UNL     1     -10.393  14.243  65.319  1.00  0.00    -0.395 C  
ENDROOT
BRANCH   2   3
HETATM    3  N   UNL     1     -10.441  13.592  66.630  1.00  0.00    -0.270 N  
HETATM    4  O   UNL     1     -12.309  12.394  65.965  1.00  0.00    -0.627 OA 
HETATM    5  C   UNL     1     -11.424  12.594  66.795  1.00  0.00    -0.351 C  
BRANCH   3   6
HETATM    6  C   UNL     1      -9.377  13.889  67.599  1.00  0.00    -0.205 C  
HETATM    7  C   UNL     1      -8.008  13.278  67.348  1.00  0.00    -0.175 C  
ENDBRANCH   3   6
BRANCH   5   8
HETATM    8  C   UNL     1     -11.442  11.737  68.019  1.00  0.00    -0.388 A  
HETATM    9  C   UNL     1     -10.974  10.421  68.017  1.00  0.00    -0.347 A  
HETATM   10  C   UNL     1     -10.834   9.711  69.213  1.00  0.00    -0.227 A  
HETATM   11  C   UNL     1     -10.127   8.388  69.229  1.00  0.00    -0.202 C  
HETATM   12  C   UNL     1     -11.330  10.268  70.394  1.00  0.00    -0.410 A  
HETATM   13  C   UNL     1     -11.920  11.536  70.387  1.00  0.00    -0.459 A  
HETATM   14  C   UNL     1     -11.961  12.278  69.202  1.00  0.00    -0.303 A  
ENDBRANCH   5   8
ENDBRANCH   2   3
TORSDOF 3
ENDMDL
MODEL       49
REMARK 921   NORMALIZED FREE ENERGY PREDICTED BY IDOCK:   -4.20 KCAL/MOL
REMARK 922        TOTAL FREE ENERGY PREDICTED BY IDOCK:   -5.12 KCAL/MOL
REMARK 923 INTER-LIGAND FREE ENERGY PREDICTED BY IDOCK:   -4.93 KCAL/MOL
REMARK 924 INTRA-LIGAND FREE ENERGY PREDICTED BY IDOCK:   -0.19 KCAL/MOL
REMARK 927      BINDING AFFINITY PREDICTED BY RF-SCORE:    0.00 PKD
ROOT
HETATM    1  C   UNL     1     -12.934  11.358  71.644  1.00  0.00    -0.523 C  
HETATM    2  C   UNL     1     -13.480   9.938  71.645  1.00  0.00    -0.336 C  
ENDROOT
BRANCH   2   3
HETATM    3  N   UNL     1     -12.424   8.924  71.616  1.00  0.00    -0.326 N  
HETATM    4  O   UNL     1     -14.029   7.255  71.573  1.00  0.00    -0.404 OA 
HETATM    5  C   UNL     1     -12.847   7.585  71.487  1.00  0.00    -0.360 C  
BRANCH   3   6
HETATM    6  C   UNL     1     -11.026   9.371  71.544  1.00  0.00    -0.359 C  
HETATM    7  C   UNL     1     -10.469   9.723  70.174  1.00  0.00    -0.338 C  
ENDBRANCH   3   6
BRANCH   5   8
HETATM    8  C   UNL     1     -11.857   6.490  71.258  1.00  0.00    -0.385 A  
HETATM    9  C   UNL     1     -11.406   6.145  69.981  1.00  0.00    -0.443 A  
HETATM   10  C   UNL     1     -10.348   5.247  69.816  1.00  0.00    -0.369 A  
HETATM   11  C   UNL     1      -9.725   5.051  68.466  1.00  0.00    -0.215 C  
HETATM   12  C   UNL     1      -9.858   4.564  70.932  1.00  0.00    -0.269 A  
HETATM   13  C   UNL     1     -10.391   4.807  72.202  1.00  0.00    -0.256 A  
HETATM   14  C   UNL     1     -11.379   5.783  72.368  1.00  0.00    -0.348 A  
ENDBRANCH   5   8
ENDBRANCH   2   3
TORSDOF 3
ENDMDL
MODEL       50
REMARK 921   NORMALIZED FREE ENERGY PREDICTED BY IDOCK:   -4.19 KCAL/MOL
REMARK 922        TOTAL FREE ENERGY PREDICTED BY IDOCK:   -5.11 KCAL/MOL
REMARK 923 INTER-LIGAND FREE ENERGY PREDICTED BY IDOCK:   -4.84 KCAL/MOL
REMARK 924 INTRA-LIGAND FREE ENERGY PREDICTED BY IDOCK:   -0.27 KCAL/MOL
REMARK 927      BINDING AFFINITY PREDICTED BY RF-SCORE:    0.00 PKD
ROOT
HETATM    1  C   UNL     1     -11.714  15.947  72.176  1.00  0.00    -0.586 C  
HETATM    2  C   UNL     1     -12.878  15.452  71.330  1.00  0.00    -0.452 C  
ENDROOT
BRANCH   2   3
HETATM    3  N   UNL     1     -12.490  14.391  70.397  1.00  0.00    -0.342 N  
HETATM    4  O   UNL     1     -11.971  15.987  68.801  1.00  0.00    -0.340 OA 
HETATM    5  C   UNL     1     -11.954  14.811  69.163  1.00  0.00    -0.282 C  
BRANCH   3   6
HETATM    6  C   UNL     1     -12.517  12.999  70.869  1.00  0.00    -0.310 C  
HETATM    7  C   UNL     1     -13.370  12.686  72.086  1.00  0.00    -0.570 C  
ENDBRANCH   3   6
BRANCH   5   8
HETATM    8  C   UNL     1     -11.352  13.824  68.216  1.00  0.00    -0.317 A  
HETATM    9  C   UNL     1     -10.042  13.360  68.353  1.00  0.00    -0.244 A  
HETATM   10  C   UNL     1      -9.573  12.305  67.565  1.00  0.00    -0.184 A  
HETATM   11  C   UNL     1      -8.249  11.667  67.867  1.00  0.00    -0.141 C  
HETATM   12  C   UNL     1     -10.370  11.832  66.520  1.00  0.00    -0.258 A  
HETATM   13  C   UNL     1     -11.636  12.379  66.291  1.00  0.00    -0.449 A  
HETATM   14  C   UNL     1     -12.135  13.363  67.150  1.00  0.00    -0.367 A  
ENDBRANCH   5   8
ENDBRANCH   2   3
TORSDOF 3
ENDMDL
MODEL       51
REMARK 921   NORMALIZED FREE ENERGY PREDICTED BY IDOCK:   -4.14 KCAL/MOL
REMARK 922        TOTAL FREE ENERGY PREDICTED BY IDOCK:   -5.05 KCAL/MOL
REMARK 923 INTER-LIGAND FREE ENERGY PREDICTED BY IDOCK:   -4.64 KCAL/MOL
REMARK 924 INTRA-LIGAND FREE ENERGY PREDICTED BY IDOCK:   -0.41 KCAL/MOL
REMARK 927      BINDING AFFINITY PREDICTED BY RF-SCORE:    0.00 PKD
ROOT
HETATM    1  C   UNL     1      -8.966  10.969  62.503  1.00  0.00    -0.366 C  
HETATM    2  C   UNL     1      -9.688  10.530  63.769  1.00  0.00    -0.326 C  
ENDROOT
BRANCH   2   3
HETATM    3  N   UNL     1     -10.343  11.641  64.463  1.00  0.00    -0.280 N  
HETATM    4  O   UNL     1      -9.172  11.126  66.393  1.00  0.00    -0.173 OA 
HETATM    5  C   UNL     1      -9.916  11.892  65.783  1.00  0.00    -0.236 C  
BRANCH   3   6
HETATM    6  C   UNL     1     -11.249  12.508  63.696  1.00  0.00    -0.483 C  
HETATM    7  C   UNL     1     -12.685  12.043  63.517  1.00  0.00    -0.567 C  
ENDBRANCH   3   6
BRANCH   5   8
HETATM    8  C   UNL     1     -10.377  13.110  66.516  1.00  0.00    -0.284 A  
HETATM    9  C   UNL     1      -9.738  14.346  66.387  1.00  0.00    -0.320 A  
HETATM   10  C   UNL     1     -10.301  15.501  66.938  1.00  0.00    -0.290 A  
HETATM   11  C   UNL     1      -9.733  16.850  66.610  1.00  0.00    -0.283 C  
HETATM   12  C   UNL     1     -11.419  15.381  67.767  1.00  0.00    -0.284 A  
HETATM   13  C   UNL     1     -11.992  14.129  68.008  1.00  0.00    -0.372 A  
HETATM   14  C   UNL     1     -11.481  12.994  67.369  1.00  0.00    -0.380 A  
ENDBRANCH   5   8
ENDBRANCH   2   3
TORSDOF 3
ENDMDL
MODEL       52
REMARK 921   NORMALIZED FREE ENERGY PREDICTED BY IDOCK:   -4.14 KCAL/MOL
REMARK 922        TOTAL FREE ENERGY PREDICTED BY IDOCK:   -5.05 KCAL/MOL
REMARK 923 INTER-LIGAND FREE ENERGY PREDICTED BY IDOCK:   -4.67 KCAL/MOL
REMARK 924 INTRA-LIGAND FREE ENERGY PREDICTED BY IDOCK:   -0.38 KCAL/MOL
REMARK 927      BINDING AFFINITY PREDICTED BY RF-SCORE:    0.00 PKD
ROOT
HETATM    1  C   UNL     1     -11.087   5.140  73.098  1.00  0.00    -0.391 C  
HETATM    2  C   UNL     1     -10.774   6.616  73.302  1.00  0.00    -0.287 C  
ENDROOT
BRANCH   2   3
HETATM    3  N   UNL     1     -11.268   7.456  72.210  1.00  0.00    -0.258 N  
HETATM    4  O   UNL     1      -9.457   8.873  72.482  1.00  0.00    -0.287 OA 
HETATM    5  C   UNL     1     -10.444   8.536  71.831  1.00  0.00    -0.317 C  
BRANCH   3   6
HETATM    6  C   UNL     1     -12.471   7.025  71.483  1.00  0.00    -0.386 C  
HETATM    7  C   UNL     1     -13.762   7.780  71.749  1.00  0.00    -0.410 C  
ENDBRANCH   3   6
BRANCH   5   8
HETATM    8  C   UNL     1     -10.754   9.342  70.611  1.00  0.00    -0.353 A  
HETATM    9  C   UNL     1     -10.244   9.018  69.352  1.00  0.00    -0.206 A  
HETATM   10  C   UNL     1     -10.699   9.679  68.207  1.00  0.00    -0.262 A  
HETATM   11  C   UNL     1     -10.318   9.180  66.844  1.00  0.00    -0.321 C  
HETATM   12  C   UNL     1     -11.541  10.785  68.351  1.00  0.00    -0.311 A  
HETATM   13  C   UNL     1     -11.955  11.199  69.620  1.00  0.00    -0.429 A  
HETATM   14  C   UNL     1     -11.577  10.467  70.750  1.00  0.00    -0.450 A  
ENDBRANCH   5   8
ENDBRANCH   2   3
TORSDOF 3
ENDMDL
MODEL       53
REMARK 921   NORMALIZED FREE ENERGY PREDICTED BY IDOCK:   -4.14 KCAL/MOL
REMARK 922        TOTAL FREE ENERGY PREDICTED BY IDOCK:   -5.05 KCAL/MOL
REMARK 923 INTER-LIGAND FREE ENERGY PREDICTED BY IDOCK:   -4.72 KCAL/MOL
REMARK 924 INTRA-LIGAND FREE ENERGY PREDICTED BY IDOCK:   -0.33 KCAL/MOL
REMARK 927      BINDING AFFINITY PREDICTED BY RF-SCORE:    0.00 PKD
ROOT
HETATM    1  C   UNL     1     -13.128  11.207  71.798  1.00  0.00    -0.536 C  
HETATM    2  C   UNL     1     -13.375   9.860  71.133  1.00  0.00    -0.301 C  
ENDROOT
BRANCH   2   3
HETATM    3  N   UNL     1     -12.325   8.882  71.425  1.00  0.00    -0.307 N  
HETATM    4  O   UNL     1     -13.906   7.190  71.436  1.00  0.00    -0.364 OA 
HETATM    5  C   UNL     1     -12.724   7.531  71.464  1.00  0.00    -0.359 C  
BRANCH   3   6
HETATM    6  C   UNL     1     -10.931   9.347  71.479  1.00  0.00    -0.359 C  
HETATM    7  C   UNL     1     -10.193   9.510  70.161  1.00  0.00    -0.291 C  
ENDBRANCH   3   6
BRANCH   5   8
HETATM    8  C   UNL     1     -11.710   6.438  71.565  1.00  0.00    -0.369 A  
HETATM    9  C   UNL     1     -11.392   5.823  72.778  1.00  0.00    -0.328 A  
HETATM   10  C   UNL     1     -10.581   4.685  72.810  1.00  0.00    -0.273 A  
HETATM   11  C   UNL     1     -10.425   3.903  74.081  1.00  0.00    -0.272 C  
HETATM   12  C   UNL     1      -9.948   4.269  71.636  1.00  0.00    -0.250 A  
HETATM   13  C   UNL     1     -10.158   4.957  70.437  1.00  0.00    -0.316 A  
HETATM   14  C   UNL     1     -11.053   6.031  70.397  1.00  0.00    -0.399 A  
ENDBRANCH   5   8
ENDBRANCH   2   3
TORSDOF 3
ENDMDL
MODEL       54
REMARK 921   NORMALIZED FREE ENERGY PREDICTED BY IDOCK:   -4.12 KCAL/MOL
REMARK 922        TOTAL FREE ENERGY PREDICTED BY IDOCK:   -5.02 KCAL/MOL
REMARK 923 INTER-LIGAND FREE ENERGY PREDICTED BY IDOCK:   -4.63 KCAL/MOL
REMARK 924 INTRA-LIGAND FREE ENERGY PREDICTED BY IDOCK:   -0.39 KCAL/MOL
REMARK 927      BINDING AFFINITY PREDICTED BY RF-SCORE:    0.00 PKD
ROOT
HETATM    1  C   UNL     1      -9.017  16.320  66.012  1.00  0.00    -0.325 C  
HETATM    2  C   UNL     1      -9.909  15.088  65.964  1.00  0.00    -0.319 C  
ENDROOT
BRANCH   2   3
HETATM    3  N   UNL     1     -10.237  14.573  67.295  1.00  0.00    -0.254 N  
HETATM    4  O   UNL     1     -12.383  14.083  66.576  1.00  0.00    -0.457 OA 
HETATM    5  C   UNL     1     -11.517  14.001  67.445  1.00  0.00    -0.348 C  
BRANCH   3   6
HETATM    6  C   UNL     1      -9.174  14.525  68.309  1.00  0.00    -0.201 C  
HETATM    7  C   UNL     1      -8.154  13.403  68.207  1.00  0.00    -0.152 C  
ENDBRANCH   3   6
BRANCH   5   8
HETATM    8  C   UNL     1     -11.888  13.278  68.699  1.00  0.00    -0.380 A  
HETATM    9  C   UNL     1     -11.804  11.888  68.813  1.00  0.00    -0.371 A  
HETATM   10  C   UNL     1     -11.980  11.262  70.050  1.00  0.00    -0.447 A  
HETATM   11  C   UNL     1     -11.671   9.803  70.210  1.00  0.00    -0.253 C  
HETATM   12  C   UNL     1     -12.412  12.022  71.140  1.00  0.00    -0.353 A  
HETATM   13  C   UNL     1     -12.625  13.397  71.005  1.00  0.00    -0.425 A  
HETATM   14  C   UNL     1     -12.346  14.029  69.789  1.00  0.00    -0.344 A  
ENDBRANCH   5   8
ENDBRANCH   2   3
TORSDOF 3
ENDMDL
MODEL       55
REMARK 921   NORMALIZED FREE ENERGY PREDICTED BY IDOCK:   -4.11 KCAL/MOL
REMARK 922        TOTAL FREE ENERGY PREDICTED BY IDOCK:   -5.01 KCAL/MOL
REMARK 923 INTER-LIGAND FREE ENERGY PREDICTED BY IDOCK:   -4.60 KCAL/MOL
REMARK 924 INTRA-LIGAND FREE ENERGY PREDICTED BY IDOCK:   -0.42 KCAL/MOL
REMARK 927      BINDING AFFINITY PREDICTED BY RF-SCORE:    0.00 PKD
ROOT
HETATM    1  C   UNL     1      -9.695   9.351  70.485  1.00  0.00    -0.331 C  
HETATM    2  C   UNL     1     -10.658   9.042  69.347  1.00  0.00    -0.221 C  
ENDROOT
BRANCH   2   3
HETATM    3  N   UNL     1     -10.427   9.877  68.166  1.00  0.00    -0.202 N  
HETATM    4  O   UNL     1     -12.243  11.193  68.743  1.00  0.00    -0.555 OA 
HETATM    5  C   UNL     1     -11.261  11.005  68.027  1.00  0.00    -0.309 C  
BRANCH   3   6
HETATM    6  C   UNL     1      -9.256   9.592  67.325  1.00  0.00    -0.134 C  
HETATM    7  C   UNL     1      -9.432   8.598  66.189  1.00  0.00    -0.308 C  
ENDBRANCH   3   6
BRANCH   5   8
HETATM    8  C   UNL     1     -10.994  12.027  66.969  1.00  0.00    -0.323 A  
HETATM    9  C   UNL     1     -11.458  11.885  65.659  1.00  0.00    -0.314 A  
HETATM   10  C   UNL     1     -11.351  12.938  64.747  1.00  0.00    -0.349 A  
HETATM   11  C   UNL     1     -12.045  12.862  63.419  1.00  0.00    -0.610 C  
HETATM   12  C   UNL     1     -10.620  14.074  65.104  1.00  0.00    -0.400 A  
HETATM   13  C   UNL     1     -10.039  14.172  66.372  1.00  0.00    -0.299 A  
HETATM   14  C   UNL     1     -10.241  13.156  67.312  1.00  0.00    -0.243 A  
ENDBRANCH   5   8
ENDBRANCH   2   3
TORSDOF 3
ENDMDL
MODEL       56
REMARK 921   NORMALIZED FREE ENERGY PREDICTED BY IDOCK:   -4.10 KCAL/MOL
REMARK 922        TOTAL FREE ENERGY PREDICTED BY IDOCK:   -5.00 KCAL/MOL
REMARK 923 INTER-LIGAND FREE ENERGY PREDICTED BY IDOCK:   -4.68 KCAL/MOL
REMARK 924 INTRA-LIGAND FREE ENERGY PREDICTED BY IDOCK:   -0.32 KCAL/MOL
REMARK 927      BINDING AFFINITY PREDICTED BY RF-SCORE:    0.00 PKD
ROOT
HETATM    1  C   UNL     1      -9.697   4.545  71.870  1.00  0.00    -0.229 C  
HETATM    2  C   UNL     1      -9.320   5.538  70.780  1.00  0.00    -0.163 C  
ENDROOT
BRANCH   2   3
HETATM    3  N   UNL     1      -9.779   6.899  71.069  1.00  0.00    -0.174 N  
HETATM    4  O   UNL     1     -11.683   6.524  69.805  1.00  0.00    -0.382 OA 
HETATM    5  C   UNL     1     -11.056   7.244  70.580  1.00  0.00    -0.264 C  
BRANCH   3   6
HETATM    6  C   UNL     1      -8.977   7.730  71.978  1.00  0.00    -0.134 C  
HETATM    7  C   UNL     1      -9.367   7.745  73.446  1.00  0.00    -0.346 C  
ENDBRANCH   3   6
BRANCH   5   8
HETATM    8  C   UNL     1     -11.702   8.533  70.974  1.00  0.00    -0.310 A  
HETATM    9  C   UNL     1     -11.347   9.754  70.396  1.00  0.00    -0.362 A  
HETATM   10  C   UNL     1     -12.094  10.908  70.651  1.00  0.00    -0.468 A  
HETATM   11  C   UNL     1     -11.847  12.158  69.860  1.00  0.00    -0.392 C  
HETATM   12  C   UNL     1     -13.094  10.867  71.625  1.00  0.00    -0.538 A  
HETATM   13  C   UNL     1     -13.372   9.677  72.306  1.00  0.00    -0.498 A  
HETATM   14  C   UNL     1     -12.688   8.505  71.968  1.00  0.00    -0.421 A  
ENDBRANCH   5   8
ENDBRANCH   2   3
TORSDOF 3
ENDMDL
MODEL       57
REMARK 921   NORMALIZED FREE ENERGY PREDICTED BY IDOCK:   -4.09 KCAL/MOL
REMARK 922        TOTAL FREE ENERGY PREDICTED BY IDOCK:   -4.99 KCAL/MOL
REMARK 923 INTER-LIGAND FREE ENERGY PREDICTED BY IDOCK:   -4.76 KCAL/MOL
REMARK 924 INTRA-LIGAND FREE ENERGY PREDICTED BY IDOCK:   -0.23 KCAL/MOL
REMARK 927      BINDING AFFINITY PREDICTED BY RF-SCORE:    0.00 PKD
ROOT
HETATM    1  C   UNL     1      -7.051  19.209  65.836  1.00  0.00    -0.301 C  
HETATM    2  C   UNL     1      -7.795  18.757  67.084  1.00  0.00    -0.237 C  
ENDROOT
BRANCH   2   3
HETATM    3  N   UNL     1      -8.959  17.922  66.779  1.00  0.00    -0.254 N  
HETATM    4  O   UNL     1      -7.563  16.110  66.417  1.00  0.00    -0.205 OA 
HETATM    5  C   UNL     1      -8.703  16.556  66.542  1.00  0.00    -0.282 C  
BRANCH   3   6
HETATM    6  C   UNL     1     -10.298  18.512  66.914  1.00  0.00    -0.397 C  
HETATM    7  C   UNL     1     -10.736  19.511  65.856  1.00  0.00    -0.518 C  
ENDBRANCH   3   6
BRANCH   5   8
HETATM    8  C   UNL     1      -9.827  15.580  66.409  1.00  0.00    -0.298 A  
HETATM    9  C   UNL     1     -10.259  14.788  67.476  1.00  0.00    -0.233 A  
HETATM   10  C   UNL     1     -11.425  14.025  67.371  1.00  0.00    -0.373 A  
HETATM   11  C   UNL     1     -12.002  13.355  68.583  1.00  0.00    -0.362 C  
HETATM   12  C   UNL     1     -12.061  13.925  66.131  1.00  0.00    -0.478 A  
HETATM   13  C   UNL     1     -11.562  14.613  65.021  1.00  0.00    -0.385 A  
HETATM   14  C   UNL     1     -10.454  15.455  65.164  1.00  0.00    -0.439 A  
ENDBRANCH   5   8
ENDBRANCH   2   3
TORSDOF 3
ENDMDL
MODEL       58
REMARK 921   NORMALIZED FREE ENERGY PREDICTED BY IDOCK:   -4.07 KCAL/MOL
REMARK 922        TOTAL FREE ENERGY PREDICTED BY IDOCK:   -4.97 KCAL/MOL
REMARK 923 INTER-LIGAND FREE ENERGY PREDICTED BY IDOCK:   -4.78 KCAL/MOL
REMARK 924 INTRA-LIGAND FREE ENERGY PREDICTED BY IDOCK:   -0.19 KCAL/MOL
REMARK 927      BINDING AFFINITY PREDICTED BY RF-SCORE:    0.00 PKD
ROOT
HETATM    1  C   UNL     1     -11.664  10.040  70.448  1.00  0.00    -0.365 C  
HETATM    2  C   UNL     1     -12.005  11.516  70.299  1.00  0.00    -0.368 C  
ENDROOT
BRANCH   2   3
HETATM    3  N   UNL     1     -11.782  12.016  68.941  1.00  0.00    -0.308 N  
HETATM    4  O   UNL     1     -12.504  14.117  69.597  1.00  0.00    -0.310 OA 
HETATM    5  C   UNL     1     -11.992  13.396  68.741  1.00  0.00    -0.324 C  
BRANCH   3   6
HETATM    6  C   UNL     1     -11.198  11.105  67.947  1.00  0.00    -0.302 C  
HETATM    7  C   UNL     1      -9.712  11.240  67.657  1.00  0.00    -0.183 C  
ENDBRANCH   3   6
BRANCH   5   8
HETATM    8  C   UNL     1     -11.615  14.047  67.450  1.00  0.00    -0.397 A  
HETATM    9  C   UNL     1     -10.524  14.912  67.340  1.00  0.00    -0.255 A  
HETATM   10  C   UNL     1     -10.089  15.356  66.088  1.00  0.00    -0.325 A  
HETATM   11  C   UNL     1      -8.793  16.100  65.958  1.00  0.00    -0.313 C  
HETATM   12  C   UNL     1     -10.860  15.066  64.960  1.00  0.00    -0.439 A  
HETATM   13  C   UNL     1     -12.028  14.307  65.076  1.00  0.00    -0.412 A  
HETATM   14  C   UNL     1     -12.397  13.782  66.319  1.00  0.00    -0.479 A  
ENDBRANCH   5   8
ENDBRANCH   2   3
TORSDOF 3
ENDMDL
MODEL       59
REMARK 921   NORMALIZED FREE ENERGY PREDICTED BY IDOCK:   -4.07 KCAL/MOL
REMARK 922        TOTAL FREE ENERGY PREDICTED BY IDOCK:   -4.97 KCAL/MOL
REMARK 923 INTER-LIGAND FREE ENERGY PREDICTED BY IDOCK:   -4.60 KCAL/MOL
REMARK 924 INTRA-LIGAND FREE ENERGY PREDICTED BY IDOCK:   -0.37 KCAL/MOL
REMARK 927      BINDING AFFINITY PREDICTED BY RF-SCORE:    0.00 PKD
ROOT
HETATM    1  C   UNL     1      -6.734  19.852  67.588  1.00  0.00    -0.274 C  
HETATM    2  C   UNL     1      -7.833  19.523  68.588  1.00  0.00    -0.348 C  
ENDROOT
BRANCH   2   3
HETATM    3  N   UNL     1      -8.895  18.694  68.012  1.00  0.00    -0.298 N  
HETATM    4  O   UNL     1      -7.742  16.785  68.638  1.00  0.00    -0.208 OA 
HETATM    5  C   UNL     1      -8.764  17.301  68.189  1.00  0.00    -0.243 C  
BRANCH   3   6
HETATM    6  C   UNL     1     -10.082  19.361  67.459  1.00  0.00    -0.398 C  
HETATM    7  C   UNL     1     -10.177  19.491  65.948  1.00  0.00    -0.508 C  
ENDBRANCH   3   6
BRANCH   5   8
HETATM    8  C   UNL     1      -9.876  16.376  67.811  1.00  0.00    -0.239 A  
HETATM    9  C   UNL     1     -10.037  15.894  66.510  1.00  0.00    -0.293 A  
HETATM   10  C   UNL     1     -10.970  14.892  66.231  1.00  0.00    -0.338 A  
HETATM   11  C   UNL     1     -10.984  14.225  64.887  1.00  0.00    -0.413 C  
HETATM   12  C   UNL     1     -11.861  14.497  67.231  1.00  0.00    -0.419 A  
HETATM   13  C   UNL     1     -11.793  15.067  68.506  1.00  0.00    -0.319 A  
HETATM   14  C   UNL     1     -10.789  15.995  68.802  1.00  0.00    -0.302 A  
ENDBRANCH   5   8
ENDBRANCH   2   3
TORSDOF 3
ENDMDL
MODEL       60
REMARK 921   NORMALIZED FREE ENERGY PREDICTED BY IDOCK:   -4.06 KCAL/MOL
REMARK 922        TOTAL FREE ENERGY PREDICTED BY IDOCK:   -4.96 KCAL/MOL
REMARK 923 INTER-LIGAND FREE ENERGY PREDICTED BY IDOCK:   -4.59 KCAL/MOL
REMARK 924 INTRA-LIGAND FREE ENERGY PREDICTED BY IDOCK:   -0.37 KCAL/MOL
REMARK 927      BINDING AFFINITY PREDICTED BY RF-SCORE:    0.00 PKD
ROOT
HETATM    1  C   UNL     1     -11.919  13.121  66.655  1.00  0.00    -0.451 C  
HETATM    2  C   UNL     1     -10.998  13.385  67.838  1.00  0.00    -0.256 C  
ENDROOT
BRANCH   2   3
HETATM    3  N   UNL     1     -10.776  14.812  68.077  1.00  0.00    -0.244 N  
HETATM    4  O   UNL     1      -8.909  14.749  66.707  1.00  0.00    -0.246 OA 
HETATM    5  C   UNL     1      -9.718  15.408  67.359  1.00  0.00    -0.215 C  
BRANCH   3   6
HETATM    6  C   UNL     1     -11.756  15.548  68.889  1.00  0.00    -0.370 C  
HETATM    7  C   UNL     1     -11.384  15.858  70.329  1.00  0.00    -0.381 C  
ENDBRANCH   3   6
BRANCH   5   8
HETATM    8  C   UNL     1      -9.520  16.889  67.379  1.00  0.00    -0.238 A  
HETATM    9  C   UNL     1     -10.058  17.728  66.400  1.00  0.00    -0.357 A  
HETATM   10  C   UNL     1     -10.011  19.117  66.548  1.00  0.00    -0.448 A  
HETATM   11  C   UNL     1     -10.780  20.003  65.613  1.00  0.00    -0.321 C  
HETATM   12  C   UNL     1      -9.270  19.664  67.598  1.00  0.00    -0.416 A  
HETATM   13  C   UNL     1      -8.618  18.831  68.513  1.00  0.00    -0.378 A  
HETATM   14  C   UNL     1      -8.757  17.443  68.415  1.00  0.00    -0.271 A  
ENDBRANCH   5   8
ENDBRANCH   2   3
TORSDOF 3
ENDMDL
MODEL       61
REMARK 921   NORMALIZED FREE ENERGY PREDICTED BY IDOCK:   -4.06 KCAL/MOL
REMARK 922        TOTAL FREE ENERGY PREDICTED BY IDOCK:   -4.95 KCAL/MOL
REMARK 923 INTER-LIGAND FREE ENERGY PREDICTED BY IDOCK:   -4.54 KCAL/MOL
REMARK 924 INTRA-LIGAND FREE ENERGY PREDICTED BY IDOCK:   -0.41 KCAL/MOL
REMARK 927      BINDING AFFINITY PREDICTED BY RF-SCORE:    0.00 PKD
ROOT
HETATM    1  C   UNL     1      -6.895  20.011  65.090  1.00  0.00    -0.294 C  
HETATM    2  C   UNL     1      -7.513  20.062  66.480  1.00  0.00    -0.276 C  
ENDROOT
BRANCH   2   3
HETATM    3  N   UNL     1      -8.148  18.800  66.865  1.00  0.00    -0.251 N  
HETATM    4  O   UNL     1     -10.200  19.622  66.174  1.00  0.00    -0.436 OA 
HETATM    5  C   UNL     1      -9.521  18.675  66.567  1.00  0.00    -0.322 C  
BRANCH   3   6
HETATM    6  C   UNL     1      -7.296  17.709  67.359  1.00  0.00    -0.185 C  
HETATM    7  C   UNL     1      -7.041  17.638  68.855  1.00  0.00    -0.254 C  
ENDBRANCH   3   6
BRANCH   5   8
HETATM    8  C   UNL     1     -10.225  17.369  66.741  1.00  0.00    -0.318 A  
HETATM    9  C   UNL     1     -10.392  16.464  65.690  1.00  0.00    -0.371 A  
HETATM   10  C   UNL     1     -10.887  15.178  65.928  1.00  0.00    -0.342 A  
HETATM   11  C   UNL     1     -10.856  14.143  64.842  1.00  0.00    -0.423 C  
HETATM   12  C   UNL     1     -11.377  14.864  67.197  1.00  0.00    -0.348 A  
HETATM   13  C   UNL     1     -11.334  15.808  68.227  1.00  0.00    -0.354 A  
HETATM   14  C   UNL     1     -10.741  17.056  68.005  1.00  0.00    -0.365 A  
ENDBRANCH   5   8
ENDBRANCH   2   3
TORSDOF 3
ENDMDL
MODEL       62
REMARK 921   NORMALIZED FREE ENERGY PREDICTED BY IDOCK:   -4.04 KCAL/MOL
REMARK 922        TOTAL FREE ENERGY PREDICTED BY IDOCK:   -4.94 KCAL/MOL
REMARK 923 INTER-LIGAND FREE ENERGY PREDICTED BY IDOCK:   -5.37 KCAL/MOL
REMARK 924 INTRA-LIGAND FREE ENERGY PREDICTED BY IDOCK:    0.43 KCAL/MOL
REMARK 927      BINDING AFFINITY PREDICTED BY RF-SCORE:    0.00 PKD
ROOT
HETATM    1  C   UNL     1     -10.919   9.111  71.630  1.00  0.00    -0.445 C  
HETATM    2  C   UNL     1     -11.915   9.600  70.588  1.00  0.00    -0.229 C  
ENDROOT
BRANCH   2   3
HETATM    3  N   UNL     1     -11.908  11.057  70.438  1.00  0.00    -0.344 N  
HETATM    4  O   UNL     1     -13.477  11.238  72.132  1.00  0.00    -0.390 OA 
HETATM    5  C   UNL     1     -12.690  11.784  71.359  1.00  0.00    -0.308 C  
BRANCH   3   6
HETATM    6  C   UNL     1     -10.971  11.658  69.478  1.00  0.00    -0.098 C  
HETATM    7  C   UNL     1     -11.157  11.319  68.008  1.00  0.00    -0.325 C  
ENDBRANCH   3   6
BRANCH   5   8
HETATM    8  C   UNL     1     -12.610  13.275  71.420  1.00  0.00    -0.365 A  
HETATM    9  C   UNL     1     -12.754  13.982  72.616  1.00  0.00    -0.324 A  
HETATM   10  C   UNL     1     -12.491  15.354  72.669  1.00  0.00    -0.480 A  
HETATM   11  C   UNL     1     -12.430  16.062  73.990  1.00  0.00    -0.742 C  
HETATM   12  C   UNL     1     -12.252  16.046  71.479  1.00  0.00    -0.478 A  
HETATM   13  C   UNL     1     -12.234  15.367  70.257  1.00  0.00    -0.414 A  
HETATM   14  C   UNL     1     -12.396  13.978  70.228  1.00  0.00    -0.425 A  
ENDBRANCH   5   8
ENDBRANCH   2   3
TORSDOF 3
ENDMDL
MODEL       63
REMARK 921   NORMALIZED FREE ENERGY PREDICTED BY IDOCK:   -4.03 KCAL/MOL
REMARK 922        TOTAL FREE ENERGY PREDICTED BY IDOCK:   -4.92 KCAL/MOL
REMARK 923 INTER-LIGAND FREE ENERGY PREDICTED BY IDOCK:   -4.83 KCAL/MOL
REMARK 924 INTRA-LIGAND FREE ENERGY PREDICTED BY IDOCK:   -0.10 KCAL/MOL
REMARK 927      BINDING AFFINITY PREDICTED BY RF-SCORE:    0.00 PKD
ROOT
HETATM    1  C   UNL     1     -11.605   8.020  70.964  1.00  0.00    -0.303 C  
HETATM    2  C   UNL     1     -10.931   9.341  71.308  1.00  0.00    -0.351 C  
ENDROOT
BRANCH   2   3
HETATM    3  N   UNL     1     -10.866  10.258  70.168  1.00  0.00    -0.298 N  
HETATM    4  O   UNL     1     -12.706  11.403  70.987  1.00  0.00    -0.374 OA 
HETATM    5  C   UNL     1     -11.784  11.329  70.176  1.00  0.00    -0.343 C  
BRANCH   3   6
HETATM    6  C   UNL     1      -9.762  10.107  69.210  1.00  0.00    -0.224 C  
HETATM    7  C   UNL     1      -9.966   9.152  68.046  1.00  0.00    -0.213 C  
ENDBRANCH   3   6
BRANCH   5   8
HETATM    8  C   UNL     1     -11.684  12.427  69.167  1.00  0.00    -0.376 A  
HETATM    9  C   UNL     1     -11.822  12.197  67.796  1.00  0.00    -0.327 A  
HETATM   10  C   UNL     1     -11.909  13.265  66.899  1.00  0.00    -0.446 A  
HETATM   11  C   UNL     1     -12.278  13.021  65.465  1.00  0.00    -0.521 C  
HETATM   12  C   UNL     1     -11.681  14.562  67.365  1.00  0.00    -0.425 A  
HETATM   13  C   UNL     1     -11.413  14.793  68.717  1.00  0.00    -0.324 A  
HETATM   14  C   UNL     1     -11.432  13.727  69.623  1.00  0.00    -0.300 A  
ENDBRANCH   5   8
ENDBRANCH   2   3
TORSDOF 3
ENDMDL
MODEL       64
REMARK 921   NORMALIZED FREE ENERGY PREDICTED BY IDOCK:   -4.03 KCAL/MOL
REMARK 922        TOTAL FREE ENERGY PREDICTED BY IDOCK:   -4.92 KCAL/MOL
REMARK 923 INTER-LIGAND FREE ENERGY PREDICTED BY IDOCK:   -4.84 KCAL/MOL
REMARK 924 INTRA-LIGAND FREE ENERGY PREDICTED BY IDOCK:   -0.08 KCAL/MOL
REMARK 927      BINDING AFFINITY PREDICTED BY RF-SCORE:    0.00 PKD
ROOT
HETATM    1  C   UNL     1     -11.128  13.209  68.274  1.00  0.00    -0.295 C  
HETATM    2  C   UNL     1     -12.024  14.124  67.451  1.00  0.00    -0.404 C  
ENDROOT
BRANCH   2   3
HETATM    3  N   UNL     1     -11.303  15.270  66.892  1.00  0.00    -0.267 N  
HETATM    4  O   UNL     1     -11.495  16.376  68.918  1.00  0.00    -0.311 OA 
HETATM    5  C   UNL     1     -11.020  16.324  67.785  1.00  0.00    -0.281 C  
BRANCH   3   6
HETATM    6  C   UNL     1     -10.782  15.169  65.522  1.00  0.00    -0.365 C  
HETATM    7  C   UNL     1     -11.265  14.007  64.669  1.00  0.00    -0.377 C  
ENDBRANCH   3   6
BRANCH   5   8
HETATM    8  C   UNL     1     -10.130  17.453  67.375  1.00  0.00    -0.321 A  
HETATM    9  C   UNL     1      -8.764  17.281  67.139  1.00  0.00    -0.231 A  
HETATM   10  C   UNL     1      -8.001  18.310  66.581  1.00  0.00    -0.273 A  
HETATM   11  C   UNL     1      -6.596  18.049  66.126  1.00  0.00    -0.293 C  
HETATM   12  C   UNL     1      -8.578  19.573  66.422  1.00  0.00    -0.384 A  
HETATM   13  C   UNL     1      -9.913  19.791  66.776  1.00  0.00    -0.545 A  
HETATM   14  C   UNL     1     -10.695  18.727  67.236  1.00  0.00    -0.490 A  
ENDBRANCH   5   8
ENDBRANCH   2   3
TORSDOF 3
ENDMDL
MODEL       65
REMARK 921   NORMALIZED FREE ENERGY PREDICTED BY IDOCK:   -4.03 KCAL/MOL
REMARK 922        TOTAL FREE ENERGY PREDICTED BY IDOCK:   -4.92 KCAL/MOL
REMARK 923 INTER-LIGAND FREE ENERGY PREDICTED BY IDOCK:   -4.77 KCAL/MOL
REMARK 924 INTRA-LIGAND FREE ENERGY PREDICTED BY IDOCK:   -0.15 KCAL/MOL
REMARK 927      BINDING AFFINITY PREDICTED BY RF-SCORE:    0.00 PKD
ROOT
HETATM    1  C   UNL     1     -11.630  12.323  67.512  1.00  0.00    -0.422 C  
HETATM    2  C   UNL     1     -12.405  13.444  66.834  1.00  0.00    -0.207 C  
ENDROOT
BRANCH   2   3
HETATM    3  N   UNL     1     -11.535  14.502  66.315  1.00  0.00    -0.353 N  
HETATM    4  O   UNL     1     -11.642  15.590  68.357  1.00  0.00    -0.355 OA 
HETATM    5  C   UNL     1     -11.147  15.498  67.234  1.00  0.00    -0.271 C  
BRANCH   3   6
HETATM    6  C   UNL     1     -10.995  14.360  64.955  1.00  0.00    -0.389 C  
HETATM    7  C   UNL     1     -11.861  13.655  63.925  1.00  0.00    -0.419 C  
ENDBRANCH   3   6
BRANCH   5   8
HETATM    8  C   UNL     1     -10.115  16.515  66.868  1.00  0.00    -0.281 A  
HETATM    9  C   UNL     1     -10.435  17.856  66.643  1.00  0.00    -0.318 A  
HETATM   10  C   UNL     1      -9.428  18.813  66.485  1.00  0.00    -0.353 A  
HETATM   11  C   UNL     1      -9.768  20.274  66.468  1.00  0.00    -0.519 C  
HETATM   12  C   UNL     1      -8.100  18.389  66.380  1.00  0.00    -0.285 A  
HETATM   13  C   UNL     1      -7.780  17.032  66.475  1.00  0.00    -0.327 A  
HETATM   14  C   UNL     1      -8.786  16.095  66.736  1.00  0.00    -0.273 A  
ENDBRANCH   5   8
ENDBRANCH   2   3
TORSDOF 3
ENDMDL
MODEL       66
REMARK 921   NORMALIZED FREE ENERGY PREDICTED BY IDOCK:   -4.03 KCAL/MOL
REMARK 922        TOTAL FREE ENERGY PREDICTED BY IDOCK:   -4.91 KCAL/MOL
REMARK 923 INTER-LIGAND FREE ENERGY PREDICTED BY IDOCK:   -5.04 KCAL/MOL
REMARK 924 INTRA-LIGAND FREE ENERGY PREDICTED BY IDOCK:    0.13 KCAL/MOL
REMARK 927      BINDING AFFINITY PREDICTED BY RF-SCORE:    0.00 PKD
ROOT
HETATM    1  C   UNL     1     -10.794  15.160  67.129  1.00  0.00    -0.320 C  
HETATM    2  C   UNL     1     -12.030  14.295  67.327  1.00  0.00    -0.405 C  
ENDROOT
BRANCH   2   3
HETATM    3  N   UNL     1     -11.718  12.983  67.900  1.00  0.00    -0.344 N  
HETATM    4  O   UNL     1     -11.899  13.873  70.031  1.00  0.00    -0.291 OA 
HETATM    5  C   UNL     1     -11.774  12.887  69.306  1.00  0.00    -0.321 C  
BRANCH   3   6
HETATM    6  C   UNL     1     -11.548  11.843  66.988  1.00  0.00    -0.291 C  
HETATM    7  C   UNL     1     -11.505  12.136  65.498  1.00  0.00    -0.394 C  
ENDBRANCH   3   6
BRANCH   5   8
HETATM    8  C   UNL     1     -11.661  11.561  69.985  1.00  0.00    -0.414 A  
HETATM    9  C   UNL     1     -12.657  11.068  70.832  1.00  0.00    -0.488 A  
HETATM   10  C   UNL     1     -12.606   9.752  71.303  1.00  0.00    -0.460 A  
HETATM   11  C   UNL     1     -13.781   9.161  72.024  1.00  0.00    -0.508 C  
HETATM   12  C   UNL     1     -11.462   8.989  71.060  1.00  0.00    -0.358 A  
HETATM   13  C   UNL     1     -10.400   9.519  70.320  1.00  0.00    -0.321 A  
HETATM   14  C   UNL     1     -10.507  10.799  69.768  1.00  0.00    -0.130 A  
ENDBRANCH   5   8
ENDBRANCH   2   3
TORSDOF 3
ENDMDL
MODEL       67
REMARK 921   NORMALIZED FREE ENERGY PREDICTED BY IDOCK:   -4.01 KCAL/MOL
REMARK 922        TOTAL FREE ENERGY PREDICTED BY IDOCK:   -4.90 KCAL/MOL
REMARK 923 INTER-LIGAND FREE ENERGY PREDICTED BY IDOCK:   -4.64 KCAL/MOL
REMARK 924 INTRA-LIGAND FREE ENERGY PREDICTED BY IDOCK:   -0.26 KCAL/MOL
REMARK 927      BINDING AFFINITY PREDICTED BY RF-SCORE:    0.00 PKD
ROOT
HETATM    1  C   UNL     1      -9.307   9.502  70.541  1.00  0.00    -0.296 C  
HETATM    2  C   UNL     1      -8.820  10.332  69.362  1.00  0.00    -0.163 C  
ENDROOT
BRANCH   2   3
HETATM    3  N   UNL     1      -9.897  11.083  68.714  1.00  0.00    -0.197 N  
HETATM    4  O   UNL     1      -8.331  12.257  67.475  1.00  0.00    -0.150 OA 
HETATM    5  C   UNL     1      -9.509  11.978  67.695  1.00  0.00    -0.185 C  
BRANCH   3   6
HETATM    6  C   UNL     1     -11.288  10.732  69.035  1.00  0.00    -0.284 C  
HETATM    7  C   UNL     1     -11.999  11.569  70.085  1.00  0.00    -0.452 C  
ENDBRANCH   3   6
BRANCH   5   8
HETATM    8  C   UNL     1     -10.532  12.653  66.841  1.00  0.00    -0.246 A  
HETATM    9  C   UNL     1     -10.907  12.157  65.590  1.00  0.00    -0.323 A  
HETATM   10  C   UNL     1     -11.993  12.704  64.902  1.00  0.00    -0.459 A  
HETATM   11  C   UNL     1     -12.527  12.029  63.673  1.00  0.00    -0.637 C  
HETATM   12  C   UNL     1     -12.594  13.865  65.395  1.00  0.00    -0.538 A  
HETATM   13  C   UNL     1     -12.142  14.447  66.583  1.00  0.00    -0.392 A  
HETATM   14  C   UNL     1     -11.122  13.831  67.316  1.00  0.00    -0.319 A  
ENDBRANCH   5   8
ENDBRANCH   2   3
TORSDOF 3
ENDMDL
MODEL       68
REMARK 921   NORMALIZED FREE ENERGY PREDICTED BY IDOCK:   -4.01 KCAL/MOL
REMARK 922        TOTAL FREE ENERGY PREDICTED BY IDOCK:   -4.89 KCAL/MOL
REMARK 923 INTER-LIGAND FREE ENERGY PREDICTED BY IDOCK:   -4.51 KCAL/MOL
REMARK 924 INTRA-LIGAND FREE ENERGY PREDICTED BY IDOCK:   -0.38 KCAL/MOL
REMARK 927      BINDING AFFINITY PREDICTED BY RF-SCORE:    0.00 PKD
ROOT
HETATM    1  C   UNL     1      -8.263   4.898  70.261  1.00  0.00    -0.081 C  
HETATM    2  C   UNL     1      -9.709   4.639  70.662  1.00  0.00    -0.207 C  
ENDROOT
BRANCH   2   3
HETATM    3  N   UNL     1     -10.356   5.818  71.241  1.00  0.00    -0.215 N  
HETATM    4  O   UNL     1     -11.282   6.321  69.178  1.00  0.00    -0.376 OA 
HETATM    5  C   UNL     1     -11.212   6.543  70.386  1.00  0.00    -0.355 C  
BRANCH   3   6
HETATM    6  C   UNL     1     -10.215   6.056  72.684  1.00  0.00    -0.183 C  
HETATM    7  C   UNL     1     -10.849   5.047  73.628  1.00  0.00    -0.369 C  
ENDBRANCH   3   6
BRANCH   5   8
HETATM    8  C   UNL     1     -12.067   7.647  70.919  1.00  0.00    -0.226 A  
HETATM    9  C   UNL     1     -11.674   8.986  70.872  1.00  0.00    -0.327 A  
HETATM   10  C   UNL     1     -12.570  10.005  71.208  1.00  0.00    -0.495 A  
HETATM   11  C   UNL     1     -12.218  11.439  70.945  1.00  0.00    -0.447 C  
HETATM   12  C   UNL     1     -13.809   9.665  71.757  1.00  0.00    -0.261 A  
HETATM   13  C   UNL     1     -14.163   8.324  71.929  1.00  0.00    -0.535 A  
HETATM   14  C   UNL     1     -13.300   7.313  71.494  1.00  0.00    -0.435 A  
ENDBRANCH   5   8
ENDBRANCH   2   3
TORSDOF 3
ENDMDL
MODEL       69
REMARK 921   NORMALIZED FREE ENERGY PREDICTED BY IDOCK:   -4.01 KCAL/MOL
REMARK 922        TOTAL FREE ENERGY PREDICTED BY IDOCK:   -4.89 KCAL/MOL
REMARK 923 INTER-LIGAND FREE ENERGY PREDICTED BY IDOCK:   -5.29 KCAL/MOL
REMARK 924 INTRA-LIGAND FREE ENERGY PREDICTED BY IDOCK:    0.39 KCAL/MOL
REMARK 927      BINDING AFFINITY PREDICTED BY RF-SCORE:    0.00 PKD
ROOT
HETATM    1  C   UNL     1      -9.500  11.984  65.894  1.00  0.00    -0.207 C  
HETATM    2  C   UNL     1     -10.806  11.303  66.280  1.00  0.00    -0.238 C  
ENDROOT
BRANCH   2   3
HETATM    3  N   UNL     1     -11.497  11.982  67.378  1.00  0.00    -0.328 N  
HETATM    4  O   UNL     1     -11.256  10.093  68.696  1.00  0.00    -0.230 OA 
HETATM    5  C   UNL     1     -11.579  11.275  68.595  1.00  0.00    -0.318 C  
BRANCH   3   6
HETATM    6  C   UNL     1     -11.891  13.386  67.195  1.00  0.00    -0.382 C  
HETATM    7  C   UNL     1     -12.614  13.753  65.911  1.00  0.00    -0.494 C  
ENDBRANCH   3   6
BRANCH   5   8
HETATM    8  C   UNL     1     -12.092  11.941  69.831  1.00  0.00    -0.344 A  
HETATM    9  C   UNL     1     -11.967  13.316  70.046  1.00  0.00    -0.399 A  
HETATM   10  C   UNL     1     -12.617  13.932  71.119  1.00  0.00    -0.446 A  
HETATM   11  C   UNL     1     -12.664  15.428  71.218  1.00  0.00    -0.501 C  
HETATM   12  C   UNL     1     -13.252  13.135  72.076  1.00  0.00    -0.543 A  
HETATM   13  C   UNL     1     -13.271  11.744  71.939  1.00  0.00    -0.468 A  
HETATM   14  C   UNL     1     -12.707  11.147  70.807  1.00  0.00    -0.388 A  
ENDBRANCH   5   8
ENDBRANCH   2   3
TORSDOF 3
ENDMDL
MODEL       70
REMARK 921   NORMALIZED FREE ENERGY PREDICTED BY IDOCK:   -4.00 KCAL/MOL
REMARK 922        TOTAL FREE ENERGY PREDICTED BY IDOCK:   -4.89 KCAL/MOL
REMARK 923 INTER-LIGAND FREE ENERGY PREDICTED BY IDOCK:   -4.45 KCAL/MOL
REMARK 924 INTRA-LIGAND FREE ENERGY PREDICTED BY IDOCK:   -0.44 KCAL/MOL
REMARK 927      BINDING AFFINITY PREDICTED BY RF-SCORE:    0.00 PKD
ROOT
HETATM    1  C   UNL     1      -8.324   4.474  71.070  1.00  0.00    -0.098 C  
HETATM    2  C   UNL     1      -8.402   5.973  71.324  1.00  0.00    -0.124 C  
ENDROOT
BRANCH   2   3
HETATM    3  N   UNL     1      -9.732   6.525  71.055  1.00  0.00    -0.175 N  
HETATM    4  O   UNL     1     -10.262   6.338  73.302  1.00  0.00    -0.183 OA 
HETATM    5  C   UNL     1     -10.555   6.745  72.179  1.00  0.00    -0.211 C  
BRANCH   3   6
HETATM    6  C   UNL     1     -10.043   6.968  69.689  1.00  0.00    -0.186 C  
HETATM    7  C   UNL     1     -10.846   6.024  68.809  1.00  0.00    -0.391 C  
ENDBRANCH   3   6
BRANCH   5   8
HETATM    8  C   UNL     1     -11.852   7.476  72.044  1.00  0.00    -0.331 A  
HETATM    9  C   UNL     1     -11.946   8.862  72.184  1.00  0.00    -0.419 A  
HETATM   10  C   UNL     1     -13.132   9.532  71.871  1.00  0.00    -0.517 A  
HETATM   11  C   UNL     1     -13.161  11.031  71.809  1.00  0.00    -0.554 C  
HETATM   12  C   UNL     1     -14.277   8.786  71.582  1.00  0.00    -0.414 A  
HETATM   13  C   UNL     1     -14.226   7.389  71.565  1.00  0.00    -0.571 A  
HETATM   14  C   UNL     1     -13.009   6.733  71.779  1.00  0.00    -0.274 A  
ENDBRANCH   5   8
ENDBRANCH   2   3
TORSDOF 3
ENDMDL
MODEL       71
REMARK 921   NORMALIZED FREE ENERGY PREDICTED BY IDOCK:   -4.00 KCAL/MOL
REMARK 922        TOTAL FREE ENERGY PREDICTED BY IDOCK:   -4.88 KCAL/MOL
REMARK 923 INTER-LIGAND FREE ENERGY PREDICTED BY IDOCK:   -4.90 KCAL/MOL
REMARK 924 INTRA-LIGAND FREE ENERGY PREDICTED BY IDOCK:    0.02 KCAL/MOL
REMARK 927      BINDING AFFINITY PREDICTED BY RF-SCORE:    0.00 PKD
ROOT
HETATM    1  C   UNL     1     -11.952  16.099  72.552  1.00  0.00    -0.660 C  
HETATM    2  C   UNL     1     -12.660  15.653  71.281  1.00  0.00    -0.463 C  
ENDROOT
BRANCH   2   3
HETATM    3  N   UNL     1     -11.907  14.642  70.537  1.00  0.00    -0.288 N  
HETATM    4  O   UNL     1     -13.306  12.992  71.366  1.00  0.00    -0.254 OA 
HETATM    5  C   UNL     1     -12.404  13.323  70.597  1.00  0.00    -0.339 C  
BRANCH   3   6
HETATM    6  C   UNL     1     -10.818  15.087  69.656  1.00  0.00    -0.271 C  
HETATM    7  C   UNL     1     -11.151  16.121  68.594  1.00  0.00    -0.356 C  
ENDBRANCH   3   6
BRANCH   5   8
HETATM    8  C   UNL     1     -11.831  12.250  69.730  1.00  0.00    -0.388 A  
HETATM    9  C   UNL     1     -11.352  11.046  70.250  1.00  0.00    -0.291 A  
HETATM   10  C   UNL     1     -10.995   9.994  69.401  1.00  0.00    -0.280 A  
HETATM   11  C   UNL     1     -10.695   8.636  69.964  1.00  0.00    -0.233 C  
HETATM   12  C   UNL     1     -10.956  10.218  68.023  1.00  0.00    -0.345 A  
HETATM   13  C   UNL     1     -11.311  11.464  67.497  1.00  0.00    -0.362 A  
HETATM   14  C   UNL     1     -11.765  12.476  68.349  1.00  0.00    -0.375 A  
ENDBRANCH   5   8
ENDBRANCH   2   3
TORSDOF 3
ENDMDL
MODEL       72
REMARK 921   NORMALIZED FREE ENERGY PREDICTED BY IDOCK:   -3.99 KCAL/MOL
REMARK 922        TOTAL FREE ENERGY PREDICTED BY IDOCK:   -4.87 KCAL/MOL
REMARK 923 INTER-LIGAND FREE ENERGY PREDICTED BY IDOCK:   -4.72 KCAL/MOL
REMARK 924 INTRA-LIGAND FREE ENERGY PREDICTED BY IDOCK:   -0.15 KCAL/MOL
REMARK 927      BINDING AFFINITY PREDICTED BY RF-SCORE:    0.00 PKD
ROOT
HETATM    1  C   UNL     1      -9.763   9.994  64.652  1.00  0.00    -0.339 C  
HETATM    2  C   UNL     1      -9.880  11.496  64.436  1.00  0.00    -0.241 C  
ENDROOT
BRANCH   2   3
HETATM    3  N   UNL     1     -10.724  12.149  65.440  1.00  0.00    -0.274 N  
HETATM    4  O   UNL     1      -8.978  12.070  66.959  1.00  0.00    -0.184 OA 
HETATM    5  C   UNL     1     -10.104  12.468  66.665  1.00  0.00    -0.230 C  
BRANCH   3   6
HETATM    6  C   UNL     1     -12.074  12.578  65.047  1.00  0.00    -0.446 C  
HETATM    7  C   UNL     1     -12.563  12.183  63.663  1.00  0.00    -0.616 C  
ENDBRANCH   3   6
BRANCH   5   8
HETATM    8  C   UNL     1     -10.811  13.300  67.685  1.00  0.00    -0.273 A  
HETATM    9  C   UNL     1     -11.541  12.736  68.734  1.00  0.00    -0.353 A  
HETATM   10  C   UNL     1     -12.034  13.534  69.771  1.00  0.00    -0.405 A  
HETATM   11  C   UNL     1     -12.619  12.902  70.999  1.00  0.00    -0.376 C  
HETATM   12  C   UNL     1     -11.939  14.923  69.661  1.00  0.00    -0.360 A  
HETATM   13  C   UNL     1     -11.323  15.506  68.549  1.00  0.00    -0.356 A  
HETATM   14  C   UNL     1     -10.743  14.694  67.569  1.00  0.00    -0.268 A  
ENDBRANCH   5   8
ENDBRANCH   2   3
TORSDOF 3
ENDMDL
MODEL       73
REMARK 921   NORMALIZED FREE ENERGY PREDICTED BY IDOCK:   -3.99 KCAL/MOL
REMARK 922        TOTAL FREE ENERGY PREDICTED BY IDOCK:   -4.87 KCAL/MOL
REMARK 923 INTER-LIGAND FREE ENERGY PREDICTED BY IDOCK:   -4.79 KCAL/MOL
REMARK 924 INTRA-LIGAND FREE ENERGY PREDICTED BY IDOCK:   -0.08 KCAL/MOL
REMARK 927      BINDING AFFINITY PREDICTED BY RF-SCORE:    0.00 PKD
ROOT
HETATM    1  C   UNL     1     -10.598  15.403  65.277  1.00  0.00    -0.450 C  
HETATM    2  C   UNL     1     -11.850  14.764  65.860  1.00  0.00    -0.204 C  
ENDROOT
BRANCH   2   3
HETATM    3  N   UNL     1     -11.568  13.524  66.586  1.00  0.00    -0.346 N  
HETATM    4  O   UNL     1     -11.007  14.753  68.467  1.00  0.00    -0.242 OA 
HETATM    5  C   UNL     1     -11.231  13.661  67.949  1.00  0.00    -0.274 C  
BRANCH   3   6
HETATM    6  C   UNL     1     -11.824  12.244  65.911  1.00  0.00    -0.354 C  
HETATM    7  C   UNL     1     -10.869  11.830  64.804  1.00  0.00    -0.358 C  
ENDBRANCH   3   6
BRANCH   5   8
HETATM    8  C   UNL     1     -11.110  12.460  68.830  1.00  0.00    -0.307 A  
HETATM    9  C   UNL     1     -11.983  12.222  69.894  1.00  0.00    -0.377 A  
HETATM   10  C   UNL     1     -11.957  11.004  70.579  1.00  0.00    -0.474 A  
HETATM   11  C   UNL     1     -13.035  10.669  71.567  1.00  0.00    -0.566 C  
HETATM   12  C   UNL     1     -10.935  10.092  70.305  1.00  0.00    -0.380 A  
HETATM   13  C   UNL     1      -9.976  10.377  69.328  1.00  0.00    -0.246 A  
HETATM   14  C   UNL     1     -10.073  11.553  68.577  1.00  0.00    -0.211 A  
ENDBRANCH   5   8
ENDBRANCH   2   3
TORSDOF 3
ENDMDL
MODEL       74
REMARK 921   NORMALIZED FREE ENERGY PREDICTED BY IDOCK:   -3.97 KCAL/MOL
REMARK 922        TOTAL FREE ENERGY PREDICTED BY IDOCK:   -4.85 KCAL/MOL
REMARK 923 INTER-LIGAND FREE ENERGY PREDICTED BY IDOCK:   -4.46 KCAL/MOL
REMARK 924 INTRA-LIGAND FREE ENERGY PREDICTED BY IDOCK:   -0.39 KCAL/MOL
REMARK 927      BINDING AFFINITY PREDICTED BY RF-SCORE:    0.00 PKD
ROOT
HETATM    1  C   UNL     1      -7.291  19.520  69.142  1.00  0.00    -0.364 C  
HETATM    2  C   UNL     1      -8.352  19.453  68.052  1.00  0.00    -0.319 C  
ENDROOT
BRANCH   2   3
HETATM    3  N   UNL     1      -8.681  18.079  67.666  1.00  0.00    -0.245 N  
HETATM    4  O   UNL     1     -10.937  18.595  67.756  1.00  0.00    -0.333 OA 
HETATM    5  C   UNL     1     -10.047  17.799  67.460  1.00  0.00    -0.340 C  
BRANCH   3   6
HETATM    6  C   UNL     1      -7.580  17.157  67.352  1.00  0.00    -0.167 C  
HETATM    7  C   UNL     1      -6.742  17.455  66.120  1.00  0.00    -0.262 C  
ENDBRANCH   3   6
BRANCH   5   8
HETATM    8  C   UNL     1     -10.480  16.490  66.884  1.00  0.00    -0.282 A  
HETATM    9  C   UNL     1     -10.787  15.386  67.683  1.00  0.00    -0.304 A  
HETATM   10  C   UNL     1     -11.363  14.241  67.126  1.00  0.00    -0.352 A  
HETATM   11  C   UNL     1     -11.893  13.153  68.014  1.00  0.00    -0.398 C  
HETATM   12  C   UNL     1     -11.470  14.141  65.737  1.00  0.00    -0.327 A  
HETATM   13  C   UNL     1     -11.045  15.191  64.917  1.00  0.00    -0.425 A  
HETATM   14  C   UNL     1     -10.566  16.373  65.491  1.00  0.00    -0.346 A  
ENDBRANCH   5   8
ENDBRANCH   2   3
TORSDOF 3
ENDMDL
MODEL       75
REMARK 921   NORMALIZED FREE ENERGY PREDICTED BY IDOCK:   -3.97 KCAL/MOL
REMARK 922        TOTAL FREE ENERGY PREDICTED BY IDOCK:   -4.85 KCAL/MOL
REMARK 923 INTER-LIGAND FREE ENERGY PREDICTED BY IDOCK:   -4.47 KCAL/MOL
REMARK 924 INTRA-LIGAND FREE ENERGY PREDICTED BY IDOCK:   -0.38 KCAL/MOL
REMARK 927      BINDING AFFINITY PREDICTED BY RF-SCORE:    0.00 PKD
ROOT
HETATM    1  C   UNL     1      -7.593   8.179  67.961  1.00  0.00    -0.106 C  
HETATM    2  C   UNL     1      -8.185   7.103  68.861  1.00  0.00    -0.125 C  
ENDROOT
BRANCH   2   3
HETATM    3  N   UNL     1      -9.585   7.360  69.207  1.00  0.00    -0.154 N  
HETATM    4  O   UNL     1      -9.066   7.152  71.455  1.00  0.00    -0.143 OA 
HETATM    5  C   UNL     1      -9.882   7.448  70.583  1.00  0.00    -0.179 C  
BRANCH   3   6
HETATM    6  C   UNL     1     -10.526   7.678  68.125  1.00  0.00    -0.181 C  
HETATM    7  C   UNL     1     -10.961   6.542  67.214  1.00  0.00    -0.475 C  
ENDBRANCH   3   6
BRANCH   5   8
HETATM    8  C   UNL     1     -11.231   7.891  71.046  1.00  0.00    -0.288 A  
HETATM    9  C   UNL     1     -11.507   9.219  71.383  1.00  0.00    -0.439 A  
HETATM   10  C   UNL     1     -12.818   9.634  71.633  1.00  0.00    -0.499 A  
HETATM   11  C   UNL     1     -13.135  11.093  71.774  1.00  0.00    -0.536 C  
HETATM   12  C   UNL     1     -13.830   8.674  71.713  1.00  0.00    -0.472 A  
HETATM   13  C   UNL     1     -13.542   7.322  71.504  1.00  0.00    -0.442 A  
HETATM   14  C   UNL     1     -12.245   6.932  71.153  1.00  0.00    -0.428 A  
ENDBRANCH   5   8
ENDBRANCH   2   3
TORSDOF 3
ENDMDL
MODEL       76
REMARK 921   NORMALIZED FREE ENERGY PREDICTED BY IDOCK:   -3.96 KCAL/MOL
REMARK 922        TOTAL FREE ENERGY PREDICTED BY IDOCK:   -4.84 KCAL/MOL
REMARK 923 INTER-LIGAND FREE ENERGY PREDICTED BY IDOCK:   -4.47 KCAL/MOL
REMARK 924 INTRA-LIGAND FREE ENERGY PREDICTED BY IDOCK:   -0.37 KCAL/MOL
REMARK 927      BINDING AFFINITY PREDICTED BY RF-SCORE:    0.00 PKD
ROOT
HETATM    1  C   UNL     1     -10.127  18.928  68.592  1.00  0.00    -0.447 C  
HETATM    2  C   UNL     1      -9.101  17.904  68.130  1.00  0.00    -0.278 C  
ENDROOT
BRANCH   2   3
HETATM    3  N   UNL     1      -9.709  16.635  67.723  1.00  0.00    -0.237 N  
HETATM    4  O   UNL     1      -8.088  16.384  66.088  1.00  0.00    -0.314 OA 
HETATM    5  C   UNL     1      -9.031  15.911  66.720  1.00  0.00    -0.251 C  
BRANCH   3   6
HETATM    6  C   UNL     1     -10.854  16.129  68.492  1.00  0.00    -0.313 C  
HETATM    7  C   UNL     1     -10.572  15.516  69.854  1.00  0.00    -0.322 C  
ENDBRANCH   3   6
BRANCH   5   8
HETATM    8  C   UNL     1      -9.454  14.523  66.362  1.00  0.00    -0.316 A  
HETATM    9  C   UNL     1     -10.313  14.256  65.294  1.00  0.00    -0.417 A  
HETATM   10  C   UNL     1     -10.541  12.942  64.874  1.00  0.00    -0.342 A  
HETATM   11  C   UNL     1     -11.282  12.674  63.597  1.00  0.00    -0.525 C  
HETATM   12  C   UNL     1     -10.038  11.888  65.640  1.00  0.00    -0.274 A  
HETATM   13  C   UNL     1      -9.282  12.144  66.788  1.00  0.00    -0.207 A  
HETATM   14  C   UNL     1      -8.975  13.462  67.140  1.00  0.00    -0.227 A  
ENDBRANCH   5   8
ENDBRANCH   2   3
TORSDOF 3
ENDMDL
MODEL       77
REMARK 921   NORMALIZED FREE ENERGY PREDICTED BY IDOCK:   -3.96 KCAL/MOL
REMARK 922        TOTAL FREE ENERGY PREDICTED BY IDOCK:   -4.83 KCAL/MOL
REMARK 923 INTER-LIGAND FREE ENERGY PREDICTED BY IDOCK:   -4.52 KCAL/MOL
REMARK 924 INTRA-LIGAND FREE ENERGY PREDICTED BY IDOCK:   -0.31 KCAL/MOL
REMARK 927      BINDING AFFINITY PREDICTED BY RF-SCORE:    0.00 PKD
ROOT
HETATM    1  C   UNL     1      -7.540  17.000  66.401  1.00  0.00    -0.350 C  
HETATM    2  C   UNL     1      -8.735  16.075  66.215  1.00  0.00    -0.336 C  
ENDROOT
BRANCH   2   3
HETATM    3  N   UNL     1      -9.435  15.794  67.470  1.00  0.00    -0.217 N  
HETATM    4  O   UNL     1     -11.303  15.124  66.276  1.00  0.00    -0.317 OA 
HETATM    5  C   UNL     1     -10.719  15.222  67.354  1.00  0.00    -0.293 C  
BRANCH   3   6
HETATM    6  C   UNL     1      -8.701  15.956  68.733  1.00  0.00    -0.213 C  
HETATM    7  C   UNL     1      -7.865  14.782  69.216  1.00  0.00    -0.122 C  
ENDBRANCH   3   6
BRANCH   5   8
HETATM    8  C   UNL     1     -11.444  14.721  68.560  1.00  0.00    -0.330 A  
HETATM    9  C   UNL     1     -11.532  13.361  68.868  1.00  0.00    -0.347 A  
HETATM   10  C   UNL     1     -12.055  12.940  70.094  1.00  0.00    -0.373 A  
HETATM   11  C   UNL     1     -11.944  11.503  70.510  1.00  0.00    -0.439 C  
HETATM   12  C   UNL     1     -12.648  13.882  70.939  1.00  0.00    -0.431 A  
HETATM   13  C   UNL     1     -12.680  15.233  70.581  1.00  0.00    -0.470 A  
HETATM   14  C   UNL     1     -12.063  15.656  69.399  1.00  0.00    -0.287 A  
ENDBRANCH   5   8
ENDBRANCH   2   3
TORSDOF 3
ENDMDL
MODEL       78
REMARK 921   NORMALIZED FREE ENERGY PREDICTED BY IDOCK:   -3.91 KCAL/MOL
REMARK 922        TOTAL FREE ENERGY PREDICTED BY IDOCK:   -4.78 KCAL/MOL
REMARK 923 INTER-LIGAND FREE ENERGY PREDICTED BY IDOCK:   -4.48 KCAL/MOL
REMARK 924 INTRA-LIGAND FREE ENERGY PREDICTED BY IDOCK:   -0.30 KCAL/MOL
REMARK 927      BINDING AFFINITY PREDICTED BY RF-SCORE:    0.00 PKD
ROOT
HETATM    1  C   UNL     1     -10.768  16.380  64.918  1.00  0.00    -0.213 C  
HETATM    2  C   UNL     1     -10.224  16.143  66.320  1.00  0.00    -0.320 C  
ENDROOT
BRANCH   2   3
HETATM    3  N   UNL     1      -9.624  17.344  66.906  1.00  0.00    -0.267 N  
HETATM    4  O   UNL     1      -7.525  16.613  66.254  1.00  0.00    -0.268 OA 
HETATM    5  C   UNL     1      -8.236  17.503  66.719  1.00  0.00    -0.244 C  
BRANCH   3   6
HETATM    6  C   UNL     1     -10.515  18.363  67.478  1.00  0.00    -0.419 C  
HETATM    7  C   UNL     1     -10.890  19.544  66.597  1.00  0.00    -0.476 C  
ENDBRANCH   3   6
BRANCH   5   8
HETATM    8  C   UNL     1      -7.554  18.775  67.107  1.00  0.00    -0.239 A  
HETATM    9  C   UNL     1      -7.128  19.026  68.414  1.00  0.00    -0.304 A  
HETATM   10  C   UNL     1      -6.333  20.139  68.703  1.00  0.00    -0.335 A  
HETATM   11  C   UNL     1      -5.697  20.283  70.054  1.00  0.00    -0.368 C  
HETATM   12  C   UNL     1      -6.113  21.093  67.707  1.00  0.00    -0.423 A  
HETATM   13  C   UNL     1      -6.645  20.916  66.426  1.00  0.00    -0.298 A  
HETATM   14  C   UNL     1      -7.351  19.748  66.120  1.00  0.00    -0.307 A  
ENDBRANCH   5   8
ENDBRANCH   2   3
TORSDOF 3
ENDMDL
MODEL       79
REMARK 921   NORMALIZED FREE ENERGY PREDICTED BY IDOCK:   -3.90 KCAL/MOL
REMARK 922        TOTAL FREE ENERGY PREDICTED BY IDOCK:   -4.77 KCAL/MOL
REMARK 923 INTER-LIGAND FREE ENERGY PREDICTED BY IDOCK:   -4.59 KCAL/MOL
REMARK 924 INTRA-LIGAND FREE ENERGY PREDICTED BY IDOCK:   -0.18 KCAL/MOL
REMARK 927      BINDING AFFINITY PREDICTED BY RF-SCORE:    0.00 PKD
ROOT
HETATM    1  C   UNL     1     -14.207  14.951  71.402  1.00  0.00    -0.558 C  
HETATM    2  C   UNL     1     -12.944  14.155  71.107  1.00  0.00    -0.349 C  
ENDROOT
BRANCH   2   3
HETATM    3  N   UNL     1     -12.202  14.675  69.956  1.00  0.00    -0.323 N  
HETATM    4  O   UNL     1     -11.529  16.499  71.216  1.00  0.00    -0.339 OA 
HETATM    5  C   UNL     1     -11.444  15.843  70.179  1.00  0.00    -0.361 C  
BRANCH   3   6
HETATM    6  C   UNL     1     -12.156  13.867  68.729  1.00  0.00    -0.309 C  
HETATM    7  C   UNL     1     -11.218  12.672  68.709  1.00  0.00    -0.325 C  
ENDBRANCH   3   6
BRANCH   5   8
HETATM    8  C   UNL     1     -10.503  16.353  69.135  1.00  0.00    -0.303 A  
HETATM    9  C   UNL     1     -10.918  17.199  68.104  1.00  0.00    -0.231 A  
HETATM   10  C   UNL     1      -9.984  17.803  67.258  1.00  0.00    -0.324 A  
HETATM   11  C   UNL     1     -10.413  18.876  66.301  1.00  0.00    -0.510 C  
HETATM   12  C   UNL     1      -8.644  17.418  67.341  1.00  0.00    -0.221 A  
HETATM   13  C   UNL     1      -8.236  16.473  68.287  1.00  0.00    -0.185 A  
HETATM   14  C   UNL     1      -9.162  15.952  69.197  1.00  0.00    -0.253 A  
ENDBRANCH   5   8
ENDBRANCH   2   3
TORSDOF 3
ENDMDL
MODEL       80
REMARK 921   NORMALIZED FREE ENERGY PREDICTED BY IDOCK:   -3.88 KCAL/MOL
REMARK 922        TOTAL FREE ENERGY PREDICTED BY IDOCK:   -4.75 KCAL/MOL
REMARK 923 INTER-LIGAND FREE ENERGY PREDICTED BY IDOCK:   -4.37 KCAL/MOL
REMARK 924 INTRA-LIGAND FREE ENERGY PREDICTED BY IDOCK:   -0.38 KCAL/MOL
REMARK 927      BINDING AFFINITY PREDICTED BY RF-SCORE:    0.00 PKD
ROOT
HETATM    1  C   UNL     1     -11.005  12.757  68.783  1.00  0.00    -0.289 C  
HETATM    2  C   UNL     1     -11.837  11.489  68.651  1.00  0.00    -0.318 C  
ENDROOT
BRANCH   2   3
HETATM    3  N   UNL     1     -11.260  10.355  69.376  1.00  0.00    -0.246 N  
HETATM    4  O   UNL     1     -12.718  10.739  71.134  1.00  0.00    -0.366 OA 
HETATM    5  C   UNL     1     -11.871  10.023  70.603  1.00  0.00    -0.325 C  
BRANCH   3   6
HETATM    6  C   UNL     1     -10.228   9.549  68.709  1.00  0.00    -0.198 C  
HETATM    7  C   UNL     1     -10.658   8.687  67.534  1.00  0.00    -0.292 C  
ENDBRANCH   3   6
BRANCH   5   8
HETATM    8  C   UNL     1     -11.491   8.776  71.332  1.00  0.00    -0.366 A  
HETATM    9  C   UNL     1     -10.356   8.701  72.143  1.00  0.00    -0.403 A  
HETATM   10  C   UNL     1     -10.130   7.585  72.954  1.00  0.00    -0.315 A  
HETATM   11  C   UNL     1      -9.037   7.604  73.981  1.00  0.00    -0.280 C  
HETATM   12  C   UNL     1     -10.959   6.468  72.817  1.00  0.00    -0.286 A  
HETATM   13  C   UNL     1     -12.025   6.484  71.912  1.00  0.00    -0.389 A  
HETATM   14  C   UNL     1     -12.302   7.644  71.182  1.00  0.00    -0.293 A  
ENDBRANCH   5   8
ENDBRANCH   2   3
TORSDOF 3
ENDMDL
MODEL       81
REMARK 921   NORMALIZED FREE ENERGY PREDICTED BY IDOCK:   -3.88 KCAL/MOL
REMARK 922        TOTAL FREE ENERGY PREDICTED BY IDOCK:   -4.74 KCAL/MOL
REMARK 923 INTER-LIGAND FREE ENERGY PREDICTED BY IDOCK:   -4.57 KCAL/MOL
REMARK 924 INTRA-LIGAND FREE ENERGY PREDICTED BY IDOCK:   -0.17 KCAL/MOL
REMARK 927      BINDING AFFINITY PREDICTED BY RF-SCORE:    0.00 PKD
ROOT
HETATM    1  C   UNL     1     -11.786  14.464  68.421  1.00  0.00    -0.367 C  
HETATM    2  C   UNL     1     -12.156  14.322  66.951  1.00  0.00    -0.409 C  
ENDROOT
BRANCH   2   3
HETATM    3  N   UNL     1     -11.118  13.649  66.167  1.00  0.00    -0.294 N  
HETATM    4  O   UNL     1     -12.017  11.594  66.744  1.00  0.00    -0.536 OA 
HETATM    5  C   UNL     1     -11.220  12.246  66.071  1.00  0.00    -0.332 C  
BRANCH   3   6
HETATM    6  C   UNL     1     -10.170  14.475  65.406  1.00  0.00    -0.389 C  
HETATM    7  C   UNL     1     -10.460  15.963  65.302  1.00  0.00    -0.403 C  
ENDBRANCH   3   6
BRANCH   5   8
HETATM    8  C   UNL     1     -10.331  11.477  65.148  1.00  0.00    -0.329 A  
HETATM    9  C   UNL     1      -9.225  10.756  65.603  1.00  0.00    -0.226 A  
HETATM   10  C   UNL     1      -8.528   9.902  64.743  1.00  0.00    -0.179 A  
HETATM   11  C   UNL     1      -7.487   8.967  65.286  1.00  0.00    -0.093 C  
HETATM   12  C   UNL     1      -8.838   9.908  63.381  1.00  0.00    -0.253 A  
HETATM   13  C   UNL     1      -9.862  10.726  62.892  1.00  0.00    -0.294 A  
HETATM   14  C   UNL     1     -10.621  11.498  63.778  1.00  0.00    -0.465 A  
ENDBRANCH   5   8
ENDBRANCH   2   3
TORSDOF 3
ENDMDL
MODEL       82
REMARK 921   NORMALIZED FREE ENERGY PREDICTED BY IDOCK:   -3.88 KCAL/MOL
REMARK 922        TOTAL FREE ENERGY PREDICTED BY IDOCK:   -4.74 KCAL/MOL
REMARK 923 INTER-LIGAND FREE ENERGY PREDICTED BY IDOCK:   -4.48 KCAL/MOL
REMARK 924 INTRA-LIGAND FREE ENERGY PREDICTED BY IDOCK:   -0.26 KCAL/MOL
REMARK 927      BINDING AFFINITY PREDICTED BY RF-SCORE:    0.00 PKD
ROOT
HETATM    1  C   UNL     1     -13.265  15.308  71.048  1.00  0.00    -0.546 C  
HETATM    2  C   UNL     1     -12.472  14.022  70.865  1.00  0.00    -0.369 C  
ENDROOT
BRANCH   2   3
HETATM    3  N   UNL     1     -11.764  13.971  69.584  1.00  0.00    -0.292 N  
HETATM    4  O   UNL     1     -12.156  11.691  69.460  1.00  0.00    -0.304 OA 
HETATM    5  C   UNL     1     -11.756  12.724  68.925  1.00  0.00    -0.326 C  
BRANCH   3   6
HETATM    6  C   UNL     1     -11.278  15.229  69.001  1.00  0.00    -0.280 C  
HETATM    7  C   UNL     1      -9.894  15.705  69.411  1.00  0.00    -0.284 C  
ENDBRANCH   3   6
BRANCH   5   8
HETATM    8  C   UNL     1     -11.230  12.600  67.532  1.00  0.00    -0.335 A  
HETATM    9  C   UNL     1     -10.007  11.990  67.246  1.00  0.00    -0.205 A  
HETATM   10  C   UNL     1      -9.632  11.726  65.926  1.00  0.00    -0.249 A  
HETATM   11  C   UNL     1      -8.429  10.877  65.636  1.00  0.00    -0.139 C  
HETATM   12  C   UNL     1     -10.413  12.233  64.884  1.00  0.00    -0.321 A  
HETATM   13  C   UNL     1     -11.576  12.959  65.160  1.00  0.00    -0.367 A  
HETATM   14  C   UNL     1     -11.995  13.128  66.484  1.00  0.00    -0.459 A  
ENDBRANCH   5   8
ENDBRANCH   2   3
TORSDOF 3
ENDMDL
MODEL       83
REMARK 921   NORMALIZED FREE ENERGY PREDICTED BY IDOCK:   -3.87 KCAL/MOL
REMARK 922        TOTAL FREE ENERGY PREDICTED BY IDOCK:   -4.73 KCAL/MOL
REMARK 923 INTER-LIGAND FREE ENERGY PREDICTED BY IDOCK:   -4.52 KCAL/MOL
REMARK 924 INTRA-LIGAND FREE ENERGY PREDICTED BY IDOCK:   -0.21 KCAL/MOL
REMARK 927      BINDING AFFINITY PREDICTED BY RF-SCORE:    0.00 PKD
ROOT
HETATM    1  C   UNL     1      -9.783  12.065  66.079  1.00  0.00    -0.256 C  
HETATM    2  C   UNL     1     -11.146  11.831  66.714  1.00  0.00    -0.306 C  
ENDROOT
BRANCH   2   3
HETATM    3  N   UNL     1     -11.107  10.843  67.795  1.00  0.00    -0.288 N  
HETATM    4  O   UNL     1     -11.444  12.529  69.346  1.00  0.00    -0.270 OA 
HETATM    5  C   UNL     1     -11.366  11.328  69.093  1.00  0.00    -0.282 C  
BRANCH   3   6
HETATM    6  C   UNL     1     -10.981   9.422  67.440  1.00  0.00     0.009 C  
HETATM    7  C   UNL     1      -9.595   8.802  67.505  1.00  0.00    -0.192 C  
ENDBRANCH   3   6
BRANCH   5   8
HETATM    8  C   UNL     1     -11.538  10.385  70.240  1.00  0.00    -0.410 A  
HETATM    9  C   UNL     1     -12.787  10.117  70.806  1.00  0.00    -0.388 A  
HETATM   10  C   UNL     1     -12.938   9.097  71.749  1.00  0.00    -0.448 A  
HETATM   11  C   UNL     1     -14.307   8.666  72.185  1.00  0.00    -0.518 C  
HETATM   12  C   UNL     1     -11.798   8.463  72.251  1.00  0.00    -0.456 A  
HETATM   13  C   UNL     1     -10.528   8.815  71.785  1.00  0.00    -0.417 A  
HETATM   14  C   UNL     1     -10.398   9.764  70.766  1.00  0.00    -0.298 A  
ENDBRANCH   5   8
ENDBRANCH   2   3
TORSDOF 3
ENDMDL
MODEL       84
REMARK 921   NORMALIZED FREE ENERGY PREDICTED BY IDOCK:   -3.87 KCAL/MOL
REMARK 922        TOTAL FREE ENERGY PREDICTED BY IDOCK:   -4.73 KCAL/MOL
REMARK 923 INTER-LIGAND FREE ENERGY PREDICTED BY IDOCK:   -4.32 KCAL/MOL
REMARK 924 INTRA-LIGAND FREE ENERGY PREDICTED BY IDOCK:   -0.41 KCAL/MOL
REMARK 927      BINDING AFFINITY PREDICTED BY RF-SCORE:    0.00 PKD
ROOT
HETATM    1  C   UNL     1      -6.241  18.773  69.303  1.00  0.00    -0.283 C  
HETATM    2  C   UNL     1      -7.285  18.546  68.218  1.00  0.00    -0.264 C  
ENDROOT
BRANCH   2   3
HETATM    3  N   UNL     1      -8.090  17.345  68.449  1.00  0.00    -0.255 N  
HETATM    4  O   UNL     1      -9.937  18.670  68.894  1.00  0.00    -0.389 OA 
HETATM    5  C   UNL     1      -9.462  17.552  68.699  1.00  0.00    -0.278 C  
BRANCH   3   6
HETATM    6  C   UNL     1      -7.467  16.031  68.233  1.00  0.00    -0.136 C  
HETATM    7  C   UNL     1      -7.095  15.219  69.462  1.00  0.00    -0.201 C  
ENDBRANCH   3   6
BRANCH   5   8
HETATM    8  C   UNL     1     -10.410  16.398  68.761  1.00  0.00    -0.275 A  
HETATM    9  C   UNL     1     -10.938  15.802  67.613  1.00  0.00    -0.302 A  
HETATM   10  C   UNL     1     -11.671  14.615  67.698  1.00  0.00    -0.389 A  
HETATM   11  C   UNL     1     -12.043  13.865  66.453  1.00  0.00    -0.489 C  
HETATM   12  C   UNL     1     -12.019  14.121  68.957  1.00  0.00    -0.376 A  
HETATM   13  C   UNL     1     -11.604  14.783  70.117  1.00  0.00    -0.338 A  
HETATM   14  C   UNL     1     -10.784  15.912  70.020  1.00  0.00    -0.343 A  
ENDBRANCH   5   8
ENDBRANCH   2   3
TORSDOF 3
ENDMDL
MODEL       85
REMARK 921   NORMALIZED FREE ENERGY PREDICTED BY IDOCK:   -3.85 KCAL/MOL
REMARK 922        TOTAL FREE ENERGY PREDICTED BY IDOCK:   -4.71 KCAL/MOL
REMARK 923 INTER-LIGAND FREE ENERGY PREDICTED BY IDOCK:   -4.30 KCAL/MOL
REMARK 924 INTRA-LIGAND FREE ENERGY PREDICTED BY IDOCK:   -0.41 KCAL/MOL
REMARK 927      BINDING AFFINITY PREDICTED BY RF-SCORE:    0.00 PKD
ROOT
HETATM    1  C   UNL     1     -10.560   8.786  69.225  1.00  0.00    -0.210 C  
HETATM    2  C   UNL     1     -10.079  10.148  69.705  1.00  0.00    -0.231 C  
ENDROOT
BRANCH   2   3
HETATM    3  N   UNL     1     -10.458  11.234  68.800  1.00  0.00    -0.202 N  
HETATM    4  O   UNL     1      -8.452  10.990  67.669  1.00  0.00    -0.119 OA 
HETATM    5  C   UNL     1      -9.568  11.503  67.740  1.00  0.00    -0.175 C  
BRANCH   3   6
HETATM    6  C   UNL     1     -11.791  11.836  68.947  1.00  0.00    -0.320 C  
HETATM    7  C   UNL     1     -11.883  13.179  69.651  1.00  0.00    -0.390 C  
ENDBRANCH   3   6
BRANCH   5   8
HETATM    8  C   UNL     1      -9.941  12.457  66.652  1.00  0.00    -0.236 A  
HETATM    9  C   UNL     1     -10.649  12.055  65.516  1.00  0.00    -0.313 A  
HETATM   10  C   UNL     1     -11.141  13.000  64.611  1.00  0.00    -0.357 A  
HETATM   11  C   UNL     1     -12.083  12.584  63.521  1.00  0.00    -0.653 C  
HETATM   12  C   UNL     1     -10.770  14.339  64.760  1.00  0.00    -0.435 A  
HETATM   13  C   UNL     1      -9.953  14.734  65.823  1.00  0.00    -0.375 A  
HETATM   14  C   UNL     1      -9.552  13.796  66.780  1.00  0.00    -0.283 A  
ENDBRANCH   5   8
ENDBRANCH   2   3
TORSDOF 3
ENDMDL
MODEL       86
REMARK 921   NORMALIZED FREE ENERGY PREDICTED BY IDOCK:   -3.83 KCAL/MOL
REMARK 922        TOTAL FREE ENERGY PREDICTED BY IDOCK:   -4.68 KCAL/MOL
REMARK 923 INTER-LIGAND FREE ENERGY PREDICTED BY IDOCK:   -4.27 KCAL/MOL
REMARK 924 INTRA-LIGAND FREE ENERGY PREDICTED BY IDOCK:   -0.41 KCAL/MOL
REMARK 927      BINDING AFFINITY PREDICTED BY RF-SCORE:    0.00 PKD
ROOT
HETATM    1  C   UNL     1      -6.607   6.791  69.183  1.00  0.00    -0.048 C  
HETATM    2  C   UNL     1      -7.322   6.877  70.524  1.00  0.00    -0.077 C  
ENDROOT
BRANCH   2   3
HETATM    3  N   UNL     1      -8.704   7.344  70.401  1.00  0.00    -0.144 N  
HETATM    4  O   UNL     1      -8.349   8.845  72.128  1.00  0.00    -0.381 OA 
HETATM    5  C   UNL     1      -9.073   8.426  71.227  1.00  0.00    -0.178 C  
BRANCH   3   6
HETATM    6  C   UNL     1      -9.538   6.788  69.326  1.00  0.00    -0.144 C  
HETATM    7  C   UNL     1     -10.457   5.630  69.676  1.00  0.00    -0.374 C  
ENDBRANCH   3   6
BRANCH   5   8
HETATM    8  C   UNL     1     -10.393   9.104  71.052  1.00  0.00    -0.363 A  
HETATM    9  C   UNL     1     -11.547   8.675  71.712  1.00  0.00    -0.403 A  
HETATM   10  C   UNL     1     -12.718   9.439  71.671  1.00  0.00    -0.459 A  
HETATM   11  C   UNL     1     -13.878   9.091  72.556  1.00  0.00    -0.491 C  
HETATM   12  C   UNL     1     -12.776  10.547  70.823  1.00  0.00    -0.471 A  
HETATM   13  C   UNL     1     -11.664  10.912  70.058  1.00  0.00    -0.427 A  
HETATM   14  C   UNL     1     -10.466  10.201  70.185  1.00  0.00    -0.311 A  
ENDBRANCH   5   8
ENDBRANCH   2   3
TORSDOF 3
ENDMDL
MODEL       87
REMARK 921   NORMALIZED FREE ENERGY PREDICTED BY IDOCK:   -3.81 KCAL/MOL
REMARK 922        TOTAL FREE ENERGY PREDICTED BY IDOCK:   -4.66 KCAL/MOL
REMARK 923 INTER-LIGAND FREE ENERGY PREDICTED BY IDOCK:   -4.65 KCAL/MOL
REMARK 924 INTRA-LIGAND FREE ENERGY PREDICTED BY IDOCK:   -0.01 KCAL/MOL
REMARK 927      BINDING AFFINITY PREDICTED BY RF-SCORE:    0.00 PKD
ROOT
HETATM    1  C   UNL     1     -11.565  15.130  64.840  1.00  0.00    -0.336 C  
HETATM    2  C   UNL     1     -12.491  14.085  65.445  1.00  0.00    -0.498 C  
ENDROOT
BRANCH   2   3
HETATM    3  N   UNL     1     -11.765  13.004  66.115  1.00  0.00    -0.373 N  
HETATM    4  O   UNL     1     -12.033  14.085  68.146  1.00  0.00    -0.357 OA 
HETATM    5  C   UNL     1     -11.682  13.086  67.521  1.00  0.00    -0.370 C  
BRANCH   3   6
HETATM    6  C   UNL     1     -11.340  11.846  65.317  1.00  0.00    -0.275 C  
HETATM    7  C   UNL     1     -11.626  11.877  63.824  1.00  0.00    -0.555 C  
ENDBRANCH   3   6
BRANCH   5   8
HETATM    8  C   UNL     1     -11.132  11.949  68.320  1.00  0.00    -0.289 A  
HETATM    9  C   UNL     1      -9.790  11.569  68.255  1.00  0.00    -0.203 A  
HETATM   10  C   UNL     1      -9.270  10.628  69.148  1.00  0.00    -0.162 A  
HETATM   11  C   UNL     1      -7.791  10.389  69.219  1.00  0.00    -0.147 C  
HETATM   12  C   UNL     1     -10.144   9.941  69.994  1.00  0.00    -0.308 A  
HETATM   13  C   UNL     1     -11.513  10.223  69.978  1.00  0.00    -0.367 A  
HETATM   14  C   UNL     1     -12.006  11.239  69.153  1.00  0.00    -0.405 A  
ENDBRANCH   5   8
ENDBRANCH   2   3
TORSDOF 3
ENDMDL
MODEL       88
REMARK 921   NORMALIZED FREE ENERGY PREDICTED BY IDOCK:   -3.81 KCAL/MOL
REMARK 922        TOTAL FREE ENERGY PREDICTED BY IDOCK:   -4.65 KCAL/MOL
REMARK 923 INTER-LIGAND FREE ENERGY PREDICTED BY IDOCK:   -4.26 KCAL/MOL
REMARK 924 INTRA-LIGAND FREE ENERGY PREDICTED BY IDOCK:   -0.39 KCAL/MOL
REMARK 927      BINDING AFFINITY PREDICTED BY RF-SCORE:    0.00 PKD
ROOT
HETATM    1  C   UNL     1      -8.926  10.635  65.072  1.00  0.00    -0.218 C  
HETATM    2  C   UNL     1      -8.389  10.468  66.486  1.00  0.00    -0.141 C  
ENDROOT
BRANCH   2   3
HETATM    3  N   UNL     1      -9.407   9.993  67.426  1.00  0.00    -0.147 N  
HETATM    4  O   UNL     1      -8.323  11.091  69.153  1.00  0.00    -0.123 OA 
HETATM    5  C   UNL     1      -9.302  10.464  68.751  1.00  0.00    -0.175 C  
BRANCH   3   6
HETATM    6  C   UNL     1     -10.541   9.221  66.899  1.00  0.00    -0.169 C  
HETATM    7  C   UNL     1     -10.467   7.706  66.995  1.00  0.00    -0.419 C  
ENDBRANCH   3   6
BRANCH   5   8
HETATM    8  C   UNL     1     -10.386  10.198  69.744  1.00  0.00    -0.297 A  
HETATM    9  C   UNL     1     -10.347   9.110  70.620  1.00  0.00    -0.306 A  
HETATM   10  C   UNL     1     -11.278   8.994  71.656  1.00  0.00    -0.431 A  
HETATM   11  C   UNL     1     -11.099   7.953  72.720  1.00  0.00    -0.462 C  
HETATM   12  C   UNL     1     -12.354   9.884  71.703  1.00  0.00    -0.496 A  
HETATM   13  C   UNL     1     -12.475  10.902  70.752  1.00  0.00    -0.489 A  
HETATM   14  C   UNL     1     -11.481  11.071  69.782  1.00  0.00    -0.387 A  
ENDBRANCH   5   8
ENDBRANCH   2   3
TORSDOF 3
ENDMDL
MODEL       89
REMARK 921   NORMALIZED FREE ENERGY PREDICTED BY IDOCK:   -3.80 KCAL/MOL
REMARK 922        TOTAL FREE ENERGY PREDICTED BY IDOCK:   -4.65 KCAL/MOL
REMARK 923 INTER-LIGAND FREE ENERGY PREDICTED BY IDOCK:   -4.35 KCAL/MOL
REMARK 924 INTRA-LIGAND FREE ENERGY PREDICTED BY IDOCK:   -0.31 KCAL/MOL
REMARK 927      BINDING AFFINITY PREDICTED BY RF-SCORE:    0.00 PKD
ROOT
HETATM    1  C   UNL     1     -11.421  15.564  69.106  1.00  0.00    -0.356 C  
HETATM    2  C   UNL     1     -10.044  14.929  68.973  1.00  0.00    -0.237 C  
ENDROOT
BRANCH   2   3
HETATM    3  N   UNL     1      -9.854  14.251  67.688  1.00  0.00    -0.222 N  
HETATM    4  O   UNL     1     -10.958  12.388  68.511  1.00  0.00    -0.222 OA 
HETATM    5  C   UNL     1     -10.456  12.982  67.558  1.00  0.00    -0.227 C  
BRANCH   3   6
HETATM    6  C   UNL     1      -9.220  14.994  66.591  1.00  0.00    -0.276 C  
HETATM    7  C   UNL     1     -10.082  15.979  65.818  1.00  0.00    -0.393 C  
ENDBRANCH   3   6
BRANCH   5   8
HETATM    8  C   UNL     1     -10.488  12.284  66.237  1.00  0.00    -0.266 A  
HETATM    9  C   UNL     1     -11.593  12.350  65.384  1.00  0.00    -0.426 A  
HETATM   10  C   UNL     1     -11.521  11.844  64.083  1.00  0.00    -0.449 A  
HETATM   11  C   UNL     1     -12.626  12.113  63.105  1.00  0.00    -0.326 C  
HETATM   12  C   UNL     1     -10.392  11.115  63.700  1.00  0.00    -0.449 A  
HETATM   13  C   UNL     1      -9.331  10.932  64.592  1.00  0.00    -0.256 A  
HETATM   14  C   UNL     1      -9.371  11.532  65.855  1.00  0.00    -0.242 A  
ENDBRANCH   5   8
ENDBRANCH   2   3
TORSDOF 3
ENDMDL
MODEL       90
REMARK 921   NORMALIZED FREE ENERGY PREDICTED BY IDOCK:   -3.80 KCAL/MOL
REMARK 922        TOTAL FREE ENERGY PREDICTED BY IDOCK:   -4.65 KCAL/MOL
REMARK 923 INTER-LIGAND FREE ENERGY PREDICTED BY IDOCK:   -4.32 KCAL/MOL
REMARK 924 INTRA-LIGAND FREE ENERGY PREDICTED BY IDOCK:   -0.34 KCAL/MOL
REMARK 927      BINDING AFFINITY PREDICTED BY RF-SCORE:    0.00 PKD
ROOT
HETATM    1  C   UNL     1     -11.673  12.023  69.090  1.00  0.00    -0.389 C  
HETATM    2  C   UNL     1     -11.346  10.547  68.909  1.00  0.00    -0.251 C  
ENDROOT
BRANCH   2   3
HETATM    3  N   UNL     1     -11.412   9.793  70.163  1.00  0.00    -0.238 N  
HETATM    4  O   UNL     1      -9.938   8.229  69.298  1.00  0.00    -0.182 OA 
HETATM    5  C   UNL     1     -10.565   8.670  70.260  1.00  0.00    -0.223 C  
BRANCH   3   6
HETATM    6  C   UNL     1     -12.201  10.347  71.272  1.00  0.00    -0.389 C  
HETATM    7  C   UNL     1     -13.493   9.636  71.640  1.00  0.00    -0.455 C  
ENDBRANCH   3   6
BRANCH   5   8
HETATM    8  C   UNL     1     -10.410   7.941  71.556  1.00  0.00    -0.243 A  
HETATM    9  C   UNL     1     -11.165   6.809  71.872  1.00  0.00    -0.294 A  
HETATM   10  C   UNL     1     -10.868   6.047  73.005  1.00  0.00    -0.290 A  
HETATM   11  C   UNL     1     -11.532   4.719  73.218  1.00  0.00    -0.361 C  
HETATM   12  C   UNL     1      -9.919   6.523  73.913  1.00  0.00    -0.297 A  
HETATM   13  C   UNL     1      -9.247   7.724  73.671  1.00  0.00    -0.344 A  
HETATM   14  C   UNL     1      -9.479   8.425  72.483  1.00  0.00    -0.360 A  
ENDBRANCH   5   8
ENDBRANCH   2   3
TORSDOF 3
ENDMDL
MODEL       91
REMARK 921   NORMALIZED FREE ENERGY PREDICTED BY IDOCK:   -3.80 KCAL/MOL
REMARK 922        TOTAL FREE ENERGY PREDICTED BY IDOCK:   -4.65 KCAL/MOL
REMARK 923 INTER-LIGAND FREE ENERGY PREDICTED BY IDOCK:   -4.26 KCAL/MOL
REMARK 924 INTRA-LIGAND FREE ENERGY PREDICTED BY IDOCK:   -0.39 KCAL/MOL
REMARK 927      BINDING AFFINITY PREDICTED BY RF-SCORE:    0.00 PKD
ROOT
HETATM    1  C   UNL     1      -8.994   9.936  69.467  1.00  0.00    -0.224 C  
HETATM    2  C   UNL     1     -10.069   9.554  68.460  1.00  0.00    -0.178 C  
ENDROOT
BRANCH   2   3
HETATM    3  N   UNL     1     -10.682  10.718  67.816  1.00  0.00    -0.230 N  
HETATM    4  O   UNL     1      -9.104  10.613  66.124  1.00  0.00    -0.160 OA 
HETATM    5  C   UNL     1     -10.141  11.101  66.572  1.00  0.00    -0.223 C  
BRANCH   3   6
HETATM    6  C   UNL     1     -11.903  11.284  68.409  1.00  0.00    -0.261 C  
HETATM    7  C   UNL     1     -11.739  12.407  69.419  1.00  0.00    -0.384 C  
ENDBRANCH   3   6
BRANCH   5   8
HETATM    8  C   UNL     1     -10.805  12.150  65.740  1.00  0.00    -0.319 A  
HETATM    9  C   UNL     1     -10.595  13.515  65.952  1.00  0.00    -0.284 A  
HETATM   10  C   UNL     1     -11.082  14.460  65.045  1.00  0.00    -0.385 A  
HETATM   11  C   UNL     1     -10.667  15.898  65.156  1.00  0.00    -0.449 C  
HETATM   12  C   UNL     1     -11.930  14.041  64.017  1.00  0.00    -0.388 A  
HETATM   13  C   UNL     1     -12.252  12.688  63.872  1.00  0.00    -0.565 A  
HETATM   14  C   UNL     1     -11.676  11.739  64.723  1.00  0.00    -0.212 A  
ENDBRANCH   5   8
ENDBRANCH   2   3
TORSDOF 3
ENDMDL
MODEL       92
REMARK 921   NORMALIZED FREE ENERGY PREDICTED BY IDOCK:   -3.80 KCAL/MOL
REMARK 922        TOTAL FREE ENERGY PREDICTED BY IDOCK:   -4.65 KCAL/MOL
REMARK 923 INTER-LIGAND FREE ENERGY PREDICTED BY IDOCK:   -4.49 KCAL/MOL
REMARK 924 INTRA-LIGAND FREE ENERGY PREDICTED BY IDOCK:   -0.16 KCAL/MOL
REMARK 927      BINDING AFFINITY PREDICTED BY RF-SCORE:    0.00 PKD
ROOT
HETATM    1  C   UNL     1     -11.086  16.085  64.742  1.00  0.00    -0.378 C  
HETATM    2  C   UNL     1     -11.110  15.715  66.218  1.00  0.00    -0.127 C  
ENDROOT
BRANCH   2   3
HETATM    3  N   UNL     1     -10.600  14.366  66.473  1.00  0.00    -0.292 N  
HETATM    4  O   UNL     1     -12.603  13.470  65.732  1.00  0.00    -0.464 OA 
HETATM    5  C   UNL     1     -11.439  13.299  66.091  1.00  0.00    -0.328 C  
BRANCH   3   6
HETATM    6  C   UNL     1      -9.211  14.217  66.932  1.00  0.00    -0.254 C  
HETATM    7  C   UNL     1      -8.365  15.475  67.032  1.00  0.00    -0.265 C  
ENDBRANCH   3   6
BRANCH   5   8
HETATM    8  C   UNL     1     -10.946  11.888  66.129  1.00  0.00    -0.352 A  
HETATM    9  C   UNL     1     -10.297  11.294  65.044  1.00  0.00    -0.359 A  
HETATM   10  C   UNL     1      -9.687  10.043  65.175  1.00  0.00    -0.380 A  
HETATM   11  C   UNL     1      -8.807   9.512  64.083  1.00  0.00    -0.243 C  
HETATM   12  C   UNL     1      -9.881   9.314  66.351  1.00  0.00    -0.347 A  
HETATM   13  C   UNL     1     -10.640   9.847  67.398  1.00  0.00    -0.338 A  
HETATM   14  C   UNL     1     -11.158  11.142  67.295  1.00  0.00    -0.366 A  
ENDBRANCH   5   8
ENDBRANCH   2   3
TORSDOF 3
ENDMDL
MODEL       93
REMARK 921   NORMALIZED FREE ENERGY PREDICTED BY IDOCK:   -3.80 KCAL/MOL
REMARK 922        TOTAL FREE ENERGY PREDICTED BY IDOCK:   -4.65 KCAL/MOL
REMARK 923 INTER-LIGAND FREE ENERGY PREDICTED BY IDOCK:   -4.22 KCAL/MOL
REMARK 924 INTRA-LIGAND FREE ENERGY PREDICTED BY IDOCK:   -0.43 KCAL/MOL
REMARK 927      BINDING AFFINITY PREDICTED BY RF-SCORE:    0.00 PKD
ROOT
HETATM    1  C   UNL     1     -12.492  12.098  70.842  1.00  0.00    -0.374 C  
HETATM    2  C   UNL     1     -12.904  10.646  70.649  1.00  0.00    -0.320 C  
ENDROOT
BRANCH   2   3
HETATM    3  N   UNL     1     -11.853   9.702  71.038  1.00  0.00    -0.322 N  
HETATM    4  O   UNL     1     -13.377   8.547  72.346  1.00  0.00    -0.336 OA 
HETATM    5  C   UNL     1     -12.256   8.617  71.843  1.00  0.00    -0.355 C  
BRANCH   3   6
HETATM    6  C   UNL     1     -10.522   9.848  70.433  1.00  0.00    -0.285 C  
HETATM    7  C   UNL     1     -10.296   9.215  69.070  1.00  0.00    -0.229 C  
ENDBRANCH   3   6
BRANCH   5   8
HETATM    8  C   UNL     1     -11.313   7.497  72.142  1.00  0.00    -0.326 A  
HETATM    9  C   UNL     1     -11.191   6.381  71.310  1.00  0.00    -0.346 A  
HETATM   10  C   UNL     1     -10.174   5.445  71.518  1.00  0.00    -0.280 A  
HETATM   11  C   UNL     1      -9.911   4.376  70.498  1.00  0.00    -0.285 C  
HETATM   12  C   UNL     1      -9.387   5.541  72.667  1.00  0.00    -0.150 A  
HETATM   13  C   UNL     1      -9.586   6.585  73.577  1.00  0.00    -0.175 A  
HETATM   14  C   UNL     1     -10.538   7.573  73.305  1.00  0.00    -0.438 A  
ENDBRANCH   5   8
ENDBRANCH   2   3
TORSDOF 3
ENDMDL
MODEL       94
REMARK 921   NORMALIZED FREE ENERGY PREDICTED BY IDOCK:   -3.80 KCAL/MOL
REMARK 922        TOTAL FREE ENERGY PREDICTED BY IDOCK:   -4.65 KCAL/MOL
REMARK 923 INTER-LIGAND FREE ENERGY PREDICTED BY IDOCK:   -4.25 KCAL/MOL
REMARK 924 INTRA-LIGAND FREE ENERGY PREDICTED BY IDOCK:   -0.39 KCAL/MOL
REMARK 927      BINDING AFFINITY PREDICTED BY RF-SCORE:    0.00 PKD
ROOT
HETATM    1  C   UNL     1     -10.447  15.917  65.450  1.00  0.00    -0.429 C  
HETATM    2  C   UNL     1     -10.809  15.018  66.623  1.00  0.00    -0.318 C  
ENDROOT
BRANCH   2   3
HETATM    3  N   UNL     1     -10.864  13.602  66.257  1.00  0.00    -0.282 N  
HETATM    4  O   UNL     1      -8.879  13.233  67.391  1.00  0.00    -0.184 OA 
HETATM    5  C   UNL     1      -9.854  12.778  66.796  1.00  0.00    -0.242 C  
BRANCH   3   6
HETATM    6  C   UNL     1     -12.037  13.114  65.517  1.00  0.00    -0.442 C  
HETATM    7  C   UNL     1     -11.866  12.832  64.034  1.00  0.00    -0.506 C  
ENDBRANCH   3   6
BRANCH   5   8
HETATM    8  C   UNL     1      -9.918  11.293  66.644  1.00  0.00    -0.242 A  
HETATM    9  C   UNL     1      -9.241  10.615  65.627  1.00  0.00    -0.227 A  
HETATM   10  C   UNL     1      -9.172   9.219  65.624  1.00  0.00    -0.291 A  
HETATM   11  C   UNL     1      -8.264   8.510  64.663  1.00  0.00    -0.162 C  
HETATM   12  C   UNL     1      -9.931   8.500  66.549  1.00  0.00    -0.350 A  
HETATM   13  C   UNL     1     -10.717   9.168  67.493  1.00  0.00    -0.255 A  
HETATM   14  C   UNL     1     -10.697  10.565  67.553  1.00  0.00    -0.326 A  
ENDBRANCH   5   8
ENDBRANCH   2   3
TORSDOF 3
ENDMDL
MODEL       95
REMARK 921   NORMALIZED FREE ENERGY PREDICTED BY IDOCK:   -3.78 KCAL/MOL
REMARK 922        TOTAL FREE ENERGY PREDICTED BY IDOCK:   -4.63 KCAL/MOL
REMARK 923 INTER-LIGAND FREE ENERGY PREDICTED BY IDOCK:   -4.26 KCAL/MOL
REMARK 924 INTRA-LIGAND FREE ENERGY PREDICTED BY IDOCK:   -0.37 KCAL/MOL
REMARK 927      BINDING AFFINITY PREDICTED BY RF-SCORE:    0.00 PKD
ROOT
HETATM    1  C   UNL     1     -10.778  17.233  68.128  1.00  0.00    -0.363 C  
HETATM    2  C   UNL     1     -10.727  16.077  67.138  1.00  0.00    -0.283 C  
ENDROOT
BRANCH   2   3
HETATM    3  N   UNL     1     -10.541  14.780  67.791  1.00  0.00    -0.254 N  
HETATM    4  O   UNL     1     -12.516  14.024  66.846  1.00  0.00    -0.364 OA 
HETATM    5  C   UNL     1     -11.490  13.784  67.480  1.00  0.00    -0.330 C  
BRANCH   3   6
HETATM    6  C   UNL     1      -9.312  14.554  68.564  1.00  0.00    -0.203 C  
HETATM    7  C   UNL     1      -8.000  14.499  67.799  1.00  0.00    -0.168 C  
ENDBRANCH   3   6
BRANCH   5   8
HETATM    8  C   UNL     1     -11.295  12.374  67.937  1.00  0.00    -0.344 A  
HETATM    9  C   UNL     1     -11.584  11.964  69.241  1.00  0.00    -0.376 A  
HETATM   10  C   UNL     1     -11.567  10.609  69.582  1.00  0.00    -0.368 A  
HETATM   11  C   UNL     1     -12.091  10.158  70.914  1.00  0.00    -0.453 C  
HETATM   12  C   UNL     1     -11.089   9.681  68.654  1.00  0.00    -0.085 A  
HETATM   13  C   UNL     1     -10.673  10.098  67.386  1.00  0.00    -0.336 A  
HETATM   14  C   UNL     1     -10.792  11.443  67.020  1.00  0.00    -0.331 A  
ENDBRANCH   5   8
ENDBRANCH   2   3
TORSDOF 3
ENDMDL
MODEL       96
REMARK 921   NORMALIZED FREE ENERGY PREDICTED BY IDOCK:   -3.76 KCAL/MOL
REMARK 922        TOTAL FREE ENERGY PREDICTED BY IDOCK:   -4.61 KCAL/MOL
REMARK 923 INTER-LIGAND FREE ENERGY PREDICTED BY IDOCK:   -4.30 KCAL/MOL
REMARK 924 INTRA-LIGAND FREE ENERGY PREDICTED BY IDOCK:   -0.31 KCAL/MOL
REMARK 927      BINDING AFFINITY PREDICTED BY RF-SCORE:    0.00 PKD
ROOT
HETATM    1  C   UNL     1      -6.382  20.806  67.632  1.00  0.00    -0.361 C  
HETATM    2  C   UNL     1      -6.740  20.125  66.318  1.00  0.00    -0.222 C  
ENDROOT
BRANCH   2   3
HETATM    3  N   UNL     1      -7.923  19.270  66.427  1.00  0.00    -0.287 N  
HETATM    4  O   UNL     1      -6.564  17.448  66.875  1.00  0.00    -0.155 OA 
HETATM    5  C   UNL     1      -7.694  17.932  66.809  1.00  0.00    -0.223 C  
BRANCH   3   6
HETATM    6  C   UNL     1      -9.250  19.891  66.309  1.00  0.00    -0.373 C  
HETATM    7  C   UNL     1      -9.998  20.203  67.595  1.00  0.00    -0.560 C  
ENDBRANCH   3   6
BRANCH   5   8
HETATM    8  C   UNL     1      -8.835  17.023  67.133  1.00  0.00    -0.232 A  
HETATM    9  C   UNL     1      -9.321  16.869  68.434  1.00  0.00    -0.255 A  
HETATM   10  C   UNL     1     -10.500  16.159  68.675  1.00  0.00    -0.269 A  
HETATM   11  C   UNL     1     -11.134  16.185  70.035  1.00  0.00    -0.363 C  
HETATM   12  C   UNL     1     -11.097  15.457  67.625  1.00  0.00    -0.316 A  
HETATM   13  C   UNL     1     -10.545  15.500  66.341  1.00  0.00    -0.312 A  
HETATM   14  C   UNL     1      -9.423  16.297  66.090  1.00  0.00    -0.373 A  
ENDBRANCH   5   8
ENDBRANCH   2   3
TORSDOF 3
ENDMDL
MODEL       97
REMARK 921   NORMALIZED FREE ENERGY PREDICTED BY IDOCK:   -3.75 KCAL/MOL
REMARK 922        TOTAL FREE ENERGY PREDICTED BY IDOCK:   -4.59 KCAL/MOL
REMARK 923 INTER-LIGAND FREE ENERGY PREDICTED BY IDOCK:   -4.22 KCAL/MOL
REMARK 924 INTRA-LIGAND FREE ENERGY PREDICTED BY IDOCK:   -0.37 KCAL/MOL
REMARK 927      BINDING AFFINITY PREDICTED BY RF-SCORE:    0.00 PKD
ROOT
HETATM    1  C   UNL     1      -7.679  18.776  68.446  1.00  0.00    -0.344 C  
HETATM    2  C   UNL     1      -7.734  17.455  67.691  1.00  0.00    -0.193 C  
ENDROOT
BRANCH   2   3
HETATM    3  N   UNL     1      -8.995  16.739  67.892  1.00  0.00    -0.216 N  
HETATM    4  O   UNL     1      -8.092  15.672  69.739  1.00  0.00    -0.159 OA 
HETATM    5  C   UNL     1      -9.072  15.921  69.039  1.00  0.00    -0.240 C  
BRANCH   3   6
HETATM    6  C   UNL     1     -10.127  17.051  67.008  1.00  0.00    -0.295 C  
HETATM    7  C   UNL     1     -10.316  16.182  65.776  1.00  0.00    -0.398 C  
ENDBRANCH   3   6
BRANCH   5   8
HETATM    8  C   UNL     1     -10.367  15.295  69.444  1.00  0.00    -0.255 A  
HETATM    9  C   UNL     1     -10.731  14.006  69.047  1.00  0.00    -0.232 A  
HETATM   10  C   UNL     1     -11.857  13.383  69.592  1.00  0.00    -0.394 A  
HETATM   11  C   UNL     1     -12.116  11.928  69.333  1.00  0.00    -0.277 C  
HETATM   12  C   UNL     1     -12.715  14.125  70.407  1.00  0.00    -0.341 A  
HETATM   13  C   UNL     1     -12.428  15.460  70.708  1.00  0.00    -0.476 A  
HETATM   14  C   UNL     1     -11.245  16.041  70.241  1.00  0.00    -0.397 A  
ENDBRANCH   5   8
ENDBRANCH   2   3
TORSDOF 3
ENDMDL
MODEL       98
REMARK 921   NORMALIZED FREE ENERGY PREDICTED BY IDOCK:   -3.72 KCAL/MOL
REMARK 922        TOTAL FREE ENERGY PREDICTED BY IDOCK:   -4.56 KCAL/MOL
REMARK 923 INTER-LIGAND FREE ENERGY PREDICTED BY IDOCK:   -4.14 KCAL/MOL
REMARK 924 INTRA-LIGAND FREE ENERGY PREDICTED BY IDOCK:   -0.42 KCAL/MOL
REMARK 927      BINDING AFFINITY PREDICTED BY RF-SCORE:    0.00 PKD
ROOT
HETATM    1  C   UNL     1     -11.216   4.599  73.321  1.00  0.00    -0.411 C  
HETATM    2  C   UNL     1     -10.833   6.069  73.223  1.00  0.00    -0.252 C  
ENDROOT
BRANCH   2   3
HETATM    3  N   UNL     1     -11.127   6.645  71.909  1.00  0.00    -0.243 N  
HETATM    4  O   UNL     1      -8.926   6.307  71.270  1.00  0.00    -0.139 OA 
HETATM    5  C   UNL     1     -10.076   6.622  70.968  1.00  0.00    -0.187 C  
BRANCH   3   6
HETATM    6  C   UNL     1     -12.512   7.034  71.609  1.00  0.00    -0.374 C  
HETATM    7  C   UNL     1     -12.894   8.490  71.819  1.00  0.00    -0.380 C  
ENDBRANCH   3   6
BRANCH   5   8
HETATM    8  C   UNL     1     -10.317   7.007  69.545  1.00  0.00    -0.225 A  
HETATM    9  C   UNL     1     -10.219   8.328  69.101  1.00  0.00    -0.223 A  
HETATM   10  C   UNL     1     -10.268   8.628  67.737  1.00  0.00    -0.282 A  
HETATM   11  C   UNL     1      -9.941  10.010  67.254  1.00  0.00    -0.245 C  
HETATM   12  C   UNL     1     -10.590   7.615  66.831  1.00  0.00    -0.359 A  
HETATM   13  C   UNL     1     -10.819   6.311  67.278  1.00  0.00    -0.457 A  
HETATM   14  C   UNL     1     -10.665   6.002  68.634  1.00  0.00    -0.363 A  
ENDBRANCH   5   8
ENDBRANCH   2   3
TORSDOF 3
ENDMDL
MODEL       99
REMARK 921   NORMALIZED FREE ENERGY PREDICTED BY IDOCK:   -3.72 KCAL/MOL
REMARK 922        TOTAL FREE ENERGY PREDICTED BY IDOCK:   -4.55 KCAL/MOL
REMARK 923 INTER-LIGAND FREE ENERGY PREDICTED BY IDOCK:   -4.15 KCAL/MOL
REMARK 924 INTRA-LIGAND FREE ENERGY PREDICTED BY IDOCK:   -0.40 KCAL/MOL
REMARK 927      BINDING AFFINITY PREDICTED BY RF-SCORE:    0.00 PKD
ROOT
HETATM    1  C   UNL     1      -7.933  11.774  67.866  1.00  0.00    -0.141 C  
HETATM    2  C   UNL     1      -7.770  10.833  69.051  1.00  0.00    -0.133 C  
ENDROOT
BRANCH   2   3
HETATM    3  N   UNL     1      -8.952   9.998  69.279  1.00  0.00    -0.167 N  
HETATM    4  O   UNL     1      -8.032   9.239  71.264  1.00  0.00    -0.322 OA 
HETATM    5  C   UNL     1      -8.996   9.299  70.503  1.00  0.00    -0.250 C  
BRANCH   3   6
HETATM    6  C   UNL     1     -10.065  10.084  68.322  1.00  0.00    -0.158 C  
HETATM    7  C   UNL     1     -10.193   8.974  67.292  1.00  0.00    -0.323 C  
ENDBRANCH   3   6
BRANCH   5   8
HETATM    8  C   UNL     1     -10.232   8.571  70.922  1.00  0.00    -0.246 A  
HETATM    9  C   UNL     1     -11.282   9.205  71.590  1.00  0.00    -0.447 A  
HETATM   10  C   UNL     1     -12.495   8.544  71.803  1.00  0.00    -0.388 A  
HETATM   11  C   UNL     1     -13.687   9.296  72.317  1.00  0.00    -0.527 C  
HETATM   12  C   UNL     1     -12.589   7.184  71.496  1.00  0.00    -0.427 A  
HETATM   13  C   UNL     1     -11.498   6.505  70.945  1.00  0.00    -0.408 A  
HETATM   14  C   UNL     1     -10.325   7.203  70.641  1.00  0.00    -0.217 A  
ENDBRANCH   5   8
ENDBRANCH   2   3
TORSDOF 3
ENDMDL
MODEL      100
REMARK 921   NORMALIZED FREE ENERGY PREDICTED BY IDOCK:   -3.71 KCAL/MOL
REMARK 922        TOTAL FREE ENERGY PREDICTED BY IDOCK:   -4.54 KCAL/MOL
REMARK 923 INTER-LIGAND FREE ENERGY PREDICTED BY IDOCK:   -4.45 KCAL/MOL
REMARK 924 INTRA-LIGAND FREE ENERGY PREDICTED BY IDOCK:   -0.09 KCAL/MOL
REMARK 927      BINDING AFFINITY PREDICTED BY RF-SCORE:    0.00 PKD
ROOT
HETATM    1  C   UNL     1      -9.048  18.334  68.424  1.00  0.00    -0.331 C  
HETATM    2  C   UNL     1     -10.023  17.774  67.399  1.00  0.00    -0.323 C  
ENDROOT
BRANCH   2   3
HETATM    3  N   UNL     1      -9.958  16.315  67.292  1.00  0.00    -0.245 N  
HETATM    4  O   UNL     1     -11.850  16.135  68.615  1.00  0.00    -0.321 OA 
HETATM    5  C   UNL     1     -11.014  15.597  67.890  1.00  0.00    -0.319 C  
BRANCH   3   6
HETATM    6  C   UNL     1      -8.920  15.721  66.437  1.00  0.00    -0.331 C  
HETATM    7  C   UNL     1      -7.601  15.345  67.091  1.00  0.00    -0.238 C  
ENDBRANCH   3   6
BRANCH   5   8
HETATM    8  C   UNL     1     -11.151  14.124  67.682  1.00  0.00    -0.296 A  
HETATM    9  C   UNL     1     -11.092  13.212  68.738  1.00  0.00    -0.309 A  
HETATM   10  C   UNL     1     -11.407  11.865  68.536  1.00  0.00    -0.329 A  
HETATM   11  C   UNL     1     -11.559  10.939  69.707  1.00  0.00    -0.399 C  
HETATM   12  C   UNL     1     -11.612  11.404  67.233  1.00  0.00    -0.232 A  
HETATM   13  C   UNL     1     -11.545  12.287  66.151  1.00  0.00    -0.450 A  
HETATM   14  C   UNL     1     -11.331  13.651  66.376  1.00  0.00    -0.331 A  
ENDBRANCH   5   8
ENDBRANCH   2   3
TORSDOF 3
ENDMDL
MODEL      101
REMARK 921   NORMALIZED FREE ENERGY PREDICTED BY IDOCK:   -3.70 KCAL/MOL
REMARK 922        TOTAL FREE ENERGY PREDICTED BY IDOCK:   -4.53 KCAL/MOL
REMARK 923 INTER-LIGAND FREE ENERGY PREDICTED BY IDOCK:   -4.11 KCAL/MOL
REMARK 924 INTRA-LIGAND FREE ENERGY PREDICTED BY IDOCK:   -0.42 KCAL/MOL
REMARK 927      BINDING AFFINITY PREDICTED BY RF-SCORE:    0.00 PKD
ROOT
HETATM    1  C   UNL     1      -9.061   9.618  70.117  1.00  0.00    -0.280 C  
HETATM    2  C   UNL     1      -8.738   9.061  68.738  1.00  0.00    -0.136 C  
ENDROOT
BRANCH   2   3
HETATM    3  N   UNL     1      -8.953  10.037  67.667  1.00  0.00    -0.131 N  
HETATM    4  O   UNL     1     -10.719   8.770  66.868  1.00  0.00    -0.240 OA 
HETATM    5  C   UNL     1     -10.065   9.811  66.830  1.00  0.00    -0.226 C  
BRANCH   3   6
HETATM    6  C   UNL     1      -8.122  11.249  67.649  1.00  0.00    -0.119 C  
HETATM    7  C   UNL     1      -7.024  11.334  66.602  1.00  0.00    -0.129 C  
ENDBRANCH   3   6
BRANCH   5   8
HETATM    8  C   UNL     1     -10.488  10.837  65.830  1.00  0.00    -0.256 A  
HETATM    9  C   UNL     1     -11.344  11.891  66.157  1.00  0.00    -0.383 A  
HETATM   10  C   UNL     1     -11.572  12.932  65.252  1.00  0.00    -0.376 A  
HETATM   11  C   UNL     1     -12.309  14.164  65.687  1.00  0.00    -0.473 C  
HETATM   12  C   UNL     1     -11.073  12.822  63.952  1.00  0.00    -0.477 A  
HETATM   13  C   UNL     1     -10.321  11.706  63.574  1.00  0.00    -0.488 A  
HETATM   14  C   UNL     1     -10.013  10.721  64.517  1.00  0.00    -0.395 A  
ENDBRANCH   5   8
ENDBRANCH   2   3
TORSDOF 3
ENDMDL
MODEL      102
REMARK 921   NORMALIZED FREE ENERGY PREDICTED BY IDOCK:   -3.68 KCAL/MOL
REMARK 922        TOTAL FREE ENERGY PREDICTED BY IDOCK:   -4.50 KCAL/MOL
REMARK 923 INTER-LIGAND FREE ENERGY PREDICTED BY IDOCK:   -4.20 KCAL/MOL
REMARK 924 INTRA-LIGAND FREE ENERGY PREDICTED BY IDOCK:   -0.31 KCAL/MOL
REMARK 927      BINDING AFFINITY PREDICTED BY RF-SCORE:    0.00 PKD
ROOT
HETATM    1  C   UNL     1      -8.029   5.607  71.098  1.00  0.00    -0.112 C  
HETATM    2  C   UNL     1      -9.353   5.705  71.843  1.00  0.00    -0.144 C  
ENDROOT
BRANCH   2   3
HETATM    3  N   UNL     1     -10.228   6.751  71.309  1.00  0.00    -0.202 N  
HETATM    4  O   UNL     1      -9.010   8.354  72.455  1.00  0.00    -0.207 OA 
HETATM    5  C   UNL     1      -9.882   8.080  71.631  1.00  0.00    -0.170 C  
BRANCH   3   6
HETATM    6  C   UNL     1     -11.275   6.367  70.351  1.00  0.00    -0.372 C  
HETATM    7  C   UNL     1     -10.862   6.163  68.903  1.00  0.00    -0.406 C  
ENDBRANCH   3   6
BRANCH   5   8
HETATM    8  C   UNL     1     -10.587   9.230  70.989  1.00  0.00    -0.386 A  
HETATM    9  C   UNL     1     -11.735   9.804  71.541  1.00  0.00    -0.450 A  
HETATM   10  C   UNL     1     -12.262  10.989  71.019  1.00  0.00    -0.456 A  
HETATM   11  C   UNL     1     -13.354  11.716  71.745  1.00  0.00    -0.340 C  
HETATM   12  C   UNL     1     -11.732  11.502  69.832  1.00  0.00    -0.420 A  
HETATM   13  C   UNL     1     -10.662  10.862  69.199  1.00  0.00    -0.265 A  
HETATM   14  C   UNL     1     -10.078   9.735  69.787  1.00  0.00    -0.268 A  
ENDBRANCH   5   8
ENDBRANCH   2   3
TORSDOF 3
ENDMDL
MODEL      103
REMARK 921   NORMALIZED FREE ENERGY PREDICTED BY IDOCK:   -3.68 KCAL/MOL
REMARK 922        TOTAL FREE ENERGY PREDICTED BY IDOCK:   -4.50 KCAL/MOL
REMARK 923 INTER-LIGAND FREE ENERGY PREDICTED BY IDOCK:   -4.16 KCAL/MOL
REMARK 924 INTRA-LIGAND FREE ENERGY PREDICTED BY IDOCK:   -0.34 KCAL/MOL
REMARK 927      BINDING AFFINITY PREDICTED BY RF-SCORE:    0.00 PKD
ROOT
HETATM    1  C   UNL     1      -6.550  18.734  69.320  1.00  0.00    -0.298 C  
HETATM    2  C   UNL     1      -7.600  18.501  68.243  1.00  0.00    -0.287 C  
ENDROOT
BRANCH   2   3
HETATM    3  N   UNL     1      -8.301  17.225  68.401  1.00  0.00    -0.252 N  
HETATM    4  O   UNL     1     -10.271  18.362  68.837  1.00  0.00    -0.382 OA 
HETATM    5  C   UNL     1      -9.693  17.299  68.614  1.00  0.00    -0.301 C  
BRANCH   3   6
HETATM    6  C   UNL     1      -7.556  15.982  68.154  1.00  0.00    -0.136 C  
HETATM    7  C   UNL     1      -7.127  15.168  69.363  1.00  0.00    -0.189 C  
ENDBRANCH   3   6
BRANCH   5   8
HETATM    8  C   UNL     1     -10.534  16.065  68.600  1.00  0.00    -0.251 A  
HETATM    9  C   UNL     1     -10.946  15.428  69.773  1.00  0.00    -0.294 A  
HETATM   10  C   UNL     1     -11.881  14.389  69.730  1.00  0.00    -0.375 A  
HETATM   11  C   UNL     1     -12.484  13.861  70.999  1.00  0.00    -0.452 C  
HETATM   12  C   UNL     1     -12.269  13.876  68.490  1.00  0.00    -0.201 A  
HETATM   13  C   UNL     1     -11.762  14.423  67.308  1.00  0.00    -0.429 A  
HETATM   14  C   UNL     1     -10.908  15.529  67.361  1.00  0.00    -0.312 A  
ENDBRANCH   5   8
ENDBRANCH   2   3
TORSDOF 3
ENDMDL
MODEL      104
REMARK 921   NORMALIZED FREE ENERGY PREDICTED BY IDOCK:   -3.64 KCAL/MOL
REMARK 922        TOTAL FREE ENERGY PREDICTED BY IDOCK:   -4.46 KCAL/MOL
REMARK 923 INTER-LIGAND FREE ENERGY PREDICTED BY IDOCK:   -4.14 KCAL/MOL
REMARK 924 INTRA-LIGAND FREE ENERGY PREDICTED BY IDOCK:   -0.32 KCAL/MOL
REMARK 927      BINDING AFFINITY PREDICTED BY RF-SCORE:    0.00 PKD
ROOT
HETATM    1  C   UNL     1      -6.520  19.892  68.250  1.00  0.00    -0.304 C  
HETATM    2  C   UNL     1      -7.634  19.918  67.214  1.00  0.00    -0.271 C  
ENDROOT
BRANCH   2   3
HETATM    3  N   UNL     1      -8.416  18.680  67.191  1.00  0.00    -0.261 N  
HETATM    4  O   UNL     1      -7.025  17.832  65.545  1.00  0.00    -0.415 OA 
HETATM    5  C   UNL     1      -7.937  17.654  66.351  1.00  0.00    -0.274 C  
BRANCH   3   6
HETATM    6  C   UNL     1      -9.516  18.528  68.155  1.00  0.00    -0.317 C  
HETATM    7  C   UNL     1     -10.898  18.987  67.722  1.00  0.00    -0.374 C  
ENDBRANCH   3   6
BRANCH   5   8
HETATM    8  C   UNL     1      -8.543  16.288  66.391  1.00  0.00    -0.361 A  
HETATM    9  C   UNL     1      -7.919  15.213  67.028  1.00  0.00    -0.223 A  
HETATM   10  C   UNL     1      -8.594  14.001  67.206  1.00  0.00    -0.228 A  
HETATM   11  C   UNL     1      -8.008  12.931  68.080  1.00  0.00    -0.158 C  
HETATM   12  C   UNL     1      -9.834  13.818  66.590  1.00  0.00    -0.286 A  
HETATM   13  C   UNL     1     -10.411  14.847  65.840  1.00  0.00    -0.330 A  
HETATM   14  C   UNL     1      -9.774  16.089  65.754  1.00  0.00    -0.340 A  
ENDBRANCH   5   8
ENDBRANCH   2   3
TORSDOF 3
ENDMDL
MODEL      105
REMARK 921   NORMALIZED FREE ENERGY PREDICTED BY IDOCK:   -3.63 KCAL/MOL
REMARK 922        TOTAL FREE ENERGY PREDICTED BY IDOCK:   -4.45 KCAL/MOL
REMARK 923 INTER-LIGAND FREE ENERGY PREDICTED BY IDOCK:   -5.21 KCAL/MOL
REMARK 924 INTRA-LIGAND FREE ENERGY PREDICTED BY IDOCK:    0.76 KCAL/MOL
REMARK 927      BINDING AFFINITY PREDICTED BY RF-SCORE:    0.00 PKD
ROOT
HETATM    1  C   UNL     1     -12.518  15.722  71.981  1.00  0.00    -0.531 C  
HETATM    2  C   UNL     1     -13.178  14.952  70.846  1.00  0.00    -0.368 C  
ENDROOT
BRANCH   2   3
HETATM    3  N   UNL     1     -12.646  13.596  70.696  1.00  0.00    -0.319 N  
HETATM    4  O   UNL     1     -13.804  12.934  72.590  1.00  0.00    -0.596 OA 
HETATM    5  C   UNL     1     -13.123  12.634  71.610  1.00  0.00    -0.323 C  
BRANCH   3   6
HETATM    6  C   UNL     1     -11.811  13.297  69.524  1.00  0.00    -0.327 C  
HETATM    7  C   UNL     1     -12.039  14.123  68.269  1.00  0.00    -0.297 C  
ENDBRANCH   3   6
BRANCH   5   8
HETATM    8  C   UNL     1     -12.796  11.186  71.435  1.00  0.00    -0.544 A  
HETATM    9  C   UNL     1     -13.594  10.171  71.966  1.00  0.00    -0.328 A  
HETATM   10  C   UNL     1     -13.365   8.833  71.630  1.00  0.00    -0.402 A  
HETATM   11  C   UNL     1     -14.353   7.775  72.022  1.00  0.00    -0.472 C  
HETATM   12  C   UNL     1     -12.223   8.505  70.895  1.00  0.00    -0.110 A  
HETATM   13  C   UNL     1     -11.345   9.504  70.466  1.00  0.00    -0.343 A  
HETATM   14  C   UNL     1     -11.640  10.848  70.721  1.00  0.00    -0.249 A  
ENDBRANCH   5   8
ENDBRANCH   2   3
TORSDOF 3
ENDMDL
MODEL      106
REMARK 921   NORMALIZED FREE ENERGY PREDICTED BY IDOCK:   -3.62 KCAL/MOL
REMARK 922        TOTAL FREE ENERGY PREDICTED BY IDOCK:   -4.44 KCAL/MOL
REMARK 923 INTER-LIGAND FREE ENERGY PREDICTED BY IDOCK:   -4.13 KCAL/MOL
REMARK 924 INTRA-LIGAND FREE ENERGY PREDICTED BY IDOCK:   -0.31 KCAL/MOL
REMARK 927      BINDING AFFINITY PREDICTED BY RF-SCORE:    0.00 PKD
ROOT
HETATM    1  C   UNL     1      -9.481   9.206  70.887  1.00  0.00    -0.343 C  
HETATM    2  C   UNL     1     -10.657   9.224  69.921  1.00  0.00    -0.226 C  
ENDROOT
BRANCH   2   3
HETATM    3  N   UNL     1     -10.664  10.408  69.059  1.00  0.00    -0.213 N  
HETATM    4  O   UNL     1     -12.747  10.995  69.884  1.00  0.00    -0.212 OA 
HETATM    5  C   UNL     1     -11.761  11.283  69.208  1.00  0.00    -0.334 C  
BRANCH   3   6
HETATM    6  C   UNL     1      -9.472  10.691  68.247  1.00  0.00    -0.159 C  
HETATM    7  C   UNL     1      -9.374  10.021  66.886  1.00  0.00    -0.188 C  
ENDBRANCH   3   6
BRANCH   5   8
HETATM    8  C   UNL     1     -11.778  12.609  68.522  1.00  0.00    -0.372 A  
HETATM    9  C   UNL     1     -11.582  13.809  69.209  1.00  0.00    -0.362 A  
HETATM   10  C   UNL     1     -11.421  15.012  68.514  1.00  0.00    -0.335 A  
HETATM   11  C   UNL     1     -10.992  16.253  69.240  1.00  0.00    -0.317 C  
HETATM   12  C   UNL     1     -11.631  15.030  67.133  1.00  0.00    -0.271 A  
HETATM   13  C   UNL     1     -11.956  13.855  66.450  1.00  0.00    -0.467 A  
HETATM   14  C   UNL     1     -12.013  12.640  67.141  1.00  0.00    -0.326 A  
ENDBRANCH   5   8
ENDBRANCH   2   3
TORSDOF 3
ENDMDL
MODEL      107
REMARK 921   NORMALIZED FREE ENERGY PREDICTED BY IDOCK:   -3.60 KCAL/MOL
REMARK 922        TOTAL FREE ENERGY PREDICTED BY IDOCK:   -4.42 KCAL/MOL
REMARK 923 INTER-LIGAND FREE ENERGY PREDICTED BY IDOCK:   -4.27 KCAL/MOL
REMARK 924 INTRA-LIGAND FREE ENERGY PREDICTED BY IDOCK:   -0.15 KCAL/MOL
REMARK 927      BINDING AFFINITY PREDICTED BY RF-SCORE:    0.00 PKD
ROOT
HETATM    1  C   UNL     1      -8.961   8.612  66.189  1.00  0.00    -0.221 C  
HETATM    2  C   UNL     1      -8.770   9.101  67.618  1.00  0.00    -0.120 C  
ENDROOT
BRANCH   2   3
HETATM    3  N   UNL     1     -10.033   9.212  68.352  1.00  0.00    -0.174 N  
HETATM    4  O   UNL     1      -9.201   7.804  69.992  1.00  0.00    -0.153 OA 
HETATM    5  C   UNL     1     -10.085   8.567  69.605  1.00  0.00    -0.202 C  
BRANCH   3   6
HETATM    6  C   UNL     1     -11.069  10.114  67.830  1.00  0.00    -0.238 C  
HETATM    7  C   UNL     1     -10.798  11.608  67.892  1.00  0.00    -0.255 C  
ENDBRANCH   3   6
BRANCH   5   8
HETATM    8  C   UNL     1     -11.248   8.770  70.521  1.00  0.00    -0.278 A  
HETATM    9  C   UNL     1     -11.599  10.029  71.014  1.00  0.00    -0.476 A  
HETATM   10  C   UNL     1     -12.795  10.212  71.715  1.00  0.00    -0.554 A  
HETATM   11  C   UNL     1     -13.273  11.595  72.047  1.00  0.00    -0.443 C  
HETATM   12  C   UNL     1     -13.552   9.093  72.069  1.00  0.00    -0.520 A  
HETATM   13  C   UNL     1     -13.142   7.811  71.690  1.00  0.00    -0.378 A  
HETATM   14  C   UNL     1     -11.998   7.650  70.900  1.00  0.00    -0.252 A  
ENDBRANCH   5   8
ENDBRANCH   2   3
TORSDOF 3
ENDMDL
MODEL      108
REMARK 921   NORMALIZED FREE ENERGY PREDICTED BY IDOCK:   -3.60 KCAL/MOL
REMARK 922        TOTAL FREE ENERGY PREDICTED BY IDOCK:   -4.41 KCAL/MOL
REMARK 923 INTER-LIGAND FREE ENERGY PREDICTED BY IDOCK:   -4.33 KCAL/MOL
REMARK 924 INTRA-LIGAND FREE ENERGY PREDICTED BY IDOCK:   -0.08 KCAL/MOL
REMARK 927      BINDING AFFINITY PREDICTED BY RF-SCORE:    0.00 PKD
ROOT
HETATM    1  C   UNL     1     -10.315   7.584  67.257  1.00  0.00    -0.366 C  
HETATM    2  C   UNL     1      -9.746   8.554  66.232  1.00  0.00    -0.229 C  
ENDROOT
BRANCH   2   3
HETATM    3  N   UNL     1      -9.875   9.954  66.644  1.00  0.00    -0.196 N  
HETATM    4  O   UNL     1     -10.285  10.561  64.447  1.00  0.00    -0.346 OA 
HETATM    5  C   UNL     1     -10.245  10.869  65.637  1.00  0.00    -0.263 C  
BRANCH   3   6
HETATM    6  C   UNL     1      -9.788  10.273  68.076  1.00  0.00    -0.150 C  
HETATM    7  C   UNL     1     -11.082  10.596  68.804  1.00  0.00    -0.316 C  
ENDBRANCH   3   6
BRANCH   5   8
HETATM    8  C   UNL     1     -10.588  12.283  65.979  1.00  0.00    -0.287 A  
HETATM    9  C   UNL     1      -9.618  13.221  66.341  1.00  0.00    -0.260 A  
HETATM   10  C   UNL     1      -9.947  14.573  66.474  1.00  0.00    -0.290 A  
HETATM   11  C   UNL     1      -8.868  15.601  66.644  1.00  0.00    -0.327 C  
HETATM   12  C   UNL     1     -11.290  14.953  66.411  1.00  0.00    -0.308 A  
HETATM   13  C   UNL     1     -12.286  14.001  66.176  1.00  0.00    -0.494 A  
HETATM   14  C   UNL     1     -11.934  12.667  65.942  1.00  0.00    -0.497 A  
ENDBRANCH   5   8
ENDBRANCH   2   3
TORSDOF 3
ENDMDL
MODEL      109
REMARK 921   NORMALIZED FREE ENERGY PREDICTED BY IDOCK:   -3.59 KCAL/MOL
REMARK 922        TOTAL FREE ENERGY PREDICTED BY IDOCK:   -4.41 KCAL/MOL
REMARK 923 INTER-LIGAND FREE ENERGY PREDICTED BY IDOCK:   -5.12 KCAL/MOL
REMARK 924 INTRA-LIGAND FREE ENERGY PREDICTED BY IDOCK:    0.71 KCAL/MOL
REMARK 927      BINDING AFFINITY PREDICTED BY RF-SCORE:    0.00 PKD
ROOT
HETATM    1  C   UNL     1     -10.184   8.552  71.235  1.00  0.00    -0.287 C  
HETATM    2  C   UNL     1     -11.538   8.883  70.622  1.00  0.00    -0.215 C  
ENDROOT
BRANCH   2   3
HETATM    3  N   UNL     1     -11.969  10.253  70.906  1.00  0.00    -0.344 N  
HETATM    4  O   UNL     1     -10.490  11.049  69.312  1.00  0.00    -0.219 OA 
HETATM    5  C   UNL     1     -11.414  11.264  70.094  1.00  0.00    -0.247 C  
BRANCH   3   6
HETATM    6  C   UNL     1     -13.057  10.458  71.873  1.00  0.00    -0.458 C  
HETATM    7  C   UNL     1     -13.727   9.222  72.450  1.00  0.00    -0.517 C  
ENDBRANCH   3   6
BRANCH   5   8
HETATM    8  C   UNL     1     -11.921  12.667  70.169  1.00  0.00    -0.375 A  
HETATM    9  C   UNL     1     -12.767  13.103  71.192  1.00  0.00    -0.386 A  
HETATM   10  C   UNL     1     -13.072  14.460  71.335  1.00  0.00    -0.416 A  
HETATM   11  C   UNL     1     -13.793  14.947  72.557  1.00  0.00    -0.564 C  
HETATM   12  C   UNL     1     -12.665  15.356  70.344  1.00  0.00    -0.407 A  
HETATM   13  C   UNL     1     -11.926  14.908  69.245  1.00  0.00    -0.326 A  
HETATM   14  C   UNL     1     -11.538  13.566  69.165  1.00  0.00    -0.359 A  
ENDBRANCH   5   8
ENDBRANCH   2   3
TORSDOF 3
ENDMDL
MODEL      110
REMARK 921   NORMALIZED FREE ENERGY PREDICTED BY IDOCK:   -3.57 KCAL/MOL
REMARK 922        TOTAL FREE ENERGY PREDICTED BY IDOCK:   -4.38 KCAL/MOL
REMARK 923 INTER-LIGAND FREE ENERGY PREDICTED BY IDOCK:   -4.18 KCAL/MOL
REMARK 924 INTRA-LIGAND FREE ENERGY PREDICTED BY IDOCK:   -0.20 KCAL/MOL
REMARK 927      BINDING AFFINITY PREDICTED BY RF-SCORE:    0.00 PKD
ROOT
HETATM    1  C   UNL     1     -12.878  10.824  71.515  1.00  0.00    -0.567 C  
HETATM    2  C   UNL     1     -11.971  11.204  70.353  1.00  0.00    -0.378 C  
ENDROOT
BRANCH   2   3
HETATM    3  N   UNL     1     -11.333  10.042  69.729  1.00  0.00    -0.245 N  
HETATM    4  O   UNL     1     -11.694  10.969  67.637  1.00  0.00    -0.576 OA 
HETATM    5  C   UNL     1     -11.174  10.095  68.328  1.00  0.00    -0.183 C  
BRANCH   3   6
HETATM    6  C   UNL     1     -10.754   9.009  70.599  1.00  0.00    -0.239 C  
HETATM    7  C   UNL     1      -9.271   9.105  70.916  1.00  0.00    -0.326 C  
ENDBRANCH   3   6
BRANCH   5   8
HETATM    8  C   UNL     1     -10.372   9.058  67.612  1.00  0.00    -0.317 A  
HETATM    9  C   UNL     1     -10.767   7.719  67.547  1.00  0.00    -0.265 A  
HETATM   10  C   UNL     1     -10.096   6.816  66.718  1.00  0.00    -0.250 A  
HETATM   11  C   UNL     1     -10.656   5.445  66.483  1.00  0.00    -0.353 C  
HETATM   12  C   UNL     1      -8.918   7.222  66.086  1.00  0.00    -0.179 A  
HETATM   13  C   UNL     1      -8.441   8.527  66.247  1.00  0.00    -0.130 A  
HETATM   14  C   UNL     1      -9.177   9.451  66.996  1.00  0.00    -0.171 A  
ENDBRANCH   5   8
ENDBRANCH   2   3
TORSDOF 3
ENDMDL
MODEL      111
REMARK 921   NORMALIZED FREE ENERGY PREDICTED BY IDOCK:   -3.56 KCAL/MOL
REMARK 922        TOTAL FREE ENERGY PREDICTED BY IDOCK:   -4.37 KCAL/MOL
REMARK 923 INTER-LIGAND FREE ENERGY PREDICTED BY IDOCK:   -4.03 KCAL/MOL
REMARK 924 INTRA-LIGAND FREE ENERGY PREDICTED BY IDOCK:   -0.34 KCAL/MOL
REMARK 927      BINDING AFFINITY PREDICTED BY RF-SCORE:    0.00 PKD
ROOT
HETATM    1  C   UNL     1     -11.086  15.320  64.943  1.00  0.00    -0.435 C  
HETATM    2  C   UNL     1     -11.989  14.130  65.235  1.00  0.00    -0.381 C  
ENDROOT
BRANCH   2   3
HETATM    3  N   UNL     1     -11.267  13.003  65.830  1.00  0.00    -0.284 N  
HETATM    4  O   UNL     1     -11.611  11.766  63.902  1.00  0.00    -0.390 OA 
HETATM    5  C   UNL     1     -11.066  11.882  64.999  1.00  0.00    -0.305 C  
BRANCH   3   6
HETATM    6  C   UNL     1     -10.662  13.182  67.157  1.00  0.00    -0.255 C  
HETATM    7  C   UNL     1     -11.568  13.041  68.369  1.00  0.00    -0.370 C  
ENDBRANCH   3   6
BRANCH   5   8
HETATM    8  C   UNL     1     -10.184  10.757  65.435  1.00  0.00    -0.341 A  
HETATM    9  C   UNL     1     -10.586   9.819  66.389  1.00  0.00    -0.117 A  
HETATM   10  C   UNL     1      -9.815   8.679  66.638  1.00  0.00    -0.336 A  
HETATM   11  C   UNL     1     -10.356   7.573  67.494  1.00  0.00    -0.321 C  
HETATM   12  C   UNL     1      -8.553   8.572  66.049  1.00  0.00    -0.162 A  
HETATM   13  C   UNL     1      -8.085   9.571  65.189  1.00  0.00    -0.126 A  
HETATM   14  C   UNL     1      -8.908  10.656  64.868  1.00  0.00    -0.204 A  
ENDBRANCH   5   8
ENDBRANCH   2   3
TORSDOF 3
ENDMDL
MODEL      112
REMARK 921   NORMALIZED FREE ENERGY PREDICTED BY IDOCK:   -3.55 KCAL/MOL
REMARK 922        TOTAL FREE ENERGY PREDICTED BY IDOCK:   -4.35 KCAL/MOL
REMARK 923 INTER-LIGAND FREE ENERGY PREDICTED BY IDOCK:   -3.97 KCAL/MOL
REMARK 924 INTRA-LIGAND FREE ENERGY PREDICTED BY IDOCK:   -0.38 KCAL/MOL
REMARK 927      BINDING AFFINITY PREDICTED BY RF-SCORE:    0.00 PKD
ROOT
HETATM    1  C   UNL     1      -7.900  10.444  66.393  1.00  0.00    -0.128 C  
HETATM    2  C   UNL     1      -7.807  10.107  67.875  1.00  0.00    -0.101 C  
ENDROOT
BRANCH   2   3
HETATM    3  N   UNL     1      -9.068   9.603  68.422  1.00  0.00    -0.123 N  
HETATM    4  O   UNL     1      -8.224   9.823  70.567  1.00  0.00    -0.209 OA 
HETATM    5  C   UNL     1      -9.180   9.595  69.828  1.00  0.00    -0.219 C  
BRANCH   3   6
HETATM    6  C   UNL     1     -10.170   9.316  67.492  1.00  0.00    -0.242 C  
HETATM    7  C   UNL     1     -10.414   7.863  67.119  1.00  0.00    -0.414 C  
ENDBRANCH   3   6
BRANCH   5   8
HETATM    8  C   UNL     1     -10.483   9.281  70.488  1.00  0.00    -0.312 A  
HETATM    9  C   UNL     1     -10.844   7.981  70.850  1.00  0.00    -0.248 A  
HETATM   10  C   UNL     1     -11.981   7.747  71.628  1.00  0.00    -0.330 A  
HETATM   11  C   UNL     1     -12.240   6.383  72.197  1.00  0.00    -0.278 C  
HETATM   12  C   UNL     1     -12.850   8.807  71.896  1.00  0.00    -0.423 A  
HETATM   13  C   UNL     1     -12.564  10.093  71.428  1.00  0.00    -0.526 A  
HETATM   14  C   UNL     1     -11.371  10.334  70.739  1.00  0.00    -0.421 A  
ENDBRANCH   5   8
ENDBRANCH   2   3
TORSDOF 3
ENDMDL
MODEL      113
REMARK 921   NORMALIZED FREE ENERGY PREDICTED BY IDOCK:   -3.54 KCAL/MOL
REMARK 922        TOTAL FREE ENERGY PREDICTED BY IDOCK:   -4.34 KCAL/MOL
REMARK 923 INTER-LIGAND FREE ENERGY PREDICTED BY IDOCK:   -4.11 KCAL/MOL
REMARK 924 INTRA-LIGAND FREE ENERGY PREDICTED BY IDOCK:   -0.23 KCAL/MOL
REMARK 927      BINDING AFFINITY PREDICTED BY RF-SCORE:    0.00 PKD
ROOT
HETATM    1  C   UNL     1     -12.752  13.884  65.332  1.00  0.00    -0.525 C  
HETATM    2  C   UNL     1     -12.270  13.871  66.776  1.00  0.00    -0.399 C  
ENDROOT
BRANCH   2   3
HETATM    3  N   UNL     1     -10.939  14.461  66.935  1.00  0.00    -0.302 N  
HETATM    4  O   UNL     1     -11.743  15.814  68.634  1.00  0.00    -0.375 OA 
HETATM    5  C   UNL     1     -10.787  15.383  67.991  1.00  0.00    -0.292 C  
BRANCH   3   6
HETATM    6  C   UNL     1      -9.836  13.932  66.120  1.00  0.00    -0.302 C  
HETATM    7  C   UNL     1      -9.562  12.439  66.192  1.00  0.00    -0.238 C  
ENDBRANCH   3   6
BRANCH   5   8
HETATM    8  C   UNL     1      -9.436  15.902  68.363  1.00  0.00    -0.201 A  
HETATM    9  C   UNL     1      -9.020  17.198  68.049  1.00  0.00    -0.233 A  
HETATM   10  C   UNL     1      -7.829  17.711  68.570  1.00  0.00    -0.282 A  
HETATM   11  C   UNL     1      -7.500  19.167  68.413  1.00  0.00    -0.342 C  
HETATM   12  C   UNL     1      -6.971  16.859  69.268  1.00  0.00    -0.211 A  
HETATM   13  C   UNL     1      -7.318  15.521  69.478  1.00  0.00    -0.203 A  
HETATM   14  C   UNL     1      -8.559  15.046  69.041  1.00  0.00    -0.205 A  
ENDBRANCH   5   8
ENDBRANCH   2   3
TORSDOF 3
ENDMDL
MODEL      114
REMARK 921   NORMALIZED FREE ENERGY PREDICTED BY IDOCK:   -3.54 KCAL/MOL
REMARK 922        TOTAL FREE ENERGY PREDICTED BY IDOCK:   -4.34 KCAL/MOL
REMARK 923 INTER-LIGAND FREE ENERGY PREDICTED BY IDOCK:   -3.96 KCAL/MOL
REMARK 924 INTRA-LIGAND FREE ENERGY PREDICTED BY IDOCK:   -0.38 KCAL/MOL
REMARK 927      BINDING AFFINITY PREDICTED BY RF-SCORE:    0.00 PKD
ROOT
HETATM    1  C   UNL     1      -8.987   4.388  66.738  1.00  0.00    -0.119 C  
HETATM    2  C   UNL     1      -8.461   4.876  68.080  1.00  0.00    -0.102 C  
ENDROOT
BRANCH   2   3
HETATM    3  N   UNL     1      -9.337   5.869  68.705  1.00  0.00    -0.117 N  
HETATM    4  O   UNL     1      -9.900   4.338  70.348  1.00  0.00    -0.202 OA 
HETATM    5  C   UNL     1      -9.946   5.489  69.919  1.00  0.00    -0.215 C  
BRANCH   3   6
HETATM    6  C   UNL     1      -9.380   7.223  68.134  1.00  0.00    -0.131 C  
HETATM    7  C   UNL     1     -10.570   7.579  67.258  1.00  0.00    -0.394 C  
ENDBRANCH   3   6
BRANCH   5   8
HETATM    8  C   UNL     1     -10.705   6.484  70.736  1.00  0.00    -0.290 A  
HETATM    9  C   UNL     1     -12.090   6.633  70.635  1.00  0.00    -0.342 A  
HETATM   10  C   UNL     1     -12.789   7.437  71.540  1.00  0.00    -0.416 A  
HETATM   11  C   UNL     1     -14.289   7.419  71.565  1.00  0.00    -0.594 C  
HETATM   12  C   UNL     1     -12.071   8.226  72.441  1.00  0.00    -0.430 A  
HETATM   13  C   UNL     1     -10.674   8.182  72.465  1.00  0.00    -0.419 A  
HETATM   14  C   UNL     1      -9.990   7.297  71.625  1.00  0.00    -0.192 A  
ENDBRANCH   5   8
ENDBRANCH   2   3
TORSDOF 3
ENDMDL
MODEL      115
REMARK 921   NORMALIZED FREE ENERGY PREDICTED BY IDOCK:   -3.54 KCAL/MOL
REMARK 922        TOTAL FREE ENERGY PREDICTED BY IDOCK:   -4.34 KCAL/MOL
REMARK 923 INTER-LIGAND FREE ENERGY PREDICTED BY IDOCK:   -4.06 KCAL/MOL
REMARK 924 INTRA-LIGAND FREE ENERGY PREDICTED BY IDOCK:   -0.28 KCAL/MOL
REMARK 927      BINDING AFFINITY PREDICTED BY RF-SCORE:    0.00 PKD
ROOT
HETATM    1  C   UNL     1     -14.409   7.807  71.610  1.00  0.00    -0.607 C  
HETATM    2  C   UNL     1     -13.450   8.782  72.279  1.00  0.00    -0.420 C  
ENDROOT
BRANCH   2   3
HETATM    3  N   UNL     1     -12.386   9.236  71.381  1.00  0.00    -0.326 N  
HETATM    4  O   UNL     1     -11.147   7.349  71.895  1.00  0.00    -0.233 OA 
HETATM    5  C   UNL     1     -11.297   8.357  71.207  1.00  0.00    -0.266 C  
BRANCH   3   6
HETATM    6  C   UNL     1     -12.603  10.465  70.604  1.00  0.00    -0.348 C  
HETATM    7  C   UNL     1     -12.737  11.769  71.373  1.00  0.00    -0.413 C  
ENDBRANCH   3   6
BRANCH   5   8
HETATM    8  C   UNL     1     -10.252   8.631  70.175  1.00  0.00    -0.204 A  
HETATM    9  C   UNL     1     -10.426   8.301  68.829  1.00  0.00    -0.200 A  
HETATM   10  C   UNL     1      -9.513   8.735  67.864  1.00  0.00    -0.160 A  
HETATM   11  C   UNL     1      -9.819   8.570  66.405  1.00  0.00    -0.327 C  
HETATM   12  C   UNL     1      -8.331   9.355  68.278  1.00  0.00    -0.119 A  
HETATM   13  C   UNL     1      -8.086   9.575  69.637  1.00  0.00    -0.128 A  
HETATM   14  C   UNL     1      -9.054   9.229  70.585  1.00  0.00    -0.309 A  
ENDBRANCH   5   8
ENDBRANCH   2   3
TORSDOF 3
ENDMDL
MODEL      116
REMARK 921   NORMALIZED FREE ENERGY PREDICTED BY IDOCK:   -3.52 KCAL/MOL
REMARK 922        TOTAL FREE ENERGY PREDICTED BY IDOCK:   -4.32 KCAL/MOL
REMARK 923 INTER-LIGAND FREE ENERGY PREDICTED BY IDOCK:   -4.33 KCAL/MOL
REMARK 924 INTRA-LIGAND FREE ENERGY PREDICTED BY IDOCK:    0.01 KCAL/MOL
REMARK 927      BINDING AFFINITY PREDICTED BY RF-SCORE:    0.00 PKD
ROOT
HETATM    1  C   UNL     1     -13.946   8.828  72.332  1.00  0.00    -0.482 C  
HETATM    2  C   UNL     1     -12.494   9.286  72.314  1.00  0.00    -0.307 C  
ENDROOT
BRANCH   2   3
HETATM    3  N   UNL     1     -11.954   9.404  70.958  1.00  0.00    -0.305 N  
HETATM    4  O   UNL     1     -12.431  11.670  70.966  1.00  0.00    -0.379 OA 
HETATM    5  C   UNL     1     -11.899  10.706  70.419  1.00  0.00    -0.349 C  
BRANCH   3   6
HETATM    6  C   UNL     1     -11.356   8.214  70.336  1.00  0.00    -0.181 C  
HETATM    7  C   UNL     1     -11.193   6.975  71.201  1.00  0.00    -0.304 C  
ENDBRANCH   3   6
BRANCH   5   8
HETATM    8  C   UNL     1     -11.196  10.968  69.126  1.00  0.00    -0.318 A  
HETATM    9  C   UNL     1     -11.870  11.418  67.988  1.00  0.00    -0.273 A  
HETATM   10  C   UNL     1     -11.161  11.828  66.855  1.00  0.00    -0.361 A  
HETATM   11  C   UNL     1     -11.871  12.514  65.726  1.00  0.00    -0.494 C  
HETATM   12  C   UNL     1      -9.780  11.623  66.808  1.00  0.00    -0.220 A  
HETATM   13  C   UNL     1      -9.111  11.053  67.895  1.00  0.00    -0.147 A  
HETATM   14  C   UNL     1      -9.816  10.741  69.062  1.00  0.00    -0.208 A  
ENDBRANCH   5   8
ENDBRANCH   2   3
TORSDOF 3
ENDMDL
MODEL      117
REMARK 921   NORMALIZED FREE ENERGY PREDICTED BY IDOCK:   -3.46 KCAL/MOL
REMARK 922        TOTAL FREE ENERGY PREDICTED BY IDOCK:   -4.25 KCAL/MOL
REMARK 923 INTER-LIGAND FREE ENERGY PREDICTED BY IDOCK:   -3.84 KCAL/MOL
REMARK 924 INTRA-LIGAND FREE ENERGY PREDICTED BY IDOCK:   -0.41 KCAL/MOL
REMARK 927      BINDING AFFINITY PREDICTED BY RF-SCORE:    0.00 PKD
ROOT
HETATM    1  C   UNL     1      -6.737   8.024  67.081  1.00  0.00    -0.065 C  
HETATM    2  C   UNL     1      -7.416   9.162  67.831  1.00  0.00    -0.084 C  
ENDROOT
BRANCH   2   3
HETATM    3  N   UNL     1      -8.491   8.699  68.712  1.00  0.00    -0.128 N  
HETATM    4  O   UNL     1      -7.692  10.066  70.402  1.00  0.00    -0.227 OA 
HETATM    5  C   UNL     1      -8.569   9.315  69.978  1.00  0.00    -0.182 C  
BRANCH   3   6
HETATM    6  C   UNL     1      -9.497   7.778  68.165  1.00  0.00    -0.146 C  
HETATM    7  C   UNL     1     -10.591   8.369  67.292  1.00  0.00    -0.328 C  
ENDBRANCH   3   6
BRANCH   5   8
HETATM    8  C   UNL     1      -9.731   9.060  70.881  1.00  0.00    -0.329 A  
HETATM    9  C   UNL     1     -10.845   9.902  70.922  1.00  0.00    -0.357 A  
HETATM   10  C   UNL     1     -11.989   9.537  71.637  1.00  0.00    -0.474 A  
HETATM   11  C   UNL     1     -13.254  10.332  71.498  1.00  0.00    -0.484 C  
HETATM   12  C   UNL     1     -11.947   8.403  72.453  1.00  0.00    -0.451 A  
HETATM   13  C   UNL     1     -10.790   7.622  72.519  1.00  0.00    -0.367 A  
HETATM   14  C   UNL     1      -9.687   7.939  71.720  1.00  0.00    -0.219 A  
ENDBRANCH   5   8
ENDBRANCH   2   3
TORSDOF 3
ENDMDL
MODEL      118
REMARK 921   NORMALIZED FREE ENERGY PREDICTED BY IDOCK:   -3.44 KCAL/MOL
REMARK 922        TOTAL FREE ENERGY PREDICTED BY IDOCK:   -4.23 KCAL/MOL
REMARK 923 INTER-LIGAND FREE ENERGY PREDICTED BY IDOCK:   -3.82 KCAL/MOL
REMARK 924 INTRA-LIGAND FREE ENERGY PREDICTED BY IDOCK:   -0.41 KCAL/MOL
REMARK 927      BINDING AFFINITY PREDICTED BY RF-SCORE:    0.00 PKD
ROOT
HETATM    1  C   UNL     1     -10.279   4.611  71.921  1.00  0.00    -0.254 C  
HETATM    2  C   UNL     1      -9.910   6.073  72.128  1.00  0.00    -0.161 C  
ENDROOT
BRANCH   2   3
HETATM    3  N   UNL     1     -10.594   6.968  71.192  1.00  0.00    -0.216 N  
HETATM    4  O   UNL     1      -8.671   8.248  71.014  1.00  0.00    -0.129 OA 
HETATM    5  C   UNL     1      -9.810   7.994  70.625  1.00  0.00    -0.184 C  
BRANCH   3   6
HETATM    6  C   UNL     1     -11.966   6.637  70.782  1.00  0.00    -0.353 C  
HETATM    7  C   UNL     1     -13.105   7.224  71.599  1.00  0.00    -0.417 C  
ENDBRANCH   3   6
BRANCH   5   8
HETATM    8  C   UNL     1     -10.349   8.845  69.521  1.00  0.00    -0.213 A  
HETATM    9  C   UNL     1     -11.037  10.036  69.763  1.00  0.00    -0.319 A  
HETATM   10  C   UNL     1     -11.364  10.897  68.712  1.00  0.00    -0.357 A  
HETATM   11  C   UNL     1     -11.900  12.269  68.997  1.00  0.00    -0.358 C  
HETATM   12  C   UNL     1     -11.152  10.475  67.397  1.00  0.00    -0.322 A  
HETATM   13  C   UNL     1     -10.580   9.225  67.138  1.00  0.00    -0.286 A  
HETATM   14  C   UNL     1     -10.162   8.417  68.200  1.00  0.00    -0.253 A  
ENDBRANCH   5   8
ENDBRANCH   2   3
TORSDOF 3
ENDMDL
MODEL      119
REMARK 921   NORMALIZED FREE ENERGY PREDICTED BY IDOCK:   -3.44 KCAL/MOL
REMARK 922        TOTAL FREE ENERGY PREDICTED BY IDOCK:   -4.23 KCAL/MOL
REMARK 923 INTER-LIGAND FREE ENERGY PREDICTED BY IDOCK:   -3.96 KCAL/MOL
REMARK 924 INTRA-LIGAND FREE ENERGY PREDICTED BY IDOCK:   -0.26 KCAL/MOL
REMARK 927      BINDING AFFINITY PREDICTED BY RF-SCORE:    0.00 PKD
ROOT
HETATM    1  C   UNL     1      -8.209   8.041  64.853  1.00  0.00    -0.137 C  
HETATM    2  C   UNL     1      -8.267   9.291  63.986  1.00  0.00    -0.164 C  
ENDROOT
BRANCH   2   3
HETATM    3  N   UNL     1      -8.710  10.474  64.727  1.00  0.00    -0.186 N  
HETATM    4  O   UNL     1     -10.354  10.850  63.140  1.00  0.00    -0.299 OA 
HETATM    5  C   UNL     1      -9.853  11.131  64.228  1.00  0.00    -0.286 C  
BRANCH   3   6
HETATM    6  C   UNL     1      -8.057  10.784  66.007  1.00  0.00    -0.158 C  
HETATM    7  C   UNL     1      -6.563  11.061  65.986  1.00  0.00    -0.031 C  
ENDBRANCH   3   6
BRANCH   5   8
HETATM    8  C   UNL     1     -10.503  12.230  65.005  1.00  0.00    -0.322 A  
HETATM    9  C   UNL     1     -10.294  13.579  64.709  1.00  0.00    -0.405 A  
HETATM   10  C   UNL     1     -11.056  14.572  65.331  1.00  0.00    -0.345 A  
HETATM   11  C   UNL     1     -10.985  15.992  64.851  1.00  0.00    -0.399 C  
HETATM   12  C   UNL     1     -11.908  14.217  66.380  1.00  0.00    -0.440 A  
HETATM   13  C   UNL     1     -12.028  12.880  66.773  1.00  0.00    -0.418 A  
HETATM   14  C   UNL     1     -11.339  11.884  66.074  1.00  0.00    -0.375 A  
ENDBRANCH   5   8
ENDBRANCH   2   3
TORSDOF 3
ENDMDL
MODEL      120
REMARK 921   NORMALIZED FREE ENERGY PREDICTED BY IDOCK:   -3.43 KCAL/MOL
REMARK 922        TOTAL FREE ENERGY PREDICTED BY IDOCK:   -4.22 KCAL/MOL
REMARK 923 INTER-LIGAND FREE ENERGY PREDICTED BY IDOCK:   -3.91 KCAL/MOL
REMARK 924 INTRA-LIGAND FREE ENERGY PREDICTED BY IDOCK:   -0.30 KCAL/MOL
REMARK 927      BINDING AFFINITY PREDICTED BY RF-SCORE:    0.00 PKD
ROOT
HETATM    1  C   UNL     1     -10.882  12.099  64.952  1.00  0.00    -0.352 C  
HETATM    2  C   UNL     1      -9.894  11.164  65.635  1.00  0.00    -0.235 C  
ENDROOT
BRANCH   2   3
HETATM    3  N   UNL     1     -10.076  11.110  67.088  1.00  0.00    -0.186 N  
HETATM    4  O   UNL     1     -10.568   8.852  66.941  1.00  0.00    -0.263 OA 
HETATM    5  C   UNL     1     -10.331   9.837  67.638  1.00  0.00    -0.230 C  
BRANCH   3   6
HETATM    6  C   UNL     1      -9.809  12.324  67.872  1.00  0.00    -0.201 C  
HETATM    7  C   UNL     1      -8.587  13.147  67.501  1.00  0.00    -0.196 C  
ENDBRANCH   3   6
BRANCH   5   8
HETATM    8  C   UNL     1     -10.345   9.634  69.119  1.00  0.00    -0.219 A  
HETATM    9  C   UNL     1     -11.486   9.859  69.893  1.00  0.00    -0.234 A  
HETATM   10  C   UNL     1     -11.520   9.485  71.239  1.00  0.00    -0.447 A  
HETATM   11  C   UNL     1     -12.811   9.523  72.002  1.00  0.00    -0.499 C  
HETATM   12  C   UNL     1     -10.344   9.042  71.850  1.00  0.00    -0.357 A  
HETATM   13  C   UNL     1      -9.160   8.935  71.114  1.00  0.00    -0.315 A  
HETATM   14  C   UNL     1      -9.164   9.214  69.743  1.00  0.00    -0.179 A  
ENDBRANCH   5   8
ENDBRANCH   2   3
TORSDOF 3
ENDMDL
MODEL      121
REMARK 921   NORMALIZED FREE ENERGY PREDICTED BY IDOCK:   -3.43 KCAL/MOL
REMARK 922        TOTAL FREE ENERGY PREDICTED BY IDOCK:   -4.21 KCAL/MOL
REMARK 923 INTER-LIGAND FREE ENERGY PREDICTED BY IDOCK:   -4.06 KCAL/MOL
REMARK 924 INTRA-LIGAND FREE ENERGY PREDICTED BY IDOCK:   -0.15 KCAL/MOL
REMARK 927      BINDING AFFINITY PREDICTED BY RF-SCORE:    0.00 PKD
ROOT
HETATM    1  C   UNL     1     -12.666  12.721  71.589  1.00  0.00    -0.293 C  
HETATM    2  C   UNL     1     -13.108  13.924  70.768  1.00  0.00    -0.137 C  
ENDROOT
BRANCH   2   3
HETATM    3  N   UNL     1     -11.993  14.588  70.090  1.00  0.00    -0.295 N  
HETATM    4  O   UNL     1     -12.097  13.022  68.387  1.00  0.00    -0.305 OA 
HETATM    5  C   UNL     1     -11.634  14.073  68.827  1.00  0.00    -0.331 C  
BRANCH   3   6
HETATM    6  C   UNL     1     -11.456  15.825  70.674  1.00  0.00    -0.390 C  
HETATM    7  C   UNL     1     -12.030  16.282  72.005  1.00  0.00    -0.544 C  
ENDBRANCH   3   6
BRANCH   5   8
HETATM    8  C   UNL     1     -10.643  14.785  67.966  1.00  0.00    -0.244 A  
HETATM    9  C   UNL     1      -9.267  14.723  68.201  1.00  0.00    -0.195 A  
HETATM   10  C   UNL     1      -8.360  15.245  67.274  1.00  0.00    -0.225 A  
HETATM   11  C   UNL     1      -6.891  14.979  67.422  1.00  0.00    -0.144 C  
HETATM   12  C   UNL     1      -8.845  15.984  66.193  1.00  0.00    -0.366 A  
HETATM   13  C   UNL     1     -10.221  16.163  66.018  1.00  0.00    -0.374 A  
HETATM   14  C   UNL     1     -11.121  15.549  66.894  1.00  0.00    -0.221 A  
ENDBRANCH   5   8
ENDBRANCH   2   3
TORSDOF 3
ENDMDL
MODEL      122
REMARK 921   NORMALIZED FREE ENERGY PREDICTED BY IDOCK:   -3.42 KCAL/MOL
REMARK 922        TOTAL FREE ENERGY PREDICTED BY IDOCK:   -4.20 KCAL/MOL
REMARK 923 INTER-LIGAND FREE ENERGY PREDICTED BY IDOCK:   -4.10 KCAL/MOL
REMARK 924 INTRA-LIGAND FREE ENERGY PREDICTED BY IDOCK:   -0.10 KCAL/MOL
REMARK 927      BINDING AFFINITY PREDICTED BY RF-SCORE:    0.00 PKD
ROOT
HETATM    1  C   UNL     1      -9.877   8.800  68.847  1.00  0.00    -0.183 C  
HETATM    2  C   UNL     1     -10.524   9.169  67.520  1.00  0.00    -0.270 C  
ENDROOT
BRANCH   2   3
HETATM    3  N   UNL     1     -10.326  10.576  67.164  1.00  0.00    -0.222 N  
HETATM    4  O   UNL     1     -12.280  11.130  68.278  1.00  0.00    -0.613 OA 
HETATM    5  C   UNL     1     -11.257  11.491  67.697  1.00  0.00    -0.281 C  
BRANCH   3   6
HETATM    6  C   UNL     1      -9.102  10.950  66.443  1.00  0.00    -0.172 C  
HETATM    7  C   UNL     1      -7.883  11.322  67.272  1.00  0.00    -0.141 C  
ENDBRANCH   3   6
BRANCH   5   8
HETATM    8  C   UNL     1     -11.046  12.964  67.558  1.00  0.00    -0.302 A  
HETATM    9  C   UNL     1     -10.937  13.588  66.313  1.00  0.00    -0.293 A  
HETATM   10  C   UNL     1     -10.926  14.983  66.213  1.00  0.00    -0.338 A  
HETATM   11  C   UNL     1     -11.033  15.645  64.871  1.00  0.00    -0.447 C  
HETATM   12  C   UNL     1     -10.849  15.746  67.380  1.00  0.00    -0.306 A  
HETATM   13  C   UNL     1     -10.827  15.125  68.633  1.00  0.00    -0.245 A  
HETATM   14  C   UNL     1     -10.943  13.734  68.723  1.00  0.00    -0.289 A  
ENDBRANCH   5   8
ENDBRANCH   2   3
TORSDOF 3
ENDMDL
MODEL      123
REMARK 921   NORMALIZED FREE ENERGY PREDICTED BY IDOCK:   -3.39 KCAL/MOL
REMARK 922        TOTAL FREE ENERGY PREDICTED BY IDOCK:   -4.17 KCAL/MOL
REMARK 923 INTER-LIGAND FREE ENERGY PREDICTED BY IDOCK:   -3.98 KCAL/MOL
REMARK 924 INTRA-LIGAND FREE ENERGY PREDICTED BY IDOCK:   -0.19 KCAL/MOL
REMARK 927      BINDING AFFINITY PREDICTED BY RF-SCORE:    0.00 PKD
ROOT
HETATM    1  C   UNL     1     -11.903  16.041  70.988  1.00  0.00    -0.435 C  
HETATM    2  C   UNL     1     -10.659  15.383  70.409  1.00  0.00    -0.248 C  
ENDROOT
BRANCH   2   3
HETATM    3  N   UNL     1     -10.971  14.374  69.395  1.00  0.00    -0.250 N  
HETATM    4  O   UNL     1      -8.957  14.812  68.340  1.00  0.00    -0.174 OA 
HETATM    5  C   UNL     1      -9.966  14.116  68.440  1.00  0.00    -0.235 C  
BRANCH   3   6
HETATM    6  C   UNL     1     -12.206  13.590  69.544  1.00  0.00    -0.236 C  
HETATM    7  C   UNL     1     -12.244  12.539  70.641  1.00  0.00    -0.365 C  
ENDBRANCH   3   6
BRANCH   5   8
HETATM    8  C   UNL     1     -10.099  12.980  67.479  1.00  0.00    -0.218 A  
HETATM    9  C   UNL     1     -10.393  13.175  66.127  1.00  0.00    -0.287 A  
HETATM   10  C   UNL     1     -10.328  12.112  65.222  1.00  0.00    -0.310 A  
HETATM   11  C   UNL     1     -10.425  12.367  63.747  1.00  0.00    -0.475 C  
HETATM   12  C   UNL     1     -10.135  10.817  65.710  1.00  0.00    -0.320 A  
HETATM   13  C   UNL     1      -9.968  10.593  67.080  1.00  0.00    -0.234 A  
HETATM   14  C   UNL     1      -9.932  11.677  67.964  1.00  0.00    -0.194 A  
ENDBRANCH   5   8
ENDBRANCH   2   3
TORSDOF 3
ENDMDL
MODEL      124
REMARK 921   NORMALIZED FREE ENERGY PREDICTED BY IDOCK:   -3.39 KCAL/MOL
REMARK 922        TOTAL FREE ENERGY PREDICTED BY IDOCK:   -4.17 KCAL/MOL
REMARK 923 INTER-LIGAND FREE ENERGY PREDICTED BY IDOCK:   -3.84 KCAL/MOL
REMARK 924 INTRA-LIGAND FREE ENERGY PREDICTED BY IDOCK:   -0.33 KCAL/MOL
REMARK 927      BINDING AFFINITY PREDICTED BY RF-SCORE:    0.00 PKD
ROOT
HETATM    1  C   UNL     1      -7.344  12.842  68.054  1.00  0.00    -0.117 C  
HETATM    2  C   UNL     1      -8.629  13.616  68.311  1.00  0.00    -0.170 C  
ENDROOT
BRANCH   2   3
HETATM    3  N   UNL     1      -8.442  15.067  68.238  1.00  0.00    -0.143 N  
HETATM    4  O   UNL     1      -9.310  15.070  66.091  1.00  0.00    -0.291 OA 
HETATM    5  C   UNL     1      -8.920  15.700  67.073  1.00  0.00    -0.222 C  
BRANCH   3   6
HETATM    6  C   UNL     1      -7.943  15.769  69.430  1.00  0.00    -0.211 C  
HETATM    7  C   UNL     1      -6.519  16.298  69.390  1.00  0.00    -0.197 C  
ENDBRANCH   3   6
BRANCH   5   8
HETATM    8  C   UNL     1      -8.953  17.191  66.973  1.00  0.00    -0.244 A  
HETATM    9  C   UNL     1      -7.845  17.937  66.565  1.00  0.00    -0.298 A  
HETATM   10  C   UNL     1      -7.963  19.306  66.305  1.00  0.00    -0.319 A  
HETATM   11  C   UNL     1      -6.835  20.053  65.658  1.00  0.00    -0.314 C  
HETATM   12  C   UNL     1      -9.158  19.956  66.624  1.00  0.00    -0.466 A  
HETATM   13  C   UNL     1     -10.234  19.240  67.156  1.00  0.00    -0.501 A  
HETATM   14  C   UNL     1     -10.139  17.854  67.315  1.00  0.00    -0.344 A  
ENDBRANCH   5   8
ENDBRANCH   2   3
TORSDOF 3
ENDMDL
MODEL      125
REMARK 921   NORMALIZED FREE ENERGY PREDICTED BY IDOCK:   -3.36 KCAL/MOL
REMARK 922        TOTAL FREE ENERGY PREDICTED BY IDOCK:   -4.14 KCAL/MOL
REMARK 923 INTER-LIGAND FREE ENERGY PREDICTED BY IDOCK:   -3.75 KCAL/MOL
REMARK 924 INTRA-LIGAND FREE ENERGY PREDICTED BY IDOCK:   -0.39 KCAL/MOL
REMARK 927      BINDING AFFINITY PREDICTED BY RF-SCORE:    0.00 PKD
ROOT
HETATM    1  C   UNL     1      -7.432   8.094  67.482  1.00  0.00    -0.094 C  
HETATM    2  C   UNL     1      -8.377   8.642  68.543  1.00  0.00    -0.123 C  
ENDROOT
BRANCH   2   3
HETATM    3  N   UNL     1      -8.898   9.969  68.208  1.00  0.00    -0.115 N  
HETATM    4  O   UNL     1     -10.903   9.014  67.550  1.00  0.00    -0.232 OA 
HETATM    5  C   UNL     1     -10.245  10.024  67.794  1.00  0.00    -0.192 C  
BRANCH   3   6
HETATM    6  C   UNL     1      -8.059  11.142  68.489  1.00  0.00    -0.146 C  
HETATM    7  C   UNL     1      -7.340  11.790  67.318  1.00  0.00    -0.141 C  
ENDBRANCH   3   6
BRANCH   5   8
HETATM    8  C   UNL     1     -10.934  11.337  67.609  1.00  0.00    -0.312 A  
HETATM    9  C   UNL     1     -11.378  12.106  68.688  1.00  0.00    -0.330 A  
HETATM   10  C   UNL     1     -11.849  13.407  68.490  1.00  0.00    -0.401 A  
HETATM   11  C   UNL     1     -12.114  14.302  69.665  1.00  0.00    -0.396 C  
HETATM   12  C   UNL     1     -12.035  13.870  67.186  1.00  0.00    -0.455 A  
HETATM   13  C   UNL     1     -11.714  13.059  66.093  1.00  0.00    -0.445 A  
HETATM   14  C   UNL     1     -11.147  11.798  66.304  1.00  0.00    -0.364 A  
ENDBRANCH   5   8
ENDBRANCH   2   3
TORSDOF 3
ENDMDL
MODEL      126
REMARK 921   NORMALIZED FREE ENERGY PREDICTED BY IDOCK:   -3.34 KCAL/MOL
REMARK 922        TOTAL FREE ENERGY PREDICTED BY IDOCK:   -4.11 KCAL/MOL
REMARK 923 INTER-LIGAND FREE ENERGY PREDICTED BY IDOCK:   -4.31 KCAL/MOL
REMARK 924 INTRA-LIGAND FREE ENERGY PREDICTED BY IDOCK:    0.20 KCAL/MOL
REMARK 927      BINDING AFFINITY PREDICTED BY RF-SCORE:    0.00 PKD
ROOT
HETATM    1  C   UNL     1     -14.041  14.286  71.469  1.00  0.00    -0.400 C  
HETATM    2  C   UNL     1     -12.728  13.561  71.208  1.00  0.00    -0.348 C  
ENDROOT
BRANCH   2   3
HETATM    3  N   UNL     1     -11.683  14.448  70.693  1.00  0.00    -0.281 N  
HETATM    4  O   UNL     1     -12.080  13.670  68.548  1.00  0.00    -0.364 OA 
HETATM    5  C   UNL     1     -11.516  14.470  69.293  1.00  0.00    -0.288 C  
BRANCH   3   6
HETATM    6  C   UNL     1     -11.018  15.364  71.630  1.00  0.00    -0.051 C  
HETATM    7  C   UNL     1     -11.885  16.071  72.658  1.00  0.00    -0.611 C  
ENDBRANCH   3   6
BRANCH   5   8
HETATM    8  C   UNL     1     -10.615  15.472  68.647  1.00  0.00    -0.243 A  
HETATM    9  C   UNL     1     -10.967  16.817  68.513  1.00  0.00    -0.312 A  
HETATM   10  C   UNL     1     -10.032  17.759  68.074  1.00  0.00    -0.333 A  
HETATM   11  C   UNL     1     -10.344  19.224  68.144  1.00  0.00    -0.496 C  
HETATM   12  C   UNL     1      -8.793  17.316  67.604  1.00  0.00    -0.220 A  
HETATM   13  C   UNL     1      -8.477  15.954  67.613  1.00  0.00    -0.170 A  
HETATM   14  C   UNL     1      -9.381  15.033  68.151  1.00  0.00    -0.187 A  
ENDBRANCH   5   8
ENDBRANCH   2   3
TORSDOF 3
ENDMDL
MODEL      127
REMARK 921   NORMALIZED FREE ENERGY PREDICTED BY IDOCK:   -3.33 KCAL/MOL
REMARK 922        TOTAL FREE ENERGY PREDICTED BY IDOCK:   -4.10 KCAL/MOL
REMARK 923 INTER-LIGAND FREE ENERGY PREDICTED BY IDOCK:   -3.73 KCAL/MOL
REMARK 924 INTRA-LIGAND FREE ENERGY PREDICTED BY IDOCK:   -0.36 KCAL/MOL
REMARK 927      BINDING AFFINITY PREDICTED BY RF-SCORE:    0.00 PKD
ROOT
HETATM    1  C   UNL     1     -11.796  15.057  64.594  1.00  0.00    -0.378 C  
HETATM    2  C   UNL     1     -12.670  14.092  65.382  1.00  0.00    -0.471 C  
ENDROOT
BRANCH   2   3
HETATM    3  N   UNL     1     -11.890  13.164  66.205  1.00  0.00    -0.382 N  
HETATM    4  O   UNL     1     -11.627  11.766  64.378  1.00  0.00    -0.313 OA 
HETATM    5  C   UNL     1     -11.336  12.052  65.538  1.00  0.00    -0.328 C  
BRANCH   3   6
HETATM    6  C   UNL     1     -11.596  13.539  67.595  1.00  0.00    -0.339 C  
HETATM    7  C   UNL     1     -10.334  14.346  67.854  1.00  0.00    -0.232 C  
ENDBRANCH   3   6
BRANCH   5   8
HETATM    8  C   UNL     1     -10.371  11.147  66.233  1.00  0.00    -0.299 A  
HETATM    9  C   UNL     1      -8.988  11.312  66.133  1.00  0.00    -0.210 A  
HETATM   10  C   UNL     1      -8.121  10.568  66.939  1.00  0.00    -0.120 A  
HETATM   11  C   UNL     1      -6.659  10.903  66.988  1.00  0.00    -0.090 C  
HETATM   12  C   UNL     1      -8.641   9.535  67.722  1.00  0.00    -0.115 A  
HETATM   13  C   UNL     1     -10.015   9.276  67.731  1.00  0.00    -0.235 A  
HETATM   14  C   UNL     1     -10.883  10.094  67.001  1.00  0.00    -0.221 A  
ENDBRANCH   5   8
ENDBRANCH   2   3
TORSDOF 3
ENDMDL
MODEL      128
REMARK 921   NORMALIZED FREE ENERGY PREDICTED BY IDOCK:   -3.33 KCAL/MOL
REMARK 922        TOTAL FREE ENERGY PREDICTED BY IDOCK:   -4.09 KCAL/MOL
REMARK 923 INTER-LIGAND FREE ENERGY PREDICTED BY IDOCK:   -3.70 KCAL/MOL
REMARK 924 INTRA-LIGAND FREE ENERGY PREDICTED BY IDOCK:   -0.40 KCAL/MOL
REMARK 927      BINDING AFFINITY PREDICTED BY RF-SCORE:    0.00 PKD
ROOT
HETATM    1  C   UNL     1     -13.426   9.357  71.848  1.00  0.00    -0.500 C  
HETATM    2  C   UNL     1     -12.507  10.510  71.472  1.00  0.00    -0.387 C  
ENDROOT
BRANCH   2   3
HETATM    3  N   UNL     1     -11.460  10.116  70.526  1.00  0.00    -0.313 N  
HETATM    4  O   UNL     1     -12.600  11.190  68.820  1.00  0.00    -0.345 OA 
HETATM    5  C   UNL     1     -11.588  10.612  69.212  1.00  0.00    -0.275 C  
BRANCH   3   6
HETATM    6  C   UNL     1     -10.285   9.399  71.040  1.00  0.00    -0.299 C  
HETATM    7  C   UNL     1     -10.124   7.940  70.646  1.00  0.00    -0.197 C  
ENDBRANCH   3   6
BRANCH   5   8
HETATM    8  C   UNL     1     -10.488  10.432  68.217  1.00  0.00    -0.221 A  
HETATM    9  C   UNL     1      -9.371  11.269  68.179  1.00  0.00    -0.181 A  
HETATM   10  C   UNL     1      -8.277  10.964  67.363  1.00  0.00    -0.117 A  
HETATM   11  C   UNL     1      -6.999  11.739  67.491  1.00  0.00    -0.113 C  
HETATM   12  C   UNL     1      -8.382   9.907  66.456  1.00  0.00    -0.125 A  
HETATM   13  C   UNL     1      -9.549   9.139  66.395  1.00  0.00    -0.309 A  
HETATM   14  C   UNL     1     -10.596   9.389  67.288  1.00  0.00    -0.314 A  
ENDBRANCH   5   8
ENDBRANCH   2   3
TORSDOF 3
ENDMDL
MODEL      129
REMARK 921   NORMALIZED FREE ENERGY PREDICTED BY IDOCK:   -3.32 KCAL/MOL
REMARK 922        TOTAL FREE ENERGY PREDICTED BY IDOCK:   -4.08 KCAL/MOL
REMARK 923 INTER-LIGAND FREE ENERGY PREDICTED BY IDOCK:   -3.67 KCAL/MOL
REMARK 924 INTRA-LIGAND FREE ENERGY PREDICTED BY IDOCK:   -0.41 KCAL/MOL
REMARK 927      BINDING AFFINITY PREDICTED BY RF-SCORE:    0.00 PKD
ROOT
HETATM    1  C   UNL     1      -8.008   9.167  69.532  1.00  0.00    -0.098 C  
HETATM    2  C   UNL     1      -9.174  10.144  69.489  1.00  0.00    -0.204 C  
ENDROOT
BRANCH   2   3
HETATM    3  N   UNL     1      -9.251  10.880  68.225  1.00  0.00    -0.155 N  
HETATM    4  O   UNL     1     -10.867   9.404  67.466  1.00  0.00    -0.269 OA 
HETATM    5  C   UNL     1     -10.230  10.445  67.308  1.00  0.00    -0.211 C  
BRANCH   3   6
HETATM    6  C   UNL     1      -8.446  12.101  68.075  1.00  0.00    -0.170 C  
HETATM    7  C   UNL     1      -7.090  11.970  67.402  1.00  0.00    -0.136 C  
ENDBRANCH   3   6
BRANCH   5   8
HETATM    8  C   UNL     1     -10.525  11.234  66.074  1.00  0.00    -0.310 A  
HETATM    9  C   UNL     1      -9.865  11.004  64.865  1.00  0.00    -0.327 A  
HETATM   10  C   UNL     1     -10.291  11.629  63.689  1.00  0.00    -0.466 A  
HETATM   11  C   UNL     1      -9.726  11.212  62.363  1.00  0.00     0.033 C  
HETATM   12  C   UNL     1     -11.274  12.619  63.765  1.00  0.00    -0.519 A  
HETATM   13  C   UNL     1     -11.852  12.950  64.994  1.00  0.00    -0.411 A  
HETATM   14  C   UNL     1     -11.491  12.245  66.147  1.00  0.00    -0.429 A  
ENDBRANCH   5   8
ENDBRANCH   2   3
TORSDOF 3
ENDMDL
MODEL      130
REMARK 921   NORMALIZED FREE ENERGY PREDICTED BY IDOCK:   -3.30 KCAL/MOL
REMARK 922        TOTAL FREE ENERGY PREDICTED BY IDOCK:   -4.07 KCAL/MOL
REMARK 923 INTER-LIGAND FREE ENERGY PREDICTED BY IDOCK:   -3.76 KCAL/MOL
REMARK 924 INTRA-LIGAND FREE ENERGY PREDICTED BY IDOCK:   -0.30 KCAL/MOL
REMARK 927      BINDING AFFINITY PREDICTED BY RF-SCORE:    0.00 PKD
ROOT
HETATM    1  C   UNL     1      -8.564   7.253  69.084  1.00  0.00    -0.133 C  
HETATM    2  C   UNL     1      -8.123   7.640  67.679  1.00  0.00    -0.121 C  
ENDROOT
BRANCH   2   3
HETATM    3  N   UNL     1      -8.586   8.972  67.286  1.00  0.00    -0.114 N  
HETATM    4  O   UNL     1     -10.609   8.068  66.611  1.00  0.00    -0.277 OA 
HETATM    5  C   UNL     1      -9.920   9.062  66.836  1.00  0.00    -0.246 C  
BRANCH   3   6
HETATM    6  C   UNL     1      -7.711  10.124  67.548  1.00  0.00    -0.091 C  
HETATM    7  C   UNL     1      -7.684  10.678  68.963  1.00  0.00    -0.130 C  
ENDBRANCH   3   6
BRANCH   5   8
HETATM    8  C   UNL     1     -10.555  10.392  66.590  1.00  0.00    -0.245 A  
HETATM    9  C   UNL     1     -10.579  10.986  65.325  1.00  0.00    -0.283 A  
HETATM   10  C   UNL     1     -11.338  12.136  65.092  1.00  0.00    -0.379 A  
HETATM   11  C   UNL     1     -11.538  12.639  63.693  1.00  0.00    -0.575 C  
HETATM   12  C   UNL     1     -11.934  12.787  66.175  1.00  0.00    -0.476 A  
HETATM   13  C   UNL     1     -11.808  12.271  67.468  1.00  0.00    -0.331 A  
HETATM   14  C   UNL     1     -11.133  11.063  67.674  1.00  0.00    -0.363 A  
ENDBRANCH   5   8
ENDBRANCH   2   3
TORSDOF 3
ENDMDL
MODEL      131
REMARK 921   NORMALIZED FREE ENERGY PREDICTED BY IDOCK:   -3.30 KCAL/MOL
REMARK 922        TOTAL FREE ENERGY PREDICTED BY IDOCK:   -4.06 KCAL/MOL
REMARK 923 INTER-LIGAND FREE ENERGY PREDICTED BY IDOCK:   -3.66 KCAL/MOL
REMARK 924 INTRA-LIGAND FREE ENERGY PREDICTED BY IDOCK:   -0.39 KCAL/MOL
REMARK 927      BINDING AFFINITY PREDICTED BY RF-SCORE:    0.00 PKD
ROOT
HETATM    1  C   UNL     1     -11.285   7.151  70.225  1.00  0.00    -0.309 C  
HETATM    2  C   UNL     1     -10.058   6.991  69.340  1.00  0.00    -0.169 C  
ENDROOT
BRANCH   2   3
HETATM    3  N   UNL     1     -10.253   7.539  67.996  1.00  0.00    -0.187 N  
HETATM    4  O   UNL     1      -8.991   9.394  68.570  1.00  0.00    -0.128 OA 
HETATM    5  C   UNL     1      -9.572   8.739  67.706  1.00  0.00    -0.148 C  
BRANCH   3   6
HETATM    6  C   UNL     1     -10.982   6.730  67.008  1.00  0.00    -0.368 C  
HETATM    7  C   UNL     1     -10.319   5.454  66.517  1.00  0.00    -0.320 C  
ENDBRANCH   3   6
BRANCH   5   8
HETATM    8  C   UNL     1      -9.546   9.286  66.316  1.00  0.00    -0.313 A  
HETATM    9  C   UNL     1     -10.442  10.266  65.881  1.00  0.00    -0.167 A  
HETATM   10  C   UNL     1     -10.274  10.887  64.640  1.00  0.00    -0.411 A  
HETATM   11  C   UNL     1     -11.099  12.085  64.276  1.00  0.00    -0.411 C  
HETATM   12  C   UNL     1      -9.304  10.396  63.762  1.00  0.00    -0.329 A  
HETATM   13  C   UNL     1      -8.484   9.327  64.138  1.00  0.00    -0.203 A  
HETATM   14  C   UNL     1      -8.593   8.783  65.421  1.00  0.00    -0.203 A  
ENDBRANCH   5   8
ENDBRANCH   2   3
TORSDOF 3
ENDMDL
MODEL      132
REMARK 921   NORMALIZED FREE ENERGY PREDICTED BY IDOCK:   -3.28 KCAL/MOL
REMARK 922        TOTAL FREE ENERGY PREDICTED BY IDOCK:   -4.04 KCAL/MOL
REMARK 923 INTER-LIGAND FREE ENERGY PREDICTED BY IDOCK:   -3.64 KCAL/MOL
REMARK 924 INTRA-LIGAND FREE ENERGY PREDICTED BY IDOCK:   -0.40 KCAL/MOL
REMARK 927      BINDING AFFINITY PREDICTED BY RF-SCORE:    0.00 PKD
ROOT
HETATM    1  C   UNL     1      -7.506   8.133  67.060  1.00  0.00    -0.088 C  
HETATM    2  C   UNL     1      -8.234   7.777  68.348  1.00  0.00    -0.124 C  
ENDROOT
BRANCH   2   3
HETATM    3  N   UNL     1      -8.828   8.944  69.004  1.00  0.00    -0.135 N  
HETATM    4  O   UNL     1     -10.767   8.649  67.773  1.00  0.00    -0.207 OA 
HETATM    5  C   UNL     1     -10.171   9.226  68.681  1.00  0.00    -0.199 C  
BRANCH   3   6
HETATM    6  C   UNL     1      -8.061   9.617  70.062  1.00  0.00    -0.178 C  
HETATM    7  C   UNL     1      -7.233  10.829  69.668  1.00  0.00    -0.127 C  
ENDBRANCH   3   6
BRANCH   5   8
HETATM    8  C   UNL     1     -10.932  10.273  69.428  1.00  0.00    -0.289 A  
HETATM    9  C   UNL     1     -10.959  11.609  69.024  1.00  0.00    -0.283 A  
HETATM   10  C   UNL     1     -11.825  12.522  69.633  1.00  0.00    -0.382 A  
HETATM   11  C   UNL     1     -12.011  13.892  69.052  1.00  0.00    -0.402 C  
HETATM   12  C   UNL     1     -12.539  12.127  70.767  1.00  0.00    -0.305 A  
HETATM   13  C   UNL     1     -12.421  10.823  71.260  1.00  0.00    -0.504 A  
HETATM   14  C   UNL     1     -11.631   9.890  70.580  1.00  0.00    -0.413 A  
ENDBRANCH   5   8
ENDBRANCH   2   3
TORSDOF 3
ENDMDL
MODEL      133
REMARK 921   NORMALIZED FREE ENERGY PREDICTED BY IDOCK:   -3.27 KCAL/MOL
REMARK 922        TOTAL FREE ENERGY PREDICTED BY IDOCK:   -4.02 KCAL/MOL
REMARK 923 INTER-LIGAND FREE ENERGY PREDICTED BY IDOCK:   -3.61 KCAL/MOL
REMARK 924 INTRA-LIGAND FREE ENERGY PREDICTED BY IDOCK:   -0.41 KCAL/MOL
REMARK 927      BINDING AFFINITY PREDICTED BY RF-SCORE:    0.00 PKD
ROOT
HETATM    1  C   UNL     1      -9.884   8.407  67.502  1.00  0.00    -0.235 C  
HETATM    2  C   UNL     1     -10.899   9.522  67.291  1.00  0.00    -0.118 C  
ENDROOT
BRANCH   2   3
HETATM    3  N   UNL     1     -10.589  10.725  68.067  1.00  0.00    -0.192 N  
HETATM    4  O   UNL     1     -10.949  12.030  66.188  1.00  0.00    -0.278 OA 
HETATM    5  C   UNL     1     -10.743  11.956  67.399  1.00  0.00    -0.232 C  
BRANCH   3   6
HETATM    6  C   UNL     1     -10.319  10.579  69.505  1.00  0.00    -0.221 C  
HETATM    7  C   UNL     1     -11.503  10.305  70.418  1.00  0.00    -0.415 C  
ENDBRANCH   3   6
BRANCH   5   8
HETATM    8  C   UNL     1     -10.639  13.248  68.143  1.00  0.00    -0.259 A  
HETATM    9  C   UNL     1      -9.412  13.861  68.407  1.00  0.00    -0.211 A  
HETATM   10  C   UNL     1      -9.360  15.153  68.940  1.00  0.00    -0.207 A  
HETATM   11  C   UNL     1      -8.055  15.889  69.013  1.00  0.00    -0.229 C  
HETATM   12  C   UNL     1     -10.544  15.758  69.368  1.00  0.00    -0.255 A  
HETATM   13  C   UNL     1     -11.768  15.098  69.227  1.00  0.00    -0.352 A  
HETATM   14  C   UNL     1     -11.819  13.849  68.598  1.00  0.00    -0.407 A  
ENDBRANCH   5   8
ENDBRANCH   2   3
TORSDOF 3
ENDMDL
MODEL      134
REMARK 921   NORMALIZED FREE ENERGY PREDICTED BY IDOCK:   -3.27 KCAL/MOL
REMARK 922        TOTAL FREE ENERGY PREDICTED BY IDOCK:   -4.02 KCAL/MOL
REMARK 923 INTER-LIGAND FREE ENERGY PREDICTED BY IDOCK:   -3.66 KCAL/MOL
REMARK 924 INTRA-LIGAND FREE ENERGY PREDICTED BY IDOCK:   -0.36 KCAL/MOL
REMARK 927      BINDING AFFINITY PREDICTED BY RF-SCORE:    0.00 PKD
ROOT
HETATM    1  C   UNL     1      -7.836   7.854  68.507  1.00  0.00    -0.119 C  
HETATM    2  C   UNL     1      -8.049   8.214  67.043  1.00  0.00    -0.108 C  
ENDROOT
BRANCH   2   3
HETATM    3  N   UNL     1      -8.982   9.329  66.865  1.00  0.00    -0.129 N  
HETATM    4  O   UNL     1      -7.369  10.485  65.670  1.00  0.00    -0.147 OA 
HETATM    5  C   UNL     1      -8.533  10.396  66.059  1.00  0.00    -0.146 C  
BRANCH   3   6
HETATM    6  C   UNL     1     -10.352   9.184  67.375  1.00  0.00    -0.264 C  
HETATM    7  C   UNL     1     -10.752  10.036  68.568  1.00  0.00    -0.264 C  
ENDBRANCH   3   6
BRANCH   5   8
HETATM    8  C   UNL     1      -9.464  11.492  65.655  1.00  0.00    -0.244 A  
HETATM    9  C   UNL     1     -10.367  11.354  64.598  1.00  0.00    -0.362 A  
HETATM   10  C   UNL     1     -11.347  12.324  64.366  1.00  0.00    -0.396 A  
HETATM   11  C   UNL     1     -12.446  12.067  63.378  1.00  0.00    -0.625 C  
HETATM   12  C   UNL     1     -11.305  13.518  65.090  1.00  0.00    -0.315 A  
HETATM   13  C   UNL     1     -10.323  13.721  66.064  1.00  0.00    -0.311 A  
HETATM   14  C   UNL     1      -9.412  12.701  66.360  1.00  0.00    -0.231 A  
ENDBRANCH   5   8
ENDBRANCH   2   3
TORSDOF 3
ENDMDL
MODEL      135
REMARK 921   NORMALIZED FREE ENERGY PREDICTED BY IDOCK:   -3.26 KCAL/MOL
REMARK 922        TOTAL FREE ENERGY PREDICTED BY IDOCK:   -4.01 KCAL/MOL
REMARK 923 INTER-LIGAND FREE ENERGY PREDICTED BY IDOCK:   -3.83 KCAL/MOL
REMARK 924 INTRA-LIGAND FREE ENERGY PREDICTED BY IDOCK:   -0.18 KCAL/MOL
REMARK 927      BINDING AFFINITY PREDICTED BY RF-SCORE:    0.00 PKD
ROOT
HETATM    1  C   UNL     1     -10.714   6.923  71.085  1.00  0.00    -0.252 C  
HETATM    2  C   UNL     1      -9.592   6.928  70.057  1.00  0.00    -0.157 C  
ENDROOT
BRANCH   2   3
HETATM    3  N   UNL     1      -9.572   8.148  69.246  1.00  0.00    -0.162 N  
HETATM    4  O   UNL     1     -10.811   7.077  67.608  1.00  0.00    -0.249 OA 
HETATM    5  C   UNL     1     -10.317   8.114  68.049  1.00  0.00    -0.211 C  
BRANCH   3   6
HETATM    6  C   UNL     1      -8.941   9.351  69.806  1.00  0.00    -0.188 C  
HETATM    7  C   UNL     1      -7.668   9.166  70.615  1.00  0.00    -0.152 C  
ENDBRANCH   3   6
BRANCH   5   8
HETATM    8  C   UNL     1     -10.522   9.354  67.242  1.00  0.00    -0.332 A  
HETATM    9  C   UNL     1     -11.271  10.436  67.711  1.00  0.00    -0.309 A  
HETATM   10  C   UNL     1     -11.289  11.647  67.014  1.00  0.00    -0.373 A  
HETATM   11  C   UNL     1     -11.908  12.866  67.631  1.00  0.00    -0.400 C  
HETATM   12  C   UNL     1     -10.693  11.712  65.752  1.00  0.00    -0.331 A  
HETATM   13  C   UNL     1     -10.050  10.593  65.214  1.00  0.00    -0.363 A  
HETATM   14  C   UNL     1      -9.949   9.419  65.966  1.00  0.00    -0.352 A  
ENDBRANCH   5   8
ENDBRANCH   2   3
TORSDOF 3
ENDMDL
MODEL      136
REMARK 921   NORMALIZED FREE ENERGY PREDICTED BY IDOCK:   -3.25 KCAL/MOL
REMARK 922        TOTAL FREE ENERGY PREDICTED BY IDOCK:   -4.01 KCAL/MOL
REMARK 923 INTER-LIGAND FREE ENERGY PREDICTED BY IDOCK:   -3.81 KCAL/MOL
REMARK 924 INTRA-LIGAND FREE ENERGY PREDICTED BY IDOCK:   -0.20 KCAL/MOL
REMARK 927      BINDING AFFINITY PREDICTED BY RF-SCORE:    0.00 PKD
ROOT
HETATM    1  C   UNL     1     -14.363   8.167  71.708  1.00  0.00    -0.582 C  
HETATM    2  C   UNL     1     -12.942   8.532  72.112  1.00  0.00    -0.363 C  
ENDROOT
BRANCH   2   3
HETATM    3  N   UNL     1     -12.026   8.593  70.970  1.00  0.00    -0.276 N  
HETATM    4  O   UNL     1     -11.592   6.330  71.199  1.00  0.00    -0.318 OA 
HETATM    5  C   UNL     1     -11.470   7.368  70.550  1.00  0.00    -0.255 C  
BRANCH   3   6
HETATM    6  C   UNL     1     -11.892   9.866  70.248  1.00  0.00    -0.184 C  
HETATM    7  C   UNL     1     -12.355  11.129  70.956  1.00  0.00    -0.487 C  
ENDBRANCH   3   6
BRANCH   5   8
HETATM    8  C   UNL     1     -10.676   7.283  69.287  1.00  0.00    -0.212 A  
HETATM    9  C   UNL     1      -9.373   7.775  69.189  1.00  0.00    -0.151 A  
HETATM   10  C   UNL     1      -8.596   7.516  68.056  1.00  0.00    -0.122 A  
HETATM   11  C   UNL     1      -7.134   7.852  68.049  1.00  0.00    -0.085 C  
HETATM   12  C   UNL     1      -9.192   6.908  66.949  1.00  0.00    -0.167 A  
HETATM   13  C   UNL     1     -10.537   6.527  66.989  1.00  0.00    -0.402 A  
HETATM   14  C   UNL     1     -11.275   6.698  68.164  1.00  0.00    -0.207 A  
ENDBRANCH   5   8
ENDBRANCH   2   3
TORSDOF 3
ENDMDL
MODEL      137
REMARK 921   NORMALIZED FREE ENERGY PREDICTED BY IDOCK:   -3.25 KCAL/MOL
REMARK 922        TOTAL FREE ENERGY PREDICTED BY IDOCK:   -4.00 KCAL/MOL
REMARK 923 INTER-LIGAND FREE ENERGY PREDICTED BY IDOCK:   -3.64 KCAL/MOL
REMARK 924 INTRA-LIGAND FREE ENERGY PREDICTED BY IDOCK:   -0.37 KCAL/MOL
REMARK 927      BINDING AFFINITY PREDICTED BY RF-SCORE:    0.00 PKD
ROOT
HETATM    1  C   UNL     1     -14.321   8.199  71.944  1.00  0.00    -0.566 C  
HETATM    2  C   UNL     1     -13.140   7.374  71.451  1.00  0.00    -0.350 C  
ENDROOT
BRANCH   2   3
HETATM    3  N   UNL     1     -11.851   7.900  71.906  1.00  0.00    -0.287 N  
HETATM    4  O   UNL     1     -11.157   5.751  72.419  1.00  0.00    -0.253 OA 
HETATM    5  C   UNL     1     -10.889   6.945  72.293  1.00  0.00    -0.230 C  
BRANCH   3   6
HETATM    6  C   UNL     1     -11.593   9.340  71.763  1.00  0.00    -0.388 C  
HETATM    7  C   UNL     1     -11.501   9.902  70.354  1.00  0.00    -0.372 C  
ENDBRANCH   3   6
BRANCH   5   8
HETATM    8  C   UNL     1      -9.484   7.355  72.594  1.00  0.00    -0.197 A  
HETATM    9  C   UNL     1      -8.533   7.555  71.590  1.00  0.00    -0.119 A  
HETATM   10  C   UNL     1      -7.287   8.114  71.889  1.00  0.00    -0.099 A  
HETATM   11  C   UNL     1      -6.361   8.530  70.785  1.00  0.00    -0.039 C  
HETATM   12  C   UNL     1      -6.935   8.312  73.226  1.00  0.00    -0.142 A  
HETATM   13  C   UNL     1      -7.833   7.994  74.249  1.00  0.00    -0.280 A  
HETATM   14  C   UNL     1      -9.115   7.532  73.933  1.00  0.00    -0.315 A  
ENDBRANCH   5   8
ENDBRANCH   2   3
TORSDOF 3
ENDMDL
MODEL      138
REMARK 921   NORMALIZED FREE ENERGY PREDICTED BY IDOCK:   -3.25 KCAL/MOL
REMARK 922        TOTAL FREE ENERGY PREDICTED BY IDOCK:   -4.00 KCAL/MOL
REMARK 923 INTER-LIGAND FREE ENERGY PREDICTED BY IDOCK:   -3.58 KCAL/MOL
REMARK 924 INTRA-LIGAND FREE ENERGY PREDICTED BY IDOCK:   -0.42 KCAL/MOL
REMARK 927      BINDING AFFINITY PREDICTED BY RF-SCORE:    0.00 PKD
ROOT
HETATM    1  C   UNL     1     -10.631   5.407  71.498  1.00  0.00    -0.285 C  
HETATM    2  C   UNL     1     -11.227   6.155  70.314  1.00  0.00    -0.369 C  
ENDROOT
BRANCH   2   3
HETATM    3  N   UNL     1     -10.706   7.517  70.184  1.00  0.00    -0.236 N  
HETATM    4  O   UNL     1     -10.547   7.235  67.890  1.00  0.00    -0.211 OA 
HETATM    5  C   UNL     1     -10.484   7.977  68.869  1.00  0.00    -0.191 C  
BRANCH   3   6
HETATM    6  C   UNL     1     -10.623   8.354  71.389  1.00  0.00    -0.234 C  
HETATM    7  C   UNL     1     -11.852   9.160  71.773  1.00  0.00    -0.453 C  
ENDBRANCH   3   6
BRANCH   5   8
HETATM    8  C   UNL     1     -10.136   9.407  68.609  1.00  0.00    -0.208 A  
HETATM    9  C   UNL     1     -11.108  10.381  68.370  1.00  0.00    -0.322 A  
HETATM   10  C   UNL     1     -10.763  11.735  68.315  1.00  0.00    -0.246 A  
HETATM   11  C   UNL     1     -11.832  12.787  68.281  1.00  0.00    -0.357 C  
HETATM   12  C   UNL     1      -9.412  12.092  68.328  1.00  0.00    -0.199 A  
HETATM   13  C   UNL     1      -8.422  11.111  68.437  1.00  0.00    -0.151 A  
HETATM   14  C   UNL     1      -8.783   9.769  68.595  1.00  0.00    -0.122 A  
ENDBRANCH   5   8
ENDBRANCH   2   3
TORSDOF 3
ENDMDL
MODEL      139
REMARK 921   NORMALIZED FREE ENERGY PREDICTED BY IDOCK:   -3.24 KCAL/MOL
REMARK 922        TOTAL FREE ENERGY PREDICTED BY IDOCK:   -3.99 KCAL/MOL
REMARK 923 INTER-LIGAND FREE ENERGY PREDICTED BY IDOCK:   -3.78 KCAL/MOL
REMARK 924 INTRA-LIGAND FREE ENERGY PREDICTED BY IDOCK:   -0.21 KCAL/MOL
REMARK 927      BINDING AFFINITY PREDICTED BY RF-SCORE:    0.00 PKD
ROOT
HETATM    1  C   UNL     1      -7.712   9.695  70.693  1.00  0.00    -0.099 C  
HETATM    2  C   UNL     1      -8.293   9.467  69.305  1.00  0.00    -0.131 C  
ENDROOT
BRANCH   2   3
HETATM    3  N   UNL     1      -9.421  10.353  69.009  1.00  0.00    -0.188 N  
HETATM    4  O   UNL     1      -7.952  11.953  68.206  1.00  0.00    -0.134 OA 
HETATM    5  C   UNL     1      -9.109  11.566  68.361  1.00  0.00    -0.185 C  
BRANCH   3   6
HETATM    6  C   UNL     1     -10.784   9.854  69.241  1.00  0.00    -0.224 C  
HETATM    7  C   UNL     1     -11.425  10.158  70.585  1.00  0.00    -0.432 C  
ENDBRANCH   3   6
BRANCH   5   8
HETATM    8  C   UNL     1     -10.192  12.456  67.844  1.00  0.00    -0.213 A  
HETATM    9  C   UNL     1     -10.476  13.698  68.418  1.00  0.00    -0.251 A  
HETATM   10  C   UNL     1     -11.365  14.582  67.801  1.00  0.00    -0.335 A  
HETATM   11  C   UNL     1     -11.497  15.992  68.297  1.00  0.00    -0.291 C  
HETATM   12  C   UNL     1     -12.100  14.145  66.696  1.00  0.00    -0.480 A  
HETATM   13  C   UNL     1     -11.918  12.854  66.190  1.00  0.00    -0.491 A  
HETATM   14  C   UNL     1     -10.951  12.015  66.753  1.00  0.00    -0.329 A  
ENDBRANCH   5   8
ENDBRANCH   2   3
TORSDOF 3
ENDMDL
MODEL      140
REMARK 921   NORMALIZED FREE ENERGY PREDICTED BY IDOCK:   -3.23 KCAL/MOL
REMARK 922        TOTAL FREE ENERGY PREDICTED BY IDOCK:   -3.98 KCAL/MOL
REMARK 923 INTER-LIGAND FREE ENERGY PREDICTED BY IDOCK:   -3.72 KCAL/MOL
REMARK 924 INTRA-LIGAND FREE ENERGY PREDICTED BY IDOCK:   -0.26 KCAL/MOL
REMARK 927      BINDING AFFINITY PREDICTED BY RF-SCORE:    0.00 PKD
ROOT
HETATM    1  C   UNL     1     -10.631  11.994  63.719  1.00  0.00    -0.478 C  
HETATM    2  C   UNL     1     -10.945  11.837  65.200  1.00  0.00    -0.294 C  
ENDROOT
BRANCH   2   3
HETATM    3  N   UNL     1     -10.603  13.027  65.982  1.00  0.00    -0.275 N  
HETATM    4  O   UNL     1      -8.552  12.088  66.510  1.00  0.00    -0.177 OA 
HETATM    5  C   UNL     1      -9.303  13.063  66.527  1.00  0.00    -0.217 C  
BRANCH   3   6
HETATM    6  C   UNL     1     -11.548  14.153  65.995  1.00  0.00    -0.361 C  
HETATM    7  C   UNL     1     -12.275  14.446  67.297  1.00  0.00    -0.248 C  
ENDBRANCH   3   6
BRANCH   5   8
HETATM    8  C   UNL     1      -8.782  14.302  67.179  1.00  0.00    -0.243 A  
HETATM    9  C   UNL     1      -8.510  15.468  66.458  1.00  0.00    -0.283 A  
HETATM   10  C   UNL     1      -8.202  16.660  67.120  1.00  0.00    -0.206 A  
HETATM   11  C   UNL     1      -8.131  17.951  66.359  1.00  0.00    -0.296 C  
HETATM   12  C   UNL     1      -7.997  16.636  68.502  1.00  0.00    -0.224 A  
HETATM   13  C   UNL     1      -8.140  15.443  69.218  1.00  0.00    -0.246 A  
HETATM   14  C   UNL     1      -8.550  14.279  68.560  1.00  0.00    -0.175 A  
ENDBRANCH   5   8
ENDBRANCH   2   3
TORSDOF 3
ENDMDL
MODEL      141
REMARK 921   NORMALIZED FREE ENERGY PREDICTED BY IDOCK:   -3.23 KCAL/MOL
REMARK 922        TOTAL FREE ENERGY PREDICTED BY IDOCK:   -3.98 KCAL/MOL
REMARK 923 INTER-LIGAND FREE ENERGY PREDICTED BY IDOCK:   -3.59 KCAL/MOL
REMARK 924 INTRA-LIGAND FREE ENERGY PREDICTED BY IDOCK:   -0.39 KCAL/MOL
REMARK 927      BINDING AFFINITY PREDICTED BY RF-SCORE:    0.00 PKD
ROOT
HETATM    1  C   UNL     1     -10.655  11.196  62.900  1.00  0.00     0.078 C  
HETATM    2  C   UNL     1     -11.431  11.756  64.084  1.00  0.00    -0.327 C  
ENDROOT
BRANCH   2   3
HETATM    3  N   UNL     1     -10.579  12.483  65.027  1.00  0.00    -0.291 N  
HETATM    4  O   UNL     1     -11.804  14.411  64.647  1.00  0.00    -0.405 OA 
HETATM    5  C   UNL     1     -10.940  13.820  65.293  1.00  0.00    -0.322 C  
BRANCH   3   6
HETATM    6  C   UNL     1      -9.539  11.736  65.751  1.00  0.00    -0.233 C  
HETATM    7  C   UNL     1      -9.989  10.808  66.867  1.00  0.00    -0.240 C  
ENDBRANCH   3   6
BRANCH   5   8
HETATM    8  C   UNL     1     -10.260  14.595  66.374  1.00  0.00    -0.296 A  
HETATM    9  C   UNL     1      -9.211  15.480  66.113  1.00  0.00    -0.379 A  
HETATM   10  C   UNL     1      -8.723  16.323  67.116  1.00  0.00    -0.213 A  
HETATM   11  C   UNL     1      -7.757  17.420  66.778  1.00  0.00    -0.273 C  
HETATM   12  C   UNL     1      -9.174  16.150  68.427  1.00  0.00    -0.203 A  
HETATM   13  C   UNL     1     -10.133  15.176  68.724  1.00  0.00    -0.226 A  
HETATM   14  C   UNL     1     -10.689  14.409  67.694  1.00  0.00    -0.263 A  
ENDBRANCH   5   8
ENDBRANCH   2   3
TORSDOF 3
ENDMDL
MODEL      142
REMARK 921   NORMALIZED FREE ENERGY PREDICTED BY IDOCK:   -3.23 KCAL/MOL
REMARK 922        TOTAL FREE ENERGY PREDICTED BY IDOCK:   -3.98 KCAL/MOL
REMARK 923 INTER-LIGAND FREE ENERGY PREDICTED BY IDOCK:   -3.57 KCAL/MOL
REMARK 924 INTRA-LIGAND FREE ENERGY PREDICTED BY IDOCK:   -0.41 KCAL/MOL
REMARK 927      BINDING AFFINITY PREDICTED BY RF-SCORE:    0.00 PKD
ROOT
HETATM    1  C   UNL     1      -7.373   6.253  69.313  1.00  0.00    -0.092 C  
HETATM    2  C   UNL     1      -7.685   7.279  68.233  1.00  0.00    -0.120 C  
ENDROOT
BRANCH   2   3
HETATM    3  N   UNL     1      -8.948   7.982  68.466  1.00  0.00    -0.134 N  
HETATM    4  O   UNL     1      -7.804   9.674  69.557  1.00  0.00    -0.093 OA 
HETATM    5  C   UNL     1      -8.854   9.248  69.079  1.00  0.00    -0.136 C  
BRANCH   3   6
HETATM    6  C   UNL     1     -10.180   7.415  67.899  1.00  0.00    -0.194 C  
HETATM    7  C   UNL     1     -11.018   6.517  68.795  1.00  0.00    -0.371 C  
ENDBRANCH   3   6
BRANCH   5   8
HETATM    8  C   UNL     1     -10.053  10.133  69.193  1.00  0.00    -0.226 A  
HETATM    9  C   UNL     1     -10.972  10.013  70.238  1.00  0.00    -0.377 A  
HETATM   10  C   UNL     1     -11.976  10.969  70.418  1.00  0.00    -0.459 A  
HETATM   11  C   UNL     1     -12.816  10.960  71.661  1.00  0.00    -0.554 C  
HETATM   12  C   UNL     1     -12.160  11.952  69.442  1.00  0.00    -0.277 A  
HETATM   13  C   UNL     1     -11.325  12.003  68.322  1.00  0.00    -0.342 A  
HETATM   14  C   UNL     1     -10.259  11.104  68.206  1.00  0.00    -0.197 A  
ENDBRANCH   5   8
ENDBRANCH   2   3
TORSDOF 3
ENDMDL
MODEL      143
REMARK 921   NORMALIZED FREE ENERGY PREDICTED BY IDOCK:   -3.23 KCAL/MOL
REMARK 922        TOTAL FREE ENERGY PREDICTED BY IDOCK:   -3.98 KCAL/MOL
REMARK 923 INTER-LIGAND FREE ENERGY PREDICTED BY IDOCK:   -3.57 KCAL/MOL
REMARK 924 INTRA-LIGAND FREE ENERGY PREDICTED BY IDOCK:   -0.41 KCAL/MOL
REMARK 927      BINDING AFFINITY PREDICTED BY RF-SCORE:    0.00 PKD
ROOT
HETATM    1  C   UNL     1     -13.585   8.754  71.551  1.00  0.00    -0.374 C  
HETATM    2  C   UNL     1     -12.082   8.894  71.358  1.00  0.00    -0.322 C  
ENDROOT
BRANCH   2   3
HETATM    3  N   UNL     1     -11.395   7.602  71.295  1.00  0.00    -0.259 N  
HETATM    4  O   UNL     1     -10.599   7.921  73.446  1.00  0.00    -0.297 OA 
HETATM    5  C   UNL     1     -10.745   7.183  72.474  1.00  0.00    -0.250 C  
BRANCH   3   6
HETATM    6  C   UNL     1     -11.577   6.771  70.097  1.00  0.00    -0.341 C  
HETATM    7  C   UNL     1     -10.613   6.983  68.941  1.00  0.00    -0.233 C  
ENDBRANCH   3   6
BRANCH   5   8
HETATM    8  C   UNL     1     -10.177   5.805  72.583  1.00  0.00    -0.212 A  
HETATM    9  C   UNL     1     -10.863   4.761  73.207  1.00  0.00    -0.351 A  
HETATM   10  C   UNL     1     -10.388   3.448  73.131  1.00  0.00    -0.244 A  
HETATM   11  C   UNL     1     -11.238   2.308  73.607  1.00  0.00    -0.316 C  
HETATM   12  C   UNL     1      -9.130   3.214  72.572  1.00  0.00    -0.128 A  
HETATM   13  C   UNL     1      -8.374   4.273  72.058  1.00  0.00    -0.106 A  
HETATM   14  C   UNL     1      -8.905   5.567  72.048  1.00  0.00    -0.137 A  
ENDBRANCH   5   8
ENDBRANCH   2   3
TORSDOF 3
ENDMDL
MODEL      144
REMARK 921   NORMALIZED FREE ENERGY PREDICTED BY IDOCK:   -3.22 KCAL/MOL
REMARK 922        TOTAL FREE ENERGY PREDICTED BY IDOCK:   -3.97 KCAL/MOL
REMARK 923 INTER-LIGAND FREE ENERGY PREDICTED BY IDOCK:   -3.60 KCAL/MOL
REMARK 924 INTRA-LIGAND FREE ENERGY PREDICTED BY IDOCK:   -0.37 KCAL/MOL
REMARK 927      BINDING AFFINITY PREDICTED BY RF-SCORE:    0.00 PKD
ROOT
HETATM    1  C   UNL     1      -7.524   7.735  65.944  1.00  0.00    -0.081 C  
HETATM    2  C   UNL     1      -7.703   8.734  67.079  1.00  0.00    -0.095 C  
ENDROOT
BRANCH   2   3
HETATM    3  N   UNL     1      -8.961   9.478  66.986  1.00  0.00    -0.133 N  
HETATM    4  O   UNL     1      -7.843  11.242  65.985  1.00  0.00    -0.085 OA 
HETATM    5  C   UNL     1      -8.905  10.718  66.318  1.00  0.00    -0.173 C  
BRANCH   3   6
HETATM    6  C   UNL     1     -10.199   8.819  67.426  1.00  0.00    -0.252 C  
HETATM    7  C   UNL     1     -10.302   8.420  68.889  1.00  0.00    -0.231 C  
ENDBRANCH   3   6
BRANCH   5   8
HETATM    8  C   UNL     1     -10.156  11.472  66.000  1.00  0.00    -0.270 A  
HETATM    9  C   UNL     1     -10.740  12.364  66.901  1.00  0.00    -0.269 A  
HETATM   10  C   UNL     1     -11.799  13.187  66.505  1.00  0.00    -0.456 A  
HETATM   11  C   UNL     1     -12.273  14.293  67.401  1.00  0.00    -0.267 C  
HETATM   12  C   UNL     1     -12.382  12.987  65.252  1.00  0.00    -0.537 A  
HETATM   13  C   UNL     1     -11.886  12.005  64.389  1.00  0.00    -0.395 A  
HETATM   14  C   UNL     1     -10.761  11.259  64.755  1.00  0.00    -0.352 A  
ENDBRANCH   5   8
ENDBRANCH   2   3
TORSDOF 3
ENDMDL
MODEL      145
REMARK 921   NORMALIZED FREE ENERGY PREDICTED BY IDOCK:   -3.20 KCAL/MOL
REMARK 922        TOTAL FREE ENERGY PREDICTED BY IDOCK:   -3.95 KCAL/MOL
REMARK 923 INTER-LIGAND FREE ENERGY PREDICTED BY IDOCK:   -3.90 KCAL/MOL
REMARK 924 INTRA-LIGAND FREE ENERGY PREDICTED BY IDOCK:   -0.05 KCAL/MOL
REMARK 927      BINDING AFFINITY PREDICTED BY RF-SCORE:    0.00 PKD
ROOT
HETATM    1  C   UNL     1     -12.005  12.395  70.265  1.00  0.00    -0.371 C  
HETATM    2  C   UNL     1     -12.225  13.673  69.468  1.00  0.00    -0.264 C  
ENDROOT
BRANCH   2   3
HETATM    3  N   UNL     1     -11.194  14.682  69.718  1.00  0.00    -0.265 N  
HETATM    4  O   UNL     1      -9.912  13.794  68.006  1.00  0.00    -0.231 OA 
HETATM    5  C   UNL     1     -10.097  14.686  68.832  1.00  0.00    -0.234 C  
BRANCH   3   6
HETATM    6  C   UNL     1     -11.451  15.709  70.738  1.00  0.00    -0.379 C  
HETATM    7  C   UNL     1     -11.973  15.244  72.087  1.00  0.00    -0.503 C  
ENDBRANCH   3   6
BRANCH   5   8
HETATM    8  C   UNL     1      -9.085  15.785  68.875  1.00  0.00    -0.225 A  
HETATM    9  C   UNL     1      -7.823  15.616  69.451  1.00  0.00    -0.222 A  
HETATM   10  C   UNL     1      -6.838  16.598  69.311  1.00  0.00    -0.232 A  
HETATM   11  C   UNL     1      -5.427  16.319  69.736  1.00  0.00    -0.148 C  
HETATM   12  C   UNL     1      -7.180  17.825  68.739  1.00  0.00    -0.271 A  
HETATM   13  C   UNL     1      -8.479  18.053  68.274  1.00  0.00    -0.293 A  
HETATM   14  C   UNL     1      -9.428  17.026  68.326  1.00  0.00    -0.265 A  
ENDBRANCH   5   8
ENDBRANCH   2   3
TORSDOF 3
ENDMDL
MODEL      146
REMARK 921   NORMALIZED FREE ENERGY PREDICTED BY IDOCK:   -3.20 KCAL/MOL
REMARK 922        TOTAL FREE ENERGY PREDICTED BY IDOCK:   -3.95 KCAL/MOL
REMARK 923 INTER-LIGAND FREE ENERGY PREDICTED BY IDOCK:   -3.72 KCAL/MOL
REMARK 924 INTRA-LIGAND FREE ENERGY PREDICTED BY IDOCK:   -0.22 KCAL/MOL
REMARK 927      BINDING AFFINITY PREDICTED BY RF-SCORE:    0.00 PKD
ROOT
HETATM    1  C   UNL     1     -10.999  19.051  67.192  1.00  0.00    -0.338 C  
HETATM    2  C   UNL     1     -10.473  17.876  66.380  1.00  0.00    -0.317 C  
ENDROOT
BRANCH   2   3
HETATM    3  N   UNL     1     -10.260  16.675  67.192  1.00  0.00    -0.285 N  
HETATM    4  O   UNL     1     -10.440  15.361  65.293  1.00  0.00    -0.367 OA 
HETATM    5  C   UNL     1     -10.175  15.455  66.491  1.00  0.00    -0.280 C  
BRANCH   3   6
HETATM    6  C   UNL     1      -9.979  16.840  68.625  1.00  0.00    -0.276 C  
HETATM    7  C   UNL     1     -11.112  16.567  69.600  1.00  0.00    -0.235 C  
ENDBRANCH   3   6
BRANCH   5   8
HETATM    8  C   UNL     1      -9.774  14.198  67.192  1.00  0.00    -0.248 A  
HETATM    9  C   UNL     1     -10.682  13.425  67.920  1.00  0.00    -0.259 A  
HETATM   10  C   UNL     1     -10.319  12.166  68.406  1.00  0.00    -0.236 A  
HETATM   11  C   UNL     1     -11.357  11.253  68.990  1.00  0.00    -0.344 C  
HETATM   12  C   UNL     1      -8.986  11.760  68.308  1.00  0.00    -0.180 A  
HETATM   13  C   UNL     1      -8.038  12.583  67.694  1.00  0.00    -0.171 A  
HETATM   14  C   UNL     1      -8.435  13.795  67.120  1.00  0.00    -0.189 A  
ENDBRANCH   5   8
ENDBRANCH   2   3
TORSDOF 3
ENDMDL
MODEL      147
REMARK 921   NORMALIZED FREE ENERGY PREDICTED BY IDOCK:   -3.19 KCAL/MOL
REMARK 922        TOTAL FREE ENERGY PREDICTED BY IDOCK:   -3.93 KCAL/MOL
REMARK 923 INTER-LIGAND FREE ENERGY PREDICTED BY IDOCK:   -3.50 KCAL/MOL
REMARK 924 INTRA-LIGAND FREE ENERGY PREDICTED BY IDOCK:   -0.43 KCAL/MOL
REMARK 927      BINDING AFFINITY PREDICTED BY RF-SCORE:    0.00 PKD
ROOT
HETATM    1  C   UNL     1     -12.571   9.972  71.324  1.00  0.00    -0.495 C  
HETATM    2  C   UNL     1     -11.144   9.963  70.796  1.00  0.00    -0.347 C  
ENDROOT
BRANCH   2   3
HETATM    3  N   UNL     1     -10.799   8.713  70.116  1.00  0.00    -0.235 N  
HETATM    4  O   UNL     1     -10.956   9.786  68.069  1.00  0.00    -0.246 OA 
HETATM    5  C   UNL     1     -10.647   8.786  68.716  1.00  0.00    -0.145 C  
BRANCH   3   6
HETATM    6  C   UNL     1     -10.467   7.538  70.934  1.00  0.00    -0.213 C  
HETATM    7  C   UNL     1     -11.498   6.425  71.016  1.00  0.00    -0.394 C  
ENDBRANCH   3   6
BRANCH   5   8
HETATM    8  C   UNL     1     -10.114   7.623  67.944  1.00  0.00    -0.231 A  
HETATM    9  C   UNL     1      -8.745   7.387  67.797  1.00  0.00    -0.126 A  
HETATM   10  C   UNL     1      -8.283   6.196  67.229  1.00  0.00    -0.106 A  
HETATM   11  C   UNL     1      -6.823   5.853  67.276  1.00  0.00    -0.063 C  
HETATM   12  C   UNL     1      -9.203   5.318  66.652  1.00  0.00    -0.130 A  
HETATM   13  C   UNL     1     -10.571   5.607  66.679  1.00  0.00    -0.361 A  
HETATM   14  C   UNL     1     -11.029   6.751  67.341  1.00  0.00    -0.407 A  
ENDBRANCH   5   8
ENDBRANCH   2   3
TORSDOF 3
ENDMDL
MODEL      148
REMARK 921   NORMALIZED FREE ENERGY PREDICTED BY IDOCK:   -3.18 KCAL/MOL
REMARK 922        TOTAL FREE ENERGY PREDICTED BY IDOCK:   -3.92 KCAL/MOL
REMARK 923 INTER-LIGAND FREE ENERGY PREDICTED BY IDOCK:   -4.15 KCAL/MOL
REMARK 924 INTRA-LIGAND FREE ENERGY PREDICTED BY IDOCK:    0.23 KCAL/MOL
REMARK 927      BINDING AFFINITY PREDICTED BY RF-SCORE:    0.00 PKD
ROOT
HETATM    1  C   UNL     1      -9.915  15.573  65.456  1.00  0.00    -0.377 C  
HETATM    2  C   UNL     1     -10.931  14.454  65.280  1.00  0.00    -0.350 C  
ENDROOT
BRANCH   2   3
HETATM    3  N   UNL     1     -10.768  13.381  66.263  1.00  0.00    -0.285 N  
HETATM    4  O   UNL     1     -11.349  11.819  64.654  1.00  0.00    -0.307 OA 
HETATM    5  C   UNL     1     -10.925  12.064  65.782  1.00  0.00    -0.307 C  
BRANCH   3   6
HETATM    6  C   UNL     1     -10.288  13.730  67.608  1.00  0.00    -0.239 C  
HETATM    7  C   UNL     1     -11.291  14.330  68.578  1.00  0.00    -0.309 C  
ENDBRANCH   3   6
BRANCH   5   8
HETATM    8  C   UNL     1     -10.597  10.891  66.648  1.00  0.00    -0.305 A  
HETATM    9  C   UNL     1     -10.930  10.847  68.004  1.00  0.00    -0.317 A  
HETATM   10  C   UNL     1     -10.776   9.667  68.738  1.00  0.00    -0.234 A  
HETATM   11  C   UNL     1     -11.338   9.561  70.125  1.00  0.00    -0.241 C  
HETATM   12  C   UNL     1     -10.125   8.581  68.148  1.00  0.00    -0.240 A  
HETATM   13  C   UNL     1      -9.671   8.659  66.828  1.00  0.00    -0.298 A  
HETATM   14  C   UNL     1      -9.923   9.808  66.071  1.00  0.00    -0.342 A  
ENDBRANCH   5   8
ENDBRANCH   2   3
TORSDOF 3
ENDMDL
MODEL      149
REMARK 921   NORMALIZED FREE ENERGY PREDICTED BY IDOCK:   -3.18 KCAL/MOL
REMARK 922        TOTAL FREE ENERGY PREDICTED BY IDOCK:   -3.92 KCAL/MOL
REMARK 923 INTER-LIGAND FREE ENERGY PREDICTED BY IDOCK:   -3.55 KCAL/MOL
REMARK 924 INTRA-LIGAND FREE ENERGY PREDICTED BY IDOCK:   -0.37 KCAL/MOL
REMARK 927      BINDING AFFINITY PREDICTED BY RF-SCORE:    0.00 PKD
ROOT
HETATM    1  C   UNL     1      -9.956  10.863  67.135  1.00  0.00    -0.221 C  
HETATM    2  C   UNL     1     -11.057  10.148  67.905  1.00  0.00    -0.238 C  
ENDROOT
BRANCH   2   3
HETATM    3  N   UNL     1     -10.535   9.255  68.942  1.00  0.00    -0.214 N  
HETATM    4  O   UNL     1     -11.514  10.577  70.572  1.00  0.00    -0.313 OA 
HETATM    5  C   UNL     1     -10.923   9.542  70.267  1.00  0.00    -0.269 C  
BRANCH   3   6
HETATM    6  C   UNL     1      -9.809   8.047  68.525  1.00  0.00    -0.174 C  
HETATM    7  C   UNL     1      -8.320   7.983  68.823  1.00  0.00    -0.127 C  
ENDBRANCH   3   6
BRANCH   5   8
HETATM    8  C   UNL     1     -10.608   8.594  71.378  1.00  0.00    -0.334 A  
HETATM    9  C   UNL     1     -11.422   7.500  71.681  1.00  0.00    -0.292 A  
HETATM   10  C   UNL     1     -11.005   6.533  72.599  1.00  0.00    -0.287 A  
HETATM   11  C   UNL     1     -11.776   5.255  72.755  1.00  0.00    -0.214 C  
HETATM   12  C   UNL     1      -9.844   6.759  73.342  1.00  0.00    -0.230 A  
HETATM   13  C   UNL     1      -9.087   7.916  73.138  1.00  0.00    -0.322 A  
HETATM   14  C   UNL     1      -9.459   8.826  72.143  1.00  0.00    -0.309 A  
ENDBRANCH   5   8
ENDBRANCH   2   3
TORSDOF 3
ENDMDL
MODEL      150
REMARK 921   NORMALIZED FREE ENERGY PREDICTED BY IDOCK:   -3.18 KCAL/MOL
REMARK 922        TOTAL FREE ENERGY PREDICTED BY IDOCK:   -3.92 KCAL/MOL
REMARK 923 INTER-LIGAND FREE ENERGY PREDICTED BY IDOCK:   -3.53 KCAL/MOL
REMARK 924 INTRA-LIGAND FREE ENERGY PREDICTED BY IDOCK:   -0.38 KCAL/MOL
REMARK 927      BINDING AFFINITY PREDICTED BY RF-SCORE:    0.00 PKD
ROOT
HETATM    1  C   UNL     1     -12.717   7.662  71.457  1.00  0.00    -0.373 C  
HETATM    2  C   UNL     1     -11.731   6.774  70.712  1.00  0.00    -0.386 C  
ENDROOT
BRANCH   2   3
HETATM    3  N   UNL     1     -10.777   7.539  69.906  1.00  0.00    -0.245 N  
HETATM    4  O   UNL     1     -10.975   5.985  68.200  1.00  0.00    -0.300 OA 
HETATM    5  C   UNL     1     -10.549   7.068  68.596  1.00  0.00    -0.210 C  
BRANCH   3   6
HETATM    6  C   UNL     1     -10.273   8.813  70.438  1.00  0.00    -0.197 C  
HETATM    7  C   UNL     1      -9.055   8.762  71.346  1.00  0.00    -0.313 C  
ENDBRANCH   3   6
BRANCH   5   8
HETATM    8  C   UNL     1      -9.745   7.872  67.625  1.00  0.00    -0.196 A  
HETATM    9  C   UNL     1     -10.339   8.681  66.654  1.00  0.00    -0.303 A  
HETATM   10  C   UNL     1      -9.567   9.557  65.886  1.00  0.00    -0.327 A  
HETATM   11  C   UNL     1     -10.229  10.577  65.007  1.00  0.00    -0.365 C  
HETATM   12  C   UNL     1      -8.174   9.493  65.978  1.00  0.00    -0.115 A  
HETATM   13  C   UNL     1      -7.563   8.593  66.856  1.00  0.00    -0.084 A  
HETATM   14  C   UNL     1      -8.349   7.794  67.694  1.00  0.00    -0.121 A  
ENDBRANCH   5   8
ENDBRANCH   2   3
TORSDOF 3
ENDMDL
MODEL      151
REMARK 921   NORMALIZED FREE ENERGY PREDICTED BY IDOCK:   -3.18 KCAL/MOL
REMARK 922        TOTAL FREE ENERGY PREDICTED BY IDOCK:   -3.92 KCAL/MOL
REMARK 923 INTER-LIGAND FREE ENERGY PREDICTED BY IDOCK:   -3.59 KCAL/MOL
REMARK 924 INTRA-LIGAND FREE ENERGY PREDICTED BY IDOCK:   -0.32 KCAL/MOL
REMARK 927      BINDING AFFINITY PREDICTED BY RF-SCORE:    0.00 PKD
ROOT
HETATM    1  C   UNL     1     -12.947  12.395  63.362  1.00  0.00    -0.114 C  
HETATM    2  C   UNL     1     -12.101  13.163  64.368  1.00  0.00    -0.410 C  
ENDROOT
BRANCH   2   3
HETATM    3  N   UNL     1     -10.975  12.379  64.878  1.00  0.00    -0.292 N  
HETATM    4  O   UNL     1     -12.109  12.046  66.870  1.00  0.00    -0.608 OA 
HETATM    5  C   UNL     1     -11.150  11.785  66.145  1.00  0.00    -0.307 C  
BRANCH   3   6
HETATM    6  C   UNL     1      -9.838  12.121  63.982  1.00  0.00    -0.191 C  
HETATM    7  C   UNL     1      -9.864  10.842  63.163  1.00  0.00    -0.378 C  
ENDBRANCH   3   6
BRANCH   5   8
HETATM    8  C   UNL     1     -10.147  10.814  66.679  1.00  0.00    -0.265 A  
HETATM    9  C   UNL     1     -10.293   9.432  66.529  1.00  0.00    -0.268 A  
HETATM   10  C   UNL     1      -9.253   8.565  66.874  1.00  0.00    -0.197 A  
HETATM   11  C   UNL     1      -9.327   7.112  66.507  1.00  0.00    -0.208 C  
HETATM   12  C   UNL     1      -8.131   9.076  67.532  1.00  0.00    -0.108 A  
HETATM   13  C   UNL     1      -8.033  10.444  67.803  1.00  0.00    -0.102 A  
HETATM   14  C   UNL     1      -9.033  11.317  67.361  1.00  0.00    -0.144 A  
ENDBRANCH   5   8
ENDBRANCH   2   3
TORSDOF 3
ENDMDL
MODEL      152
REMARK 921   NORMALIZED FREE ENERGY PREDICTED BY IDOCK:   -3.18 KCAL/MOL
REMARK 922        TOTAL FREE ENERGY PREDICTED BY IDOCK:   -3.91 KCAL/MOL
REMARK 923 INTER-LIGAND FREE ENERGY PREDICTED BY IDOCK:   -3.49 KCAL/MOL
REMARK 924 INTRA-LIGAND FREE ENERGY PREDICTED BY IDOCK:   -0.42 KCAL/MOL
REMARK 927      BINDING AFFINITY PREDICTED BY RF-SCORE:    0.00 PKD
ROOT
HETATM    1  C   UNL     1      -7.464   7.899  66.827  1.00  0.00    -0.090 C  
HETATM    2  C   UNL     1      -8.550   7.533  67.829  1.00  0.00    -0.120 C  
ENDROOT
BRANCH   2   3
HETATM    3  N   UNL     1      -9.086   8.699  68.534  1.00  0.00    -0.139 N  
HETATM    4  O   UNL     1     -10.803   8.844  66.986  1.00  0.00    -0.190 OA 
HETATM    5  C   UNL     1     -10.302   9.220  68.045  1.00  0.00    -0.221 C  
BRANCH   3   6
HETATM    6  C   UNL     1      -8.432   9.127  69.779  1.00  0.00    -0.139 C  
HETATM    7  C   UNL     1      -7.429  10.265  69.691  1.00  0.00    -0.159 C  
ENDBRANCH   3   6
BRANCH   5   8
HETATM    8  C   UNL     1     -11.035  10.283  68.796  1.00  0.00    -0.285 A  
HETATM    9  C   UNL     1     -11.882   9.992  69.869  1.00  0.00    -0.141 A  
HETATM   10  C   UNL     1     -12.404  11.017  70.664  1.00  0.00    -0.480 A  
HETATM   11  C   UNL     1     -13.126  10.692  71.938  1.00  0.00    -0.563 C  
HETATM   12  C   UNL     1     -12.212  12.344  70.272  1.00  0.00    -0.345 A  
HETATM   13  C   UNL     1     -11.472  12.644  69.124  1.00  0.00    -0.359 A  
HETATM   14  C   UNL     1     -10.868  11.615  68.395  1.00  0.00    -0.257 A  
ENDBRANCH   5   8
ENDBRANCH   2   3
TORSDOF 3
ENDMDL
MODEL      153
REMARK 921   NORMALIZED FREE ENERGY PREDICTED BY IDOCK:   -3.17 KCAL/MOL
REMARK 922        TOTAL FREE ENERGY PREDICTED BY IDOCK:   -3.90 KCAL/MOL
REMARK 923 INTER-LIGAND FREE ENERGY PREDICTED BY IDOCK:   -3.50 KCAL/MOL
REMARK 924 INTRA-LIGAND FREE ENERGY PREDICTED BY IDOCK:   -0.40 KCAL/MOL
REMARK 927      BINDING AFFINITY PREDICTED BY RF-SCORE:    0.00 PKD
ROOT
HETATM    1  C   UNL     1     -10.905  10.580  67.143  1.00  0.00    -0.319 C  
HETATM    2  C   UNL     1     -11.043  11.731  68.129  1.00  0.00    -0.243 C  
ENDROOT
BRANCH   2   3
HETATM    3  N   UNL     1     -10.393  12.958  67.663  1.00  0.00    -0.216 N  
HETATM    4  O   UNL     1     -11.936  14.222  68.840  1.00  0.00    -0.325 OA 
HETATM    5  C   UNL     1     -10.900  14.168  68.180  1.00  0.00    -0.248 C  
BRANCH   3   6
HETATM    6  C   UNL     1      -9.174  12.839  66.850  1.00  0.00    -0.229 C  
HETATM    7  C   UNL     1      -7.869  12.557  67.576  1.00  0.00    -0.168 C  
ENDBRANCH   3   6
BRANCH   5   8
HETATM    8  C   UNL     1     -10.197  15.462  67.923  1.00  0.00    -0.239 A  
HETATM    9  C   UNL     1      -9.128  15.900  68.708  1.00  0.00    -0.219 A  
HETATM   10  C   UNL     1      -8.378  17.018  68.332  1.00  0.00    -0.241 A  
HETATM   11  C   UNL     1      -7.104  17.351  69.051  1.00  0.00    -0.233 C  
HETATM   12  C   UNL     1      -8.812  17.796  67.255  1.00  0.00    -0.240 A  
HETATM   13  C   UNL     1      -9.958  17.437  66.539  1.00  0.00    -0.314 A  
HETATM   14  C   UNL     1     -10.641  16.260  66.861  1.00  0.00    -0.270 A  
ENDBRANCH   5   8
ENDBRANCH   2   3
TORSDOF 3
ENDMDL
MODEL      154
REMARK 921   NORMALIZED FREE ENERGY PREDICTED BY IDOCK:   -3.16 KCAL/MOL
REMARK 922        TOTAL FREE ENERGY PREDICTED BY IDOCK:   -3.89 KCAL/MOL
REMARK 923 INTER-LIGAND FREE ENERGY PREDICTED BY IDOCK:   -3.51 KCAL/MOL
REMARK 924 INTRA-LIGAND FREE ENERGY PREDICTED BY IDOCK:   -0.38 KCAL/MOL
REMARK 927      BINDING AFFINITY PREDICTED BY RF-SCORE:    0.00 PKD
ROOT
HETATM    1  C   UNL     1     -10.483   6.985  71.008  1.00  0.00    -0.231 C  
HETATM    2  C   UNL     1     -11.410   7.691  70.029  1.00  0.00    -0.067 C  
ENDROOT
BRANCH   2   3
HETATM    3  N   UNL     1     -11.052   9.096  69.822  1.00  0.00    -0.179 N  
HETATM    4  O   UNL     1     -10.501   8.630  67.621  1.00  0.00    -0.245 OA 
HETATM    5  C   UNL     1     -10.687   9.460  68.509  1.00  0.00    -0.161 C  
BRANCH   3   6
HETATM    6  C   UNL     1     -11.265  10.043  70.925  1.00  0.00    -0.341 C  
HETATM    7  C   UNL     1     -12.669  10.155  71.496  1.00  0.00    -0.541 C  
ENDBRANCH   3   6
BRANCH   5   8
HETATM    8  C   UNL     1     -10.487  10.895  68.142  1.00  0.00    -0.211 A  
HETATM    9  C   UNL     1      -9.231  11.506  68.177  1.00  0.00    -0.181 A  
HETATM   10  C   UNL     1      -9.048  12.790  67.653  1.00  0.00    -0.193 A  
HETATM   11  C   UNL     1      -7.666  13.350  67.491  1.00  0.00    -0.182 C  
HETATM   12  C   UNL     1     -10.167  13.525  67.253  1.00  0.00    -0.242 A  
HETATM   13  C   UNL     1     -11.447  12.968  67.335  1.00  0.00    -0.380 A  
HETATM   14  C   UNL     1     -11.606  11.646  67.763  1.00  0.00    -0.359 A  
ENDBRANCH   5   8
ENDBRANCH   2   3
TORSDOF 3
ENDMDL
MODEL      155
REMARK 921   NORMALIZED FREE ENERGY PREDICTED BY IDOCK:   -3.14 KCAL/MOL
REMARK 922        TOTAL FREE ENERGY PREDICTED BY IDOCK:   -3.87 KCAL/MOL
REMARK 923 INTER-LIGAND FREE ENERGY PREDICTED BY IDOCK:   -3.76 KCAL/MOL
REMARK 924 INTRA-LIGAND FREE ENERGY PREDICTED BY IDOCK:   -0.11 KCAL/MOL
REMARK 927      BINDING AFFINITY PREDICTED BY RF-SCORE:    0.00 PKD
ROOT
HETATM    1  C   UNL     1     -11.313   7.206  70.210  1.00  0.00    -0.305 C  
HETATM    2  C   UNL     1     -10.103   7.245  69.287  1.00  0.00    -0.183 C  
ENDROOT
BRANCH   2   3
HETATM    3  N   UNL     1     -10.379   7.926  68.019  1.00  0.00    -0.211 N  
HETATM    4  O   UNL     1      -9.639   9.922  68.933  1.00  0.00    -0.159 OA 
HETATM    5  C   UNL     1     -10.007   9.284  67.947  1.00  0.00    -0.187 C  
BRANCH   3   6
HETATM    6  C   UNL     1     -10.847   7.123  66.880  1.00  0.00    -0.237 C  
HETATM    7  C   UNL     1     -10.742   5.612  66.995  1.00  0.00    -0.332 C  
ENDBRANCH   3   6
BRANCH   5   8
HETATM    8  C   UNL     1     -10.066  10.024  66.650  1.00  0.00    -0.289 A  
HETATM    9  C   UNL     1      -9.243   9.702  65.568  1.00  0.00    -0.291 A  
HETATM   10  C   UNL     1      -9.450  10.288  64.316  1.00  0.00    -0.365 A  
HETATM   11  C   UNL     1      -8.714   9.779  63.112  1.00  0.00    -0.229 C  
HETATM   12  C   UNL     1     -10.377  11.326  64.197  1.00  0.00    -0.410 A  
HETATM   13  C   UNL     1     -11.117  11.746  65.307  1.00  0.00    -0.333 A  
HETATM   14  C   UNL     1     -10.975  11.083  66.530  1.00  0.00    -0.228 A  
ENDBRANCH   5   8
ENDBRANCH   2   3
TORSDOF 3
ENDMDL
MODEL      156
REMARK 921   NORMALIZED FREE ENERGY PREDICTED BY IDOCK:   -3.14 KCAL/MOL
REMARK 922        TOTAL FREE ENERGY PREDICTED BY IDOCK:   -3.87 KCAL/MOL
REMARK 923 INTER-LIGAND FREE ENERGY PREDICTED BY IDOCK:   -3.43 KCAL/MOL
REMARK 924 INTRA-LIGAND FREE ENERGY PREDICTED BY IDOCK:   -0.44 KCAL/MOL
REMARK 927      BINDING AFFINITY PREDICTED BY RF-SCORE:    0.00 PKD
ROOT
HETATM    1  C   UNL     1      -7.429   8.613  65.564  1.00  0.00    -0.085 C  
HETATM    2  C   UNL     1      -7.829   7.850  66.819  1.00  0.00    -0.103 C  
ENDROOT
BRANCH   2   3
HETATM    3  N   UNL     1      -8.536   8.687  67.790  1.00  0.00    -0.136 N  
HETATM    4  O   UNL     1     -10.561   8.050  66.864  1.00  0.00    -0.338 OA 
HETATM    5  C   UNL     1      -9.945   8.625  67.759  1.00  0.00    -0.190 C  
BRANCH   3   6
HETATM    6  C   UNL     1      -7.750   9.379  68.822  1.00  0.00    -0.080 C  
HETATM    7  C   UNL     1      -7.442  10.851  68.602  1.00  0.00    -0.105 C  
ENDBRANCH   3   6
BRANCH   5   8
HETATM    8  C   UNL     1     -10.761   9.287  68.821  1.00  0.00    -0.184 A  
HETATM    9  C   UNL     1     -11.101   8.642  70.013  1.00  0.00    -0.161 A  
HETATM   10  C   UNL     1     -11.704   9.347  71.059  1.00  0.00    -0.395 A  
HETATM   11  C   UNL     1     -11.863   8.710  72.408  1.00  0.00    -0.402 C  
HETATM   12  C   UNL     1     -12.123  10.661  70.838  1.00  0.00    -0.489 A  
HETATM   13  C   UNL     1     -11.904  11.277  69.602  1.00  0.00    -0.430 A  
HETATM   14  C   UNL     1     -11.207  10.596  68.598  1.00  0.00    -0.337 A  
ENDBRANCH   5   8
ENDBRANCH   2   3
TORSDOF 3
ENDMDL
MODEL      157
REMARK 921   NORMALIZED FREE ENERGY PREDICTED BY IDOCK:   -3.14 KCAL/MOL
REMARK 922        TOTAL FREE ENERGY PREDICTED BY IDOCK:   -3.87 KCAL/MOL
REMARK 923 INTER-LIGAND FREE ENERGY PREDICTED BY IDOCK:   -3.49 KCAL/MOL
REMARK 924 INTRA-LIGAND FREE ENERGY PREDICTED BY IDOCK:   -0.38 KCAL/MOL
REMARK 927      BINDING AFFINITY PREDICTED BY RF-SCORE:    0.00 PKD
ROOT
HETATM    1  C   UNL     1     -10.280  20.088  67.015  1.00  0.00    -0.587 C  
HETATM    2  C   UNL     1     -10.268  18.796  66.211  1.00  0.00    -0.424 C  
ENDROOT
BRANCH   2   3
HETATM    3  N   UNL     1      -9.247  17.852  66.669  1.00  0.00    -0.271 N  
HETATM    4  O   UNL     1     -10.826  16.780  67.980  1.00  0.00    -0.355 OA 
HETATM    5  C   UNL     1      -9.691  16.809  67.507  1.00  0.00    -0.252 C  
BRANCH   3   6
HETATM    6  C   UNL     1      -7.897  17.948  66.095  1.00  0.00    -0.222 C  
HETATM    7  C   UNL     1      -6.878  18.799  66.835  1.00  0.00    -0.211 C  
ENDBRANCH   3   6
BRANCH   5   8
HETATM    8  C   UNL     1      -8.778  15.686  67.879  1.00  0.00    -0.166 A  
HETATM    9  C   UNL     1      -7.819  15.806  68.888  1.00  0.00    -0.190 A  
HETATM   10  C   UNL     1      -7.111  14.688  69.336  1.00  0.00    -0.157 A  
HETATM   11  C   UNL     1      -6.250  14.778  70.561  1.00  0.00    -0.123 C  
HETATM   12  C   UNL     1      -7.245  13.479  68.647  1.00  0.00    -0.107 A  
HETATM   13  C   UNL     1      -8.108  13.381  67.552  1.00  0.00    -0.183 A  
HETATM   14  C   UNL     1      -8.888  14.479  67.178  1.00  0.00    -0.245 A  
ENDBRANCH   5   8
ENDBRANCH   2   3
TORSDOF 3
ENDMDL
MODEL      158
REMARK 921   NORMALIZED FREE ENERGY PREDICTED BY IDOCK:   -3.13 KCAL/MOL
REMARK 922        TOTAL FREE ENERGY PREDICTED BY IDOCK:   -3.87 KCAL/MOL
REMARK 923 INTER-LIGAND FREE ENERGY PREDICTED BY IDOCK:   -3.55 KCAL/MOL
REMARK 924 INTRA-LIGAND FREE ENERGY PREDICTED BY IDOCK:   -0.32 KCAL/MOL
REMARK 927      BINDING AFFINITY PREDICTED BY RF-SCORE:    0.00 PKD
ROOT
HETATM    1  C   UNL     1      -6.473  10.339  65.769  1.00  0.00    -0.119 C  
HETATM    2  C   UNL     1      -7.470   9.847  66.808  1.00  0.00    -0.095 C  
ENDROOT
BRANCH   2   3
HETATM    3  N   UNL     1      -8.721  10.609  66.798  1.00  0.00    -0.129 N  
HETATM    4  O   UNL     1      -7.731  12.248  68.102  1.00  0.00    -0.119 OA 
HETATM    5  C   UNL     1      -8.688  11.871  67.427  1.00  0.00    -0.166 C  
BRANCH   3   6
HETATM    6  C   UNL     1      -9.845  10.099  66.000  1.00  0.00    -0.246 C  
HETATM    7  C   UNL     1      -9.807  10.336  64.500  1.00  0.00    -0.384 C  
ENDBRANCH   3   6
BRANCH   5   8
HETATM    8  C   UNL     1      -9.845  12.811  67.314  1.00  0.00    -0.207 A  
HETATM    9  C   UNL     1     -10.026  13.643  66.207  1.00  0.00    -0.305 A  
HETATM   10  C   UNL     1     -11.209  14.371  66.047  1.00  0.00    -0.333 A  
HETATM   11  C   UNL     1     -11.490  15.084  64.758  1.00  0.00    -0.403 C  
HETATM   12  C   UNL     1     -12.137  14.394  67.091  1.00  0.00    -0.367 A  
HETATM   13  C   UNL     1     -11.905  13.665  68.262  1.00  0.00    -0.404 A  
HETATM   14  C   UNL     1     -10.767  12.859  68.367  1.00  0.00    -0.273 A  
ENDBRANCH   5   8
ENDBRANCH   2   3
TORSDOF 3
ENDMDL
MODEL      159
REMARK 921   NORMALIZED FREE ENERGY PREDICTED BY IDOCK:   -3.13 KCAL/MOL
REMARK 922        TOTAL FREE ENERGY PREDICTED BY IDOCK:   -3.87 KCAL/MOL
REMARK 923 INTER-LIGAND FREE ENERGY PREDICTED BY IDOCK:   -4.37 KCAL/MOL
REMARK 924 INTRA-LIGAND FREE ENERGY PREDICTED BY IDOCK:    0.50 KCAL/MOL
REMARK 927      BINDING AFFINITY PREDICTED BY RF-SCORE:    0.00 PKD
ROOT
HETATM    1  C   UNL     1     -13.714   8.334  72.306  1.00  0.00    -0.270 C  
HETATM    2  C   UNL     1     -12.339   8.974  72.436  1.00  0.00    -0.280 C  
ENDROOT
BRANCH   2   3
HETATM    3  N   UNL     1     -11.864   9.557  71.180  1.00  0.00    -0.331 N  
HETATM    4  O   UNL     1     -13.407  11.271  71.394  1.00  0.00    -0.244 OA 
HETATM    5  C   UNL     1     -12.439  10.790  70.808  1.00  0.00    -0.387 C  
BRANCH   3   6
HETATM    6  C   UNL     1     -10.723   8.926  70.502  1.00  0.00    -0.230 C  
HETATM    7  C   UNL     1      -9.370   8.995  71.189  1.00  0.00    -0.336 C  
ENDBRANCH   3   6
BRANCH   5   8
HETATM    8  C   UNL     1     -11.898  11.566  69.651  1.00  0.00    -0.421 A  
HETATM    9  C   UNL     1     -11.791  12.959  69.669  1.00  0.00    -0.387 A  
HETATM   10  C   UNL     1     -11.114  13.636  68.651  1.00  0.00    -0.299 A  
HETATM   11  C   UNL     1     -10.811  15.099  68.788  1.00  0.00    -0.247 C  
HETATM   12  C   UNL     1     -10.695  12.924  67.525  1.00  0.00    -0.241 A  
HETATM   13  C   UNL     1     -10.912  11.545  67.437  1.00  0.00    -0.317 A  
HETATM   14  C   UNL     1     -11.498  10.862  68.508  1.00  0.00    -0.380 A  
ENDBRANCH   5   8
ENDBRANCH   2   3
TORSDOF 3
ENDMDL
MODEL      160
REMARK 921   NORMALIZED FREE ENERGY PREDICTED BY IDOCK:   -3.13 KCAL/MOL
REMARK 922        TOTAL FREE ENERGY PREDICTED BY IDOCK:   -3.86 KCAL/MOL
REMARK 923 INTER-LIGAND FREE ENERGY PREDICTED BY IDOCK:   -3.54 KCAL/MOL
REMARK 924 INTRA-LIGAND FREE ENERGY PREDICTED BY IDOCK:   -0.31 KCAL/MOL
REMARK 927      BINDING AFFINITY PREDICTED BY RF-SCORE:    0.00 PKD
ROOT
HETATM    1  C   UNL     1      -7.427   9.412  67.352  1.00  0.00    -0.091 C  
HETATM    2  C   UNL     1      -8.001  10.448  68.308  1.00  0.00    -0.111 C  
ENDROOT
BRANCH   2   3
HETATM    3  N   UNL     1      -8.802   9.849  69.378  1.00  0.00    -0.173 N  
HETATM    4  O   UNL     1     -10.683   9.960  68.030  1.00  0.00    -0.224 OA 
HETATM    5  C   UNL     1     -10.149   9.569  69.067  1.00  0.00    -0.193 C  
BRANCH   3   6
HETATM    6  C   UNL     1      -8.122   9.426  70.610  1.00  0.00    -0.161 C  
HETATM    7  C   UNL     1      -7.478   8.050  70.622  1.00  0.00    -0.068 C  
ENDBRANCH   3   6
BRANCH   5   8
HETATM    8  C   UNL     1     -11.005   8.789  70.012  1.00  0.00    -0.216 A  
HETATM    9  C   UNL     1     -11.811   9.406  70.972  1.00  0.00    -0.396 A  
HETATM   10  C   UNL     1     -12.734   8.662  71.712  1.00  0.00    -0.401 A  
HETATM   11  C   UNL     1     -13.745   9.356  72.576  1.00  0.00    -0.419 C  
HETATM   12  C   UNL     1     -12.723   7.269  71.607  1.00  0.00    -0.410 A  
HETATM   13  C   UNL     1     -11.829   6.631  70.742  1.00  0.00    -0.441 A  
HETATM   14  C   UNL     1     -10.982   7.392  69.930  1.00  0.00    -0.239 A  
ENDBRANCH   5   8
ENDBRANCH   2   3
TORSDOF 3
ENDMDL
MODEL      161
REMARK 921   NORMALIZED FREE ENERGY PREDICTED BY IDOCK:   -3.13 KCAL/MOL
REMARK 922        TOTAL FREE ENERGY PREDICTED BY IDOCK:   -3.86 KCAL/MOL
REMARK 923 INTER-LIGAND FREE ENERGY PREDICTED BY IDOCK:   -3.60 KCAL/MOL
REMARK 924 INTRA-LIGAND FREE ENERGY PREDICTED BY IDOCK:   -0.25 KCAL/MOL
REMARK 927      BINDING AFFINITY PREDICTED BY RF-SCORE:    0.00 PKD
ROOT
HETATM    1  C   UNL     1      -8.213   3.834  68.540  1.00  0.00    -0.083 C  
HETATM    2  C   UNL     1      -9.523   3.602  69.280  1.00  0.00    -0.174 C  
ENDROOT
BRANCH   2   3
HETATM    3  N   UNL     1      -9.901   4.731  70.132  1.00  0.00    -0.220 N  
HETATM    4  O   UNL     1     -10.588   5.911  68.260  1.00  0.00    -0.213 OA 
HETATM    5  C   UNL     1     -10.522   5.820  69.485  1.00  0.00    -0.293 C  
BRANCH   3   6
HETATM    6  C   UNL     1      -9.775   4.583  71.589  1.00  0.00    -0.175 C  
HETATM    7  C   UNL     1      -8.497   5.087  72.238  1.00  0.00    -0.124 C  
ENDBRANCH   3   6
BRANCH   5   8
HETATM    8  C   UNL     1     -11.118   6.939  70.276  1.00  0.00    -0.342 A  
HETATM    9  C   UNL     1     -12.481   6.998  70.578  1.00  0.00    -0.085 A  
HETATM   10  C   UNL     1     -12.973   7.954  71.470  1.00  0.00    -0.338 A  
HETATM   11  C   UNL     1     -14.389   7.874  71.960  1.00  0.00    -0.490 C  
HETATM   12  C   UNL     1     -12.118   8.961  71.926  1.00  0.00    -0.443 A  
HETATM   13  C   UNL     1     -10.779   8.986  71.527  1.00  0.00    -0.421 A  
HETATM   14  C   UNL     1     -10.273   7.965  70.716  1.00  0.00    -0.202 A  
ENDBRANCH   5   8
ENDBRANCH   2   3
TORSDOF 3
ENDMDL
MODEL      162
REMARK 921   NORMALIZED FREE ENERGY PREDICTED BY IDOCK:   -3.12 KCAL/MOL
REMARK 922        TOTAL FREE ENERGY PREDICTED BY IDOCK:   -3.85 KCAL/MOL
REMARK 923 INTER-LIGAND FREE ENERGY PREDICTED BY IDOCK:   -3.66 KCAL/MOL
REMARK 924 INTRA-LIGAND FREE ENERGY PREDICTED BY IDOCK:   -0.18 KCAL/MOL
REMARK 927      BINDING AFFINITY PREDICTED BY RF-SCORE:    0.00 PKD
ROOT
HETATM    1  C   UNL     1      -6.033  13.946  68.509  1.00  0.00    -0.091 C  
HETATM    2  C   UNL     1      -7.050  14.601  69.434  1.00  0.00    -0.157 C  
ENDROOT
BRANCH   2   3
HETATM    3  N   UNL     1      -7.780  15.695  68.789  1.00  0.00    -0.153 N  
HETATM    4  O   UNL     1      -6.291  17.221  69.696  1.00  0.00    -0.248 OA 
HETATM    5  C   UNL     1      -7.226  16.984  68.932  1.00  0.00    -0.239 C  
BRANCH   3   6
HETATM    6  C   UNL     1      -8.910  15.361  67.911  1.00  0.00    -0.168 C  
HETATM    7  C   UNL     1      -8.686  15.453  66.411  1.00  0.00    -0.307 C  
ENDBRANCH   3   6
BRANCH   5   8
HETATM    8  C   UNL     1      -7.778  18.142  68.165  1.00  0.00    -0.280 A  
HETATM    9  C   UNL     1      -7.061  18.771  67.145  1.00  0.00    -0.212 A  
HETATM   10  C   UNL     1      -7.673  19.725  66.326  1.00  0.00    -0.331 A  
HETATM   11  C   UNL     1      -6.972  20.232  65.101  1.00  0.00    -0.246 C  
HETATM   12  C   UNL     1      -8.958  20.170  66.647  1.00  0.00    -0.416 A  
HETATM   13  C   UNL     1      -9.638  19.638  67.746  1.00  0.00    -0.460 A  
HETATM   14  C   UNL     1      -9.055  18.610  68.496  1.00  0.00    -0.358 A  
ENDBRANCH   5   8
ENDBRANCH   2   3
TORSDOF 3
ENDMDL
MODEL      163
REMARK 921   NORMALIZED FREE ENERGY PREDICTED BY IDOCK:   -3.12 KCAL/MOL
REMARK 922        TOTAL FREE ENERGY PREDICTED BY IDOCK:   -3.85 KCAL/MOL
REMARK 923 INTER-LIGAND FREE ENERGY PREDICTED BY IDOCK:   -3.54 KCAL/MOL
REMARK 924 INTRA-LIGAND FREE ENERGY PREDICTED BY IDOCK:   -0.31 KCAL/MOL
REMARK 927      BINDING AFFINITY PREDICTED BY RF-SCORE:    0.00 PKD
ROOT
HETATM    1  C   UNL     1     -10.352  19.899  67.529  1.00  0.00    -0.557 C  
HETATM    2  C   UNL     1     -10.414  18.771  66.508  1.00  0.00    -0.427 C  
ENDROOT
BRANCH   2   3
HETATM    3  N   UNL     1      -9.528  17.654  66.843  1.00  0.00    -0.267 N  
HETATM    4  O   UNL     1     -11.128  16.824  68.298  1.00  0.00    -0.361 OA 
HETATM    5  C   UNL     1     -10.058  16.675  67.709  1.00  0.00    -0.275 C  
BRANCH   3   6
HETATM    6  C   UNL     1      -8.247  17.539  66.132  1.00  0.00    -0.187 C  
HETATM    7  C   UNL     1      -7.034  18.206  66.757  1.00  0.00    -0.226 C  
ENDBRANCH   3   6
BRANCH   5   8
HETATM    8  C   UNL     1      -9.318  15.403  67.967  1.00  0.00    -0.196 A  
HETATM    9  C   UNL     1      -9.629  14.211  67.309  1.00  0.00    -0.234 A  
HETATM   10  C   UNL     1      -8.804  13.090  67.435  1.00  0.00    -0.203 A  
HETATM   11  C   UNL     1      -9.016  11.891  66.558  1.00  0.00    -0.199 C  
HETATM   12  C   UNL     1      -7.759  13.118  68.362  1.00  0.00    -0.138 A  
HETATM   13  C   UNL     1      -7.518  14.266  69.123  1.00  0.00    -0.067 A  
HETATM   14  C   UNL     1      -8.286  15.415  68.913  1.00  0.00    -0.203 A  
ENDBRANCH   5   8
ENDBRANCH   2   3
TORSDOF 3
ENDMDL
MODEL      164
REMARK 921   NORMALIZED FREE ENERGY PREDICTED BY IDOCK:   -3.10 KCAL/MOL
REMARK 922        TOTAL FREE ENERGY PREDICTED BY IDOCK:   -3.82 KCAL/MOL
REMARK 923 INTER-LIGAND FREE ENERGY PREDICTED BY IDOCK:   -3.49 KCAL/MOL
REMARK 924 INTRA-LIGAND FREE ENERGY PREDICTED BY IDOCK:   -0.33 KCAL/MOL
REMARK 927      BINDING AFFINITY PREDICTED BY RF-SCORE:    0.00 PKD
ROOT
HETATM    1  C   UNL     1      -5.572  13.469  68.688  1.00  0.00    -0.086 C  
HETATM    2  C   UNL     1      -6.616  14.290  69.433  1.00  0.00    -0.132 C  
ENDROOT
BRANCH   2   3
HETATM    3  N   UNL     1      -7.196  15.351  68.607  1.00  0.00    -0.116 N  
HETATM    4  O   UNL     1      -9.254  14.291  68.694  1.00  0.00    -0.200 OA 
HETATM    5  C   UNL     1      -8.586  15.275  68.379  1.00  0.00    -0.160 C  
BRANCH   3   6
HETATM    6  C   UNL     1      -6.347  16.490  68.232  1.00  0.00    -0.127 C  
HETATM    7  C   UNL     1      -5.952  17.465  69.329  1.00  0.00    -0.219 C  
ENDBRANCH   3   6
BRANCH   5   8
HETATM    8  C   UNL     1      -9.313  16.398  67.714  1.00  0.00    -0.213 A  
HETATM    9  C   UNL     1      -9.554  17.616  68.355  1.00  0.00    -0.310 A  
HETATM   10  C   UNL     1     -10.070  18.705  67.647  1.00  0.00    -0.404 A  
HETATM   11  C   UNL     1     -10.117  20.064  68.279  1.00  0.00    -0.531 C  
HETATM   12  C   UNL     1     -10.506  18.515  66.333  1.00  0.00    -0.443 A  
HETATM   13  C   UNL     1     -10.389  17.263  65.722  1.00  0.00    -0.245 A  
HETATM   14  C   UNL     1      -9.776  16.208  66.406  1.00  0.00    -0.308 A  
ENDBRANCH   5   8
ENDBRANCH   2   3
TORSDOF 3
ENDMDL
MODEL      165
REMARK 921   NORMALIZED FREE ENERGY PREDICTED BY IDOCK:   -3.09 KCAL/MOL
REMARK 922        TOTAL FREE ENERGY PREDICTED BY IDOCK:   -3.81 KCAL/MOL
REMARK 923 INTER-LIGAND FREE ENERGY PREDICTED BY IDOCK:   -3.41 KCAL/MOL
REMARK 924 INTRA-LIGAND FREE ENERGY PREDICTED BY IDOCK:   -0.40 KCAL/MOL
REMARK 927      BINDING AFFINITY PREDICTED BY RF-SCORE:    0.00 PKD
ROOT
HETATM    1  C   UNL     1     -11.066   3.080  73.384  1.00  0.00    -0.285 C  
HETATM    2  C   UNL     1     -10.955   4.545  73.784  1.00  0.00    -0.286 C  
ENDROOT
BRANCH   2   3
HETATM    3  N   UNL     1     -10.407   5.384  72.717  1.00  0.00    -0.186 N  
HETATM    4  O   UNL     1     -12.550   6.048  72.140  1.00  0.00    -0.143 OA 
HETATM    5  C   UNL     1     -11.334   6.175  72.007  1.00  0.00    -0.297 C  
BRANCH   3   6
HETATM    6  C   UNL     1      -8.947   5.478  72.579  1.00  0.00    -0.133 C  
HETATM    7  C   UNL     1      -8.284   4.618  71.517  1.00  0.00    -0.103 C  
ENDBRANCH   3   6
BRANCH   5   8
HETATM    8  C   UNL     1     -10.868   7.205  71.029  1.00  0.00    -0.262 A  
HETATM    9  C   UNL     1     -10.779   6.949  69.659  1.00  0.00    -0.276 A  
HETATM   10  C   UNL     1     -10.518   7.982  68.755  1.00  0.00    -0.196 A  
HETATM   11  C   UNL     1     -10.643   7.746  67.279  1.00  0.00    -0.376 C  
HETATM   12  C   UNL     1     -10.177   9.244  69.248  1.00  0.00    -0.211 A  
HETATM   13  C   UNL     1     -10.137   9.480  70.625  1.00  0.00    -0.353 A  
HETATM   14  C   UNL     1     -10.500   8.465  71.517  1.00  0.00    -0.305 A  
ENDBRANCH   5   8
ENDBRANCH   2   3
TORSDOF 3
ENDMDL
MODEL      166
REMARK 921   NORMALIZED FREE ENERGY PREDICTED BY IDOCK:   -3.07 KCAL/MOL
REMARK 922        TOTAL FREE ENERGY PREDICTED BY IDOCK:   -3.79 KCAL/MOL
REMARK 923 INTER-LIGAND FREE ENERGY PREDICTED BY IDOCK:   -4.24 KCAL/MOL
REMARK 924 INTRA-LIGAND FREE ENERGY PREDICTED BY IDOCK:    0.45 KCAL/MOL
REMARK 927      BINDING AFFINITY PREDICTED BY RF-SCORE:    0.00 PKD
ROOT
HETATM    1  C   UNL     1      -8.450   8.013  69.099  1.00  0.00    -0.136 C  
HETATM    2  C   UNL     1      -9.961   7.830  69.119  1.00  0.00    -0.182 C  
ENDROOT
BRANCH   2   3
HETATM    3  N   UNL     1     -10.687   9.096  68.993  1.00  0.00    -0.194 N  
HETATM    4  O   UNL     1     -10.598   9.373  71.291  1.00  0.00    -0.313 OA 
HETATM    5  C   UNL     1     -10.867   9.833  70.182  1.00  0.00    -0.291 C  
BRANCH   3   6
HETATM    6  C   UNL     1     -11.013   9.586  67.646  1.00  0.00    -0.081 C  
HETATM    7  C   UNL     1      -9.860   9.817  66.684  1.00  0.00    -0.275 C  
ENDBRANCH   3   6
BRANCH   5   8
HETATM    8  C   UNL     1     -11.424  11.219  70.144  1.00  0.00    -0.336 A  
HETATM    9  C   UNL     1     -12.420  11.648  71.024  1.00  0.00    -0.436 A  
HETATM   10  C   UNL     1     -12.786  12.996  71.085  1.00  0.00    -0.372 A  
HETATM   11  C   UNL     1     -13.689  13.486  72.178  1.00  0.00    -0.654 C  
HETATM   12  C   UNL     1     -12.269  13.883  70.137  1.00  0.00    -0.425 A  
HETATM   13  C   UNL     1     -11.367  13.436  69.167  1.00  0.00    -0.333 A  
HETATM   14  C   UNL     1     -10.930  12.107  69.181  1.00  0.00    -0.215 A  
ENDBRANCH   5   8
ENDBRANCH   2   3
TORSDOF 3
ENDMDL
MODEL      167
REMARK 921   NORMALIZED FREE ENERGY PREDICTED BY IDOCK:   -3.07 KCAL/MOL
REMARK 922        TOTAL FREE ENERGY PREDICTED BY IDOCK:   -3.79 KCAL/MOL
REMARK 923 INTER-LIGAND FREE ENERGY PREDICTED BY IDOCK:   -3.44 KCAL/MOL
REMARK 924 INTRA-LIGAND FREE ENERGY PREDICTED BY IDOCK:   -0.34 KCAL/MOL
REMARK 927      BINDING AFFINITY PREDICTED BY RF-SCORE:    0.00 PKD
ROOT
HETATM    1  C   UNL     1     -10.687  12.482  68.504  1.00  0.00    -0.263 C  
HETATM    2  C   UNL     1     -11.768  11.410  68.483  1.00  0.00    -0.318 C  
ENDROOT
BRANCH   2   3
HETATM    3  N   UNL     1     -11.404  10.223  69.259  1.00  0.00    -0.219 N  
HETATM    4  O   UNL     1     -10.636   9.198  67.330  1.00  0.00    -0.271 OA 
HETATM    5  C   UNL     1     -10.745   9.194  68.555  1.00  0.00    -0.116 C  
BRANCH   3   6
HETATM    6  C   UNL     1     -11.583  10.258  70.718  1.00  0.00    -0.355 C  
HETATM    7  C   UNL     1     -12.866  10.871  71.254  1.00  0.00    -0.536 C  
ENDBRANCH   3   6
BRANCH   5   8
HETATM    8  C   UNL     1     -10.162   8.024  69.279  1.00  0.00    -0.214 A  
HETATM    9  C   UNL     1      -8.883   8.055  69.841  1.00  0.00    -0.144 A  
HETATM   10  C   UNL     1      -8.442   7.017  70.666  1.00  0.00    -0.139 A  
HETATM   11  C   UNL     1      -7.165   7.158  71.441  1.00  0.00    -0.077 C  
HETATM   12  C   UNL     1      -9.224   5.866  70.786  1.00  0.00    -0.167 A  
HETATM   13  C   UNL     1     -10.451   5.771  70.123  1.00  0.00    -0.348 A  
HETATM   14  C   UNL     1     -10.929   6.857  69.383  1.00  0.00    -0.274 A  
ENDBRANCH   5   8
ENDBRANCH   2   3
TORSDOF 3
ENDMDL
MODEL      168
REMARK 921   NORMALIZED FREE ENERGY PREDICTED BY IDOCK:   -3.06 KCAL/MOL
REMARK 922        TOTAL FREE ENERGY PREDICTED BY IDOCK:   -3.78 KCAL/MOL
REMARK 923 INTER-LIGAND FREE ENERGY PREDICTED BY IDOCK:   -3.47 KCAL/MOL
REMARK 924 INTRA-LIGAND FREE ENERGY PREDICTED BY IDOCK:   -0.32 KCAL/MOL
REMARK 927      BINDING AFFINITY PREDICTED BY RF-SCORE:    0.00 PKD
ROOT
HETATM    1  C   UNL     1      -7.894   5.575  68.964  1.00  0.00    -0.091 C  
HETATM    2  C   UNL     1      -9.008   5.836  69.968  1.00  0.00    -0.139 C  
ENDROOT
BRANCH   2   3
HETATM    3  N   UNL     1      -9.923   6.895  69.538  1.00  0.00    -0.162 N  
HETATM    4  O   UNL     1      -8.564   8.477  70.545  1.00  0.00    -0.130 OA 
HETATM    5  C   UNL     1      -9.525   8.218  69.823  1.00  0.00    -0.163 C  
BRANCH   3   6
HETATM    6  C   UNL     1     -11.075   6.528  68.702  1.00  0.00    -0.270 C  
HETATM    7  C   UNL     1     -10.930   6.682  67.197  1.00  0.00    -0.478 C  
ENDBRANCH   3   6
BRANCH   5   8
HETATM    8  C   UNL     1     -10.283   9.380  69.267  1.00  0.00    -0.209 A  
HETATM    9  C   UNL     1      -9.967   9.957  68.034  1.00  0.00    -0.179 A  
HETATM   10  C   UNL     1     -10.806  10.917  67.461  1.00  0.00    -0.324 A  
HETATM   11  C   UNL     1     -10.583  11.368  66.047  1.00  0.00    -0.319 C  
HETATM   12  C   UNL     1     -11.872  11.421  68.209  1.00  0.00    -0.320 A  
HETATM   13  C   UNL     1     -12.121  10.942  69.499  1.00  0.00    -0.380 A  
HETATM   14  C   UNL     1     -11.337   9.908  70.022  1.00  0.00    -0.303 A  
ENDBRANCH   5   8
ENDBRANCH   2   3
TORSDOF 3
ENDMDL
MODEL      169
REMARK 921   NORMALIZED FREE ENERGY PREDICTED BY IDOCK:   -3.06 KCAL/MOL
REMARK 922        TOTAL FREE ENERGY PREDICTED BY IDOCK:   -3.78 KCAL/MOL
REMARK 923 INTER-LIGAND FREE ENERGY PREDICTED BY IDOCK:   -3.43 KCAL/MOL
REMARK 924 INTRA-LIGAND FREE ENERGY PREDICTED BY IDOCK:   -0.35 KCAL/MOL
REMARK 927      BINDING AFFINITY PREDICTED BY RF-SCORE:    0.00 PKD
ROOT
HETATM    1  C   UNL     1     -11.594  10.404  70.899  1.00  0.00    -0.428 C  
HETATM    2  C   UNL     1     -12.685  11.303  70.335  1.00  0.00    -0.130 C  
ENDROOT
BRANCH   2   3
HETATM    3  N   UNL     1     -12.153  12.397  69.519  1.00  0.00    -0.236 N  
HETATM    4  O   UNL     1     -12.228  13.804  71.356  1.00  0.00    -0.305 OA 
HETATM    5  C   UNL     1     -11.880  13.604  70.194  1.00  0.00    -0.281 C  
BRANCH   3   6
HETATM    6  C   UNL     1     -11.782  12.113  68.125  1.00  0.00    -0.341 C  
HETATM    7  C   UNL     1     -10.356  11.662  67.855  1.00  0.00    -0.206 C  
ENDBRANCH   3   6
BRANCH   5   8
HETATM    8  C   UNL     1     -11.163  14.719  69.504  1.00  0.00    -0.305 A  
HETATM    9  C   UNL     1      -9.792  14.936  69.662  1.00  0.00    -0.010 A  
HETATM   10  C   UNL     1      -9.121  15.867  68.864  1.00  0.00    -0.233 A  
HETATM   11  C   UNL     1      -7.622  15.937  68.882  1.00  0.00    -0.190 C  
HETATM   12  C   UNL     1      -9.863  16.703  68.026  1.00  0.00    -0.245 A  
HETATM   13  C   UNL     1     -11.254  16.582  67.956  1.00  0.00    -0.202 A  
HETATM   14  C   UNL     1     -11.904  15.577  68.682  1.00  0.00    -0.318 A  
ENDBRANCH   5   8
ENDBRANCH   2   3
TORSDOF 3
ENDMDL
MODEL      170
REMARK 921   NORMALIZED FREE ENERGY PREDICTED BY IDOCK:   -3.04 KCAL/MOL
REMARK 922        TOTAL FREE ENERGY PREDICTED BY IDOCK:   -3.75 KCAL/MOL
REMARK 923 INTER-LIGAND FREE ENERGY PREDICTED BY IDOCK:   -3.39 KCAL/MOL
REMARK 924 INTRA-LIGAND FREE ENERGY PREDICTED BY IDOCK:   -0.36 KCAL/MOL
REMARK 927      BINDING AFFINITY PREDICTED BY RF-SCORE:    0.00 PKD
ROOT
HETATM    1  C   UNL     1      -9.849   4.323  69.853  1.00  0.00    -0.267 C  
HETATM    2  C   UNL     1      -8.951   5.468  69.408  1.00  0.00    -0.106 C  
ENDROOT
BRANCH   2   3
HETATM    3  N   UNL     1      -9.683   6.520  68.700  1.00  0.00    -0.127 N  
HETATM    4  O   UNL     1      -8.091   8.069  69.357  1.00  0.00    -0.114 OA 
HETATM    5  C   UNL     1      -9.079   7.795  68.678  1.00  0.00    -0.136 C  
BRANCH   3   6
HETATM    6  C   UNL     1     -10.876   6.145  67.928  1.00  0.00    -0.319 C  
HETATM    7  C   UNL     1     -10.661   5.504  66.567  1.00  0.00    -0.343 C  
ENDBRANCH   3   6
BRANCH   5   8
HETATM    8  C   UNL     1      -9.639   8.890  67.830  1.00  0.00    -0.176 A  
HETATM    9  C   UNL     1     -10.595   9.790  68.307  1.00  0.00    -0.271 A  
HETATM   10  C   UNL     1     -10.959  10.910  67.554  1.00  0.00    -0.352 A  
HETATM   11  C   UNL     1     -11.813  11.984  68.160  1.00  0.00    -0.352 C  
HETATM   12  C   UNL     1     -10.488  11.029  66.244  1.00  0.00    -0.310 A  
HETATM   13  C   UNL     1      -9.630  10.064  65.710  1.00  0.00    -0.291 A  
HETATM   14  C   UNL     1      -9.191   9.003  66.508  1.00  0.00    -0.226 A  
ENDBRANCH   5   8
ENDBRANCH   2   3
TORSDOF 3
ENDMDL
MODEL      171
REMARK 921   NORMALIZED FREE ENERGY PREDICTED BY IDOCK:   -3.02 KCAL/MOL
REMARK 922        TOTAL FREE ENERGY PREDICTED BY IDOCK:   -3.74 KCAL/MOL
REMARK 923 INTER-LIGAND FREE ENERGY PREDICTED BY IDOCK:   -3.37 KCAL/MOL
REMARK 924 INTRA-LIGAND FREE ENERGY PREDICTED BY IDOCK:   -0.36 KCAL/MOL
REMARK 927      BINDING AFFINITY PREDICTED BY RF-SCORE:    0.00 PKD
ROOT
HETATM    1  C   UNL     1     -14.386   8.885  71.603  1.00  0.00    -0.318 C  
HETATM    2  C   UNL     1     -13.137   9.163  72.428  1.00  0.00    -0.423 C  
ENDROOT
BRANCH   2   3
HETATM    3  N   UNL     1     -11.928   9.270  71.608  1.00  0.00    -0.354 N  
HETATM    4  O   UNL     1     -10.917   7.624  72.886  1.00  0.00    -0.341 OA 
HETATM    5  C   UNL     1     -10.895   8.354  71.896  1.00  0.00    -0.302 C  
BRANCH   3   6
HETATM    6  C   UNL     1     -11.943  10.181  70.455  1.00  0.00    -0.267 C  
HETATM    7  C   UNL     1     -12.040  11.671  70.737  1.00  0.00    -0.383 C  
ENDBRANCH   3   6
BRANCH   5   8
HETATM    8  C   UNL     1      -9.700   8.247  71.006  1.00  0.00    -0.201 A  
HETATM    9  C   UNL     1      -8.574   9.058  71.167  1.00  0.00    -0.250 A  
HETATM   10  C   UNL     1      -7.406   8.809  70.440  1.00  0.00    -0.063 A  
HETATM   11  C   UNL     1      -6.137   9.536  70.775  1.00  0.00    -0.073 C  
HETATM   12  C   UNL     1      -7.430   7.849  69.425  1.00  0.00    -0.091 A  
HETATM   13  C   UNL     1      -8.594   7.118  69.169  1.00  0.00    -0.133 A  
HETATM   14  C   UNL     1      -9.725   7.305  69.971  1.00  0.00    -0.175 A  
ENDBRANCH   5   8
ENDBRANCH   2   3
TORSDOF 3
ENDMDL
MODEL      172
REMARK 921   NORMALIZED FREE ENERGY PREDICTED BY IDOCK:   -3.02 KCAL/MOL
REMARK 922        TOTAL FREE ENERGY PREDICTED BY IDOCK:   -3.74 KCAL/MOL
REMARK 923 INTER-LIGAND FREE ENERGY PREDICTED BY IDOCK:   -3.30 KCAL/MOL
REMARK 924 INTRA-LIGAND FREE ENERGY PREDICTED BY IDOCK:   -0.43 KCAL/MOL
REMARK 927      BINDING AFFINITY PREDICTED BY RF-SCORE:    0.00 PKD
ROOT
HETATM    1  C   UNL     1     -12.491   8.514  71.902  1.00  0.00    -0.402 C  
HETATM    2  C   UNL     1     -12.779   7.038  71.670  1.00  0.00    -0.377 C  
ENDROOT
BRANCH   2   3
HETATM    3  N   UNL     1     -11.564   6.220  71.648  1.00  0.00    -0.305 N  
HETATM    4  O   UNL     1     -11.564   6.284  69.333  1.00  0.00    -0.403 OA 
HETATM    5  C   UNL     1     -10.993   5.983  70.380  1.00  0.00    -0.328 C  
BRANCH   3   6
HETATM    6  C   UNL     1     -10.938   5.862  72.929  1.00  0.00    -0.268 C  
HETATM    7  C   UNL     1     -11.189   4.463  73.467  1.00  0.00    -0.375 C  
ENDBRANCH   3   6
BRANCH   5   8
HETATM    8  C   UNL     1      -9.657   5.326  70.255  1.00  0.00    -0.241 A  
HETATM    9  C   UNL     1      -8.465   6.053  70.244  1.00  0.00    -0.124 A  
HETATM   10  C   UNL     1      -7.230   5.401  70.312  1.00  0.00    -0.066 A  
HETATM   11  C   UNL     1      -5.970   6.186  70.524  1.00  0.00    -0.026 C  
HETATM   12  C   UNL     1      -7.193   4.007  70.215  1.00  0.00    -0.042 A  
HETATM   13  C   UNL     1      -8.378   3.274  70.095  1.00  0.00    -0.079 A  
HETATM   14  C   UNL     1      -9.612   3.932  70.133  1.00  0.00    -0.267 A  
ENDBRANCH   5   8
ENDBRANCH   2   3
TORSDOF 3
ENDMDL
MODEL      173
REMARK 921   NORMALIZED FREE ENERGY PREDICTED BY IDOCK:   -3.00 KCAL/MOL
REMARK 922        TOTAL FREE ENERGY PREDICTED BY IDOCK:   -3.70 KCAL/MOL
REMARK 923 INTER-LIGAND FREE ENERGY PREDICTED BY IDOCK:   -3.65 KCAL/MOL
REMARK 924 INTRA-LIGAND FREE ENERGY PREDICTED BY IDOCK:   -0.05 KCAL/MOL
REMARK 927      BINDING AFFINITY PREDICTED BY RF-SCORE:    0.00 PKD
ROOT
HETATM    1  C   UNL     1     -12.896  12.687  64.567  1.00  0.00    -0.356 C  
HETATM    2  C   UNL     1     -12.840  13.718  65.685  1.00  0.00    -0.408 C  
ENDROOT
BRANCH   2   3
HETATM    3  N   UNL     1     -11.700  13.519  66.583  1.00  0.00    -0.366 N  
HETATM    4  O   UNL     1     -10.280  14.387  64.972  1.00  0.00    -0.409 OA 
HETATM    5  C   UNL     1     -10.454  13.993  66.124  1.00  0.00    -0.297 C  
BRANCH   3   6
HETATM    6  C   UNL     1     -11.958  13.016  67.940  1.00  0.00    -0.291 C  
HETATM    7  C   UNL     1     -11.937  14.022  69.079  1.00  0.00    -0.392 C  
ENDBRANCH   3   6
BRANCH   5   8
HETATM    8  C   UNL     1      -9.265  14.014  67.029  1.00  0.00    -0.262 A  
HETATM    9  C   UNL     1      -8.794  15.191  67.616  1.00  0.00    -0.178 A  
HETATM   10  C   UNL     1      -7.800  15.151  68.598  1.00  0.00    -0.140 A  
HETATM   11  C   UNL     1      -7.458  16.385  69.380  1.00  0.00    -0.122 C  
HETATM   12  C   UNL     1      -7.158  13.939  68.864  1.00  0.00    -0.110 A  
HETATM   13  C   UNL     1      -7.534  12.774  68.187  1.00  0.00    -0.124 A  
HETATM   14  C   UNL     1      -8.600  12.808  67.282  1.00  0.00    -0.197 A  
ENDBRANCH   5   8
ENDBRANCH   2   3
TORSDOF 3
ENDMDL
MODEL      174
REMARK 921   NORMALIZED FREE ENERGY PREDICTED BY IDOCK:   -2.99 KCAL/MOL
REMARK 922        TOTAL FREE ENERGY PREDICTED BY IDOCK:   -3.70 KCAL/MOL
REMARK 923 INTER-LIGAND FREE ENERGY PREDICTED BY IDOCK:   -3.30 KCAL/MOL
REMARK 924 INTRA-LIGAND FREE ENERGY PREDICTED BY IDOCK:   -0.40 KCAL/MOL
REMARK 927      BINDING AFFINITY PREDICTED BY RF-SCORE:    0.00 PKD
ROOT
HETATM    1  C   UNL     1     -12.954   7.524  71.515  1.00  0.00    -0.400 C  
HETATM    2  C   UNL     1     -11.956   6.726  70.690  1.00  0.00    -0.362 C  
ENDROOT
BRANCH   2   3
HETATM    3  N   UNL     1     -11.010   7.577  69.965  1.00  0.00    -0.257 N  
HETATM    4  O   UNL     1     -11.119   6.148  68.146  1.00  0.00    -0.332 OA 
HETATM    5  C   UNL     1     -10.737   7.212  68.631  1.00  0.00    -0.163 C  
BRANCH   3   6
HETATM    6  C   UNL     1     -10.559   8.823  70.602  1.00  0.00    -0.215 C  
HETATM    7  C   UNL     1      -9.359   8.744  71.530  1.00  0.00    -0.337 C  
ENDBRANCH   3   6
BRANCH   5   8
HETATM    8  C   UNL     1      -9.939   8.109  67.741  1.00  0.00    -0.230 A  
HETATM    9  C   UNL     1      -8.543   8.068  67.697  1.00  0.00    -0.130 A  
HETATM   10  C   UNL     1      -7.839   8.786  66.726  1.00  0.00    -0.097 A  
HETATM   11  C   UNL     1      -6.366   8.566  66.542  1.00  0.00    -0.058 C  
HETATM   12  C   UNL     1      -8.532   9.682  65.909  1.00  0.00    -0.136 A  
HETATM   13  C   UNL     1      -9.917   9.827  66.032  1.00  0.00    -0.342 A  
HETATM   14  C   UNL     1     -10.624   9.028  66.937  1.00  0.00    -0.243 A  
ENDBRANCH   5   8
ENDBRANCH   2   3
TORSDOF 3
ENDMDL
MODEL      175
REMARK 921   NORMALIZED FREE ENERGY PREDICTED BY IDOCK:   -2.97 KCAL/MOL
REMARK 922        TOTAL FREE ENERGY PREDICTED BY IDOCK:   -3.67 KCAL/MOL
REMARK 923 INTER-LIGAND FREE ENERGY PREDICTED BY IDOCK:   -3.37 KCAL/MOL
REMARK 924 INTRA-LIGAND FREE ENERGY PREDICTED BY IDOCK:   -0.30 KCAL/MOL
REMARK 927      BINDING AFFINITY PREDICTED BY RF-SCORE:    0.00 PKD
ROOT
HETATM    1  C   UNL     1     -11.540  14.351  70.464  1.00  0.00    -0.270 C  
HETATM    2  C   UNL     1     -12.425  13.656  69.439  1.00  0.00     0.008 C  
ENDROOT
BRANCH   2   3
HETATM    3  N   UNL     1     -11.705  12.645  68.661  1.00  0.00    -0.309 N  
HETATM    4  O   UNL     1     -11.319  14.205  66.993  1.00  0.00    -0.306 OA 
HETATM    5  C   UNL     1     -11.108  13.088  67.462  1.00  0.00    -0.268 C  
BRANCH   3   6
HETATM    6  C   UNL     1     -11.506  11.315  69.254  1.00  0.00    -0.301 C  
HETATM    7  C   UNL     1     -12.494  10.865  70.318  1.00  0.00    -0.383 C  
ENDBRANCH   3   6
BRANCH   5   8
HETATM    8  C   UNL     1     -10.194  12.194  66.688  1.00  0.00    -0.223 A  
HETATM    9  C   UNL     1      -8.822  12.131  66.939  1.00  0.00    -0.202 A  
HETATM   10  C   UNL     1      -8.029  11.155  66.328  1.00  0.00    -0.125 A  
HETATM   11  C   UNL     1      -6.609  10.951  66.766  1.00  0.00    -0.116 C  
HETATM   12  C   UNL     1      -8.589  10.353  65.331  1.00  0.00    -0.183 A  
HETATM   13  C   UNL     1      -9.935  10.495  64.979  1.00  0.00    -0.388 A  
HETATM   14  C   UNL     1     -10.743  11.404  65.670  1.00  0.00    -0.301 A  
ENDBRANCH   5   8
ENDBRANCH   2   3
TORSDOF 3
ENDMDL
MODEL      176
REMARK 921   NORMALIZED FREE ENERGY PREDICTED BY IDOCK:   -2.97 KCAL/MOL
REMARK 922        TOTAL FREE ENERGY PREDICTED BY IDOCK:   -3.67 KCAL/MOL
REMARK 923 INTER-LIGAND FREE ENERGY PREDICTED BY IDOCK:   -3.34 KCAL/MOL
REMARK 924 INTRA-LIGAND FREE ENERGY PREDICTED BY IDOCK:   -0.33 KCAL/MOL
REMARK 927      BINDING AFFINITY PREDICTED BY RF-SCORE:    0.00 PKD
ROOT
HETATM    1  C   UNL     1      -8.308   5.553  66.572  1.00  0.00    -0.109 C  
HETATM    2  C   UNL     1      -8.474   7.053  66.768  1.00  0.00    -0.118 C  
ENDROOT
BRANCH   2   3
HETATM    3  N   UNL     1      -8.890   7.405  68.127  1.00  0.00    -0.128 N  
HETATM    4  O   UNL     1     -11.107   7.122  67.520  1.00  0.00    -0.208 OA 
HETATM    5  C   UNL     1     -10.270   7.311  68.402  1.00  0.00    -0.180 C  
BRANCH   3   6
HETATM    6  C   UNL     1      -7.850   7.651  69.136  1.00  0.00    -0.118 C  
HETATM    7  C   UNL     1      -7.509   9.097  69.456  1.00  0.00    -0.077 C  
ENDBRANCH   3   6
BRANCH   5   8
HETATM    8  C   UNL     1     -10.783   7.462  69.797  1.00  0.00    -0.252 A  
HETATM    9  C   UNL     1     -11.047   6.363  70.619  1.00  0.00    -0.376 A  
HETATM   10  C   UNL     1     -11.347   6.541  71.972  1.00  0.00    -0.326 A  
HETATM   11  C   UNL     1     -11.410   5.360  72.895  1.00  0.00    -0.365 C  
HETATM   12  C   UNL     1     -11.552   7.835  72.458  1.00  0.00    -0.422 A  
HETATM   13  C   UNL     1     -11.417   8.939  71.610  1.00  0.00    -0.409 A  
HETATM   14  C   UNL     1     -11.015   8.754  70.284  1.00  0.00    -0.255 A  
ENDBRANCH   5   8
ENDBRANCH   2   3
TORSDOF 3
ENDMDL
MODEL      177
REMARK 921   NORMALIZED FREE ENERGY PREDICTED BY IDOCK:   -2.96 KCAL/MOL
REMARK 922        TOTAL FREE ENERGY PREDICTED BY IDOCK:   -3.66 KCAL/MOL
REMARK 923 INTER-LIGAND FREE ENERGY PREDICTED BY IDOCK:   -3.33 KCAL/MOL
REMARK 924 INTRA-LIGAND FREE ENERGY PREDICTED BY IDOCK:   -0.33 KCAL/MOL
REMARK 927      BINDING AFFINITY PREDICTED BY RF-SCORE:    0.00 PKD
ROOT
HETATM    1  C   UNL     1      -7.509  15.699  69.754  1.00  0.00    -0.046 C  
HETATM    2  C   UNL     1      -8.881  15.432  69.151  1.00  0.00    -0.249 C  
ENDROOT
BRANCH   2   3
HETATM    3  N   UNL     1      -8.879  14.307  68.213  1.00  0.00    -0.179 N  
HETATM    4  O   UNL     1     -10.874  13.553  69.117  1.00  0.00    -0.222 OA 
HETATM    5  C   UNL     1     -10.012  13.468  68.244  1.00  0.00    -0.237 C  
BRANCH   3   6
HETATM    6  C   UNL     1      -7.809  14.235  67.208  1.00  0.00    -0.147 C  
HETATM    7  C   UNL     1      -6.793  13.113  67.343  1.00  0.00    -0.113 C  
ENDBRANCH   3   6
BRANCH   5   8
HETATM    8  C   UNL     1     -10.204  12.407  67.209  1.00  0.00    -0.224 A  
HETATM    9  C   UNL     1     -10.749  12.678  65.952  1.00  0.00    -0.293 A  
HETATM   10  C   UNL     1     -10.744  11.707  64.947  1.00  0.00    -0.352 A  
HETATM   11  C   UNL     1     -11.124  12.070  63.542  1.00  0.00    -0.519 C  
HETATM   12  C   UNL     1     -10.346  10.406  65.263  1.00  0.00    -0.267 A  
HETATM   13  C   UNL     1      -9.919  10.090  66.557  1.00  0.00    -0.286 A  
HETATM   14  C   UNL     1      -9.831  11.095  67.526  1.00  0.00    -0.197 A  
ENDBRANCH   5   8
ENDBRANCH   2   3
TORSDOF 3
ENDMDL
MODEL      178
REMARK 921   NORMALIZED FREE ENERGY PREDICTED BY IDOCK:   -2.95 KCAL/MOL
REMARK 922        TOTAL FREE ENERGY PREDICTED BY IDOCK:   -3.65 KCAL/MOL
REMARK 923 INTER-LIGAND FREE ENERGY PREDICTED BY IDOCK:   -3.40 KCAL/MOL
REMARK 924 INTRA-LIGAND FREE ENERGY PREDICTED BY IDOCK:   -0.26 KCAL/MOL
REMARK 927      BINDING AFFINITY PREDICTED BY RF-SCORE:    0.00 PKD
ROOT
HETATM    1  C   UNL     1      -9.401  15.327  69.190  1.00  0.00    -0.236 C  
HETATM    2  C   UNL     1     -10.103  14.743  67.972  1.00  0.00    -0.218 C  
ENDROOT
BRANCH   2   3
HETATM    3  N   UNL     1     -10.542  13.361  68.179  1.00  0.00    -0.238 N  
HETATM    4  O   UNL     1      -8.433  12.605  67.592  1.00  0.00    -0.151 OA 
HETATM    5  C   UNL     1      -9.554  12.365  68.038  1.00  0.00    -0.211 C  
BRANCH   3   6
HETATM    6  C   UNL     1     -11.902  13.126  68.683  1.00  0.00    -0.328 C  
HETATM    7  C   UNL     1     -12.125  13.229  70.183  1.00  0.00    -0.403 C  
ENDBRANCH   3   6
BRANCH   5   8
HETATM    8  C   UNL     1      -9.842  10.946  68.409  1.00  0.00    -0.183 A  
HETATM    9  C   UNL     1      -9.872  10.512  69.736  1.00  0.00    -0.050 A  
HETATM   10  C   UNL     1     -10.324   9.229  70.057  1.00  0.00    -0.245 A  
HETATM   11  C   UNL     1     -10.565   8.848  71.488  1.00  0.00    -0.399 C  
HETATM   12  C   UNL     1     -10.581   8.322  69.026  1.00  0.00    -0.167 A  
HETATM   13  C   UNL     1     -10.428   8.707  67.690  1.00  0.00    -0.311 A  
HETATM   14  C   UNL     1     -10.076  10.025  67.380  1.00  0.00    -0.256 A  
ENDBRANCH   5   8
ENDBRANCH   2   3
TORSDOF 3
ENDMDL
MODEL      179
REMARK 921   NORMALIZED FREE ENERGY PREDICTED BY IDOCK:   -2.95 KCAL/MOL
REMARK 922        TOTAL FREE ENERGY PREDICTED BY IDOCK:   -3.65 KCAL/MOL
REMARK 923 INTER-LIGAND FREE ENERGY PREDICTED BY IDOCK:   -3.60 KCAL/MOL
REMARK 924 INTRA-LIGAND FREE ENERGY PREDICTED BY IDOCK:   -0.04 KCAL/MOL
REMARK 927      BINDING AFFINITY PREDICTED BY RF-SCORE:    0.00 PKD
ROOT
HETATM    1  C   UNL     1     -11.579  15.924  64.217  1.00  0.00    -0.179 C  
HETATM    2  C   UNL     1     -12.107  14.599  64.749  1.00  0.00    -0.421 C  
ENDROOT
BRANCH   2   3
HETATM    3  N   UNL     1     -11.045  13.729  65.257  1.00  0.00    -0.304 N  
HETATM    4  O   UNL     1     -11.571  14.354  67.424  1.00  0.00    -0.339 OA 
HETATM    5  C   UNL     1     -10.939  13.627  66.659  1.00  0.00    -0.292 C  
BRANCH   3   6
HETATM    6  C   UNL     1     -10.298  12.903  64.298  1.00  0.00    -0.372 C  
HETATM    7  C   UNL     1     -10.835  11.513  63.999  1.00  0.00    -0.453 C  
ENDBRANCH   3   6
BRANCH   5   8
HETATM    8  C   UNL     1     -10.021  12.628  67.285  1.00  0.00    -0.212 A  
HETATM    9  C   UNL     1      -8.665  12.549  66.956  1.00  0.00    -0.205 A  
HETATM   10  C   UNL     1      -7.799  11.733  67.689  1.00  0.00    -0.138 A  
HETATM   11  C   UNL     1      -6.317  11.820  67.476  1.00  0.00    -0.095 C  
HETATM   12  C   UNL     1      -8.332  10.863  68.644  1.00  0.00    -0.148 A  
HETATM   13  C   UNL     1      -9.707  10.841  68.892  1.00  0.00    -0.207 A  
HETATM   14  C   UNL     1     -10.551  11.735  68.225  1.00  0.00    -0.236 A  
ENDBRANCH   5   8
ENDBRANCH   2   3
TORSDOF 3
ENDMDL
MODEL      180
REMARK 921   NORMALIZED FREE ENERGY PREDICTED BY IDOCK:   -2.94 KCAL/MOL
REMARK 922        TOTAL FREE ENERGY PREDICTED BY IDOCK:   -3.64 KCAL/MOL
REMARK 923 INTER-LIGAND FREE ENERGY PREDICTED BY IDOCK:   -3.26 KCAL/MOL
REMARK 924 INTRA-LIGAND FREE ENERGY PREDICTED BY IDOCK:   -0.38 KCAL/MOL
REMARK 927      BINDING AFFINITY PREDICTED BY RF-SCORE:    0.00 PKD
ROOT
HETATM    1  C   UNL     1      -9.497   7.000  67.312  1.00  0.00    -0.165 C  
HETATM    2  C   UNL     1     -10.610   7.975  66.956  1.00  0.00    -0.294 C  
ENDROOT
BRANCH   2   3
HETATM    3  N   UNL     1     -10.338   9.338  67.417  1.00  0.00    -0.246 N  
HETATM    4  O   UNL     1     -10.280  10.068  65.220  1.00  0.00    -0.296 OA 
HETATM    5  C   UNL     1     -10.282  10.335  66.421  1.00  0.00    -0.225 C  
BRANCH   3   6
HETATM    6  C   UNL     1     -10.321   9.598  68.864  1.00  0.00    -0.203 C  
HETATM    7  C   UNL     1      -8.971   9.834  69.520  1.00  0.00    -0.215 C  
ENDBRANCH   3   6
BRANCH   5   8
HETATM    8  C   UNL     1     -10.200  11.780  66.791  1.00  0.00    -0.240 A  
HETATM    9  C   UNL     1     -11.320  12.514  67.189  1.00  0.00    -0.381 A  
HETATM   10  C   UNL     1     -11.179  13.807  67.703  1.00  0.00    -0.316 A  
HETATM   11  C   UNL     1     -12.350  14.502  68.333  1.00  0.00    -0.011 C  
HETATM   12  C   UNL     1      -9.927  14.424  67.653  1.00  0.00    -0.224 A  
HETATM   13  C   UNL     1      -8.822  13.743  67.135  1.00  0.00    -0.240 A  
HETATM   14  C   UNL     1      -8.954  12.414  66.720  1.00  0.00    -0.205 A  
ENDBRANCH   5   8
ENDBRANCH   2   3
TORSDOF 3
ENDMDL
MODEL      181
REMARK 921   NORMALIZED FREE ENERGY PREDICTED BY IDOCK:   -2.94 KCAL/MOL
REMARK 922        TOTAL FREE ENERGY PREDICTED BY IDOCK:   -3.64 KCAL/MOL
REMARK 923 INTER-LIGAND FREE ENERGY PREDICTED BY IDOCK:   -3.83 KCAL/MOL
REMARK 924 INTRA-LIGAND FREE ENERGY PREDICTED BY IDOCK:    0.19 KCAL/MOL
REMARK 927      BINDING AFFINITY PREDICTED BY RF-SCORE:    0.00 PKD
ROOT
HETATM    1  C   UNL     1      -6.638  16.708  68.603  1.00  0.00    -0.159 C  
HETATM    2  C   UNL     1      -7.232  16.430  67.229  1.00  0.00    -0.175 C  
ENDROOT
BRANCH   2   3
HETATM    3  N   UNL     1      -8.149  15.288  67.228  1.00  0.00    -0.185 N  
HETATM    4  O   UNL     1      -9.525  16.396  65.731  1.00  0.00    -0.464 OA 
HETATM    5  C   UNL     1      -9.242  15.366  66.341  1.00  0.00    -0.305 C  
BRANCH   3   6
HETATM    6  C   UNL     1      -7.779  14.093  68.000  1.00  0.00    -0.147 C  
HETATM    7  C   UNL     1      -6.669  13.215  67.448  1.00  0.00    -0.107 C  
ENDBRANCH   3   6
BRANCH   5   8
HETATM    8  C   UNL     1     -10.131  14.186  66.120  1.00  0.00    -0.324 A  
HETATM    9  C   UNL     1     -10.501  13.324  67.155  1.00  0.00    -0.248 A  
HETATM   10  C   UNL     1     -11.477  12.343  66.953  1.00  0.00    -0.423 A  
HETATM   11  C   UNL     1     -12.027  11.573  68.116  1.00  0.00    -0.206 C  
HETATM   12  C   UNL     1     -11.954  12.118  65.659  1.00  0.00    -0.280 A  
HETATM   13  C   UNL     1     -11.494  12.891  64.589  1.00  0.00    -0.369 A  
HETATM   14  C   UNL     1     -10.595  13.938  64.822  1.00  0.00    -0.444 A  
ENDBRANCH   5   8
ENDBRANCH   2   3
TORSDOF 3
ENDMDL
MODEL      182
REMARK 921   NORMALIZED FREE ENERGY PREDICTED BY IDOCK:   -2.94 KCAL/MOL
REMARK 922        TOTAL FREE ENERGY PREDICTED BY IDOCK:   -3.64 KCAL/MOL
REMARK 923 INTER-LIGAND FREE ENERGY PREDICTED BY IDOCK:   -3.35 KCAL/MOL
REMARK 924 INTRA-LIGAND FREE ENERGY PREDICTED BY IDOCK:   -0.28 KCAL/MOL
REMARK 927      BINDING AFFINITY PREDICTED BY RF-SCORE:    0.00 PKD
ROOT
HETATM    1  C   UNL     1      -9.428   6.680  66.449  1.00  0.00    -0.166 C  
HETATM    2  C   UNL     1     -10.691   7.335  66.990  1.00  0.00    -0.336 C  
ENDROOT
BRANCH   2   3
HETATM    3  N   UNL     1     -10.551   7.775  68.380  1.00  0.00    -0.157 N  
HETATM    4  O   UNL     1     -11.022   5.626  69.106  1.00  0.00    -0.274 OA 
HETATM    5  C   UNL     1     -10.657   6.772  69.365  1.00  0.00    -0.233 C  
BRANCH   3   6
HETATM    6  C   UNL     1     -10.143   9.163  68.637  1.00  0.00    -0.194 C  
HETATM    7  C   UNL     1     -11.119  10.265  68.260  1.00  0.00    -0.311 C  
ENDBRANCH   3   6
BRANCH   5   8
HETATM    8  C   UNL     1     -10.344   7.071  70.796  1.00  0.00    -0.222 A  
HETATM    9  C   UNL     1      -9.068   6.893  71.335  1.00  0.00    -0.148 A  
HETATM   10  C   UNL     1      -8.765   7.354  72.619  1.00  0.00    -0.155 A  
HETATM   11  C   UNL     1      -7.346   7.361  73.105  1.00  0.00    -0.085 C  
HETATM   12  C   UNL     1      -9.797   7.840  73.426  1.00  0.00    -0.346 A  
HETATM   13  C   UNL     1     -11.106   7.903  72.940  1.00  0.00    -0.442 A  
HETATM   14  C   UNL     1     -11.378   7.535  71.618  1.00  0.00    -0.283 A  
ENDBRANCH   5   8
ENDBRANCH   2   3
TORSDOF 3
ENDMDL
MODEL      183
REMARK 921   NORMALIZED FREE ENERGY PREDICTED BY IDOCK:   -2.94 KCAL/MOL
REMARK 922        TOTAL FREE ENERGY PREDICTED BY IDOCK:   -3.63 KCAL/MOL
REMARK 923 INTER-LIGAND FREE ENERGY PREDICTED BY IDOCK:   -4.46 KCAL/MOL
REMARK 924 INTRA-LIGAND FREE ENERGY PREDICTED BY IDOCK:    0.82 KCAL/MOL
REMARK 927      BINDING AFFINITY PREDICTED BY RF-SCORE:    0.00 PKD
ROOT
HETATM    1  C   UNL     1     -11.048  15.538  65.455  1.00  0.00    -0.265 C  
HETATM    2  C   UNL     1     -12.114  14.453  65.416  1.00  0.00    -0.364 C  
ENDROOT
BRANCH   2   3
HETATM    3  N   UNL     1     -11.585  13.126  65.737  1.00  0.00    -0.333 N  
HETATM    4  O   UNL     1     -11.231  13.798  67.925  1.00  0.00    -0.255 OA 
HETATM    5  C   UNL     1     -11.253  12.897  67.088  1.00  0.00    -0.289 C  
BRANCH   3   6
HETATM    6  C   UNL     1     -11.604  12.093  64.692  1.00  0.00    -0.328 C  
HETATM    7  C   UNL     1     -12.656  12.215  63.601  1.00  0.00    -0.616 C  
ENDBRANCH   3   6
BRANCH   5   8
HETATM    8  C   UNL     1     -10.884  11.528  67.562  1.00  0.00    -0.285 A  
HETATM    9  C   UNL     1     -11.067  11.122  68.886  1.00  0.00    -0.293 A  
HETATM   10  C   UNL     1     -10.887   9.785  69.253  1.00  0.00    -0.240 A  
HETATM   11  C   UNL     1     -11.297   9.314  70.617  1.00  0.00    -0.330 C  
HETATM   12  C   UNL     1     -10.354   8.891  68.321  1.00  0.00    -0.250 A  
HETATM   13  C   UNL     1     -10.045   9.319  67.026  1.00  0.00    -0.313 A  
HETATM   14  C   UNL     1     -10.327  10.633  66.641  1.00  0.00    -0.297 A  
ENDBRANCH   5   8
ENDBRANCH   2   3
TORSDOF 3
ENDMDL
MODEL      184
REMARK 921   NORMALIZED FREE ENERGY PREDICTED BY IDOCK:   -2.91 KCAL/MOL
REMARK 922        TOTAL FREE ENERGY PREDICTED BY IDOCK:   -3.60 KCAL/MOL
REMARK 923 INTER-LIGAND FREE ENERGY PREDICTED BY IDOCK:   -3.25 KCAL/MOL
REMARK 924 INTRA-LIGAND FREE ENERGY PREDICTED BY IDOCK:   -0.35 KCAL/MOL
REMARK 927      BINDING AFFINITY PREDICTED BY RF-SCORE:    0.00 PKD
ROOT
HETATM    1  C   UNL     1     -10.913  13.533  67.144  1.00  0.00    -0.302 C  
HETATM    2  C   UNL     1     -11.757  12.380  67.668  1.00  0.00    -0.346 C  
ENDROOT
BRANCH   2   3
HETATM    3  N   UNL     1     -10.950  11.298  68.236  1.00  0.00    -0.205 N  
HETATM    4  O   UNL     1     -11.855  11.721  70.326  1.00  0.00    -0.329 OA 
HETATM    5  C   UNL     1     -11.167  11.006  69.598  1.00  0.00    -0.278 C  
BRANCH   3   6
HETATM    6  C   UNL     1     -10.120  10.493  67.328  1.00  0.00    -0.201 C  
HETATM    7  C   UNL     1     -10.768   9.287  66.668  1.00  0.00    -0.066 C  
ENDBRANCH   3   6
BRANCH   5   8
HETATM    8  C   UNL     1     -10.541   9.806  70.231  1.00  0.00    -0.348 A  
HETATM    9  C   UNL     1     -11.264   8.643  70.507  1.00  0.00    -0.266 A  
HETATM   10  C   UNL     1     -10.613   7.480  70.926  1.00  0.00    -0.227 A  
HETATM   11  C   UNL     1     -11.360   6.181  71.006  1.00  0.00    -0.348 C  
HETATM   12  C   UNL     1      -9.251   7.538  71.234  1.00  0.00    -0.155 A  
HETATM   13  C   UNL     1      -8.542   8.734  71.085  1.00  0.00    -0.244 A  
HETATM   14  C   UNL     1      -9.182   9.864  70.566  1.00  0.00     0.063 A  
ENDBRANCH   5   8
ENDBRANCH   2   3
TORSDOF 3
ENDMDL
MODEL      185
REMARK 921   NORMALIZED FREE ENERGY PREDICTED BY IDOCK:   -2.89 KCAL/MOL
REMARK 922        TOTAL FREE ENERGY PREDICTED BY IDOCK:   -3.58 KCAL/MOL
REMARK 923 INTER-LIGAND FREE ENERGY PREDICTED BY IDOCK:   -3.61 KCAL/MOL
REMARK 924 INTRA-LIGAND FREE ENERGY PREDICTED BY IDOCK:    0.03 KCAL/MOL
REMARK 927      BINDING AFFINITY PREDICTED BY RF-SCORE:    0.00 PKD
ROOT
HETATM    1  C   UNL     1     -12.382  12.825  65.765  1.00  0.00    -0.388 C  
HETATM    2  C   UNL     1     -11.657  12.434  67.045  1.00  0.00    -0.365 C  
ENDROOT
BRANCH   2   3
HETATM    3  N   UNL     1     -10.687  13.442  67.477  1.00  0.00    -0.253 N  
HETATM    4  O   UNL     1      -9.462  13.091  65.543  1.00  0.00    -0.029 OA 
HETATM    5  C   UNL     1      -9.655  13.747  66.565  1.00  0.00    -0.285 C  
BRANCH   3   6
HETATM    6  C   UNL     1     -10.948  14.177  68.723  1.00  0.00    -0.257 C  
HETATM    7  C   UNL     1     -11.606  15.542  68.609  1.00  0.00    -0.379 C  
ENDBRANCH   3   6
BRANCH   5   8
HETATM    8  C   UNL     1      -8.724  14.888  66.819  1.00  0.00    -0.278 A  
HETATM    9  C   UNL     1      -7.680  14.809  67.743  1.00  0.00    -0.170 A  
HETATM   10  C   UNL     1      -6.719  15.821  67.822  1.00  0.00    -0.178 A  
HETATM   11  C   UNL     1      -5.485  15.629  68.653  1.00  0.00    -0.096 C  
HETATM   12  C   UNL     1      -6.909  16.996  67.090  1.00  0.00    -0.214 A  
HETATM   13  C   UNL     1      -8.023  17.139  66.257  1.00  0.00    -0.339 A  
HETATM   14  C   UNL     1      -8.922  16.078  66.107  1.00  0.00    -0.381 A  
ENDBRANCH   5   8
ENDBRANCH   2   3
TORSDOF 3
ENDMDL
MODEL      186
REMARK 921   NORMALIZED FREE ENERGY PREDICTED BY IDOCK:   -2.89 KCAL/MOL
REMARK 922        TOTAL FREE ENERGY PREDICTED BY IDOCK:   -3.57 KCAL/MOL
REMARK 923 INTER-LIGAND FREE ENERGY PREDICTED BY IDOCK:   -3.26 KCAL/MOL
REMARK 924 INTRA-LIGAND FREE ENERGY PREDICTED BY IDOCK:   -0.32 KCAL/MOL
REMARK 927      BINDING AFFINITY PREDICTED BY RF-SCORE:    0.00 PKD
ROOT
HETATM    1  C   UNL     1      -8.646  11.000  67.165  1.00  0.00    -0.136 C  
HETATM    2  C   UNL     1      -8.985  12.115  66.186  1.00  0.00    -0.043 C  
ENDROOT
BRANCH   2   3
HETATM    3  N   UNL     1      -9.582  13.282  66.840  1.00  0.00    -0.242 N  
HETATM    4  O   UNL     1      -7.466  14.108  67.294  1.00  0.00    -0.167 OA 
HETATM    5  C   UNL     1      -8.685  14.275  67.285  1.00  0.00    -0.218 C  
BRANCH   3   6
HETATM    6  C   UNL     1     -11.045  13.419  66.829  1.00  0.00    -0.292 C  
HETATM    7  C   UNL     1     -11.835  12.608  67.843  1.00  0.00    -0.388 C  
ENDBRANCH   3   6
BRANCH   5   8
HETATM    8  C   UNL     1      -9.188  15.587  67.793  1.00  0.00    -0.179 A  
HETATM    9  C   UNL     1      -9.288  16.716  66.976  1.00  0.00    -0.236 A  
HETATM   10  C   UNL     1      -9.933  17.870  67.430  1.00  0.00    -0.325 A  
HETATM   11  C   UNL     1     -10.233  18.992  66.480  1.00  0.00    -0.487 C  
HETATM   12  C   UNL     1     -10.325  17.946  68.769  1.00  0.00    -0.311 A  
HETATM   13  C   UNL     1     -10.112  16.867  69.631  1.00  0.00     0.018 A  
HETATM   14  C   UNL     1      -9.560  15.679  69.140  1.00  0.00    -0.251 A  
ENDBRANCH   5   8
ENDBRANCH   2   3
TORSDOF 3
ENDMDL
MODEL      187
REMARK 921   NORMALIZED FREE ENERGY PREDICTED BY IDOCK:   -2.88 KCAL/MOL
REMARK 922        TOTAL FREE ENERGY PREDICTED BY IDOCK:   -3.56 KCAL/MOL
REMARK 923 INTER-LIGAND FREE ENERGY PREDICTED BY IDOCK:   -3.20 KCAL/MOL
REMARK 924 INTRA-LIGAND FREE ENERGY PREDICTED BY IDOCK:   -0.37 KCAL/MOL
REMARK 927      BINDING AFFINITY PREDICTED BY RF-SCORE:    0.00 PKD
ROOT
HETATM    1  C   UNL     1     -14.337   8.376  72.075  1.00  0.00    -0.555 C  
HETATM    2  C   UNL     1     -13.726   7.130  71.449  1.00  0.00    -0.259 C  
ENDROOT
BRANCH   2   3
HETATM    3  N   UNL     1     -12.264   7.117  71.523  1.00  0.00    -0.339 N  
HETATM    4  O   UNL     1     -12.352   5.273  72.922  1.00  0.00    -0.053 OA 
HETATM    5  C   UNL     1     -11.684   6.051  72.242  1.00  0.00    -0.284 C  
BRANCH   3   6
HETATM    6  C   UNL     1     -11.513   8.089  70.715  1.00  0.00    -0.263 C  
HETATM    7  C   UNL     1     -10.905   9.281  71.434  1.00  0.00    -0.434 C  
ENDBRANCH   3   6
BRANCH   5   8
HETATM    8  C   UNL     1     -10.206   5.832  72.224  1.00  0.00    -0.233 A  
HETATM    9  C   UNL     1      -9.351   6.431  73.152  1.00  0.00    -0.142 A  
HETATM   10  C   UNL     1      -8.005   6.062  73.223  1.00  0.00    -0.108 A  
HETATM   11  C   UNL     1      -7.148   6.541  74.358  1.00  0.00    -0.092 C  
HETATM   12  C   UNL     1      -7.481   5.215  72.243  1.00  0.00    -0.094 A  
HETATM   13  C   UNL     1      -8.302   4.710  71.230  1.00  0.00    -0.107 A  
HETATM   14  C   UNL     1      -9.669   5.004  71.230  1.00  0.00    -0.235 A  
ENDBRANCH   5   8
ENDBRANCH   2   3
TORSDOF 3
ENDMDL
MODEL      188
REMARK 921   NORMALIZED FREE ENERGY PREDICTED BY IDOCK:   -2.87 KCAL/MOL
REMARK 922        TOTAL FREE ENERGY PREDICTED BY IDOCK:   -3.56 KCAL/MOL
REMARK 923 INTER-LIGAND FREE ENERGY PREDICTED BY IDOCK:   -3.48 KCAL/MOL
REMARK 924 INTRA-LIGAND FREE ENERGY PREDICTED BY IDOCK:   -0.08 KCAL/MOL
REMARK 927      BINDING AFFINITY PREDICTED BY RF-SCORE:    0.00 PKD
ROOT
HETATM    1  C   UNL     1      -7.000  16.029  69.485  1.00  0.00    -0.191 C  
HETATM    2  C   UNL     1      -7.410  16.599  68.135  1.00  0.00    -0.170 C  
ENDROOT
BRANCH   2   3
HETATM    3  N   UNL     1      -8.550  15.895  67.544  1.00  0.00    -0.164 N  
HETATM    4  O   UNL     1      -7.164  14.127  66.981  1.00  0.00    -0.013 OA 
HETATM    5  C   UNL     1      -8.300  14.591  67.068  1.00  0.00    -0.167 C  
BRANCH   3   6
HETATM    6  C   UNL     1      -9.882  16.508  67.648  1.00  0.00    -0.247 C  
HETATM    7  C   UNL     1     -10.181  17.696  66.750  1.00  0.00    -0.335 C  
ENDBRANCH   3   6
BRANCH   5   8
HETATM    8  C   UNL     1      -9.423  13.713  66.621  1.00  0.00    -0.285 A  
HETATM    9  C   UNL     1      -9.831  12.593  67.349  1.00  0.00    -0.205 A  
HETATM   10  C   UNL     1     -10.996  11.903  67.004  1.00  0.00    -0.326 A  
HETATM   11  C   UNL     1     -11.547  10.845  67.914  1.00  0.00    -0.270 C  
HETATM   12  C   UNL     1     -11.657  12.238  65.819  1.00  0.00    -0.443 A  
HETATM   13  C   UNL     1     -11.182  13.277  65.013  1.00  0.00    -0.325 A  
HETATM   14  C   UNL     1     -10.075  14.027  65.422  1.00  0.00    -0.343 A  
ENDBRANCH   5   8
ENDBRANCH   2   3
TORSDOF 3
ENDMDL
MODEL      189
REMARK 921   NORMALIZED FREE ENERGY PREDICTED BY IDOCK:   -2.87 KCAL/MOL
REMARK 922        TOTAL FREE ENERGY PREDICTED BY IDOCK:   -3.56 KCAL/MOL
REMARK 923 INTER-LIGAND FREE ENERGY PREDICTED BY IDOCK:   -3.28 KCAL/MOL
REMARK 924 INTRA-LIGAND FREE ENERGY PREDICTED BY IDOCK:   -0.28 KCAL/MOL
REMARK 927      BINDING AFFINITY PREDICTED BY RF-SCORE:    0.00 PKD
ROOT
HETATM    1  C   UNL     1      -9.205   8.767  66.389  1.00  0.00    -0.241 C  
HETATM    2  C   UNL     1     -10.358   7.879  66.835  1.00  0.00    -0.330 C  
ENDROOT
BRANCH   2   3
HETATM    3  N   UNL     1     -10.188   7.373  68.199  1.00  0.00    -0.180 N  
HETATM    4  O   UNL     1     -10.906   9.407  69.042  1.00  0.00    -0.211 OA 
HETATM    5  C   UNL     1     -10.594   8.233  69.240  1.00  0.00    -0.181 C  
BRANCH   3   6
HETATM    6  C   UNL     1      -9.784   5.971  68.380  1.00  0.00    -0.125 C  
HETATM    7  C   UNL     1      -8.305   5.686  68.579  1.00  0.00    -0.106 C  
ENDBRANCH   3   6
BRANCH   5   8
HETATM    8  C   UNL     1     -10.644   7.752  70.653  1.00  0.00    -0.222 A  
HETATM    9  C   UNL     1      -9.603   7.981  71.557  1.00  0.00    -0.209 A  
HETATM   10  C   UNL     1      -9.758   7.681  72.914  1.00  0.00    -0.282 A  
HETATM   11  C   UNL     1      -8.730   8.131  73.910  1.00  0.00    -0.259 C  
HETATM   12  C   UNL     1     -10.899   6.991  73.330  1.00  0.00    -0.332 A  
HETATM   13  C   UNL     1     -11.891   6.641  72.409  1.00  0.00    -0.226 A  
HETATM   14  C   UNL     1     -11.772   7.037  71.073  1.00  0.00    -0.375 A  
ENDBRANCH   5   8
ENDBRANCH   2   3
TORSDOF 3
ENDMDL
MODEL      190
REMARK 921   NORMALIZED FREE ENERGY PREDICTED BY IDOCK:   -2.84 KCAL/MOL
REMARK 922        TOTAL FREE ENERGY PREDICTED BY IDOCK:   -3.52 KCAL/MOL
REMARK 923 INTER-LIGAND FREE ENERGY PREDICTED BY IDOCK:   -3.35 KCAL/MOL
REMARK 924 INTRA-LIGAND FREE ENERGY PREDICTED BY IDOCK:   -0.17 KCAL/MOL
REMARK 927      BINDING AFFINITY PREDICTED BY RF-SCORE:    0.00 PKD
ROOT
HETATM    1  C   UNL     1     -11.862  15.130  70.045  1.00  0.00    -0.361 C  
HETATM    2  C   UNL     1     -11.890  14.806  68.558  1.00  0.00    -0.306 C  
ENDROOT
BRANCH   2   3
HETATM    3  N   UNL     1     -10.938  13.755  68.190  1.00  0.00    -0.239 N  
HETATM    4  O   UNL     1     -12.369  12.155  69.060  1.00  0.00    -0.095 OA 
HETATM    5  C   UNL     1     -11.353  12.427  68.423  1.00  0.00    -0.285 C  
BRANCH   3   6
HETATM    6  C   UNL     1      -9.723  14.137  67.456  1.00  0.00    -0.234 C  
HETATM    7  C   UNL     1      -9.889  14.631  66.029  1.00  0.00    -0.347 C  
ENDBRANCH   3   6
BRANCH   5   8
HETATM    8  C   UNL     1     -10.548  11.276  67.915  1.00  0.00    -0.231 A  
HETATM    9  C   UNL     1      -9.694  10.539  68.739  1.00  0.00    -0.187 A  
HETATM   10  C   UNL     1      -9.100   9.360  68.280  1.00  0.00    -0.128 A  
HETATM   11  C   UNL     1      -8.368   8.461  69.232  1.00  0.00    -0.121 C  
HETATM   12  C   UNL     1      -9.230   9.016  66.932  1.00  0.00    -0.179 A  
HETATM   13  C   UNL     1      -9.978   9.817  66.065  1.00  0.00    -0.342 A  
HETATM   14  C   UNL     1     -10.652  10.939  66.559  1.00  0.00    -0.295 A  
ENDBRANCH   5   8
ENDBRANCH   2   3
TORSDOF 3
ENDMDL
MODEL      191
REMARK 921   NORMALIZED FREE ENERGY PREDICTED BY IDOCK:   -2.84 KCAL/MOL
REMARK 922        TOTAL FREE ENERGY PREDICTED BY IDOCK:   -3.52 KCAL/MOL
REMARK 923 INTER-LIGAND FREE ENERGY PREDICTED BY IDOCK:   -3.11 KCAL/MOL
REMARK 924 INTRA-LIGAND FREE ENERGY PREDICTED BY IDOCK:   -0.41 KCAL/MOL
REMARK 927      BINDING AFFINITY PREDICTED BY RF-SCORE:    0.00 PKD
ROOT
HETATM    1  C   UNL     1     -13.046   9.349  72.052  1.00  0.00    -0.516 C  
HETATM    2  C   UNL     1     -12.687   7.965  71.528  1.00  0.00    -0.322 C  
ENDROOT
BRANCH   2   3
HETATM    3  N   UNL     1     -11.249   7.797  71.308  1.00  0.00    -0.251 N  
HETATM    4  O   UNL     1     -11.687   6.320  69.579  1.00  0.00    -0.360 OA 
HETATM    5  C   UNL     1     -10.875   6.992  70.213  1.00  0.00    -0.254 C  
BRANCH   3   6
HETATM    6  C   UNL     1     -10.319   8.601  72.114  1.00  0.00    -0.333 C  
HETATM    7  C   UNL     1      -9.562   7.895  73.227  1.00  0.00    -0.351 C  
ENDBRANCH   3   6
BRANCH   5   8
HETATM    8  C   UNL     1      -9.447   6.904  69.782  1.00  0.00    -0.145 A  
HETATM    9  C   UNL     1      -8.877   7.817  68.891  1.00  0.00    -0.135 A  
HETATM   10  C   UNL     1      -7.500   7.818  68.654  1.00  0.00    -0.100 A  
HETATM   11  C   UNL     1      -6.867   8.933  67.875  1.00  0.00    -0.070 C  
HETATM   12  C   UNL     1      -6.720   6.786  69.182  1.00  0.00    -0.056 A  
HETATM   13  C   UNL     1      -7.303   5.791  69.972  1.00  0.00    -0.074 A  
HETATM   14  C   UNL     1      -8.664   5.859  70.288  1.00  0.00    -0.142 A  
ENDBRANCH   5   8
ENDBRANCH   2   3
TORSDOF 3
ENDMDL
MODEL      192
REMARK 921   NORMALIZED FREE ENERGY PREDICTED BY IDOCK:   -2.83 KCAL/MOL
REMARK 922        TOTAL FREE ENERGY PREDICTED BY IDOCK:   -3.51 KCAL/MOL
REMARK 923 INTER-LIGAND FREE ENERGY PREDICTED BY IDOCK:   -3.70 KCAL/MOL
REMARK 924 INTRA-LIGAND FREE ENERGY PREDICTED BY IDOCK:    0.19 KCAL/MOL
REMARK 927      BINDING AFFINITY PREDICTED BY RF-SCORE:    0.00 PKD
ROOT
HETATM    1  C   UNL     1      -5.268  14.667  69.538  1.00  0.00    -0.087 C  
HETATM    2  C   UNL     1      -6.077  15.707  70.301  1.00  0.00    -0.066 C  
ENDROOT
BRANCH   2   3
HETATM    3  N   UNL     1      -6.438  16.861  69.475  1.00  0.00    -0.233 N  
HETATM    4  O   UNL     1      -8.493  15.895  69.023  1.00  0.00    -0.211 OA 
HETATM    5  C   UNL     1      -7.747  16.870  68.952  1.00  0.00    -0.237 C  
BRANCH   3   6
HETATM    6  C   UNL     1      -5.497  17.988  69.398  1.00  0.00    -0.205 C  
HETATM    7  C   UNL     1      -5.666  19.115  70.404  1.00  0.00    -0.242 C  
ENDBRANCH   3   6
BRANCH   5   8
HETATM    8  C   UNL     1      -8.284  18.079  68.257  1.00  0.00    -0.298 A  
HETATM    9  C   UNL     1      -7.526  18.813  67.341  1.00  0.00    -0.233 A  
HETATM   10  C   UNL     1      -8.115  19.823  66.575  1.00  0.00    -0.351 A  
HETATM   11  C   UNL     1      -7.358  20.452  65.443  1.00  0.00    -0.078 C  
HETATM   12  C   UNL     1      -9.427  20.210  66.856  1.00  0.00    -0.543 A  
HETATM   13  C   UNL     1     -10.155  19.567  67.862  1.00  0.00    -0.531 A  
HETATM   14  C   UNL     1      -9.590  18.490  68.552  1.00  0.00    -0.388 A  
ENDBRANCH   5   8
ENDBRANCH   2   3
TORSDOF 3
ENDMDL
MODEL      193
REMARK 921   NORMALIZED FREE ENERGY PREDICTED BY IDOCK:   -2.82 KCAL/MOL
REMARK 922        TOTAL FREE ENERGY PREDICTED BY IDOCK:   -3.50 KCAL/MOL
REMARK 923 INTER-LIGAND FREE ENERGY PREDICTED BY IDOCK:   -3.48 KCAL/MOL
REMARK 924 INTRA-LIGAND FREE ENERGY PREDICTED BY IDOCK:   -0.02 KCAL/MOL
REMARK 927      BINDING AFFINITY PREDICTED BY RF-SCORE:    0.00 PKD
ROOT
HETATM    1  C   UNL     1      -9.995  17.888  67.872  1.00  0.00    -0.329 C  
HETATM    2  C   UNL     1     -10.901  16.670  67.981  1.00  0.00    -0.337 C  
ENDROOT
BRANCH   2   3
HETATM    3  N   UNL     1     -10.164  15.407  67.905  1.00  0.00    -0.237 N  
HETATM    4  O   UNL     1     -12.122  14.298  67.358  1.00  0.00    -0.400 OA 
HETATM    5  C   UNL     1     -10.899  14.279  67.484  1.00  0.00    -0.280 C  
BRANCH   3   6
HETATM    6  C   UNL     1      -8.706  15.434  68.094  1.00  0.00    -0.161 C  
HETATM    7  C   UNL     1      -7.845  15.731  66.878  1.00  0.00    -0.271 C  
ENDBRANCH   3   6
BRANCH   5   8
HETATM    8  C   UNL     1     -10.211  12.986  67.190  1.00  0.00    -0.243 A  
HETATM    9  C   UNL     1      -9.754  12.136  68.200  1.00  0.00    -0.208 A  
HETATM   10  C   UNL     1      -9.284  10.855  67.895  1.00  0.00    -0.152 A  
HETATM   11  C   UNL     1      -9.006   9.871  68.993  1.00  0.00    -0.160 C  
HETATM   12  C   UNL     1      -9.113  10.495  66.556  1.00  0.00    -0.175 A  
HETATM   13  C   UNL     1      -9.447  11.389  65.535  1.00  0.00    -0.251 A  
HETATM   14  C   UNL     1     -10.013  12.629  65.850  1.00  0.00    -0.274 A  
ENDBRANCH   5   8
ENDBRANCH   2   3
TORSDOF 3
ENDMDL
MODEL      194
REMARK 921   NORMALIZED FREE ENERGY PREDICTED BY IDOCK:   -2.81 KCAL/MOL
REMARK 922        TOTAL FREE ENERGY PREDICTED BY IDOCK:   -3.48 KCAL/MOL
REMARK 923 INTER-LIGAND FREE ENERGY PREDICTED BY IDOCK:   -3.39 KCAL/MOL
REMARK 924 INTRA-LIGAND FREE ENERGY PREDICTED BY IDOCK:   -0.09 KCAL/MOL
REMARK 927      BINDING AFFINITY PREDICTED BY RF-SCORE:    0.00 PKD
ROOT
HETATM    1  C   UNL     1      -8.812   6.585  70.136  1.00  0.00    -0.144 C  
HETATM    2  C   UNL     1      -8.944   8.005  70.667  1.00  0.00    -0.148 C  
ENDROOT
BRANCH   2   3
HETATM    3  N   UNL     1      -9.169   8.988  69.605  1.00  0.00    -0.153 N  
HETATM    4  O   UNL     1     -11.437   8.973  70.071  1.00  0.00    -0.145 OA 
HETATM    5  C   UNL     1     -10.487   9.469  69.467  1.00  0.00    -0.220 C  
BRANCH   3   6
HETATM    6  C   UNL     1      -8.002   9.527  68.891  1.00  0.00    -0.091 C  
HETATM    7  C   UNL     1      -7.501  10.902  69.299  1.00  0.00    -0.124 C  
ENDBRANCH   3   6
BRANCH   5   8
HETATM    8  C   UNL     1     -10.794  10.607  68.548  1.00  0.00    -0.275 A  
HETATM    9  C   UNL     1     -10.573  10.535  67.171  1.00  0.00    -0.319 A  
HETATM   10  C   UNL     1     -11.039  11.541  66.320  1.00  0.00    -0.321 A  
HETATM   11  C   UNL     1     -10.998  11.353  64.832  1.00  0.00    -0.284 C  
HETATM   12  C   UNL     1     -11.576  12.705  66.876  1.00  0.00    -0.438 A  
HETATM   13  C   UNL     1     -11.684  12.843  68.263  1.00  0.00    -0.390 A  
HETATM   14  C   UNL     1     -11.309  11.786  69.100  1.00  0.00    -0.340 A  
ENDBRANCH   5   8
ENDBRANCH   2   3
TORSDOF 3
ENDMDL
MODEL      195
REMARK 921   NORMALIZED FREE ENERGY PREDICTED BY IDOCK:   -2.76 KCAL/MOL
REMARK 922        TOTAL FREE ENERGY PREDICTED BY IDOCK:   -3.42 KCAL/MOL
REMARK 923 INTER-LIGAND FREE ENERGY PREDICTED BY IDOCK:   -3.05 KCAL/MOL
REMARK 924 INTRA-LIGAND FREE ENERGY PREDICTED BY IDOCK:   -0.38 KCAL/MOL
REMARK 927      BINDING AFFINITY PREDICTED BY RF-SCORE:    0.00 PKD
ROOT
HETATM    1  C   UNL     1      -6.214  10.529  70.443  1.00  0.00    -0.128 C  
HETATM    2  C   UNL     1      -6.099   9.066  70.847  1.00  0.00    -0.049 C  
ENDROOT
BRANCH   2   3
HETATM    3  N   UNL     1      -7.382   8.361  70.798  1.00  0.00    -0.055 N  
HETATM    4  O   UNL     1      -7.730   8.840  73.037  1.00  0.00    -0.376 OA 
HETATM    5  C   UNL     1      -8.161   8.401  71.972  1.00  0.00    -0.155 C  
BRANCH   3   6
HETATM    6  C   UNL     1      -7.838   7.827  69.507  1.00  0.00    -0.111 C  
HETATM    7  C   UNL     1      -7.381   6.430  69.122  1.00  0.00    -0.093 C  
ENDBRANCH   3   6
BRANCH   5   8
HETATM    8  C   UNL     1      -9.562   7.881  71.977  1.00  0.00    -0.242 A  
HETATM    9  C   UNL     1      -9.873   6.575  72.362  1.00  0.00    -0.169 A  
HETATM   10  C   UNL     1     -11.203   6.179  72.532  1.00  0.00    -0.327 A  
HETATM   11  C   UNL     1     -11.523   4.853  73.156  1.00  0.00    -0.362 C  
HETATM   12  C   UNL     1     -12.225   7.049  72.145  1.00  0.00    -0.255 A  
HETATM   13  C   UNL     1     -11.922   8.315  71.635  1.00  0.00    -0.346 A  
HETATM   14  C   UNL     1     -10.591   8.739  71.567  1.00  0.00    -0.379 A  
ENDBRANCH   5   8
ENDBRANCH   2   3
TORSDOF 3
ENDMDL
MODEL      196
REMARK 921   NORMALIZED FREE ENERGY PREDICTED BY IDOCK:   -2.75 KCAL/MOL
REMARK 922        TOTAL FREE ENERGY PREDICTED BY IDOCK:   -3.42 KCAL/MOL
REMARK 923 INTER-LIGAND FREE ENERGY PREDICTED BY IDOCK:   -3.02 KCAL/MOL
REMARK 924 INTRA-LIGAND FREE ENERGY PREDICTED BY IDOCK:   -0.40 KCAL/MOL
REMARK 927      BINDING AFFINITY PREDICTED BY RF-SCORE:    0.00 PKD
ROOT
HETATM    1  C   UNL     1      -8.841   9.880  69.273  1.00  0.00    -0.178 C  
HETATM    2  C   UNL     1      -9.656  10.222  68.034  1.00  0.00    -0.145 C  
ENDROOT
BRANCH   2   3
HETATM    3  N   UNL     1      -9.848  11.664  67.863  1.00  0.00    -0.179 N  
HETATM    4  O   UNL     1      -8.396  11.643  66.059  1.00  0.00    -0.049 OA 
HETATM    5  C   UNL     1      -9.211  12.251  66.751  1.00  0.00    -0.210 C  
BRANCH   3   6
HETATM    6  C   UNL     1     -10.812  12.350  68.736  1.00  0.00    -0.226 C  
HETATM    7  C   UNL     1     -12.269  12.361  68.304  1.00  0.00     0.122 C  
ENDBRANCH   3   6
BRANCH   5   8
HETATM    8  C   UNL     1      -9.490  13.670  66.372  1.00  0.00    -0.248 A  
HETATM    9  C   UNL     1      -8.779  14.742  66.917  1.00  0.00    -0.264 A  
HETATM   10  C   UNL     1      -8.936  16.034  66.407  1.00  0.00    -0.354 A  
HETATM   11  C   UNL     1      -8.015  17.136  66.842  1.00  0.00    -0.250 C  
HETATM   12  C   UNL     1      -9.938  16.275  65.464  1.00  0.00    -0.217 A  
HETATM   13  C   UNL     1     -10.745  15.229  65.006  1.00  0.00    -0.461 A  
HETATM   14  C   UNL     1     -10.510  13.922  65.446  1.00  0.00    -0.357 A  
ENDBRANCH   5   8
ENDBRANCH   2   3
TORSDOF 3
ENDMDL
MODEL      197
REMARK 921   NORMALIZED FREE ENERGY PREDICTED BY IDOCK:   -2.71 KCAL/MOL
REMARK 922        TOTAL FREE ENERGY PREDICTED BY IDOCK:   -3.36 KCAL/MOL
REMARK 923 INTER-LIGAND FREE ENERGY PREDICTED BY IDOCK:   -3.08 KCAL/MOL
REMARK 924 INTRA-LIGAND FREE ENERGY PREDICTED BY IDOCK:   -0.28 KCAL/MOL
REMARK 927      BINDING AFFINITY PREDICTED BY RF-SCORE:    0.00 PKD
ROOT
HETATM    1  C   UNL     1     -11.942   8.077  72.626  1.00  0.00    -0.334 C  
HETATM    2  C   UNL     1     -10.511   8.525  72.367  1.00  0.00    -0.297 C  
ENDROOT
BRANCH   2   3
HETATM    3  N   UNL     1     -10.360   9.230  71.092  1.00  0.00    -0.308 N  
HETATM    4  O   UNL     1      -8.060   9.001  71.239  1.00  0.00    -0.217 OA 
HETATM    5  C   UNL     1      -9.048   9.325  70.583  1.00  0.00    -0.253 C  
BRANCH   3   6
HETATM    6  C   UNL     1     -11.573   9.624  70.361  1.00  0.00    -0.236 C  
HETATM    7  C   UNL     1     -12.201  10.963  70.711  1.00  0.00    -0.483 C  
ENDBRANCH   3   6
BRANCH   5   8
HETATM    8  C   UNL     1      -8.799   9.853  69.207  1.00  0.00    -0.178 A  
HETATM    9  C   UNL     1      -8.688  11.219  68.940  1.00  0.00    -0.053 A  
HETATM   10  C   UNL     1      -8.274  11.669  67.683  1.00  0.00    -0.141 A  
HETATM   11  C   UNL     1      -7.943  13.117  67.469  1.00  0.00    -0.179 C  
HETATM   12  C   UNL     1      -8.138  10.746  66.643  1.00  0.00    -0.142 A  
HETATM   13  C   UNL     1      -8.373   9.387  66.867  1.00  0.00    -0.127 A  
HETATM   14  C   UNL     1      -8.687   8.936  68.154  1.00  0.00    -0.134 A  
ENDBRANCH   5   8
ENDBRANCH   2   3
TORSDOF 3
ENDMDL
MODEL      198
REMARK 921   NORMALIZED FREE ENERGY PREDICTED BY IDOCK:   -2.69 KCAL/MOL
REMARK 922        TOTAL FREE ENERGY PREDICTED BY IDOCK:   -3.34 KCAL/MOL
REMARK 923 INTER-LIGAND FREE ENERGY PREDICTED BY IDOCK:   -3.31 KCAL/MOL
REMARK 924 INTRA-LIGAND FREE ENERGY PREDICTED BY IDOCK:   -0.03 KCAL/MOL
REMARK 927      BINDING AFFINITY PREDICTED BY RF-SCORE:    0.00 PKD
ROOT
HETATM    1  C   UNL     1      -8.334   9.196  68.547  1.00  0.00    -0.123 C  
HETATM    2  C   UNL     1      -8.450   9.810  67.159  1.00  0.00    -0.125 C  
ENDROOT
BRANCH   2   3
HETATM    3  N   UNL     1      -9.368  10.950  67.119  1.00  0.00    -0.159 N  
HETATM    4  O   UNL     1      -7.934  12.151  68.485  1.00  0.00    -0.144 OA 
HETATM    5  C   UNL     1      -8.934  12.124  67.770  1.00  0.00    -0.179 C  
BRANCH   3   6
HETATM    6  C   UNL     1     -10.566  10.855  66.273  1.00  0.00    -0.214 C  
HETATM    7  C   UNL     1     -10.360  10.634  64.784  1.00  0.00    -0.353 C  
ENDBRANCH   3   6
BRANCH   5   8
HETATM    8  C   UNL     1      -9.699  13.400  67.633  1.00  0.00    -0.222 A  
HETATM    9  C   UNL     1     -10.691  13.778  68.541  1.00  0.00    -0.274 A  
HETATM   10  C   UNL     1     -11.255  15.056  68.490  1.00  0.00    -0.298 A  
HETATM   11  C   UNL     1     -12.151  15.532  69.596  1.00  0.00    -0.352 C  
HETATM   12  C   UNL     1     -10.944  15.893  67.416  1.00  0.00    -0.257 A  
HETATM   13  C   UNL     1     -10.048  15.473  66.428  1.00  0.00    -0.301 A  
HETATM   14  C   UNL     1      -9.411  14.233  66.545  1.00  0.00    -0.306 A  
ENDBRANCH   5   8
ENDBRANCH   2   3
TORSDOF 3
ENDMDL
MODEL      199
REMARK 921   NORMALIZED FREE ENERGY PREDICTED BY IDOCK:   -2.68 KCAL/MOL
REMARK 922        TOTAL FREE ENERGY PREDICTED BY IDOCK:   -3.33 KCAL/MOL
REMARK 923 INTER-LIGAND FREE ENERGY PREDICTED BY IDOCK:   -3.01 KCAL/MOL
REMARK 924 INTRA-LIGAND FREE ENERGY PREDICTED BY IDOCK:   -0.32 KCAL/MOL
REMARK 927      BINDING AFFINITY PREDICTED BY RF-SCORE:    0.00 PKD
ROOT
HETATM    1  C   UNL     1      -8.222   6.353  66.053  1.00  0.00    -0.126 C  
HETATM    2  C   UNL     1      -7.682   6.047  67.443  1.00  0.00    -0.097 C  
ENDROOT
BRANCH   2   3
HETATM    3  N   UNL     1      -8.738   5.713  68.400  1.00  0.00    -0.110 N  
HETATM    4  O   UNL     1      -7.945   7.344  69.842  1.00  0.00    -0.115 OA 
HETATM    5  C   UNL     1      -8.814   6.521  69.554  1.00  0.00    -0.138 C  
BRANCH   3   6
HETATM    6  C   UNL     1      -9.733   4.701  68.020  1.00  0.00    -0.140 C  
HETATM    7  C   UNL     1      -9.294   3.246  68.028  1.00  0.00    -0.245 C  
ENDBRANCH   3   6
BRANCH   5   8
HETATM    8  C   UNL     1      -9.961   6.394  70.502  1.00  0.00    -0.214 A  
HETATM    9  C   UNL     1      -9.866   5.679  71.698  1.00  0.00    -0.213 A  
HETATM   10  C   UNL     1     -10.893   5.733  72.645  1.00  0.00    -0.296 A  
HETATM   11  C   UNL     1     -10.693   5.149  74.013  1.00  0.00    -0.320 C  
HETATM   12  C   UNL     1     -12.091   6.369  72.311  1.00  0.00    -0.252 A  
HETATM   13  C   UNL     1     -12.245   6.978  71.062  1.00  0.00    -0.419 A  
HETATM   14  C   UNL     1     -11.174   7.007  70.163  1.00  0.00    -0.325 A  
ENDBRANCH   5   8
ENDBRANCH   2   3
TORSDOF 3
ENDMDL
MODEL      200
REMARK 921   NORMALIZED FREE ENERGY PREDICTED BY IDOCK:   -2.67 KCAL/MOL
REMARK 922        TOTAL FREE ENERGY PREDICTED BY IDOCK:   -3.33 KCAL/MOL
REMARK 923 INTER-LIGAND FREE ENERGY PREDICTED BY IDOCK:   -4.30 KCAL/MOL
REMARK 924 INTRA-LIGAND FREE ENERGY PREDICTED BY IDOCK:    0.97 KCAL/MOL
REMARK 927      BINDING AFFINITY PREDICTED BY RF-SCORE:    0.00 PKD
ROOT
HETATM    1  C   UNL     1     -10.533   8.744  70.152  1.00  0.00    -0.230 C  
HETATM    2  C   UNL     1     -11.371   9.306  69.013  1.00  0.00     0.289 C  
ENDROOT
BRANCH   2   3
HETATM    3  N   UNL     1     -11.678  10.728  69.183  1.00  0.00    -0.302 N  
HETATM    4  O   UNL     1     -12.751  10.256  71.181  1.00  0.00    -0.339 OA 
HETATM    5  C   UNL     1     -12.313  11.089  70.389  1.00  0.00    -0.356 C  
BRANCH   3   6
HETATM    6  C   UNL     1     -11.158  11.681  68.192  1.00  0.00    -0.242 C  
HETATM    7  C   UNL     1      -9.686  11.582  67.827  1.00  0.00    -0.180 C  
ENDBRANCH   3   6
BRANCH   5   8
HETATM    8  C   UNL     1     -12.503  12.527  70.751  1.00  0.00    -0.357 A  
HETATM    9  C   UNL     1     -12.010  13.568  69.961  1.00  0.00    -0.410 A  
HETATM   10  C   UNL     1     -12.362  14.894  70.228  1.00  0.00    -0.393 A  
HETATM   11  C   UNL     1     -12.015  15.980  69.252  1.00  0.00    -0.188 C  
HETATM   12  C   UNL     1     -13.071  15.186  71.396  1.00  0.00    -0.499 A  
HETATM   13  C   UNL     1     -13.458  14.161  72.264  1.00  0.00    -0.578 A  
HETATM   14  C   UNL     1     -13.190  12.829  71.934  1.00  0.00    -0.511 A  
ENDBRANCH   5   8
ENDBRANCH   2   3
TORSDOF 3
ENDMDL
MODEL      201
REMARK 921   NORMALIZED FREE ENERGY PREDICTED BY IDOCK:   -2.65 KCAL/MOL
REMARK 922        TOTAL FREE ENERGY PREDICTED BY IDOCK:   -3.30 KCAL/MOL
REMARK 923 INTER-LIGAND FREE ENERGY PREDICTED BY IDOCK:   -2.88 KCAL/MOL
REMARK 924 INTRA-LIGAND FREE ENERGY PREDICTED BY IDOCK:   -0.42 KCAL/MOL
REMARK 927      BINDING AFFINITY PREDICTED BY RF-SCORE:    0.00 PKD
ROOT
HETATM    1  C   UNL     1     -10.087   9.239  70.936  1.00  0.00    -0.373 C  
HETATM    2  C   UNL     1      -9.659   7.865  71.431  1.00  0.00    -0.153 C  
ENDROOT
BRANCH   2   3
HETATM    3  N   UNL     1      -9.270   6.966  70.342  1.00  0.00    -0.156 N  
HETATM    4  O   UNL     1     -11.329   5.914  70.476  1.00  0.00    -0.291 OA 
HETATM    5  C   UNL     1     -10.260   6.070  69.888  1.00  0.00    -0.205 C  
BRANCH   3   6
HETATM    6  C   UNL     1      -7.968   7.174  69.693  1.00  0.00    -0.124 C  
HETATM    7  C   UNL     1      -6.790   6.359  70.201  1.00  0.00    -0.057 C  
ENDBRANCH   3   6
BRANCH   5   8
HETATM    8  C   UNL     1     -10.038   5.242  68.664  1.00  0.00    -0.238 A  
HETATM    9  C   UNL     1      -9.389   4.006  68.706  1.00  0.00    -0.227 A  
HETATM   10  C   UNL     1      -9.361   3.176  67.581  1.00  0.00    -0.247 A  
HETATM   11  C   UNL     1      -8.862   1.766  67.694  1.00  0.00    -0.148 C  
HETATM   12  C   UNL     1      -9.837   3.668  66.363  1.00  0.00    -0.006 A  
HETATM   13  C   UNL     1     -10.372   4.957  66.281  1.00  0.00    -0.336 A  
HETATM   14  C   UNL     1     -10.489   5.739  67.435  1.00  0.00    -0.318 A  
ENDBRANCH   5   8
ENDBRANCH   2   3
TORSDOF 3
ENDMDL
MODEL      202
REMARK 921   NORMALIZED FREE ENERGY PREDICTED BY IDOCK:   -2.61 KCAL/MOL
REMARK 922        TOTAL FREE ENERGY PREDICTED BY IDOCK:   -3.25 KCAL/MOL
REMARK 923 INTER-LIGAND FREE ENERGY PREDICTED BY IDOCK:   -2.92 KCAL/MOL
REMARK 924 INTRA-LIGAND FREE ENERGY PREDICTED BY IDOCK:   -0.33 KCAL/MOL
REMARK 927      BINDING AFFINITY PREDICTED BY RF-SCORE:    0.00 PKD
ROOT
HETATM    1  C   UNL     1      -7.471   9.524  66.151  1.00  0.00    -0.100 C  
HETATM    2  C   UNL     1      -7.449  10.060  67.575  1.00  0.00    -0.090 C  
ENDROOT
BRANCH   2   3
HETATM    3  N   UNL     1      -8.557  10.977  67.853  1.00  0.00    -0.129 N  
HETATM    4  O   UNL     1      -7.299  12.743  67.040  1.00  0.00    -0.063 OA 
HETATM    5  C   UNL     1      -8.379  12.314  67.443  1.00  0.00    -0.177 C  
BRANCH   3   6
HETATM    6  C   UNL     1      -9.817  10.417  68.363  1.00  0.00    -0.162 C  
HETATM    7  C   UNL     1     -10.779   9.814  67.353  1.00  0.00    -0.314 C  
ENDBRANCH   3   6
BRANCH   5   8
HETATM    8  C   UNL     1      -9.510  13.288  67.503  1.00  0.00    -0.220 A  
HETATM    9  C   UNL     1      -9.757  14.079  68.629  1.00  0.00    -0.179 A  
HETATM   10  C   UNL     1     -10.703  15.106  68.585  1.00  0.00    -0.239 A  
HETATM   11  C   UNL     1     -10.806  16.088  69.715  1.00  0.00    -0.337 C  
HETATM   12  C   UNL     1     -11.525  15.225  67.462  1.00  0.00    -0.271 A  
HETATM   13  C   UNL     1     -11.373  14.355  66.378  1.00  0.00    -0.351 A  
HETATM   14  C   UNL     1     -10.354  13.397  66.391  1.00  0.00    -0.288 A  
ENDBRANCH   5   8
ENDBRANCH   2   3
TORSDOF 3
ENDMDL
MODEL      203
REMARK 921   NORMALIZED FREE ENERGY PREDICTED BY IDOCK:   -2.60 KCAL/MOL
REMARK 922        TOTAL FREE ENERGY PREDICTED BY IDOCK:   -3.24 KCAL/MOL
REMARK 923 INTER-LIGAND FREE ENERGY PREDICTED BY IDOCK:   -2.95 KCAL/MOL
REMARK 924 INTRA-LIGAND FREE ENERGY PREDICTED BY IDOCK:   -0.29 KCAL/MOL
REMARK 927      BINDING AFFINITY PREDICTED BY RF-SCORE:    0.00 PKD
ROOT
HETATM    1  C   UNL     1      -5.565   9.293  71.554  1.00  0.00    -0.066 C  
HETATM    2  C   UNL     1      -5.959   8.923  70.132  1.00  0.00    -0.033 C  
ENDROOT
BRANCH   2   3
HETATM    3  N   UNL     1      -7.144   9.647  69.665  1.00  0.00    -0.066 N  
HETATM    4  O   UNL     1      -8.414   7.726  69.910  1.00  0.00    -0.129 OA 
HETATM    5  C   UNL     1      -8.360   8.935  69.687  1.00  0.00    -0.123 C  
BRANCH   3   6
HETATM    6  C   UNL     1      -7.019  11.084  69.382  1.00  0.00    -0.126 C  
HETATM    7  C   UNL     1      -5.918  11.521  68.431  1.00  0.00    -0.045 C  
ENDBRANCH   3   6
BRANCH   5   8
HETATM    8  C   UNL     1      -9.656   9.627  69.415  1.00  0.00    -0.200 A  
HETATM    9  C   UNL     1     -10.552   9.964  70.432  1.00  0.00    -0.364 A  
HETATM   10  C   UNL     1     -11.662  10.771  70.167  1.00  0.00    -0.425 A  
HETATM   11  C   UNL     1     -12.491  11.311  71.295  1.00  0.00    -0.441 C  
HETATM   12  C   UNL     1     -11.964  11.096  68.843  1.00  0.00    -0.367 A  
HETATM   13  C   UNL     1     -11.143  10.655  67.800  1.00  0.00    -0.385 A  
HETATM   14  C   UNL     1      -9.978   9.935  68.087  1.00  0.00    -0.175 A  
ENDBRANCH   5   8
ENDBRANCH   2   3
TORSDOF 3
ENDMDL
MODEL      204
REMARK 921   NORMALIZED FREE ENERGY PREDICTED BY IDOCK:   -2.59 KCAL/MOL
REMARK 922        TOTAL FREE ENERGY PREDICTED BY IDOCK:   -3.23 KCAL/MOL
REMARK 923 INTER-LIGAND FREE ENERGY PREDICTED BY IDOCK:   -2.86 KCAL/MOL
REMARK 924 INTRA-LIGAND FREE ENERGY PREDICTED BY IDOCK:   -0.37 KCAL/MOL
REMARK 927      BINDING AFFINITY PREDICTED BY RF-SCORE:    0.00 PKD
ROOT
HETATM    1  C   UNL     1      -7.222   5.305  64.971  1.00  0.00    -0.066 C  
HETATM    2  C   UNL     1      -8.258   6.382  65.255  1.00  0.00    -0.137 C  
ENDROOT
BRANCH   2   3
HETATM    3  N   UNL     1      -8.559   6.519  66.682  1.00  0.00    -0.115 N  
HETATM    4  O   UNL     1     -10.573   5.421  66.362  1.00  0.00    -0.280 OA 
HETATM    5  C   UNL     1      -9.741   5.897  67.133  1.00  0.00    -0.132 C  
BRANCH   3   6
HETATM    6  C   UNL     1      -7.544   7.124  67.556  1.00  0.00    -0.110 C  
HETATM    7  C   UNL     1      -7.308   8.620  67.428  1.00  0.00    -0.089 C  
ENDBRANCH   3   6
BRANCH   5   8
HETATM    8  C   UNL     1     -10.049   5.810  68.593  1.00  0.00    -0.227 A  
HETATM    9  C   UNL     1     -10.618   6.871  69.301  1.00  0.00    -0.250 A  
HETATM   10  C   UNL     1     -11.062   6.696  70.614  1.00  0.00    -0.349 A  
HETATM   11  C   UNL     1     -11.869   7.765  71.290  1.00  0.00    -0.318 C  
HETATM   12  C   UNL     1     -10.774   5.498  71.273  1.00  0.00    -0.288 A  
HETATM   13  C   UNL     1     -10.088   4.474  70.614  1.00  0.00    -0.232 A  
HETATM   14  C   UNL     1      -9.740   4.623  69.267  1.00  0.00    -0.266 A  
ENDBRANCH   5   8
ENDBRANCH   2   3
TORSDOF 3
ENDMDL
MODEL      205
REMARK 921   NORMALIZED FREE ENERGY PREDICTED BY IDOCK:   -2.58 KCAL/MOL
REMARK 922        TOTAL FREE ENERGY PREDICTED BY IDOCK:   -3.22 KCAL/MOL
REMARK 923 INTER-LIGAND FREE ENERGY PREDICTED BY IDOCK:   -3.26 KCAL/MOL
REMARK 924 INTRA-LIGAND FREE ENERGY PREDICTED BY IDOCK:    0.05 KCAL/MOL
REMARK 927      BINDING AFFINITY PREDICTED BY RF-SCORE:    0.00 PKD
ROOT
HETATM    1  C   UNL     1     -13.480   9.259  71.854  1.00  0.00    -0.497 C  
HETATM    2  C   UNL     1     -12.204  10.076  71.714  1.00  0.00    -0.296 C  
ENDROOT
BRANCH   2   3
HETATM    3  N   UNL     1     -11.283   9.523  70.718  1.00  0.00    -0.289 N  
HETATM    4  O   UNL     1     -11.325  11.531  69.565  1.00  0.00    -0.256 OA 
HETATM    5  C   UNL     1     -10.840  10.411  69.716  1.00  0.00    -0.292 C  
BRANCH   3   6
HETATM    6  C   UNL     1     -10.757   8.167  70.928  1.00  0.00    -0.221 C  
HETATM    7  C   UNL     1     -10.126   7.858  72.276  1.00  0.00    -0.297 C  
ENDBRANCH   3   6
BRANCH   5   8
HETATM    8  C   UNL     1      -9.759  10.011  68.765  1.00  0.00    -0.174 A  
HETATM    9  C   UNL     1      -9.920  10.083  67.379  1.00  0.00    -0.242 A  
HETATM   10  C   UNL     1      -8.833   9.879  66.524  1.00  0.00    -0.154 A  
HETATM   11  C   UNL     1      -8.958  10.174  65.058  1.00  0.00    -0.227 C  
HETATM   12  C   UNL     1      -7.623   9.432  67.059  1.00  0.00    -0.091 A  
HETATM   13  C   UNL     1      -7.488   9.232  68.437  1.00  0.00    -0.078 A  
HETATM   14  C   UNL     1      -8.552   9.538  69.292  1.00  0.00    -0.149 A  
ENDBRANCH   5   8
ENDBRANCH   2   3
TORSDOF 3
ENDMDL
MODEL      206
REMARK 921   NORMALIZED FREE ENERGY PREDICTED BY IDOCK:   -2.58 KCAL/MOL
REMARK 922        TOTAL FREE ENERGY PREDICTED BY IDOCK:   -3.21 KCAL/MOL
REMARK 923 INTER-LIGAND FREE ENERGY PREDICTED BY IDOCK:   -3.82 KCAL/MOL
REMARK 924 INTRA-LIGAND FREE ENERGY PREDICTED BY IDOCK:    0.61 KCAL/MOL
REMARK 927      BINDING AFFINITY PREDICTED BY RF-SCORE:    0.00 PKD
ROOT
HETATM    1  C   UNL     1      -7.377  18.979  68.179  1.00  0.00    -0.298 C  
HETATM    2  C   UNL     1      -8.102  18.596  66.897  1.00  0.00    -0.248 C  
ENDROOT
BRANCH   2   3
HETATM    3  N   UNL     1      -9.206  17.662  67.127  1.00  0.00    -0.240 N  
HETATM    4  O   UNL     1      -7.915  16.520  68.675  1.00  0.00    -0.207 OA 
HETATM    5  C   UNL     1      -9.007  16.697  68.136  1.00  0.00    -0.210 C  
BRANCH   3   6
HETATM    6  C   UNL     1     -10.480  17.899  66.435  1.00  0.00    -0.317 C  
HETATM    7  C   UNL     1     -10.728  17.145  65.138  1.00  0.00    -0.009 C  
ENDBRANCH   3   6
BRANCH   5   8
HETATM    8  C   UNL     1     -10.129  15.818  68.584  1.00  0.00    -0.211 A  
HETATM    9  C   UNL     1     -10.813  16.032  69.783  1.00  0.00    -0.337 A  
HETATM   10  C   UNL     1     -11.971  15.309  70.083  1.00  0.00    -0.373 A  
HETATM   11  C   UNL     1     -12.821  15.695  71.258  1.00  0.00    -0.550 C  
HETATM   12  C   UNL     1     -12.342  14.248  69.254  1.00  0.00    -0.197 A  
HETATM   13  C   UNL     1     -11.589  13.941  68.116  1.00  0.00    -0.370 A  
HETATM   14  C   UNL     1     -10.492  14.737  67.771  1.00  0.00    -0.254 A  
ENDBRANCH   5   8
ENDBRANCH   2   3
TORSDOF 3
ENDMDL
MODEL      207
REMARK 921   NORMALIZED FREE ENERGY PREDICTED BY IDOCK:   -2.57 KCAL/MOL
REMARK 922        TOTAL FREE ENERGY PREDICTED BY IDOCK:   -3.21 KCAL/MOL
REMARK 923 INTER-LIGAND FREE ENERGY PREDICTED BY IDOCK:   -2.90 KCAL/MOL
REMARK 924 INTRA-LIGAND FREE ENERGY PREDICTED BY IDOCK:   -0.31 KCAL/MOL
REMARK 927      BINDING AFFINITY PREDICTED BY RF-SCORE:    0.00 PKD
ROOT
HETATM    1  C   UNL     1     -10.527  10.445  69.395  1.00  0.00    -0.261 C  
HETATM    2  C   UNL     1     -10.444   9.056  68.779  1.00  0.00    -0.206 C  
ENDROOT
BRANCH   2   3
HETATM    3  N   UNL     1      -9.966   8.044  69.724  1.00  0.00    -0.188 N  
HETATM    4  O   UNL     1     -12.109   7.179  69.880  1.00  0.00     0.068 OA 
HETATM    5  C   UNL     1     -10.910   7.083  70.141  1.00  0.00    -0.256 C  
BRANCH   3   6
HETATM    6  C   UNL     1      -8.529   7.992  70.026  1.00  0.00    -0.129 C  
HETATM    7  C   UNL     1      -7.562   8.354  68.911  1.00  0.00    -0.096 C  
ENDBRANCH   3   6
BRANCH   5   8
HETATM    8  C   UNL     1     -10.489   5.900  70.950  1.00  0.00    -0.305 A  
HETATM    9  C   UNL     1     -10.570   5.881  72.344  1.00  0.00    -0.257 A  
HETATM   10  C   UNL     1     -10.344   4.700  73.056  1.00  0.00    -0.236 A  
HETATM   11  C   UNL     1     -10.648   4.632  74.524  1.00  0.00    -0.235 C  
HETATM   12  C   UNL     1      -9.868   3.577  72.375  1.00  0.00    -0.229 A  
HETATM   13  C   UNL     1      -9.660   3.623  70.993  1.00  0.00    -0.246 A  
HETATM   14  C   UNL     1      -9.987   4.779  70.277  1.00  0.00    -0.320 A  
ENDBRANCH   5   8
ENDBRANCH   2   3
TORSDOF 3
ENDMDL
MODEL      208
REMARK 921   NORMALIZED FREE ENERGY PREDICTED BY IDOCK:   -2.56 KCAL/MOL
REMARK 922        TOTAL FREE ENERGY PREDICTED BY IDOCK:   -3.19 KCAL/MOL
REMARK 923 INTER-LIGAND FREE ENERGY PREDICTED BY IDOCK:   -3.11 KCAL/MOL
REMARK 924 INTRA-LIGAND FREE ENERGY PREDICTED BY IDOCK:   -0.08 KCAL/MOL
REMARK 927      BINDING AFFINITY PREDICTED BY RF-SCORE:    0.00 PKD
ROOT
HETATM    1  C   UNL     1      -6.711   7.198  66.984  1.00  0.00    -0.064 C  
HETATM    2  C   UNL     1      -6.166   7.922  65.761  1.00  0.00    -0.042 C  
ENDROOT
BRANCH   2   3
HETATM    3  N   UNL     1      -6.998   9.057  65.356  1.00  0.00    -0.079 N  
HETATM    4  O   UNL     1      -8.761   7.614  64.940  1.00  0.00     0.039 OA 
HETATM    5  C   UNL     1      -8.342   8.766  65.045  1.00  0.00    -0.170 C  
BRANCH   3   6
HETATM    6  C   UNL     1      -6.438  10.411  65.472  1.00  0.00    -0.126 C  
HETATM    7  C   UNL     1      -6.417  11.048  66.851  1.00  0.00    -0.108 C  
ENDBRANCH   3   6
BRANCH   5   8
HETATM    8  C   UNL     1      -9.325   9.865  64.805  1.00  0.00    -0.339 A  
HETATM    9  C   UNL     1     -10.140  10.375  65.819  1.00  0.00    -0.329 A  
HETATM   10  C   UNL     1     -10.911  11.521  65.606  1.00  0.00    -0.296 A  
HETATM   11  C   UNL     1     -11.607  12.188  66.756  1.00  0.00    -0.412 C  
HETATM   12  C   UNL     1     -10.995  12.053  64.317  1.00  0.00    -0.401 A  
HETATM   13  C   UNL     1     -10.282  11.472  63.263  1.00  0.00    -0.432 A  
HETATM   14  C   UNL     1      -9.433  10.388  63.510  1.00  0.00    -0.356 A  
ENDBRANCH   5   8
ENDBRANCH   2   3
TORSDOF 3
ENDMDL
MODEL      209
REMARK 921   NORMALIZED FREE ENERGY PREDICTED BY IDOCK:   -2.55 KCAL/MOL
REMARK 922        TOTAL FREE ENERGY PREDICTED BY IDOCK:   -3.18 KCAL/MOL
REMARK 923 INTER-LIGAND FREE ENERGY PREDICTED BY IDOCK:   -3.01 KCAL/MOL
REMARK 924 INTRA-LIGAND FREE ENERGY PREDICTED BY IDOCK:   -0.17 KCAL/MOL
REMARK 927      BINDING AFFINITY PREDICTED BY RF-SCORE:    0.00 PKD
ROOT
HETATM    1  C   UNL     1     -12.141  14.456  69.234  1.00  0.00    -0.336 C  
HETATM    2  C   UNL     1     -11.980  13.954  67.806  1.00  0.00    -0.355 C  
ENDROOT
BRANCH   2   3
HETATM    3  N   UNL     1     -11.321  12.648  67.735  1.00  0.00    -0.277 N  
HETATM    4  O   UNL     1      -9.537  13.611  66.615  1.00  0.00    -0.268 OA 
HETATM    5  C   UNL     1     -10.026  12.632  67.176  1.00  0.00    -0.217 C  
BRANCH   3   6
HETATM    6  C   UNL     1     -11.963  11.503  68.395  1.00  0.00    -0.198 C  
HETATM    7  C   UNL     1     -11.631  11.257  69.857  1.00  0.00    -0.413 C  
ENDBRANCH   3   6
BRANCH   5   8
HETATM    8  C   UNL     1      -9.189  11.395  67.225  1.00  0.00    -0.167 A  
HETATM    9  C   UNL     1      -9.242  10.417  66.229  1.00  0.00    -0.195 A  
HETATM   10  C   UNL     1      -8.318   9.369  66.209  1.00  0.00    -0.117 A  
HETATM   11  C   UNL     1      -8.238   8.453  65.023  1.00  0.00    -0.155 C  
HETATM   12  C   UNL     1      -7.449   9.209  67.291  1.00  0.00    -0.088 A  
HETATM   13  C   UNL     1      -7.475  10.111  68.359  1.00  0.00    -0.086 A  
HETATM   14  C   UNL     1      -8.333  11.215  68.319  1.00  0.00    -0.143 A  
ENDBRANCH   5   8
ENDBRANCH   2   3
TORSDOF 3
ENDMDL
MODEL      210
REMARK 921   NORMALIZED FREE ENERGY PREDICTED BY IDOCK:   -2.54 KCAL/MOL
REMARK 922        TOTAL FREE ENERGY PREDICTED BY IDOCK:   -3.17 KCAL/MOL
REMARK 923 INTER-LIGAND FREE ENERGY PREDICTED BY IDOCK:   -2.88 KCAL/MOL
REMARK 924 INTRA-LIGAND FREE ENERGY PREDICTED BY IDOCK:   -0.29 KCAL/MOL
REMARK 927      BINDING AFFINITY PREDICTED BY RF-SCORE:    0.00 PKD
ROOT
HETATM    1  C   UNL     1     -11.364  14.328  69.542  1.00  0.00    -0.315 C  
HETATM    2  C   UNL     1     -12.268  13.181  69.113  1.00  0.00    -0.092 C  
ENDROOT
BRANCH   2   3
HETATM    3  N   UNL     1     -11.641  11.868  69.289  1.00  0.00    -0.290 N  
HETATM    4  O   UNL     1     -10.823  11.969  67.125  1.00  0.00    -0.233 OA 
HETATM    5  C   UNL     1     -10.851  11.405  68.217  1.00  0.00    -0.209 C  
BRANCH   3   6
HETATM    6  C   UNL     1     -11.730  11.221  70.606  1.00  0.00    -0.161 C  
HETATM    7  C   UNL     1     -12.909  11.588  71.492  1.00  0.00    -0.485 C  
ENDBRANCH   3   6
BRANCH   5   8
HETATM    8  C   UNL     1     -10.016  10.174  68.361  1.00  0.00    -0.173 A  
HETATM    9  C   UNL     1      -8.763  10.189  68.976  1.00  0.00    -0.161 A  
HETATM   10  C   UNL     1      -8.092   8.995  69.259  1.00  0.00    -0.105 A  
HETATM   11  C   UNL     1      -6.859   9.003  70.113  1.00  0.00    -0.045 C  
HETATM   12  C   UNL     1      -8.607   7.794  68.763  1.00  0.00    -0.129 A  
HETATM   13  C   UNL     1      -9.799   7.783  68.032  1.00  0.00    -0.192 A  
HETATM   14  C   UNL     1     -10.513   8.970  67.845  1.00  0.00    -0.291 A  
ENDBRANCH   5   8
ENDBRANCH   2   3
TORSDOF 3
ENDMDL
MODEL      211
REMARK 921   NORMALIZED FREE ENERGY PREDICTED BY IDOCK:   -2.54 KCAL/MOL
REMARK 922        TOTAL FREE ENERGY PREDICTED BY IDOCK:   -3.17 KCAL/MOL
REMARK 923 INTER-LIGAND FREE ENERGY PREDICTED BY IDOCK:   -2.80 KCAL/MOL
REMARK 924 INTRA-LIGAND FREE ENERGY PREDICTED BY IDOCK:   -0.37 KCAL/MOL
REMARK 927      BINDING AFFINITY PREDICTED BY RF-SCORE:    0.00 PKD
ROOT
HETATM    1  C   UNL     1      -6.734   4.561  67.967  1.00  0.00    -0.051 C  
HETATM    2  C   UNL     1      -7.398   5.768  67.320  1.00  0.00    -0.077 C  
ENDROOT
BRANCH   2   3
HETATM    3  N   UNL     1      -8.561   6.246  68.071  1.00  0.00    -0.117 N  
HETATM    4  O   UNL     1      -7.273   7.939  68.986  1.00  0.00    -0.072 OA 
HETATM    5  C   UNL     1      -8.379   7.427  68.818  1.00  0.00    -0.129 C  
BRANCH   3   6
HETATM    6  C   UNL     1      -9.854   5.580  67.857  1.00  0.00    -0.138 C  
HETATM    7  C   UNL     1     -10.543   5.792  66.519  1.00  0.00    -0.294 C  
ENDBRANCH   3   6
BRANCH   5   8
HETATM    8  C   UNL     1      -9.541   8.107  69.467  1.00  0.00    -0.168 A  
HETATM    9  C   UNL     1     -10.099   7.652  70.664  1.00  0.00    -0.187 A  
HETATM   10  C   UNL     1     -11.060   8.412  71.338  1.00  0.00    -0.312 A  
HETATM   11  C   UNL     1     -11.490   8.032  72.723  1.00  0.00    -0.420 C  
HETATM   12  C   UNL     1     -11.584   9.549  70.716  1.00  0.00    -0.378 A  
HETATM   13  C   UNL     1     -11.123   9.943  69.456  1.00  0.00    -0.255 A  
HETATM   14  C   UNL     1     -10.089   9.232  68.839  1.00  0.00    -0.207 A  
ENDBRANCH   5   8
ENDBRANCH   2   3
TORSDOF 3
ENDMDL
MODEL      212
REMARK 921   NORMALIZED FREE ENERGY PREDICTED BY IDOCK:   -2.52 KCAL/MOL
REMARK 922        TOTAL FREE ENERGY PREDICTED BY IDOCK:   -3.15 KCAL/MOL
REMARK 923 INTER-LIGAND FREE ENERGY PREDICTED BY IDOCK:   -3.36 KCAL/MOL
REMARK 924 INTRA-LIGAND FREE ENERGY PREDICTED BY IDOCK:    0.22 KCAL/MOL
REMARK 927      BINDING AFFINITY PREDICTED BY RF-SCORE:    0.00 PKD
ROOT
HETATM    1  C   UNL     1     -12.381  11.876  70.994  1.00  0.00    -0.362 C  
HETATM    2  C   UNL     1     -12.785  10.483  70.530  1.00  0.00    -0.305 C  
ENDROOT
BRANCH   2   3
HETATM    3  N   UNL     1     -11.789   9.463  70.866  1.00  0.00    -0.290 N  
HETATM    4  O   UNL     1     -10.294  10.438  69.390  1.00  0.00    -0.213 OA 
HETATM    5  C   UNL     1     -10.518   9.612  70.275  1.00  0.00    -0.283 C  
BRANCH   3   6
HETATM    6  C   UNL     1     -12.118   8.480  71.908  1.00  0.00    -0.349 C  
HETATM    7  C   UNL     1     -12.982   7.294  71.509  1.00  0.00    -0.434 C  
ENDBRANCH   3   6
BRANCH   5   8
HETATM    8  C   UNL     1      -9.375   8.744  70.690  1.00  0.00    -0.234 A  
HETATM    9  C   UNL     1      -8.943   8.662  72.016  1.00  0.00    -0.286 A  
HETATM   10  C   UNL     1      -7.998   7.706  72.400  1.00  0.00    -0.127 A  
HETATM   11  C   UNL     1      -7.703   7.475  73.853  1.00  0.00    -0.159 C  
HETATM   12  C   UNL     1      -7.361   6.947  71.415  1.00  0.00    -0.081 A  
HETATM   13  C   UNL     1      -7.695   7.112  70.068  1.00  0.00    -0.103 A  
HETATM   14  C   UNL     1      -8.715   7.998  69.706  1.00  0.00    -0.136 A  
ENDBRANCH   5   8
ENDBRANCH   2   3
TORSDOF 3
ENDMDL
MODEL      213
REMARK 921   NORMALIZED FREE ENERGY PREDICTED BY IDOCK:   -2.52 KCAL/MOL
REMARK 922        TOTAL FREE ENERGY PREDICTED BY IDOCK:   -3.14 KCAL/MOL
REMARK 923 INTER-LIGAND FREE ENERGY PREDICTED BY IDOCK:   -2.87 KCAL/MOL
REMARK 924 INTRA-LIGAND FREE ENERGY PREDICTED BY IDOCK:   -0.28 KCAL/MOL
REMARK 927      BINDING AFFINITY PREDICTED BY RF-SCORE:    0.00 PKD
ROOT
HETATM    1  C   UNL     1      -6.696  11.940  67.456  1.00  0.00    -0.111 C  
HETATM    2  C   UNL     1      -7.972  12.203  68.243  1.00  0.00    -0.163 C  
ENDROOT
BRANCH   2   3
HETATM    3  N   UNL     1      -8.745  10.984  68.492  1.00  0.00    -0.153 N  
HETATM    4  O   UNL     1      -7.441  10.539  70.353  1.00  0.00    -0.152 OA 
HETATM    5  C   UNL     1      -8.425  10.270  69.665  1.00  0.00    -0.115 C  
BRANCH   3   6
HETATM    6  C   UNL     1      -9.893  10.693  67.620  1.00  0.00    -0.167 C  
HETATM    7  C   UNL     1     -10.974  11.754  67.503  1.00  0.00    -0.310 C  
ENDBRANCH   3   6
BRANCH   5   8
HETATM    8  C   UNL     1      -9.270   9.124  70.116  1.00  0.00    -0.231 A  
HETATM    9  C   UNL     1      -8.953   7.797  69.814  1.00  0.00    -0.146 A  
HETATM   10  C   UNL     1      -9.657   6.743  70.403  1.00  0.00    -0.174 A  
HETATM   11  C   UNL     1      -9.173   5.332  70.251  1.00  0.00    -0.185 C  
HETATM   12  C   UNL     1     -10.794   7.028  71.163  1.00  0.00    -0.263 A  
HETATM   13  C   UNL     1     -11.197   8.351  71.366  1.00  0.00    -0.316 A  
HETATM   14  C   UNL     1     -10.425   9.401  70.857  1.00  0.00    -0.381 A  
ENDBRANCH   5   8
ENDBRANCH   2   3
TORSDOF 3
ENDMDL
MODEL      214
REMARK 921   NORMALIZED FREE ENERGY PREDICTED BY IDOCK:   -2.51 KCAL/MOL
REMARK 922        TOTAL FREE ENERGY PREDICTED BY IDOCK:   -3.13 KCAL/MOL
REMARK 923 INTER-LIGAND FREE ENERGY PREDICTED BY IDOCK:   -2.92 KCAL/MOL
REMARK 924 INTRA-LIGAND FREE ENERGY PREDICTED BY IDOCK:   -0.21 KCAL/MOL
REMARK 927      BINDING AFFINITY PREDICTED BY RF-SCORE:    0.00 PKD
ROOT
HETATM    1  C   UNL     1     -10.475   3.562  72.820  1.00  0.00    -0.216 C  
HETATM    2  C   UNL     1      -9.555   4.765  72.968  1.00  0.00    -0.132 C  
ENDROOT
BRANCH   2   3
HETATM    3  N   UNL     1      -9.915   5.867  72.073  1.00  0.00    -0.174 N  
HETATM    4  O   UNL     1      -7.680   6.448  71.891  1.00  0.00    -0.094 OA 
HETATM    5  C   UNL     1      -8.843   6.597  71.518  1.00  0.00    -0.138 C  
BRANCH   3   6
HETATM    6  C   UNL     1     -11.323   6.021  71.683  1.00  0.00    -0.252 C  
HETATM    7  C   UNL     1     -12.005   7.338  72.014  1.00  0.00    -0.333 C  
ENDBRANCH   3   6
BRANCH   5   8
HETATM    8  C   UNL     1      -9.083   7.615  70.451  1.00  0.00    -0.152 A  
HETATM    9  C   UNL     1      -9.405   7.260  69.139  1.00  0.00    -0.146 A  
HETATM   10  C   UNL     1      -9.803   8.231  68.215  1.00  0.00    -0.192 A  
HETATM   11  C   UNL     1     -10.358   7.823  66.882  1.00  0.00    -0.396 C  
HETATM   12  C   UNL     1      -9.710   9.580  68.566  1.00  0.00    -0.162 A  
HETATM   13  C   UNL     1      -9.265   9.952  69.837  1.00  0.00    -0.245 A  
HETATM   14  C   UNL     1      -8.968   8.969  70.787  1.00  0.00    -0.286 A  
ENDBRANCH   5   8
ENDBRANCH   2   3
TORSDOF 3
ENDMDL
MODEL      215
REMARK 921   NORMALIZED FREE ENERGY PREDICTED BY IDOCK:   -2.50 KCAL/MOL
REMARK 922        TOTAL FREE ENERGY PREDICTED BY IDOCK:   -3.12 KCAL/MOL
REMARK 923 INTER-LIGAND FREE ENERGY PREDICTED BY IDOCK:   -2.77 KCAL/MOL
REMARK 924 INTRA-LIGAND FREE ENERGY PREDICTED BY IDOCK:   -0.35 KCAL/MOL
REMARK 927      BINDING AFFINITY PREDICTED BY RF-SCORE:    0.00 PKD
ROOT
HETATM    1  C   UNL     1     -13.046   9.349  72.052  1.00  0.00    -0.516 C  
HETATM    2  C   UNL     1     -12.687   7.965  71.528  1.00  0.00    -0.322 C  
ENDROOT
BRANCH   2   3
HETATM    3  N   UNL     1     -11.249   7.797  71.308  1.00  0.00    -0.251 N  
HETATM    4  O   UNL     1     -10.970   7.274  73.548  1.00  0.00    -0.345 OA 
HETATM    5  C   UNL     1     -10.497   7.350  72.415  1.00  0.00    -0.233 C  
BRANCH   3   6
HETATM    6  C   UNL     1     -10.729   7.929  69.940  1.00  0.00    -0.244 C  
HETATM    7  C   UNL     1      -9.963   9.195  69.598  1.00  0.00    -0.198 C  
ENDBRANCH   3   6
BRANCH   5   8
HETATM    8  C   UNL     1      -9.062   6.964  72.257  1.00  0.00    -0.143 A  
HETATM    9  C   UNL     1      -8.672   5.676  71.882  1.00  0.00    -0.135 A  
HETATM   10  C   UNL     1      -7.339   5.399  71.565  1.00  0.00    -0.085 A  
HETATM   11  C   UNL     1      -6.966   4.081  70.953  1.00  0.00    -0.033 C  
HETATM   12  C   UNL     1      -6.369   6.379  71.792  1.00  0.00    -0.042 A  
HETATM   13  C   UNL     1      -6.733   7.633  72.290  1.00  0.00    -0.057 A  
HETATM   14  C   UNL     1      -8.082   7.933  72.506  1.00  0.00    -0.167 A  
ENDBRANCH   5   8
ENDBRANCH   2   3
TORSDOF 3
ENDMDL
MODEL      216
REMARK 921   NORMALIZED FREE ENERGY PREDICTED BY IDOCK:   -2.48 KCAL/MOL
REMARK 922        TOTAL FREE ENERGY PREDICTED BY IDOCK:   -3.09 KCAL/MOL
REMARK 923 INTER-LIGAND FREE ENERGY PREDICTED BY IDOCK:   -2.81 KCAL/MOL
REMARK 924 INTRA-LIGAND FREE ENERGY PREDICTED BY IDOCK:   -0.28 KCAL/MOL
REMARK 927      BINDING AFFINITY PREDICTED BY RF-SCORE:    0.00 PKD
ROOT
HETATM    1  C   UNL     1      -7.053   5.740  69.700  1.00  0.00    -0.064 C  
HETATM    2  C   UNL     1      -8.399   6.437  69.566  1.00  0.00    -0.126 C  
ENDROOT
BRANCH   2   3
HETATM    3  N   UNL     1      -8.377   7.530  68.591  1.00  0.00    -0.128 N  
HETATM    4  O   UNL     1      -9.482   6.186  67.062  1.00  0.00    -0.122 OA 
HETATM    5  C   UNL     1      -9.051   7.295  67.375  1.00  0.00    -0.121 C  
BRANCH   3   6
HETATM    6  C   UNL     1      -7.823   8.827  69.005  1.00  0.00    -0.096 C  
HETATM    7  C   UNL     1      -8.527   9.565  70.131  1.00  0.00    -0.227 C  
ENDBRANCH   3   6
BRANCH   5   8
HETATM    8  C   UNL     1      -9.254   8.399  66.389  1.00  0.00    -0.253 A  
HETATM    9  C   UNL     1     -10.109   9.475  66.638  1.00  0.00    -0.321 A  
HETATM   10  C   UNL     1     -10.135  10.579  65.780  1.00  0.00    -0.329 A  
HETATM   11  C   UNL     1     -10.884  11.820  66.167  1.00  0.00    -0.336 C  
HETATM   12  C   UNL     1      -9.427  10.520  64.577  1.00  0.00    -0.329 A  
HETATM   13  C   UNL     1      -8.669   9.390  64.256  1.00  0.00    -0.224 A  
HETATM   14  C   UNL     1      -8.567   8.336  65.170  1.00  0.00    -0.132 A  
ENDBRANCH   5   8
ENDBRANCH   2   3
TORSDOF 3
ENDMDL
MODEL      217
REMARK 921   NORMALIZED FREE ENERGY PREDICTED BY IDOCK:   -2.47 KCAL/MOL
REMARK 922        TOTAL FREE ENERGY PREDICTED BY IDOCK:   -3.08 KCAL/MOL
REMARK 923 INTER-LIGAND FREE ENERGY PREDICTED BY IDOCK:   -2.69 KCAL/MOL
REMARK 924 INTRA-LIGAND FREE ENERGY PREDICTED BY IDOCK:   -0.39 KCAL/MOL
REMARK 927      BINDING AFFINITY PREDICTED BY RF-SCORE:    0.00 PKD
ROOT
HETATM    1  C   UNL     1     -10.805   9.633  69.682  1.00  0.00    -0.266 C  
HETATM    2  C   UNL     1     -10.456   8.201  69.304  1.00  0.00    -0.214 C  
ENDROOT
BRANCH   2   3
HETATM    3  N   UNL     1     -10.430   7.300  70.459  1.00  0.00    -0.214 N  
HETATM    4  O   UNL     1      -8.761   6.053  69.447  1.00  0.00    -0.120 OA 
HETATM    5  C   UNL     1      -9.446   6.291  70.441  1.00  0.00    -0.161 C  
BRANCH   3   6
HETATM    6  C   UNL     1     -11.291   7.611  71.609  1.00  0.00    -0.251 C  
HETATM    7  C   UNL     1     -12.684   7.004  71.629  1.00  0.00    -0.417 C  
ENDBRANCH   3   6
BRANCH   5   8
HETATM    8  C   UNL     1      -9.205   5.438  71.645  1.00  0.00    -0.166 A  
HETATM    9  C   UNL     1      -9.825   4.199  71.818  1.00  0.00    -0.252 A  
HETATM   10  C   UNL     1      -9.440   3.347  72.858  1.00  0.00    -0.146 A  
HETATM   11  C   UNL     1      -9.947   1.937  72.908  1.00  0.00    -0.173 C  
HETATM   12  C   UNL     1      -8.550   3.819  73.826  1.00  0.00    -0.086 A  
HETATM   13  C   UNL     1      -8.020   5.109  73.733  1.00  0.00    -0.105 A  
HETATM   14  C   UNL     1      -8.333   5.914  72.632  1.00  0.00    -0.119 A  
ENDBRANCH   5   8
ENDBRANCH   2   3
TORSDOF 3
ENDMDL
MODEL      218
REMARK 921   NORMALIZED FREE ENERGY PREDICTED BY IDOCK:   -2.44 KCAL/MOL
REMARK 922        TOTAL FREE ENERGY PREDICTED BY IDOCK:   -3.05 KCAL/MOL
REMARK 923 INTER-LIGAND FREE ENERGY PREDICTED BY IDOCK:   -2.86 KCAL/MOL
REMARK 924 INTRA-LIGAND FREE ENERGY PREDICTED BY IDOCK:   -0.19 KCAL/MOL
REMARK 927      BINDING AFFINITY PREDICTED BY RF-SCORE:    0.00 PKD
ROOT
HETATM    1  C   UNL     1     -13.047   9.061  72.349  1.00  0.00    -0.487 C  
HETATM    2  C   UNL     1     -12.279   8.528  71.148  1.00  0.00    -0.232 C  
ENDROOT
BRANCH   2   3
HETATM    3  N   UNL     1     -11.079   7.779  71.529  1.00  0.00    -0.234 N  
HETATM    4  O   UNL     1     -11.108   6.694  69.483  1.00  0.00    -0.286 OA 
HETATM    5  C   UNL     1     -10.530   6.936  70.541  1.00  0.00    -0.211 C  
BRANCH   3   6
HETATM    6  C   UNL     1     -10.443   8.085  72.818  1.00  0.00    -0.345 C  
HETATM    7  C   UNL     1     -10.339   6.961  73.835  1.00  0.00    -0.398 C  
ENDBRANCH   3   6
BRANCH   5   8
HETATM    8  C   UNL     1      -9.207   6.274  70.752  1.00  0.00    -0.160 A  
HETATM    9  C   UNL     1      -9.094   4.928  71.111  1.00  0.00    -0.180 A  
HETATM   10  C   UNL     1      -7.848   4.295  71.120  1.00  0.00    -0.071 A  
HETATM   11  C   UNL     1      -7.758   2.806  71.287  1.00  0.00    -0.044 C  
HETATM   12  C   UNL     1      -6.695   5.062  70.936  1.00  0.00    -0.036 A  
HETATM   13  C   UNL     1      -6.790   6.437  70.703  1.00  0.00    -0.063 A  
HETATM   14  C   UNL     1      -8.046   7.041  70.594  1.00  0.00    -0.117 A  
ENDBRANCH   5   8
ENDBRANCH   2   3
TORSDOF 3
ENDMDL
MODEL      219
REMARK 921   NORMALIZED FREE ENERGY PREDICTED BY IDOCK:   -2.44 KCAL/MOL
REMARK 922        TOTAL FREE ENERGY PREDICTED BY IDOCK:   -3.05 KCAL/MOL
REMARK 923 INTER-LIGAND FREE ENERGY PREDICTED BY IDOCK:   -2.86 KCAL/MOL
REMARK 924 INTRA-LIGAND FREE ENERGY PREDICTED BY IDOCK:   -0.19 KCAL/MOL
REMARK 927      BINDING AFFINITY PREDICTED BY RF-SCORE:    0.00 PKD
ROOT
HETATM    1  C   UNL     1      -6.896   8.049  66.841  1.00  0.00    -0.073 C  
HETATM    2  C   UNL     1      -6.737   9.554  66.675  1.00  0.00    -0.072 C  
ENDROOT
BRANCH   2   3
HETATM    3  N   UNL     1      -7.994  10.281  66.867  1.00  0.00    -0.111 N  
HETATM    4  O   UNL     1      -7.620  10.321  69.153  1.00  0.00    -0.089 OA 
HETATM    5  C   UNL     1      -8.281  10.694  68.185  1.00  0.00    -0.116 C  
BRANCH   3   6
HETATM    6  C   UNL     1      -8.763  10.676  65.679  1.00  0.00    -0.188 C  
HETATM    7  C   UNL     1      -9.859   9.736  65.206  1.00  0.00    -0.335 C  
ENDBRANCH   3   6
BRANCH   5   8
HETATM    8  C   UNL     1      -9.435  11.601  68.466  1.00  0.00    -0.175 A  
HETATM    9  C   UNL     1     -10.577  11.169  69.145  1.00  0.00    -0.238 A  
HETATM   10  C   UNL     1     -11.553  12.083  69.553  1.00  0.00    -0.389 A  
HETATM   11  C   UNL     1     -12.659  11.649  70.469  1.00  0.00    -0.264 C  
HETATM   12  C   UNL     1     -11.461  13.409  69.124  1.00  0.00    -0.351 A  
HETATM   13  C   UNL     1     -10.386  13.826  68.334  1.00  0.00    -0.247 A  
HETATM   14  C   UNL     1      -9.363  12.926  68.019  1.00  0.00    -0.213 A  
ENDBRANCH   5   8
ENDBRANCH   2   3
TORSDOF 3
ENDMDL
MODEL      220
REMARK 921   NORMALIZED FREE ENERGY PREDICTED BY IDOCK:   -2.38 KCAL/MOL
REMARK 922        TOTAL FREE ENERGY PREDICTED BY IDOCK:   -2.98 KCAL/MOL
REMARK 923 INTER-LIGAND FREE ENERGY PREDICTED BY IDOCK:   -2.64 KCAL/MOL
REMARK 924 INTRA-LIGAND FREE ENERGY PREDICTED BY IDOCK:   -0.34 KCAL/MOL
REMARK 927      BINDING AFFINITY PREDICTED BY RF-SCORE:    0.00 PKD
ROOT
HETATM    1  C   UNL     1      -7.293   4.393  65.084  1.00  0.00    -0.072 C  
HETATM    2  C   UNL     1      -7.287   4.558  66.598  1.00  0.00    -0.081 C  
ENDROOT
BRANCH   2   3
HETATM    3  N   UNL     1      -8.319   5.482  67.072  1.00  0.00    -0.108 N  
HETATM    4  O   UNL     1      -6.787   7.219  67.015  1.00  0.00    -0.071 OA 
HETATM    5  C   UNL     1      -7.949   6.841  67.155  1.00  0.00    -0.116 C  
BRANCH   3   6
HETATM    6  C   UNL     1      -9.685   4.973  67.253  1.00  0.00    -0.162 C  
HETATM    7  C   UNL     1     -10.626   5.043  66.062  1.00  0.00    -0.286 C  
ENDBRANCH   3   6
BRANCH   5   8
HETATM    8  C   UNL     1      -8.970   7.893  67.443  1.00  0.00    -0.133 A  
HETATM    9  C   UNL     1      -9.417   8.165  68.738  1.00  0.00    -0.148 A  
HETATM   10  C   UNL     1     -10.230   9.274  68.994  1.00  0.00    -0.217 A  
HETATM   11  C   UNL     1     -10.522   9.687  70.406  1.00  0.00    -0.352 C  
HETATM   12  C   UNL     1     -10.733  10.009  67.918  1.00  0.00    -0.322 A  
HETATM   13  C   UNL     1     -10.394   9.666  66.606  1.00  0.00    -0.279 A  
HETATM   14  C   UNL     1      -9.498   8.618  66.368  1.00  0.00    -0.295 A  
ENDBRANCH   5   8
ENDBRANCH   2   3
TORSDOF 3
ENDMDL
MODEL      221
REMARK 921   NORMALIZED FREE ENERGY PREDICTED BY IDOCK:   -2.37 KCAL/MOL
REMARK 922        TOTAL FREE ENERGY PREDICTED BY IDOCK:   -2.97 KCAL/MOL
REMARK 923 INTER-LIGAND FREE ENERGY PREDICTED BY IDOCK:   -3.00 KCAL/MOL
REMARK 924 INTRA-LIGAND FREE ENERGY PREDICTED BY IDOCK:    0.02 KCAL/MOL
REMARK 927      BINDING AFFINITY PREDICTED BY RF-SCORE:    0.00 PKD
ROOT
HETATM    1  C   UNL     1     -10.784   4.980  73.468  1.00  0.00    -0.339 C  
HETATM    2  C   UNL     1     -11.379   6.377  73.372  1.00  0.00     0.252 C  
ENDROOT
BRANCH   2   3
HETATM    3  N   UNL     1     -10.710   7.211  72.372  1.00  0.00    -0.229 N  
HETATM    4  O   UNL     1     -12.771   7.907  71.576  1.00  0.00    -0.317 OA 
HETATM    5  C   UNL     1     -11.546   8.017  71.571  1.00  0.00    -0.275 C  
BRANCH   3   6
HETATM    6  C   UNL     1      -9.242   7.285  72.389  1.00  0.00    -0.134 C  
HETATM    7  C   UNL     1      -8.592   8.111  73.486  1.00  0.00    -0.313 C  
ENDBRANCH   3   6
BRANCH   5   8
HETATM    8  C   UNL     1     -10.965   9.043  70.652  1.00  0.00    -0.308 A  
HETATM    9  C   UNL     1      -9.911   8.755  69.783  1.00  0.00    -0.189 A  
HETATM   10  C   UNL     1      -9.516   9.679  68.811  1.00  0.00    -0.148 A  
HETATM   11  C   UNL     1      -8.540   9.282  67.743  1.00  0.00    -0.117 C  
HETATM   12  C   UNL     1     -10.069  10.961  68.828  1.00  0.00    -0.205 A  
HETATM   13  C   UNL     1     -11.036  11.302  69.779  1.00  0.00    -0.238 A  
HETATM   14  C   UNL     1     -11.498  10.338  70.681  1.00  0.00    -0.435 A  
ENDBRANCH   5   8
ENDBRANCH   2   3
TORSDOF 3
ENDMDL
MODEL      222
REMARK 921   NORMALIZED FREE ENERGY PREDICTED BY IDOCK:   -2.37 KCAL/MOL
REMARK 922        TOTAL FREE ENERGY PREDICTED BY IDOCK:   -2.97 KCAL/MOL
REMARK 923 INTER-LIGAND FREE ENERGY PREDICTED BY IDOCK:   -2.81 KCAL/MOL
REMARK 924 INTRA-LIGAND FREE ENERGY PREDICTED BY IDOCK:   -0.16 KCAL/MOL
REMARK 927      BINDING AFFINITY PREDICTED BY RF-SCORE:    0.00 PKD
ROOT
HETATM    1  C   UNL     1      -6.437  11.702  67.319  1.00  0.00    -0.120 C  
HETATM    2  C   UNL     1      -7.688  11.874  68.169  1.00  0.00    -0.126 C  
ENDROOT
BRANCH   2   3
HETATM    3  N   UNL     1      -8.185  10.607  68.710  1.00  0.00    -0.133 N  
HETATM    4  O   UNL     1     -10.210  10.944  67.638  1.00  0.00    -0.174 OA 
HETATM    5  C   UNL     1      -9.467  10.205  68.282  1.00  0.00    -0.140 C  
BRANCH   3   6
HETATM    6  C   UNL     1      -7.266   9.774  69.500  1.00  0.00    -0.087 C  
HETATM    7  C   UNL     1      -6.615   8.590  68.804  1.00  0.00    -0.054 C  
ENDBRANCH   3   6
BRANCH   5   8
HETATM    8  C   UNL     1      -9.993   8.847  68.617  1.00  0.00    -0.192 A  
HETATM    9  C   UNL     1     -10.593   8.561  69.846  1.00  0.00    -0.228 A  
HETATM   10  C   UNL     1     -11.238   7.339  70.058  1.00  0.00    -0.234 A  
HETATM   11  C   UNL     1     -12.067   7.125  71.290  1.00  0.00    -0.386 C  
HETATM   12  C   UNL     1     -11.128   6.338  69.090  1.00  0.00    -0.457 A  
HETATM   13  C   UNL     1     -10.418   6.569  67.908  1.00  0.00    -0.273 A  
HETATM   14  C   UNL     1      -9.865   7.830  67.663  1.00  0.00    -0.208 A  
ENDBRANCH   5   8
ENDBRANCH   2   3
TORSDOF 3
ENDMDL
MODEL      223
REMARK 921   NORMALIZED FREE ENERGY PREDICTED BY IDOCK:   -2.36 KCAL/MOL
REMARK 922        TOTAL FREE ENERGY PREDICTED BY IDOCK:   -2.96 KCAL/MOL
REMARK 923 INTER-LIGAND FREE ENERGY PREDICTED BY IDOCK:   -2.60 KCAL/MOL
REMARK 924 INTRA-LIGAND FREE ENERGY PREDICTED BY IDOCK:   -0.35 KCAL/MOL
REMARK 927      BINDING AFFINITY PREDICTED BY RF-SCORE:    0.00 PKD
ROOT
HETATM    1  C   UNL     1      -9.041   9.700  66.670  1.00  0.00    -0.176 C  
HETATM    2  C   UNL     1      -9.180   8.312  66.061  1.00  0.00    -0.166 C  
ENDROOT
BRANCH   2   3
HETATM    3  N   UNL     1      -8.932   7.241  67.028  1.00  0.00    -0.126 N  
HETATM    4  O   UNL     1     -11.204   6.802  67.122  1.00  0.00    -0.379 OA 
HETATM    5  C   UNL     1     -10.054   6.484  67.422  1.00  0.00    -0.162 C  
BRANCH   3   6
HETATM    6  C   UNL     1      -7.540   6.920  67.377  1.00  0.00    -0.109 C  
HETATM    7  C   UNL     1      -6.541   6.796  66.239  1.00  0.00    -0.048 C  
ENDBRANCH   3   6
BRANCH   5   8
HETATM    8  C   UNL     1      -9.891   5.253  68.254  1.00  0.00    -0.206 A  
HETATM    9  C   UNL     1      -9.799   3.978  67.691  1.00  0.00    -0.102 A  
HETATM   10  C   UNL     1      -9.463   2.873  68.479  1.00  0.00    -0.200 A  
HETATM   11  C   UNL     1      -9.149   1.554  67.837  1.00  0.00    -0.184 C  
HETATM   12  C   UNL     1      -9.391   3.025  69.866  1.00  0.00    -0.221 A  
HETATM   13  C   UNL     1      -9.609   4.275  70.453  1.00  0.00    -0.265 A  
HETATM   14  C   UNL     1      -9.843   5.393  69.646  1.00  0.00    -0.261 A  
ENDBRANCH   5   8
ENDBRANCH   2   3
TORSDOF 3
ENDMDL
MODEL      224
REMARK 921   NORMALIZED FREE ENERGY PREDICTED BY IDOCK:   -2.32 KCAL/MOL
REMARK 922        TOTAL FREE ENERGY PREDICTED BY IDOCK:   -2.91 KCAL/MOL
REMARK 923 INTER-LIGAND FREE ENERGY PREDICTED BY IDOCK:   -3.20 KCAL/MOL
REMARK 924 INTRA-LIGAND FREE ENERGY PREDICTED BY IDOCK:    0.30 KCAL/MOL
REMARK 927      BINDING AFFINITY PREDICTED BY RF-SCORE:    0.00 PKD
ROOT
HETATM    1  C   UNL     1     -11.878  14.489  69.076  1.00  0.00    -0.354 C  
HETATM    2  C   UNL     1     -10.939  13.939  68.012  1.00  0.00    -0.251 C  
ENDROOT
BRANCH   2   3
HETATM    3  N   UNL     1     -10.360  12.645  68.381  1.00  0.00    -0.233 N  
HETATM    4  O   UNL     1     -12.485  11.800  68.746  1.00  0.00    -0.209 OA 
HETATM    5  C   UNL     1     -11.275  11.605  68.648  1.00  0.00    -0.250 C  
BRANCH   3   6
HETATM    6  C   UNL     1      -8.904  12.474  68.277  1.00  0.00    -0.171 C  
HETATM    7  C   UNL     1      -8.218  13.029  67.040  1.00  0.00    -0.071 C  
ENDBRANCH   3   6
BRANCH   5   8
HETATM    8  C   UNL     1     -10.799  10.203  68.848  1.00  0.00    -0.256 A  
HETATM    9  C   UNL     1     -10.867   9.240  67.839  1.00  0.00    -0.181 A  
HETATM   10  C   UNL     1     -10.248   7.996  67.996  1.00  0.00    -0.260 A  
HETATM   11  C   UNL     1     -10.133   7.056  66.833  1.00  0.00    -0.296 C  
HETATM   12  C   UNL     1      -9.709   7.660  69.241  1.00  0.00    -0.164 A  
HETATM   13  C   UNL     1      -9.751   8.571  70.300  1.00  0.00    -0.182 A  
HETATM   14  C   UNL     1     -10.280   9.850  70.100  1.00  0.00    -0.326 A  
ENDBRANCH   5   8
ENDBRANCH   2   3
TORSDOF 3
ENDMDL
MODEL      225
REMARK 921   NORMALIZED FREE ENERGY PREDICTED BY IDOCK:   -2.31 KCAL/MOL
REMARK 922        TOTAL FREE ENERGY PREDICTED BY IDOCK:   -2.90 KCAL/MOL
REMARK 923 INTER-LIGAND FREE ENERGY PREDICTED BY IDOCK:   -2.59 KCAL/MOL
REMARK 924 INTRA-LIGAND FREE ENERGY PREDICTED BY IDOCK:   -0.32 KCAL/MOL
REMARK 927      BINDING AFFINITY PREDICTED BY RF-SCORE:    0.00 PKD
ROOT
HETATM    1  C   UNL     1      -9.184   9.604  70.160  1.00  0.00    -0.287 C  
HETATM    2  C   UNL     1     -10.310   8.616  69.894  1.00  0.00    -0.209 C  
ENDROOT
BRANCH   2   3
HETATM    3  N   UNL     1     -10.183   7.387  70.681  1.00  0.00    -0.198 N  
HETATM    4  O   UNL     1      -8.990   6.407  68.954  1.00  0.00    -0.124 OA 
HETATM    5  C   UNL     1      -9.399   6.361  70.113  1.00  0.00    -0.157 C  
BRANCH   3   6
HETATM    6  C   UNL     1     -10.718   7.373  72.050  1.00  0.00    -0.219 C  
HETATM    7  C   UNL     1     -12.008   8.133  72.309  1.00  0.00    -0.434 C  
ENDBRANCH   3   6
BRANCH   5   8
HETATM    8  C   UNL     1      -9.047   5.143  70.905  1.00  0.00    -0.175 A  
HETATM    9  C   UNL     1      -7.971   5.117  71.795  1.00  0.00    -0.111 A  
HETATM   10  C   UNL     1      -7.781   4.029  72.652  1.00  0.00    -0.075 A  
HETATM   11  C   UNL     1      -6.765   4.102  73.753  1.00  0.00    -0.057 C  
HETATM   12  C   UNL     1      -8.575   2.891  72.490  1.00  0.00    -0.082 A  
HETATM   13  C   UNL     1      -9.573   2.857  71.512  1.00  0.00    -0.225 A  
HETATM   14  C   UNL     1      -9.822   3.990  70.730  1.00  0.00    -0.233 A  
ENDBRANCH   5   8
ENDBRANCH   2   3
TORSDOF 3
ENDMDL
MODEL      226
REMARK 921   NORMALIZED FREE ENERGY PREDICTED BY IDOCK:   -2.31 KCAL/MOL
REMARK 922        TOTAL FREE ENERGY PREDICTED BY IDOCK:   -2.90 KCAL/MOL
REMARK 923 INTER-LIGAND FREE ENERGY PREDICTED BY IDOCK:   -2.52 KCAL/MOL
REMARK 924 INTRA-LIGAND FREE ENERGY PREDICTED BY IDOCK:   -0.37 KCAL/MOL
REMARK 927      BINDING AFFINITY PREDICTED BY RF-SCORE:    0.00 PKD
ROOT
HETATM    1  C   UNL     1     -12.336   9.687  71.542  1.00  0.00    -0.477 C  
HETATM    2  C   UNL     1     -11.240  10.040  70.547  1.00  0.00    -0.336 C  
ENDROOT
BRANCH   2   3
HETATM    3  N   UNL     1     -10.406   8.891  70.191  1.00  0.00    -0.199 N  
HETATM    4  O   UNL     1     -10.407   9.576  67.978  1.00  0.00    -0.190 OA 
HETATM    5  C   UNL     1      -9.974   8.824  68.850  1.00  0.00    -0.192 C  
BRANCH   3   6
HETATM    6  C   UNL     1      -9.939   8.004  71.266  1.00  0.00    -0.174 C  
HETATM    7  C   UNL     1      -8.902   8.555  72.231  1.00  0.00    -0.279 C  
ENDBRANCH   3   6
BRANCH   5   8
HETATM    8  C   UNL     1      -8.969   7.804  68.421  1.00  0.00    -0.132 A  
HETATM    9  C   UNL     1      -9.340   6.582  67.856  1.00  0.00    -0.111 A  
HETATM   10  C   UNL     1      -8.379   5.733  67.299  1.00  0.00    -0.104 A  
HETATM   11  C   UNL     1      -8.801   4.535  66.500  1.00  0.00    -0.112 C  
HETATM   12  C   UNL     1      -7.026   6.037  67.466  1.00  0.00    -0.069 A  
HETATM   13  C   UNL     1      -6.640   7.196  68.145  1.00  0.00    -0.049 A  
HETATM   14  C   UNL     1      -7.611   8.090  68.608  1.00  0.00    -0.100 A  
ENDBRANCH   5   8
ENDBRANCH   2   3
TORSDOF 3
ENDMDL
MODEL      227
REMARK 921   NORMALIZED FREE ENERGY PREDICTED BY IDOCK:   -2.30 KCAL/MOL
REMARK 922        TOTAL FREE ENERGY PREDICTED BY IDOCK:   -2.88 KCAL/MOL
REMARK 923 INTER-LIGAND FREE ENERGY PREDICTED BY IDOCK:   -2.81 KCAL/MOL
REMARK 924 INTRA-LIGAND FREE ENERGY PREDICTED BY IDOCK:   -0.08 KCAL/MOL
REMARK 927      BINDING AFFINITY PREDICTED BY RF-SCORE:    0.00 PKD
ROOT
HETATM    1  C   UNL     1      -6.741   9.930  68.386  1.00  0.00    -0.055 C  
HETATM    2  C   UNL     1      -8.026  10.390  69.059  1.00  0.00    -0.131 C  
ENDROOT
BRANCH   2   3
HETATM    3  N   UNL     1      -8.879   9.274  69.476  1.00  0.00    -0.142 N  
HETATM    4  O   UNL     1      -7.376   8.757  71.162  1.00  0.00    -0.079 OA 
HETATM    5  C   UNL     1      -8.470   8.573  70.630  1.00  0.00    -0.146 C  
BRANCH   3   6
HETATM    6  C   UNL     1     -10.162   9.078  68.788  1.00  0.00    -0.208 C  
HETATM    7  C   UNL     1     -10.196   9.301  67.285  1.00  0.00    -0.315 C  
ENDBRANCH   3   6
BRANCH   5   8
HETATM    8  C   UNL     1      -9.357   7.544  71.253  1.00  0.00    -0.157 A  
HETATM    9  C   UNL     1      -9.374   6.215  70.824  1.00  0.00    -0.170 A  
HETATM   10  C   UNL     1     -10.073   5.242  71.545  1.00  0.00    -0.254 A  
HETATM   11  C   UNL     1      -9.908   3.789  71.211  1.00  0.00    -0.219 C  
HETATM   12  C   UNL     1     -10.898   5.641  72.599  1.00  0.00    -0.301 A  
HETATM   13  C   UNL     1     -10.989   6.990  72.956  1.00  0.00    -0.327 A  
HETATM   14  C   UNL     1     -10.205   7.941  72.294  1.00  0.00    -0.302 A  
ENDBRANCH   5   8
ENDBRANCH   2   3
TORSDOF 3
ENDMDL
MODEL      228
REMARK 921   NORMALIZED FREE ENERGY PREDICTED BY IDOCK:   -2.29 KCAL/MOL
REMARK 922        TOTAL FREE ENERGY PREDICTED BY IDOCK:   -2.88 KCAL/MOL
REMARK 923 INTER-LIGAND FREE ENERGY PREDICTED BY IDOCK:   -2.56 KCAL/MOL
REMARK 924 INTRA-LIGAND FREE ENERGY PREDICTED BY IDOCK:   -0.32 KCAL/MOL
REMARK 927      BINDING AFFINITY PREDICTED BY RF-SCORE:    0.00 PKD
ROOT
HETATM    1  C   UNL     1     -11.199   6.215  71.772  1.00  0.00    -0.338 C  
HETATM    2  C   UNL     1     -10.540   7.537  72.137  1.00  0.00    -0.221 C  
ENDROOT
BRANCH   2   3
HETATM    3  N   UNL     1     -10.361   8.421  70.983  1.00  0.00    -0.193 N  
HETATM    4  O   UNL     1      -8.086   7.988  71.005  1.00  0.00    -0.090 OA 
HETATM    5  C   UNL     1      -9.060   8.489  70.445  1.00  0.00    -0.152 C  
BRANCH   3   6
HETATM    6  C   UNL     1     -11.554   9.020  70.369  1.00  0.00    -0.117 C  
HETATM    7  C   UNL     1     -12.368   9.988  71.212  1.00  0.00    -0.496 C  
ENDBRANCH   3   6
BRANCH   5   8
HETATM    8  C   UNL     1      -8.801   9.206  69.159  1.00  0.00    -0.146 A  
HETATM    9  C   UNL     1      -9.130   8.656  67.918  1.00  0.00    -0.145 A  
HETATM   10  C   UNL     1      -9.047   9.424  66.753  1.00  0.00    -0.168 A  
HETATM   11  C   UNL     1      -9.609   8.904  65.462  1.00  0.00    -0.088 C  
HETATM   12  C   UNL     1      -8.467  10.693  66.817  1.00  0.00    -0.134 A  
HETATM   13  C   UNL     1      -8.015  11.205  68.037  1.00  0.00    -0.117 A  
HETATM   14  C   UNL     1      -8.198  10.468  69.212  1.00  0.00    -0.151 A  
ENDBRANCH   5   8
ENDBRANCH   2   3
TORSDOF 3
ENDMDL
MODEL      229
REMARK 921   NORMALIZED FREE ENERGY PREDICTED BY IDOCK:   -2.28 KCAL/MOL
REMARK 922        TOTAL FREE ENERGY PREDICTED BY IDOCK:   -2.86 KCAL/MOL
REMARK 923 INTER-LIGAND FREE ENERGY PREDICTED BY IDOCK:   -2.67 KCAL/MOL
REMARK 924 INTRA-LIGAND FREE ENERGY PREDICTED BY IDOCK:   -0.19 KCAL/MOL
REMARK 927      BINDING AFFINITY PREDICTED BY RF-SCORE:    0.00 PKD
ROOT
HETATM    1  C   UNL     1      -6.115   9.085  70.176  1.00  0.00    -0.037 C  
HETATM    2  C   UNL     1      -6.832   8.055  71.038  1.00  0.00    -0.042 C  
ENDROOT
BRANCH   2   3
HETATM    3  N   UNL     1      -8.259   7.950  70.726  1.00  0.00    -0.108 N  
HETATM    4  O   UNL     1      -8.625   6.901  72.758  1.00  0.00    -0.120 OA 
HETATM    5  C   UNL     1      -9.082   7.417  71.739  1.00  0.00    -0.129 C  
BRANCH   3   6
HETATM    6  C   UNL     1      -8.750   8.557  69.480  1.00  0.00    -0.136 C  
HETATM    7  C   UNL     1      -9.355   9.948  69.566  1.00  0.00    -0.236 C  
ENDBRANCH   3   6
BRANCH   5   8
HETATM    8  C   UNL     1     -10.570   7.438  71.604  1.00  0.00    -0.229 A  
HETATM    9  C   UNL     1     -11.364   8.399  72.234  1.00  0.00    -0.448 A  
HETATM   10  C   UNL     1     -12.727   8.503  71.940  1.00  0.00    -0.401 A  
HETATM   11  C   UNL     1     -13.523   9.670  72.445  1.00  0.00    -0.421 C  
HETATM   12  C   UNL     1     -13.325   7.525  71.142  1.00  0.00    -0.229 A  
HETATM   13  C   UNL     1     -12.562   6.481  70.610  1.00  0.00     0.250 A  
HETATM   14  C   UNL     1     -11.181   6.446  70.826  1.00  0.00    -0.386 A  
ENDBRANCH   5   8
ENDBRANCH   2   3
TORSDOF 3
ENDMDL
MODEL      230
REMARK 921   NORMALIZED FREE ENERGY PREDICTED BY IDOCK:   -2.28 KCAL/MOL
REMARK 922        TOTAL FREE ENERGY PREDICTED BY IDOCK:   -2.86 KCAL/MOL
REMARK 923 INTER-LIGAND FREE ENERGY PREDICTED BY IDOCK:   -2.89 KCAL/MOL
REMARK 924 INTRA-LIGAND FREE ENERGY PREDICTED BY IDOCK:    0.03 KCAL/MOL
REMARK 927      BINDING AFFINITY PREDICTED BY RF-SCORE:    0.00 PKD
ROOT
HETATM    1  C   UNL     1      -6.259  10.168  68.271  1.00  0.00    -0.049 C  
HETATM    2  C   UNL     1      -6.896  10.655  69.564  1.00  0.00    -0.109 C  
ENDROOT
BRANCH   2   3
HETATM    3  N   UNL     1      -7.571   9.585  70.302  1.00  0.00    -0.139 N  
HETATM    4  O   UNL     1      -9.619  10.350  69.535  1.00  0.00    -0.215 OA 
HETATM    5  C   UNL     1      -8.967   9.489  70.124  1.00  0.00    -0.236 C  
BRANCH   3   6
HETATM    6  C   UNL     1      -6.748   8.599  71.016  1.00  0.00    -0.063 C  
HETATM    7  C   UNL     1      -5.590   9.122  71.849  1.00  0.00    -0.072 C  
ENDBRANCH   3   6
BRANCH   5   8
HETATM    8  C   UNL     1      -9.729   8.327  70.674  1.00  0.00    -0.191 A  
HETATM    9  C   UNL     1      -9.595   7.906  71.999  1.00  0.00    -0.242 A  
HETATM   10  C   UNL     1     -10.453   6.938  72.530  1.00  0.00    -0.241 A  
HETATM   11  C   UNL     1     -10.451   6.652  74.003  1.00  0.00    -0.309 C  
HETATM   12  C   UNL     1     -11.334   6.271  71.676  1.00  0.00    -0.347 A  
HETATM   13  C   UNL     1     -11.386   6.596  70.317  1.00  0.00    -0.431 A  
HETATM   14  C   UNL     1     -10.596   7.636  69.819  1.00  0.00    -0.245 A  
ENDBRANCH   5   8
ENDBRANCH   2   3
TORSDOF 3
ENDMDL
MODEL      231
REMARK 921   NORMALIZED FREE ENERGY PREDICTED BY IDOCK:   -2.25 KCAL/MOL
REMARK 922        TOTAL FREE ENERGY PREDICTED BY IDOCK:   -2.83 KCAL/MOL
REMARK 923 INTER-LIGAND FREE ENERGY PREDICTED BY IDOCK:   -2.52 KCAL/MOL
REMARK 924 INTRA-LIGAND FREE ENERGY PREDICTED BY IDOCK:   -0.31 KCAL/MOL
REMARK 927      BINDING AFFINITY PREDICTED BY RF-SCORE:    0.00 PKD
ROOT
HETATM    1  C   UNL     1     -10.126   7.389  73.095  1.00  0.00    -0.342 C  
HETATM    2  C   UNL     1      -9.317   8.301  72.184  1.00  0.00    -0.234 C  
ENDROOT
BRANCH   2   3
HETATM    3  N   UNL     1      -9.154   7.755  70.835  1.00  0.00    -0.147 N  
HETATM    4  O   UNL     1     -11.277   8.499  70.280  1.00  0.00    -0.248 OA 
HETATM    5  C   UNL     1     -10.205   8.009  69.929  1.00  0.00    -0.204 C  
BRANCH   3   6
HETATM    6  C   UNL     1      -7.864   7.151  70.474  1.00  0.00    -0.100 C  
HETATM    7  C   UNL     1      -7.626   5.706  70.879  1.00  0.00    -0.091 C  
ENDBRANCH   3   6
BRANCH   5   8
HETATM    8  C   UNL     1     -10.064   7.666  68.481  1.00  0.00    -0.205 A  
HETATM    9  C   UNL     1      -9.561   8.572  67.544  1.00  0.00    -0.194 A  
HETATM   10  C   UNL     1      -9.270   8.162  66.240  1.00  0.00    -0.245 A  
HETATM   11  C   UNL     1      -8.528   9.074  65.308  1.00  0.00    -0.181 C  
HETATM   12  C   UNL     1      -9.648   6.881  65.831  1.00  0.00     0.209 A  
HETATM   13  C   UNL     1     -10.271   6.006  66.727  1.00  0.00    -0.268 A  
HETATM   14  C   UNL     1     -10.463   6.392  68.058  1.00  0.00    -0.271 A  
ENDBRANCH   5   8
ENDBRANCH   2   3
TORSDOF 3
ENDMDL
MODEL      232
REMARK 921   NORMALIZED FREE ENERGY PREDICTED BY IDOCK:   -2.23 KCAL/MOL
REMARK 922        TOTAL FREE ENERGY PREDICTED BY IDOCK:   -2.80 KCAL/MOL
REMARK 923 INTER-LIGAND FREE ENERGY PREDICTED BY IDOCK:   -2.48 KCAL/MOL
REMARK 924 INTRA-LIGAND FREE ENERGY PREDICTED BY IDOCK:   -0.32 KCAL/MOL
REMARK 927      BINDING AFFINITY PREDICTED BY RF-SCORE:    0.00 PKD
ROOT
HETATM    1  C   UNL     1      -9.824   4.388  72.715  1.00  0.00    -0.194 C  
HETATM    2  C   UNL     1     -10.470   5.463  71.852  1.00  0.00    -0.224 C  
ENDROOT
BRANCH   2   3
HETATM    3  N   UNL     1      -9.763   5.675  70.587  1.00  0.00    -0.174 N  
HETATM    4  O   UNL     1     -11.759   6.266  69.572  1.00  0.00    -0.360 OA 
HETATM    5  C   UNL     1     -10.533   6.177  69.518  1.00  0.00    -0.254 C  
BRANCH   3   6
HETATM    6  C   UNL     1      -8.301   5.525  70.568  1.00  0.00    -0.116 C  
HETATM    7  C   UNL     1      -7.465   6.741  70.932  1.00  0.00    -0.083 C  
ENDBRANCH   3   6
BRANCH   5   8
HETATM    8  C   UNL     1      -9.882   6.608  68.244  1.00  0.00    -0.137 A  
HETATM    9  C   UNL     1      -9.364   5.694  67.323  1.00  0.00    -0.113 A  
HETATM   10  C   UNL     1      -8.931   6.119  66.064  1.00  0.00    -0.156 A  
HETATM   11  C   UNL     1      -8.585   5.114  65.004  1.00  0.00    -0.151 C  
HETATM   12  C   UNL     1      -8.859   7.488  65.797  1.00  0.00    -0.122 A  
HETATM   13  C   UNL     1      -9.255   8.420  66.761  1.00  0.00    -0.214 A  
HETATM   14  C   UNL     1      -9.784   7.980  67.979  1.00  0.00    -0.184 A  
ENDBRANCH   5   8
ENDBRANCH   2   3
TORSDOF 3
ENDMDL
MODEL      233
REMARK 921   NORMALIZED FREE ENERGY PREDICTED BY IDOCK:   -2.23 KCAL/MOL
REMARK 922        TOTAL FREE ENERGY PREDICTED BY IDOCK:   -2.80 KCAL/MOL
REMARK 923 INTER-LIGAND FREE ENERGY PREDICTED BY IDOCK:   -2.64 KCAL/MOL
REMARK 924 INTRA-LIGAND FREE ENERGY PREDICTED BY IDOCK:   -0.16 KCAL/MOL
REMARK 927      BINDING AFFINITY PREDICTED BY RF-SCORE:    0.00 PKD
ROOT
HETATM    1  C   UNL     1      -5.365   6.370  72.268  1.00  0.00    -0.032 C  
HETATM    2  C   UNL     1      -6.452   5.307  72.196  1.00  0.00    -0.043 C  
ENDROOT
BRANCH   2   3
HETATM    3  N   UNL     1      -7.754   5.853  71.809  1.00  0.00    -0.100 N  
HETATM    4  O   UNL     1      -8.006   6.751  73.929  1.00  0.00    -0.107 OA 
HETATM    5  C   UNL     1      -8.406   6.654  72.769  1.00  0.00    -0.118 C  
BRANCH   3   6
HETATM    6  C   UNL     1      -8.200   5.682  70.419  1.00  0.00    -0.105 C  
HETATM    7  C   UNL     1      -8.259   4.267  69.868  1.00  0.00    -0.069 C  
ENDBRANCH   3   6
BRANCH   5   8
HETATM    8  C   UNL     1      -9.644   7.414  72.417  1.00  0.00    -0.192 A  
HETATM    9  C   UNL     1      -9.602   8.648  71.764  1.00  0.00    -0.360 A  
HETATM   10  C   UNL     1     -10.774   9.242  71.287  1.00  0.00    -0.422 A  
HETATM   11  C   UNL     1     -10.703  10.448  70.398  1.00  0.00    -0.186 C  
HETATM   12  C   UNL     1     -12.007   8.675  71.620  1.00  0.00    -0.388 A  
HETATM   13  C   UNL     1     -12.065   7.506  72.385  1.00  0.00    -0.216 A  
HETATM   14  C   UNL     1     -10.883   6.865  72.770  1.00  0.00    -0.305 A  
ENDBRANCH   5   8
ENDBRANCH   2   3
TORSDOF 3
ENDMDL
MODEL      234
REMARK 921   NORMALIZED FREE ENERGY PREDICTED BY IDOCK:   -2.16 KCAL/MOL
REMARK 922        TOTAL FREE ENERGY PREDICTED BY IDOCK:   -2.72 KCAL/MOL
REMARK 923 INTER-LIGAND FREE ENERGY PREDICTED BY IDOCK:   -2.41 KCAL/MOL
REMARK 924 INTRA-LIGAND FREE ENERGY PREDICTED BY IDOCK:   -0.31 KCAL/MOL
REMARK 927      BINDING AFFINITY PREDICTED BY RF-SCORE:    0.00 PKD
ROOT
HETATM    1  C   UNL     1     -11.716   1.490  72.770  1.00  0.00     0.127 C  
HETATM    2  C   UNL     1     -10.659   2.257  73.552  1.00  0.00    -0.145 C  
ENDROOT
BRANCH   2   3
HETATM    3  N   UNL     1     -10.189   3.453  72.848  1.00  0.00    -0.158 N  
HETATM    4  O   UNL     1     -12.067   4.607  73.561  1.00  0.00     0.002 OA 
HETATM    5  C   UNL     1     -10.965   4.619  73.013  1.00  0.00    -0.251 C  
BRANCH   3   6
HETATM    6  C   UNL     1      -8.880   3.405  72.182  1.00  0.00    -0.094 C  
HETATM    7  C   UNL     1      -8.835   2.883  70.756  1.00  0.00    -0.147 C  
ENDBRANCH   3   6
BRANCH   5   8
HETATM    8  C   UNL     1     -10.482   5.936  72.499  1.00  0.00    -0.238 A  
HETATM    9  C   UNL     1     -10.732   6.366  71.194  1.00  0.00    -0.293 A  
HETATM   10  C   UNL     1     -10.429   7.674  70.803  1.00  0.00    -0.211 A  
HETATM   11  C   UNL     1     -10.899   8.195  69.478  1.00  0.00    -0.128 C  
HETATM   12  C   UNL     1      -9.715   8.495  71.679  1.00  0.00    -0.322 A  
HETATM   13  C   UNL     1      -9.346   8.029  72.945  1.00  0.00    -0.338 A  
HETATM   14  C   UNL     1      -9.744   6.755  73.362  1.00  0.00    -0.216 A  
ENDBRANCH   5   8
ENDBRANCH   2   3
TORSDOF 3
ENDMDL
MODEL      235
REMARK 921   NORMALIZED FREE ENERGY PREDICTED BY IDOCK:   -2.15 KCAL/MOL
REMARK 922        TOTAL FREE ENERGY PREDICTED BY IDOCK:   -2.71 KCAL/MOL
REMARK 923 INTER-LIGAND FREE ENERGY PREDICTED BY IDOCK:   -2.30 KCAL/MOL
REMARK 924 INTRA-LIGAND FREE ENERGY PREDICTED BY IDOCK:   -0.41 KCAL/MOL
REMARK 927      BINDING AFFINITY PREDICTED BY RF-SCORE:    0.00 PKD
ROOT
HETATM    1  C   UNL     1      -9.494   8.341  66.500  1.00  0.00    -0.284 C  
HETATM    2  C   UNL     1      -9.460   6.881  66.931  1.00  0.00    -0.158 C  
ENDROOT
BRANCH   2   3
HETATM    3  N   UNL     1      -9.154   6.718  68.354  1.00  0.00    -0.127 N  
HETATM    4  O   UNL     1     -11.414   6.518  68.816  1.00  0.00    -0.241 OA 
HETATM    5  C   UNL     1     -10.248   6.447  69.201  1.00  0.00    -0.182 C  
BRANCH   3   6
HETATM    6  C   UNL     1      -7.743   6.670  68.766  1.00  0.00    -0.109 C  
HETATM    7  C   UNL     1      -7.105   7.966  69.237  1.00  0.00    -0.071 C  
ENDBRANCH   3   6
BRANCH   5   8
HETATM    8  C   UNL     1     -10.033   6.077  70.633  1.00  0.00    -0.232 A  
HETATM    9  C   UNL     1      -9.887   7.035  71.638  1.00  0.00    -0.169 A  
HETATM   10  C   UNL     1      -9.872   6.659  72.985  1.00  0.00    -0.184 A  
HETATM   11  C   UNL     1      -9.939   7.702  74.062  1.00  0.00     0.141 C  
HETATM   12  C   UNL     1      -9.830   5.301  73.310  1.00  0.00    -0.178 A  
HETATM   13  C   UNL     1      -9.846   4.331  72.303  1.00  0.00    -0.227 A  
HETATM   14  C   UNL     1      -9.965   4.718  70.964  1.00  0.00    -0.279 A  
ENDBRANCH   5   8
ENDBRANCH   2   3
TORSDOF 3
ENDMDL
MODEL      236
REMARK 921   NORMALIZED FREE ENERGY PREDICTED BY IDOCK:   -2.14 KCAL/MOL
REMARK 922        TOTAL FREE ENERGY PREDICTED BY IDOCK:   -2.70 KCAL/MOL
REMARK 923 INTER-LIGAND FREE ENERGY PREDICTED BY IDOCK:   -2.42 KCAL/MOL
REMARK 924 INTRA-LIGAND FREE ENERGY PREDICTED BY IDOCK:   -0.28 KCAL/MOL
REMARK 927      BINDING AFFINITY PREDICTED BY RF-SCORE:    0.00 PKD
ROOT
HETATM    1  C   UNL     1     -12.015   2.832  73.363  1.00  0.00     0.191 C  
HETATM    2  C   UNL     1     -10.546   3.219  73.463  1.00  0.00    -0.195 C  
ENDROOT
BRANCH   2   3
HETATM    3  N   UNL     1     -10.189   4.323  72.570  1.00  0.00    -0.171 N  
HETATM    4  O   UNL     1      -9.055   2.844  71.196  1.00  0.00    -0.091 OA 
HETATM    5  C   UNL     1      -9.497   3.975  71.392  1.00  0.00    -0.160 C  
BRANCH   3   6
HETATM    6  C   UNL     1     -10.718   5.662  72.866  1.00  0.00    -0.248 C  
HETATM    7  C   UNL     1     -11.957   6.112  72.110  1.00  0.00    -0.314 C  
ENDBRANCH   3   6
BRANCH   5   8
HETATM    8  C   UNL     1      -9.250   4.989  70.323  1.00  0.00    -0.190 A  
HETATM    9  C   UNL     1     -10.122   5.169  69.247  1.00  0.00    -0.283 A  
HETATM   10  C   UNL     1      -9.960   6.245  68.370  1.00  0.00    -0.156 A  
HETATM   11  C   UNL     1     -11.020   6.560  67.356  1.00  0.00    -0.458 C  
HETATM   12  C   UNL     1      -8.817   7.040  68.475  1.00  0.00    -0.124 A  
HETATM   13  C   UNL     1      -7.868   6.789  69.471  1.00  0.00    -0.113 A  
HETATM   14  C   UNL     1      -8.093   5.774  70.407  1.00  0.00    -0.106 A  
ENDBRANCH   5   8
ENDBRANCH   2   3
TORSDOF 3
ENDMDL
MODEL      237
REMARK 921   NORMALIZED FREE ENERGY PREDICTED BY IDOCK:   -2.12 KCAL/MOL
REMARK 922        TOTAL FREE ENERGY PREDICTED BY IDOCK:   -2.67 KCAL/MOL
REMARK 923 INTER-LIGAND FREE ENERGY PREDICTED BY IDOCK:   -2.29 KCAL/MOL
REMARK 924 INTRA-LIGAND FREE ENERGY PREDICTED BY IDOCK:   -0.38 KCAL/MOL
REMARK 927      BINDING AFFINITY PREDICTED BY RF-SCORE:    0.00 PKD
ROOT
HETATM    1  C   UNL     1     -10.107   2.347  72.438  1.00  0.00    -0.230 C  
HETATM    2  C   UNL     1      -8.942   3.326  72.453  1.00  0.00    -0.091 C  
ENDROOT
BRANCH   2   3
HETATM    3  N   UNL     1      -9.185   4.511  71.627  1.00  0.00    -0.130 N  
HETATM    4  O   UNL     1      -7.924   5.788  73.091  1.00  0.00    -0.109 OA 
HETATM    5  C   UNL     1      -8.526   5.693  72.022  1.00  0.00    -0.126 C  
BRANCH   3   6
HETATM    6  C   UNL     1      -9.937   4.349  70.375  1.00  0.00    -0.183 C  
HETATM    7  C   UNL     1      -9.163   3.922  69.139  1.00  0.00    -0.222 C  
ENDBRANCH   3   6
BRANCH   5   8
HETATM    8  C   UNL     1      -8.550   6.908  71.152  1.00  0.00    -0.131 A  
HETATM    9  C   UNL     1      -9.650   7.767  71.099  1.00  0.00    -0.174 A  
HETATM   10  C   UNL     1      -9.570   8.987  70.421  1.00  0.00    -0.246 A  
HETATM   11  C   UNL     1     -10.671   9.998  70.553  1.00  0.00    -0.352 C  
HETATM   12  C   UNL     1      -8.438   9.262  69.651  1.00  0.00    -0.140 A  
HETATM   13  C   UNL     1      -7.381   8.349  69.593  1.00  0.00    -0.072 A  
HETATM   14  C   UNL     1      -7.429   7.179  70.358  1.00  0.00    -0.084 A  
ENDBRANCH   5   8
ENDBRANCH   2   3
TORSDOF 3
ENDMDL
MODEL      238
REMARK 921   NORMALIZED FREE ENERGY PREDICTED BY IDOCK:   -2.11 KCAL/MOL
REMARK 922        TOTAL FREE ENERGY PREDICTED BY IDOCK:   -2.66 KCAL/MOL
REMARK 923 INTER-LIGAND FREE ENERGY PREDICTED BY IDOCK:   -2.66 KCAL/MOL
REMARK 924 INTRA-LIGAND FREE ENERGY PREDICTED BY IDOCK:    0.00 KCAL/MOL
REMARK 927      BINDING AFFINITY PREDICTED BY RF-SCORE:    0.00 PKD
ROOT
HETATM    1  C   UNL     1      -6.810   6.774  69.458  1.00  0.00    -0.054 C  
HETATM    2  C   UNL     1      -6.857   6.741  67.937  1.00  0.00    -0.077 C  
ENDROOT
BRANCH   2   3
HETATM    3  N   UNL     1      -7.970   7.518  67.388  1.00  0.00    -0.114 N  
HETATM    4  O   UNL     1      -6.745   9.465  67.661  1.00  0.00    -0.066 OA 
HETATM    5  C   UNL     1      -7.743   8.899  67.216  1.00  0.00    -0.092 C  
BRANCH   3   6
HETATM    6  C   UNL     1      -9.154   6.797  66.898  1.00  0.00    -0.137 C  
HETATM    7  C   UNL     1     -10.441   6.935  67.694  1.00  0.00    -0.290 C  
ENDBRANCH   3   6
BRANCH   5   8
HETATM    8  C   UNL     1      -8.734   9.752  66.493  1.00  0.00    -0.139 A  
HETATM    9  C   UNL     1      -9.391  10.821  67.108  1.00  0.00    -0.171 A  
HETATM   10  C   UNL     1     -10.167  11.708  66.358  1.00  0.00    -0.256 A  
HETATM   11  C   UNL     1     -10.685  12.971  66.979  1.00  0.00    -0.270 C  
HETATM   12  C   UNL     1     -10.423  11.418  65.015  1.00  0.00    -0.361 A  
HETATM   13  C   UNL     1      -9.874  10.278  64.420  1.00  0.00    -0.374 A  
HETATM   14  C   UNL     1      -9.015   9.454  65.154  1.00  0.00    -0.258 A  
ENDBRANCH   5   8
ENDBRANCH   2   3
TORSDOF 3
ENDMDL
MODEL      239
REMARK 921   NORMALIZED FREE ENERGY PREDICTED BY IDOCK:   -2.10 KCAL/MOL
REMARK 922        TOTAL FREE ENERGY PREDICTED BY IDOCK:   -2.65 KCAL/MOL
REMARK 923 INTER-LIGAND FREE ENERGY PREDICTED BY IDOCK:   -2.43 KCAL/MOL
REMARK 924 INTRA-LIGAND FREE ENERGY PREDICTED BY IDOCK:   -0.22 KCAL/MOL
REMARK 927      BINDING AFFINITY PREDICTED BY RF-SCORE:    0.00 PKD
ROOT
HETATM    1  C   UNL     1      -6.994   9.062  71.280  1.00  0.00    -0.089 C  
HETATM    2  C   UNL     1      -8.014   9.622  70.298  1.00  0.00    -0.179 C  
ENDROOT
BRANCH   2   3
HETATM    3  N   UNL     1      -8.835   8.581  69.678  1.00  0.00    -0.136 N  
HETATM    4  O   UNL     1      -7.198   8.247  68.074  1.00  0.00    -0.090 OA 
HETATM    5  C   UNL     1      -8.254   7.890  68.594  1.00  0.00    -0.127 C  
BRANCH   3   6
HETATM    6  C   UNL     1     -10.104   8.213  70.321  1.00  0.00    -0.192 C  
HETATM    7  C   UNL     1     -10.556   9.043  71.511  1.00  0.00    -0.415 C  
ENDBRANCH   3   6
BRANCH   5   8
HETATM    8  C   UNL     1      -8.920   6.688  68.009  1.00  0.00    -0.117 A  
HETATM    9  C   UNL     1      -8.642   5.391  68.448  1.00  0.00    -0.095 A  
HETATM   10  C   UNL     1      -9.412   4.310  68.012  1.00  0.00    -0.212 A  
HETATM   11  C   UNL     1      -9.254   2.962  68.652  1.00  0.00    -0.233 C  
HETATM   12  C   UNL     1     -10.353   4.511  66.999  1.00  0.00    -0.024 A  
HETATM   13  C   UNL     1     -10.550   5.786  66.459  1.00  0.00    -0.294 A  
HETATM   14  C   UNL     1      -9.846   6.878  66.976  1.00  0.00    -0.228 A  
ENDBRANCH   5   8
ENDBRANCH   2   3
TORSDOF 3
ENDMDL
MODEL      240
REMARK 921   NORMALIZED FREE ENERGY PREDICTED BY IDOCK:   -2.08 KCAL/MOL
REMARK 922        TOTAL FREE ENERGY PREDICTED BY IDOCK:   -2.62 KCAL/MOL
REMARK 923 INTER-LIGAND FREE ENERGY PREDICTED BY IDOCK:   -2.30 KCAL/MOL
REMARK 924 INTRA-LIGAND FREE ENERGY PREDICTED BY IDOCK:   -0.32 KCAL/MOL
REMARK 927      BINDING AFFINITY PREDICTED BY RF-SCORE:    0.00 PKD
ROOT
HETATM    1  C   UNL     1      -5.443   9.466  71.096  1.00  0.00    -0.055 C  
HETATM    2  C   UNL     1      -6.370   8.757  72.073  1.00  0.00    -0.068 C  
ENDROOT
BRANCH   2   3
HETATM    3  N   UNL     1      -7.309   7.850  71.408  1.00  0.00    -0.063 N  
HETATM    4  O   UNL     1      -8.726   9.632  70.983  1.00  0.00    -0.208 OA 
HETATM    5  C   UNL     1      -8.438   8.448  70.811  1.00  0.00    -0.139 C  
BRANCH   3   6
HETATM    6  C   UNL     1      -6.930   6.438  71.256  1.00  0.00    -0.075 C  
HETATM    7  C   UNL     1      -5.967   6.085  70.135  1.00  0.00    -0.025 C  
ENDBRANCH   3   6
BRANCH   5   8
HETATM    8  C   UNL     1      -9.359   7.649  69.948  1.00  0.00    -0.150 A  
HETATM    9  C   UNL     1      -9.212   7.582  68.560  1.00  0.00    -0.143 A  
HETATM   10  C   UNL     1      -9.971   6.684  67.805  1.00  0.00    -0.158 A  
HETATM   11  C   UNL     1      -9.656   6.458  66.356  1.00  0.00    -0.156 C  
HETATM   12  C   UNL     1     -11.002   5.975  68.428  1.00  0.00    -0.340 A  
HETATM   13  C   UNL     1     -11.242   6.132  69.797  1.00  0.00    -0.494 A  
HETATM   14  C   UNL     1     -10.409   6.956  70.561  1.00  0.00    -0.224 A  
ENDBRANCH   5   8
ENDBRANCH   2   3
TORSDOF 3
ENDMDL
MODEL      241
REMARK 921   NORMALIZED FREE ENERGY PREDICTED BY IDOCK:   -2.06 KCAL/MOL
REMARK 922        TOTAL FREE ENERGY PREDICTED BY IDOCK:   -2.61 KCAL/MOL
REMARK 923 INTER-LIGAND FREE ENERGY PREDICTED BY IDOCK:   -2.31 KCAL/MOL
REMARK 924 INTRA-LIGAND FREE ENERGY PREDICTED BY IDOCK:   -0.30 KCAL/MOL
REMARK 927      BINDING AFFINITY PREDICTED BY RF-SCORE:    0.00 PKD
ROOT
HETATM    1  C   UNL     1      -6.326   8.235  66.911  1.00  0.00    -0.056 C  
HETATM    2  C   UNL     1      -6.973   6.878  66.678  1.00  0.00    -0.063 C  
ENDROOT
BRANCH   2   3
HETATM    3  N   UNL     1      -8.026   6.577  67.651  1.00  0.00    -0.113 N  
HETATM    4  O   UNL     1      -6.418   5.972  69.204  1.00  0.00    -0.039 OA 
HETATM    5  C   UNL     1      -7.596   6.208  68.942  1.00  0.00    -0.092 C  
BRANCH   3   6
HETATM    6  C   UNL     1      -9.422   6.847  67.277  1.00  0.00    -0.137 C  
HETATM    7  C   UNL     1     -10.212   5.714  66.644  1.00  0.00    -0.276 C  
ENDBRANCH   3   6
BRANCH   5   8
HETATM    8  C   UNL     1      -8.576   6.063  70.061  1.00  0.00    -0.131 A  
HETATM    9  C   UNL     1      -8.879   7.114  70.929  1.00  0.00    -0.150 A  
HETATM   10  C   UNL     1      -9.930   7.004  71.844  1.00  0.00    -0.179 A  
HETATM   11  C   UNL     1     -10.392   8.205  72.615  1.00  0.00    -0.398 C  
HETATM   12  C   UNL     1     -10.565   5.769  72.003  1.00  0.00    -0.276 A  
HETATM   13  C   UNL     1     -10.181   4.671  71.227  1.00  0.00    -0.205 A  
HETATM   14  C   UNL     1      -9.199   4.822  70.242  1.00  0.00    -0.191 A  
ENDBRANCH   5   8
ENDBRANCH   2   3
TORSDOF 3
ENDMDL
MODEL      242
REMARK 921   NORMALIZED FREE ENERGY PREDICTED BY IDOCK:   -2.05 KCAL/MOL
REMARK 922        TOTAL FREE ENERGY PREDICTED BY IDOCK:   -2.60 KCAL/MOL
REMARK 923 INTER-LIGAND FREE ENERGY PREDICTED BY IDOCK:   -2.26 KCAL/MOL
REMARK 924 INTRA-LIGAND FREE ENERGY PREDICTED BY IDOCK:   -0.34 KCAL/MOL
REMARK 927      BINDING AFFINITY PREDICTED BY RF-SCORE:    0.00 PKD
ROOT
HETATM    1  C   UNL     1      -5.135  10.281  71.216  1.00  0.00    -0.082 C  
HETATM    2  C   UNL     1      -5.834   9.213  72.045  1.00  0.00    -0.059 C  
ENDROOT
BRANCH   2   3
HETATM    3  N   UNL     1      -6.827   8.459  71.277  1.00  0.00    -0.058 N  
HETATM    4  O   UNL     1      -6.927   6.875  72.964  1.00  0.00    -0.074 OA 
HETATM    5  C   UNL     1      -7.374   7.323  71.909  1.00  0.00    -0.080 C  
BRANCH   3   6
HETATM    6  C   UNL     1      -7.305   9.023  70.007  1.00  0.00    -0.060 C  
HETATM    7  C   UNL     1      -8.597   9.823  70.035  1.00  0.00    -0.229 C  
ENDBRANCH   3   6
BRANCH   5   8
HETATM    8  C   UNL     1      -8.526   6.591  71.301  1.00  0.00    -0.126 A  
HETATM    9  C   UNL     1      -9.852   6.870  71.641  1.00  0.00    -0.173 A  
HETATM   10  C   UNL     1     -10.907   6.300  70.923  1.00  0.00    -0.329 A  
HETATM   11  C   UNL     1     -12.314   6.771  71.145  1.00  0.00    -0.386 C  
HETATM   12  C   UNL     1     -10.628   5.314  69.973  1.00  0.00    -0.300 A  
HETATM   13  C   UNL     1      -9.307   4.933  69.715  1.00  0.00    -0.200 A  
HETATM   14  C   UNL     1      -8.254   5.584  70.366  1.00  0.00    -0.104 A  
ENDBRANCH   5   8
ENDBRANCH   2   3
TORSDOF 3
ENDMDL
MODEL      243
REMARK 921   NORMALIZED FREE ENERGY PREDICTED BY IDOCK:   -2.04 KCAL/MOL
REMARK 922        TOTAL FREE ENERGY PREDICTED BY IDOCK:   -2.58 KCAL/MOL
REMARK 923 INTER-LIGAND FREE ENERGY PREDICTED BY IDOCK:   -2.20 KCAL/MOL
REMARK 924 INTRA-LIGAND FREE ENERGY PREDICTED BY IDOCK:   -0.37 KCAL/MOL
REMARK 927      BINDING AFFINITY PREDICTED BY RF-SCORE:    0.00 PKD
ROOT
HETATM    1  C   UNL     1      -5.863  10.413  63.544  1.00  0.00    -0.134 C  
HETATM    2  C   UNL     1      -6.770   9.192  63.484  1.00  0.00    -0.090 C  
ENDROOT
BRANCH   2   3
HETATM    3  N   UNL     1      -7.703   9.123  64.611  1.00  0.00    -0.109 N  
HETATM    4  O   UNL     1      -7.091   6.920  64.980  1.00  0.00    -0.059 OA 
HETATM    5  C   UNL     1      -7.700   7.923  65.350  1.00  0.00    -0.097 C  
BRANCH   3   6
HETATM    6  C   UNL     1      -8.430  10.342  64.993  1.00  0.00    -0.172 C  
HETATM    7  C   UNL     1      -9.530  10.826  64.062  1.00  0.00    -0.312 C  
ENDBRANCH   3   6
BRANCH   5   8
HETATM    8  C   UNL     1      -8.469   7.811  66.627  1.00  0.00    -0.129 A  
HETATM    9  C   UNL     1      -7.933   8.194  67.858  1.00  0.00    -0.127 A  
HETATM   10  C   UNL     1      -8.738   8.250  69.000  1.00  0.00    -0.143 A  
HETATM   11  C   UNL     1      -8.217   8.871  70.262  1.00  0.00    -0.134 C  
HETATM   12  C   UNL     1     -10.042   7.753  68.936  1.00  0.00    -0.201 A  
HETATM   13  C   UNL     1     -10.549   7.246  67.736  1.00  0.00    -0.289 A  
HETATM   14  C   UNL     1      -9.769   7.290  66.576  1.00  0.00    -0.207 A  
ENDBRANCH   5   8
ENDBRANCH   2   3
TORSDOF 3
ENDMDL
MODEL      244
REMARK 921   NORMALIZED FREE ENERGY PREDICTED BY IDOCK:   -2.02 KCAL/MOL
REMARK 922        TOTAL FREE ENERGY PREDICTED BY IDOCK:   -2.56 KCAL/MOL
REMARK 923 INTER-LIGAND FREE ENERGY PREDICTED BY IDOCK:   -2.44 KCAL/MOL
REMARK 924 INTRA-LIGAND FREE ENERGY PREDICTED BY IDOCK:   -0.12 KCAL/MOL
REMARK 927      BINDING AFFINITY PREDICTED BY RF-SCORE:    0.00 PKD
ROOT
HETATM    1  C   UNL     1     -10.999   3.587  73.376  1.00  0.00    -0.308 C  
HETATM    2  C   UNL     1      -9.526   3.934  73.216  1.00  0.00    -0.111 C  
ENDROOT
BRANCH   2   3
HETATM    3  N   UNL     1      -9.314   5.178  72.471  1.00  0.00    -0.135 N  
HETATM    4  O   UNL     1      -9.468   4.009  70.478  1.00  0.00    -0.145 OA 
HETATM    5  C   UNL     1      -9.400   5.087  71.067  1.00  0.00    -0.152 C  
BRANCH   3   6
HETATM    6  C   UNL     1      -9.208   6.435  73.225  1.00  0.00    -0.127 C  
HETATM    7  C   UNL     1     -10.397   6.848  74.075  1.00  0.00    -0.355 C  
ENDBRANCH   3   6
BRANCH   5   8
HETATM    8  C   UNL     1      -9.389   6.318  70.220  1.00  0.00    -0.170 A  
HETATM    9  C   UNL     1      -8.257   6.727  69.511  1.00  0.00    -0.131 A  
HETATM   10  C   UNL     1      -8.334   7.774  68.588  1.00  0.00    -0.129 A  
HETATM   11  C   UNL     1      -7.180   8.062  67.673  1.00  0.00    -0.091 C  
HETATM   12  C   UNL     1      -9.511   8.521  68.505  1.00  0.00    -0.146 A  
HETATM   13  C   UNL     1     -10.611   8.200  69.306  1.00  0.00    -0.191 A  
HETATM   14  C   UNL     1     -10.557   7.087  70.151  1.00  0.00    -0.249 A  
ENDBRANCH   5   8
ENDBRANCH   2   3
TORSDOF 3
ENDMDL
MODEL      245
REMARK 921   NORMALIZED FREE ENERGY PREDICTED BY IDOCK:   -1.97 KCAL/MOL
REMARK 922        TOTAL FREE ENERGY PREDICTED BY IDOCK:   -2.50 KCAL/MOL
REMARK 923 INTER-LIGAND FREE ENERGY PREDICTED BY IDOCK:   -3.15 KCAL/MOL
REMARK 924 INTRA-LIGAND FREE ENERGY PREDICTED BY IDOCK:    0.65 KCAL/MOL
REMARK 927      BINDING AFFINITY PREDICTED BY RF-SCORE:    0.00 PKD
ROOT
HETATM    1  C   UNL     1      -7.425   9.170  65.285  1.00  0.00    -0.097 C  
HETATM    2  C   UNL     1      -8.795   8.521  65.420  1.00  0.00    -0.130 C  
ENDROOT
BRANCH   2   3
HETATM    3  N   UNL     1      -9.477   8.891  66.663  1.00  0.00    -0.184 N  
HETATM    4  O   UNL     1      -8.373   7.186  67.775  1.00  0.00    -0.117 OA 
HETATM    5  C   UNL     1      -9.097   8.179  67.819  1.00  0.00    -0.135 C  
BRANCH   3   6
HETATM    6  C   UNL     1     -10.357  10.069  66.655  1.00  0.00    -0.213 C  
HETATM    7  C   UNL     1      -9.733  11.410  66.308  1.00  0.00    -0.239 C  
ENDBRANCH   3   6
BRANCH   5   8
HETATM    8  C   UNL     1      -9.586   8.597  69.168  1.00  0.00    -0.163 A  
HETATM    9  C   UNL     1     -10.712   9.407  69.337  1.00  0.00    -0.234 A  
HETATM   10  C   UNL     1     -11.248   9.626  70.609  1.00  0.00    -0.385 A  
HETATM   11  C   UNL     1     -12.576  10.307  70.763  1.00  0.00    -0.442 C  
HETATM   12  C   UNL     1     -10.547   9.170  71.729  1.00  0.00    -0.383 A  
HETATM   13  C   UNL     1      -9.348   8.468  71.576  1.00  0.00    -0.289 A  
HETATM   14  C   UNL     1      -8.875   8.166  70.295  1.00  0.00    -0.141 A  
ENDBRANCH   5   8
ENDBRANCH   2   3
TORSDOF 3
ENDMDL
MODEL      246
REMARK 921   NORMALIZED FREE ENERGY PREDICTED BY IDOCK:   -1.95 KCAL/MOL
REMARK 922        TOTAL FREE ENERGY PREDICTED BY IDOCK:   -2.48 KCAL/MOL
REMARK 923 INTER-LIGAND FREE ENERGY PREDICTED BY IDOCK:   -2.08 KCAL/MOL
REMARK 924 INTRA-LIGAND FREE ENERGY PREDICTED BY IDOCK:   -0.40 KCAL/MOL
REMARK 927      BINDING AFFINITY PREDICTED BY RF-SCORE:    0.00 PKD
ROOT
HETATM    1  C   UNL     1      -6.230  10.628  70.421  1.00  0.00    -0.129 C  
HETATM    2  C   UNL     1      -6.439   9.368  71.249  1.00  0.00    -0.037 C  
ENDROOT
BRANCH   2   3
HETATM    3  N   UNL     1      -7.570   8.564  70.782  1.00  0.00    -0.066 N  
HETATM    4  O   UNL     1      -6.132   7.296  69.484  1.00  0.00    -0.029 OA 
HETATM    5  C   UNL     1      -7.258   7.472  69.948  1.00  0.00    -0.080 C  
BRANCH   3   6
HETATM    6  C   UNL     1      -8.901   8.835  71.345  1.00  0.00    -0.225 C  
HETATM    7  C   UNL     1      -9.189   8.324  72.747  1.00  0.00    -0.336 C  
ENDBRANCH   3   6
BRANCH   5   8
HETATM    8  C   UNL     1      -8.306   6.476  69.568  1.00  0.00    -0.130 A  
HETATM    9  C   UNL     1      -9.131   6.649  68.454  1.00  0.00    -0.124 A  
HETATM   10  C   UNL     1      -9.970   5.618  68.021  1.00  0.00    -0.178 A  
HETATM   11  C   UNL     1     -10.683   5.724  66.706  1.00  0.00    -0.369 C  
HETATM   12  C   UNL     1     -10.105   4.475  68.814  1.00  0.00    -0.033 A  
HETATM   13  C   UNL     1      -9.378   4.347  70.002  1.00  0.00    -0.227 A  
HETATM   14  C   UNL     1      -8.465   5.340  70.370  1.00  0.00    -0.116 A  
ENDBRANCH   5   8
ENDBRANCH   2   3
TORSDOF 3
ENDMDL
MODEL      247
REMARK 921   NORMALIZED FREE ENERGY PREDICTED BY IDOCK:   -1.88 KCAL/MOL
REMARK 922        TOTAL FREE ENERGY PREDICTED BY IDOCK:   -2.39 KCAL/MOL
REMARK 923 INTER-LIGAND FREE ENERGY PREDICTED BY IDOCK:   -2.23 KCAL/MOL
REMARK 924 INTRA-LIGAND FREE ENERGY PREDICTED BY IDOCK:   -0.16 KCAL/MOL
REMARK 927      BINDING AFFINITY PREDICTED BY RF-SCORE:    0.00 PKD
ROOT
HETATM    1  C   UNL     1     -11.139   2.098  73.409  1.00  0.00    -0.299 C  
HETATM    2  C   UNL     1      -9.881   2.794  73.907  1.00  0.00    -0.099 C  
ENDROOT
BRANCH   2   3
HETATM    3  N   UNL     1      -9.818   4.203  73.511  1.00  0.00    -0.116 N  
HETATM    4  O   UNL     1      -7.727   3.847  72.580  1.00  0.00    -0.075 OA 
HETATM    5  C   UNL     1      -8.693   4.589  72.754  1.00  0.00    -0.113 C  
BRANCH   3   6
HETATM    6  C   UNL     1     -10.987   5.055  73.770  1.00  0.00    -0.269 C  
HETATM    7  C   UNL     1     -11.875   5.409  72.589  1.00  0.00    -0.145 C  
ENDBRANCH   3   6
BRANCH   5   8
HETATM    8  C   UNL     1      -8.617   5.949  72.139  1.00  0.00    -0.129 A  
HETATM    9  C   UNL     1      -8.915   6.178  70.793  1.00  0.00    -0.145 A  
HETATM   10  C   UNL     1      -9.014   7.480  70.296  1.00  0.00    -0.147 A  
HETATM   11  C   UNL     1      -9.548   7.725  68.916  1.00  0.00    -0.154 C  
HETATM   12  C   UNL     1      -8.642   8.549  71.115  1.00  0.00    -0.207 A  
HETATM   13  C   UNL     1      -8.217   8.321  72.427  1.00  0.00    -0.214 A  
HETATM   14  C   UNL     1      -8.221   7.022  72.946  1.00  0.00    -0.119 A  
ENDBRANCH   5   8
ENDBRANCH   2   3
TORSDOF 3
ENDMDL
MODEL      248
REMARK 921   NORMALIZED FREE ENERGY PREDICTED BY IDOCK:   -1.87 KCAL/MOL
REMARK 922        TOTAL FREE ENERGY PREDICTED BY IDOCK:   -2.38 KCAL/MOL
REMARK 923 INTER-LIGAND FREE ENERGY PREDICTED BY IDOCK:   -2.41 KCAL/MOL
REMARK 924 INTRA-LIGAND FREE ENERGY PREDICTED BY IDOCK:    0.03 KCAL/MOL
REMARK 927      BINDING AFFINITY PREDICTED BY RF-SCORE:    0.00 PKD
ROOT
HETATM    1  C   UNL     1      -6.749   9.116  68.834  1.00  0.00    -0.052 C  
HETATM    2  C   UNL     1      -6.813   7.786  69.571  1.00  0.00    -0.047 C  
ENDROOT
BRANCH   2   3
HETATM    3  N   UNL     1      -8.032   7.637  70.368  1.00  0.00    -0.096 N  
HETATM    4  O   UNL     1      -8.731   5.922  68.977  1.00  0.00    -0.113 OA 
HETATM    5  C   UNL     1      -8.890   6.578  70.006  1.00  0.00    -0.144 C  
BRANCH   3   6
HETATM    6  C   UNL     1      -8.188   8.467  71.571  1.00  0.00    -0.144 C  
HETATM    7  C   UNL     1      -9.430   9.338  71.669  1.00  0.00    -0.007 C  
ENDBRANCH   3   6
BRANCH   5   8
HETATM    8  C   UNL     1     -10.061   6.216  70.861  1.00  0.00    -0.237 A  
HETATM    9  C   UNL     1      -9.999   5.206  71.824  1.00  0.00    -0.244 A  
HETATM   10  C   UNL     1     -11.048   5.019  72.729  1.00  0.00    -0.310 A  
HETATM   11  C   UNL     1     -10.884   4.088  73.894  1.00  0.00    -0.316 C  
HETATM   12  C   UNL     1     -12.233   5.736  72.552  1.00  0.00     0.006 A  
HETATM   13  C   UNL     1     -12.353   6.660  71.509  1.00  0.00    -0.365 A  
HETATM   14  C   UNL     1     -11.261   6.913  70.674  1.00  0.00    -0.346 A  
ENDBRANCH   5   8
ENDBRANCH   2   3
TORSDOF 3
ENDMDL
MODEL      249
REMARK 921   NORMALIZED FREE ENERGY PREDICTED BY IDOCK:   -1.85 KCAL/MOL
REMARK 922        TOTAL FREE ENERGY PREDICTED BY IDOCK:   -2.36 KCAL/MOL
REMARK 923 INTER-LIGAND FREE ENERGY PREDICTED BY IDOCK:   -2.79 KCAL/MOL
REMARK 924 INTRA-LIGAND FREE ENERGY PREDICTED BY IDOCK:    0.43 KCAL/MOL
REMARK 927      BINDING AFFINITY PREDICTED BY RF-SCORE:    0.00 PKD
ROOT
HETATM    1  C   UNL     1     -10.372   7.652  67.074  1.00  0.00    -0.400 C  
HETATM    2  C   UNL     1     -10.341   8.280  68.460  1.00  0.00    -0.199 C  
ENDROOT
BRANCH   2   3
HETATM    3  N   UNL     1     -10.123   9.728  68.421  1.00  0.00    -0.160 N  
HETATM    4  O   UNL     1      -7.835   9.385  68.542  1.00  0.00    -0.088 OA 
HETATM    5  C   UNL     1      -8.780  10.156  68.377  1.00  0.00    -0.123 C  
BRANCH   3   6
HETATM    6  C   UNL     1     -11.288  10.608  68.254  1.00  0.00    -0.289 C  
HETATM    7  C   UNL     1     -12.160  10.859  69.472  1.00  0.00    -0.380 C  
ENDBRANCH   3   6
BRANCH   5   8
HETATM    8  C   UNL     1      -8.443  11.593  68.146  1.00  0.00    -0.156 A  
HETATM    9  C   UNL     1      -9.338  12.483  67.546  1.00  0.00    -0.187 A  
HETATM   10  C   UNL     1      -9.066  13.853  67.512  1.00  0.00    -0.201 A  
HETATM   11  C   UNL     1     -10.122  14.823  67.071  1.00  0.00    -0.245 C  
HETATM   12  C   UNL     1      -7.812  14.307  67.929  1.00  0.00    -0.156 A  
HETATM   13  C   UNL     1      -6.858  13.406  68.412  1.00  0.00    -0.102 A  
HETATM   14  C   UNL     1      -7.179  12.051  68.537  1.00  0.00    -0.101 A  
ENDBRANCH   5   8
ENDBRANCH   2   3
TORSDOF 3
ENDMDL
MODEL      250
REMARK 921   NORMALIZED FREE ENERGY PREDICTED BY IDOCK:   -1.82 KCAL/MOL
REMARK 922        TOTAL FREE ENERGY PREDICTED BY IDOCK:   -2.32 KCAL/MOL
REMARK 923 INTER-LIGAND FREE ENERGY PREDICTED BY IDOCK:   -2.20 KCAL/MOL
REMARK 924 INTRA-LIGAND FREE ENERGY PREDICTED BY IDOCK:   -0.12 KCAL/MOL
REMARK 927      BINDING AFFINITY PREDICTED BY RF-SCORE:    0.00 PKD
ROOT
HETATM    1  C   UNL     1      -6.210   9.398  70.658  1.00  0.00    -0.067 C  
HETATM    2  C   UNL     1      -5.956   8.800  69.281  1.00  0.00    -0.041 C  
ENDROOT
BRANCH   2   3
HETATM    3  N   UNL     1      -7.104   8.937  68.382  1.00  0.00    -0.076 N  
HETATM    4  O   UNL     1      -6.604  11.180  68.088  1.00  0.00    -0.057 OA 
HETATM    5  C   UNL     1      -7.268  10.195  67.766  1.00  0.00    -0.087 C  
BRANCH   3   6
HETATM    6  C   UNL     1      -7.884   7.736  68.054  1.00  0.00    -0.124 C  
HETATM    7  C   UNL     1      -8.127   6.729  69.166  1.00  0.00    -0.120 C  
ENDBRANCH   3   6
BRANCH   5   8
HETATM    8  C   UNL     1      -8.287  10.392  66.691  1.00  0.00    -0.127 A  
HETATM    9  C   UNL     1      -8.014  10.134  65.346  1.00  0.00    -0.144 A  
HETATM   10  C   UNL     1      -9.038  10.150  64.394  1.00  0.00    -0.284 A  
HETATM   11  C   UNL     1      -8.783   9.658  63.000  1.00  0.00    -0.229 C  
HETATM   12  C   UNL     1     -10.307  10.597  64.771  1.00  0.00    -0.353 A  
HETATM   13  C   UNL     1     -10.559  10.983  66.091  1.00  0.00    -0.288 A  
HETATM   14  C   UNL     1      -9.554  10.864  67.056  1.00  0.00    -0.197 A  
ENDBRANCH   5   8
ENDBRANCH   2   3
TORSDOF 3
ENDMDL
MODEL      251
REMARK 921   NORMALIZED FREE ENERGY PREDICTED BY IDOCK:   -1.82 KCAL/MOL
REMARK 922        TOTAL FREE ENERGY PREDICTED BY IDOCK:   -2.32 KCAL/MOL
REMARK 923 INTER-LIGAND FREE ENERGY PREDICTED BY IDOCK:   -1.96 KCAL/MOL
REMARK 924 INTRA-LIGAND FREE ENERGY PREDICTED BY IDOCK:   -0.36 KCAL/MOL
REMARK 927      BINDING AFFINITY PREDICTED BY RF-SCORE:    0.00 PKD
ROOT
HETATM    1  C   UNL     1      -8.225  11.305  68.646  1.00  0.00    -0.146 C  
HETATM    2  C   UNL     1      -8.895   9.992  69.024  1.00  0.00    -0.159 C  
ENDROOT
BRANCH   2   3
HETATM    3  N   UNL     1      -8.453   8.870  68.193  1.00  0.00    -0.129 N  
HETATM    4  O   UNL     1     -10.391   9.037  66.936  1.00  0.00    -0.256 OA 
HETATM    5  C   UNL     1      -9.277   8.542  67.096  1.00  0.00    -0.142 C  
BRANCH   3   6
HETATM    6  C   UNL     1      -7.125   8.293  68.445  1.00  0.00    -0.081 C  
HETATM    7  C   UNL     1      -6.761   7.967  69.884  1.00  0.00    -0.037 C  
ENDBRANCH   3   6
BRANCH   5   8
HETATM    8  C   UNL     1      -8.830   7.545  66.077  1.00  0.00    -0.179 A  
HETATM    9  C   UNL     1      -9.106   6.181  66.195  1.00  0.00    -0.158 A  
HETATM   10  C   UNL     1      -8.838   5.305  65.139  1.00  0.00    -0.130 A  
HETATM   11  C   UNL     1      -9.337   3.891  65.184  1.00  0.00    -0.158 C  
HETATM   12  C   UNL     1      -8.131   5.775  64.030  1.00  0.00    -0.116 A  
HETATM   13  C   UNL     1      -7.735   7.114  63.958  1.00  0.00    -0.123 A  
HETATM   14  C   UNL     1      -8.100   8.004  64.974  1.00  0.00    -0.145 A  
ENDBRANCH   5   8
ENDBRANCH   2   3
TORSDOF 3
ENDMDL
MODEL      252
REMARK 921   NORMALIZED FREE ENERGY PREDICTED BY IDOCK:   -1.81 KCAL/MOL
REMARK 922        TOTAL FREE ENERGY PREDICTED BY IDOCK:   -2.31 KCAL/MOL
REMARK 923 INTER-LIGAND FREE ENERGY PREDICTED BY IDOCK:   -2.03 KCAL/MOL
REMARK 924 INTRA-LIGAND FREE ENERGY PREDICTED BY IDOCK:   -0.28 KCAL/MOL
REMARK 927      BINDING AFFINITY PREDICTED BY RF-SCORE:    0.00 PKD
ROOT
HETATM    1  C   UNL     1      -8.724   8.614  70.360  1.00  0.00    -0.165 C  
HETATM    2  C   UNL     1      -9.414   8.626  69.003  1.00  0.00    -0.153 C  
ENDROOT
BRANCH   2   3
HETATM    3  N   UNL     1      -9.062   7.468  68.178  1.00  0.00    -0.129 N  
HETATM    4  O   UNL     1     -10.453   6.132  69.461  1.00  0.00    -0.205 OA 
HETATM    5  C   UNL     1      -9.741   6.266  68.467  1.00  0.00    -0.129 C  
BRANCH   3   6
HETATM    6  C   UNL     1      -8.182   7.675  67.019  1.00  0.00    -0.117 C  
HETATM    7  C   UNL     1      -6.724   7.269  67.162  1.00  0.00    -0.068 C  
ENDBRANCH   3   6
BRANCH   5   8
HETATM    8  C   UNL     1      -9.602   5.077  67.573  1.00  0.00    -0.169 A  
HETATM    9  C   UNL     1     -10.408   4.890  66.447  1.00  0.00    -0.328 A  
HETATM   10  C   UNL     1     -10.132   3.869  65.533  1.00  0.00    -0.078 A  
HETATM   11  C   UNL     1     -10.858   3.811  64.222  1.00  0.00    -0.151 C  
HETATM   12  C   UNL     1      -9.147   2.929  65.844  1.00  0.00    -0.132 A  
HETATM   13  C   UNL     1      -8.419   3.032  67.034  1.00  0.00    -0.101 A  
HETATM   14  C   UNL     1      -8.634   4.116  67.890  1.00  0.00    -0.107 A  
ENDBRANCH   5   8
ENDBRANCH   2   3
TORSDOF 3
ENDMDL
MODEL      253
REMARK 921   NORMALIZED FREE ENERGY PREDICTED BY IDOCK:   -1.76 KCAL/MOL
REMARK 922        TOTAL FREE ENERGY PREDICTED BY IDOCK:   -2.26 KCAL/MOL
REMARK 923 INTER-LIGAND FREE ENERGY PREDICTED BY IDOCK:   -2.63 KCAL/MOL
REMARK 924 INTRA-LIGAND FREE ENERGY PREDICTED BY IDOCK:    0.38 KCAL/MOL
REMARK 927      BINDING AFFINITY PREDICTED BY RF-SCORE:    0.00 PKD
ROOT
HETATM    1  C   UNL     1      -6.717   3.188  66.852  1.00  0.00    -0.045 C  
HETATM    2  C   UNL     1      -8.146   3.599  66.526  1.00  0.00    -0.096 C  
ENDROOT
BRANCH   2   3
HETATM    3  N   UNL     1      -8.759   4.407  67.583  1.00  0.00    -0.103 N  
HETATM    4  O   UNL     1      -9.108   2.495  68.842  1.00  0.00    -0.108 OA 
HETATM    5  C   UNL     1      -9.127   3.722  68.759  1.00  0.00    -0.142 C  
BRANCH   3   6
HETATM    6  C   UNL     1      -8.784   5.868  67.421  1.00  0.00    -0.108 C  
HETATM    7  C   UNL     1      -7.490   6.625  67.670  1.00  0.00    -0.097 C  
ENDBRANCH   3   6
BRANCH   5   8
HETATM    8  C   UNL     1      -9.583   4.472  69.968  1.00  0.00    -0.267 A  
HETATM    9  C   UNL     1     -10.331   5.649  69.880  1.00  0.00    -0.347 A  
HETATM   10  C   UNL     1     -10.897   6.222  71.022  1.00  0.00    -0.326 A  
HETATM   11  C   UNL     1     -11.877   7.351  70.895  1.00  0.00    -0.320 C  
HETATM   12  C   UNL     1     -10.565   5.705  72.276  1.00  0.00    -0.270 A  
HETATM   13  C   UNL     1      -9.711   4.603  72.385  1.00  0.00    -0.207 A  
HETATM   14  C   UNL     1      -9.234   3.975  71.230  1.00  0.00    -0.197 A  
ENDBRANCH   5   8
ENDBRANCH   2   3
TORSDOF 3
ENDMDL
MODEL      254
REMARK 921   NORMALIZED FREE ENERGY PREDICTED BY IDOCK:   -1.76 KCAL/MOL
REMARK 922        TOTAL FREE ENERGY PREDICTED BY IDOCK:   -2.25 KCAL/MOL
REMARK 923 INTER-LIGAND FREE ENERGY PREDICTED BY IDOCK:   -2.13 KCAL/MOL
REMARK 924 INTRA-LIGAND FREE ENERGY PREDICTED BY IDOCK:   -0.11 KCAL/MOL
REMARK 927      BINDING AFFINITY PREDICTED BY RF-SCORE:    0.00 PKD
ROOT
HETATM    1  C   UNL     1     -10.623   7.311  73.456  1.00  0.00    -0.408 C  
HETATM    2  C   UNL     1      -9.922   8.596  73.040  1.00  0.00     0.325 C  
ENDROOT
BRANCH   2   3
HETATM    3  N   UNL     1      -9.372   8.528  71.684  1.00  0.00    -0.216 N  
HETATM    4  O   UNL     1     -11.123   9.831  70.910  1.00  0.00    -0.308 OA 
HETATM    5  C   UNL     1     -10.041   9.286  70.701  1.00  0.00    -0.276 C  
BRANCH   3   6
HETATM    6  C   UNL     1      -8.090   7.838  71.483  1.00  0.00    -0.100 C  
HETATM    7  C   UNL     1      -7.207   7.625  72.701  1.00  0.00    -0.088 C  
ENDBRANCH   3   6
BRANCH   5   8
HETATM    8  C   UNL     1      -9.461   9.442  69.332  1.00  0.00    -0.177 A  
HETATM    9  C   UNL     1      -9.378   8.378  68.430  1.00  0.00    -0.137 A  
HETATM   10  C   UNL     1      -9.004   8.597  67.102  1.00  0.00    -0.148 A  
HETATM   11  C   UNL     1      -9.130   7.498  66.089  1.00  0.00    -0.179 C  
HETATM   12  C   UNL     1      -8.546   9.862  66.726  1.00  0.00    -0.133 A  
HETATM   13  C   UNL     1      -8.502  10.905  67.656  1.00  0.00    -0.123 A  
HETATM   14  C   UNL     1      -8.977  10.700  68.955  1.00  0.00    -0.165 A  
ENDBRANCH   5   8
ENDBRANCH   2   3
TORSDOF 3
ENDMDL
MODEL      255
REMARK 921   NORMALIZED FREE ENERGY PREDICTED BY IDOCK:   -1.71 KCAL/MOL
REMARK 922        TOTAL FREE ENERGY PREDICTED BY IDOCK:   -2.19 KCAL/MOL
REMARK 923 INTER-LIGAND FREE ENERGY PREDICTED BY IDOCK:   -1.91 KCAL/MOL
REMARK 924 INTRA-LIGAND FREE ENERGY PREDICTED BY IDOCK:   -0.28 KCAL/MOL
REMARK 927      BINDING AFFINITY PREDICTED BY RF-SCORE:    0.00 PKD
ROOT
HETATM    1  C   UNL     1      -9.303   9.769  66.695  1.00  0.00    -0.200 C  
HETATM    2  C   UNL     1      -9.407   8.251  66.699  1.00  0.00    -0.192 C  
ENDROOT
BRANCH   2   3
HETATM    3  N   UNL     1      -8.711   7.638  67.832  1.00  0.00    -0.125 N  
HETATM    4  O   UNL     1     -10.698   7.582  69.021  1.00  0.00    -0.207 OA 
HETATM    5  C   UNL     1      -9.514   7.261  68.928  1.00  0.00    -0.143 C  
BRANCH   3   6
HETATM    6  C   UNL     1      -7.288   7.303  67.681  1.00  0.00    -0.093 C  
HETATM    7  C   UNL     1      -6.926   6.190  66.712  1.00  0.00    -0.071 C  
ENDBRANCH   3   6
BRANCH   5   8
HETATM    8  C   UNL     1      -8.943   6.460  70.054  1.00  0.00    -0.146 A  
HETATM    9  C   UNL     1      -9.231   5.104  70.227  1.00  0.00    -0.193 A  
HETATM   10  C   UNL     1      -8.540   4.344  71.175  1.00  0.00    -0.120 A  
HETATM   11  C   UNL     1      -8.693   2.852  71.204  1.00  0.00    -0.120 C  
HETATM   12  C   UNL     1      -7.680   4.990  72.067  1.00  0.00    -0.104 A  
HETATM   13  C   UNL     1      -7.482   6.371  71.985  1.00  0.00    -0.093 A  
HETATM   14  C   UNL     1      -8.100   7.105  70.967  1.00  0.00    -0.104 A  
ENDBRANCH   5   8
ENDBRANCH   2   3
TORSDOF 3
ENDMDL
MODEL      256
REMARK 921   NORMALIZED FREE ENERGY PREDICTED BY IDOCK:   -1.66 KCAL/MOL
REMARK 922        TOTAL FREE ENERGY PREDICTED BY IDOCK:   -2.14 KCAL/MOL
REMARK 923 INTER-LIGAND FREE ENERGY PREDICTED BY IDOCK:   -1.80 KCAL/MOL
REMARK 924 INTRA-LIGAND FREE ENERGY PREDICTED BY IDOCK:   -0.34 KCAL/MOL
REMARK 927      BINDING AFFINITY PREDICTED BY RF-SCORE:    0.00 PKD
ROOT
HETATM    1  C   UNL     1      -7.904   8.481  70.572  1.00  0.00    -0.086 C  
HETATM    2  C   UNL     1      -8.746   8.466  69.304  1.00  0.00    -0.138 C  
ENDROOT
BRANCH   2   3
HETATM    3  N   UNL     1      -8.485   7.296  68.463  1.00  0.00    -0.125 N  
HETATM    4  O   UNL     1     -10.511   7.617  67.389  1.00  0.00    -0.250 OA 
HETATM    5  C   UNL     1      -9.435   7.026  67.457  1.00  0.00    -0.126 C  
BRANCH   3   6
HETATM    6  C   UNL     1      -7.195   6.605  68.605  1.00  0.00    -0.085 C  
HETATM    7  C   UNL     1      -7.197   5.245  69.283  1.00  0.00    -0.057 C  
ENDBRANCH   3   6
BRANCH   5   8
HETATM    8  C   UNL     1      -9.177   5.976  66.425  1.00  0.00    -0.163 A  
HETATM    9  C   UNL     1      -8.393   6.216  65.294  1.00  0.00    -0.144 A  
HETATM   10  C   UNL     1      -8.020   5.167  64.449  1.00  0.00    -0.107 A  
HETATM   11  C   UNL     1      -7.003   5.391  63.369  1.00  0.00    -0.042 C  
HETATM   12  C   UNL     1      -8.582   3.904  64.647  1.00  0.00    -0.110 A  
HETATM   13  C   UNL     1      -9.472   3.682  65.702  1.00  0.00    -0.156 A  
HETATM   14  C   UNL     1      -9.756   4.713  66.603  1.00  0.00    -0.213 A  
ENDBRANCH   5   8
ENDBRANCH   2   3
TORSDOF 3
ENDMDL
MODEL      257
REMARK 921   NORMALIZED FREE ENERGY PREDICTED BY IDOCK:   -1.65 KCAL/MOL
REMARK 922        TOTAL FREE ENERGY PREDICTED BY IDOCK:   -2.12 KCAL/MOL
REMARK 923 INTER-LIGAND FREE ENERGY PREDICTED BY IDOCK:   -1.99 KCAL/MOL
REMARK 924 INTRA-LIGAND FREE ENERGY PREDICTED BY IDOCK:   -0.13 KCAL/MOL
REMARK 927      BINDING AFFINITY PREDICTED BY RF-SCORE:    0.00 PKD
ROOT
HETATM    1  C   UNL     1      -8.182   3.863  64.277  1.00  0.00    -0.090 C  
HETATM    2  C   UNL     1      -7.754   3.915  65.736  1.00  0.00    -0.089 C  
ENDROOT
BRANCH   2   3
HETATM    3  N   UNL     1      -7.907   5.248  66.325  1.00  0.00    -0.102 N  
HETATM    4  O   UNL     1     -10.183   4.884  66.552  1.00  0.00    -0.226 OA 
HETATM    5  C   UNL     1      -9.198   5.582  66.785  1.00  0.00    -0.129 C  
BRANCH   3   6
HETATM    6  C   UNL     1      -6.701   6.056  66.554  1.00  0.00    -0.060 C  
HETATM    7  C   UNL     1      -6.104   6.782  65.360  1.00  0.00    -0.035 C  
ENDBRANCH   3   6
BRANCH   5   8
HETATM    8  C   UNL     1      -9.429   6.833  67.569  1.00  0.00    -0.139 A  
HETATM    9  C   UNL     1      -9.301   8.104  67.004  1.00  0.00    -0.197 A  
HETATM   10  C   UNL     1      -9.702   9.242  67.710  1.00  0.00    -0.182 A  
HETATM   11  C   UNL     1      -9.771  10.573  67.022  1.00  0.00    -0.212 C  
HETATM   12  C   UNL     1     -10.070   9.113  69.051  1.00  0.00    -0.199 A  
HETATM   13  C   UNL     1     -10.078   7.858  69.667  1.00  0.00    -0.197 A  
HETATM   14  C   UNL     1      -9.774   6.714  68.921  1.00  0.00    -0.136 A  
ENDBRANCH   5   8
ENDBRANCH   2   3
TORSDOF 3
ENDMDL
MODEL      258
REMARK 921   NORMALIZED FREE ENERGY PREDICTED BY IDOCK:   -1.60 KCAL/MOL
REMARK 922        TOTAL FREE ENERGY PREDICTED BY IDOCK:   -2.07 KCAL/MOL
REMARK 923 INTER-LIGAND FREE ENERGY PREDICTED BY IDOCK:   -2.10 KCAL/MOL
REMARK 924 INTRA-LIGAND FREE ENERGY PREDICTED BY IDOCK:    0.04 KCAL/MOL
REMARK 927      BINDING AFFINITY PREDICTED BY RF-SCORE:    0.00 PKD
ROOT
HETATM    1  C   UNL     1      -7.765   8.446  70.314  1.00  0.00    -0.080 C  
HETATM    2  C   UNL     1      -9.049   8.875  69.619  1.00  0.00    -0.151 C  
ENDROOT
BRANCH   2   3
HETATM    3  N   UNL     1      -9.096   8.468  68.213  1.00  0.00    -0.139 N  
HETATM    4  O   UNL     1      -8.182  10.504  67.594  1.00  0.00    -0.110 OA 
HETATM    5  C   UNL     1      -8.532   9.366  67.284  1.00  0.00    -0.125 C  
BRANCH   3   6
HETATM    6  C   UNL     1      -9.553   7.108  67.893  1.00  0.00    -0.133 C  
HETATM    7  C   UNL     1     -10.935   6.957  67.278  1.00  0.00    -0.406 C  
ENDBRANCH   3   6
BRANCH   5   8
HETATM    8  C   UNL     1      -8.355   8.974  65.853  1.00  0.00    -0.129 A  
HETATM    9  C   UNL     1      -7.793   7.751  65.477  1.00  0.00    -0.111 A  
HETATM   10  C   UNL     1      -7.811   7.338  64.142  1.00  0.00    -0.118 A  
HETATM   11  C   UNL     1      -7.409   5.939  63.779  1.00  0.00    -0.064 C  
HETATM   12  C   UNL     1      -8.241   8.233  63.160  1.00  0.00    -0.104 A  
HETATM   13  C   UNL     1      -8.687   9.511  63.513  1.00  0.00    -0.235 A  
HETATM   14  C   UNL     1      -8.761   9.876  64.861  1.00  0.00    -0.198 A  
ENDBRANCH   5   8
ENDBRANCH   2   3
TORSDOF 3
ENDMDL
MODEL      259
REMARK 921   NORMALIZED FREE ENERGY PREDICTED BY IDOCK:   -1.51 KCAL/MOL
REMARK 922        TOTAL FREE ENERGY PREDICTED BY IDOCK:   -1.96 KCAL/MOL
REMARK 923 INTER-LIGAND FREE ENERGY PREDICTED BY IDOCK:   -2.63 KCAL/MOL
REMARK 924 INTRA-LIGAND FREE ENERGY PREDICTED BY IDOCK:    0.67 KCAL/MOL
REMARK 927      BINDING AFFINITY PREDICTED BY RF-SCORE:    0.00 PKD
ROOT
HETATM    1  C   UNL     1     -10.313   4.086  72.546  1.00  0.00    -0.223 C  
HETATM    2  C   UNL     1     -10.734   5.436  73.110  1.00  0.00    -0.266 C  
ENDROOT
BRANCH   2   3
HETATM    3  N   UNL     1     -10.688   6.506  72.111  1.00  0.00    -0.215 N  
HETATM    4  O   UNL     1      -9.631   7.887  73.640  1.00  0.00    -0.280 OA 
HETATM    5  C   UNL     1     -10.010   7.684  72.488  1.00  0.00    -0.208 C  
BRANCH   3   6
HETATM    6  C   UNL     1     -11.183   6.221  70.757  1.00  0.00    -0.324 C  
HETATM    7  C   UNL     1     -10.505   5.105  69.980  1.00  0.00    -0.305 C  
ENDBRANCH   3   6
BRANCH   5   8
HETATM    8  C   UNL     1      -9.739   8.762  71.490  1.00  0.00    -0.361 A  
HETATM    9  C   UNL     1     -10.751   9.577  70.977  1.00  0.00    -0.411 A  
HETATM   10  C   UNL     1     -10.440  10.690  70.191  1.00  0.00     0.031 A  
HETATM   11  C   UNL     1     -11.505  11.683  69.831  1.00  0.00    -0.308 C  
HETATM   12  C   UNL     1      -9.119  10.881  69.777  1.00  0.00     0.578 A  
HETATM   13  C   UNL     1      -8.116   9.995  70.179  1.00  0.00    -0.099 A  
HETATM   14  C   UNL     1      -8.422   8.944  71.050  1.00  0.00    -0.244 A  
ENDBRANCH   5   8
ENDBRANCH   2   3
TORSDOF 3
ENDMDL
MODEL      260
REMARK 921   NORMALIZED FREE ENERGY PREDICTED BY IDOCK:   -1.48 KCAL/MOL
REMARK 922        TOTAL FREE ENERGY PREDICTED BY IDOCK:   -1.92 KCAL/MOL
REMARK 923 INTER-LIGAND FREE ENERGY PREDICTED BY IDOCK:   -1.74 KCAL/MOL
REMARK 924 INTRA-LIGAND FREE ENERGY PREDICTED BY IDOCK:   -0.17 KCAL/MOL
REMARK 927      BINDING AFFINITY PREDICTED BY RF-SCORE:    0.00 PKD
ROOT
HETATM    1  C   UNL     1      -6.070   9.372  64.252  1.00  0.00    -0.079 C  
HETATM    2  C   UNL     1      -6.932   8.164  64.587  1.00  0.00    -0.075 C  
ENDROOT
BRANCH   2   3
HETATM    3  N   UNL     1      -7.721   8.351  65.807  1.00  0.00    -0.091 N  
HETATM    4  O   UNL     1      -6.486   6.696  66.857  1.00  0.00    -0.040 OA 
HETATM    5  C   UNL     1      -7.324   7.594  66.929  1.00  0.00    -0.090 C  
BRANCH   3   6
HETATM    6  C   UNL     1      -8.731   9.418  65.832  1.00  0.00    -0.154 C  
HETATM    7  C   UNL     1      -8.397  10.686  66.600  1.00  0.00    -0.136 C  
ENDBRANCH   3   6
BRANCH   5   8
HETATM    8  C   UNL     1      -7.932   7.841  68.271  1.00  0.00    -0.122 A  
HETATM    9  C   UNL     1      -9.204   7.377  68.612  1.00  0.00    -0.143 A  
HETATM   10  C   UNL     1      -9.666   7.464  69.929  1.00  0.00    -0.171 A  
HETATM   11  C   UNL     1     -10.932   6.769  70.334  1.00  0.00    -0.330 C  
HETATM   12  C   UNL     1      -8.914   8.177  70.866  1.00  0.00    -0.163 A  
HETATM   13  C   UNL     1      -7.696   8.759  70.502  1.00  0.00    -0.089 A  
HETATM   14  C   UNL     1      -7.195   8.576  69.209  1.00  0.00    -0.063 A  
ENDBRANCH   5   8
ENDBRANCH   2   3
TORSDOF 3
ENDMDL
MODEL      261
REMARK 921   NORMALIZED FREE ENERGY PREDICTED BY IDOCK:   -1.46 KCAL/MOL
REMARK 922        TOTAL FREE ENERGY PREDICTED BY IDOCK:   -1.89 KCAL/MOL
REMARK 923 INTER-LIGAND FREE ENERGY PREDICTED BY IDOCK:   -1.70 KCAL/MOL
REMARK 924 INTRA-LIGAND FREE ENERGY PREDICTED BY IDOCK:   -0.19 KCAL/MOL
REMARK 927      BINDING AFFINITY PREDICTED BY RF-SCORE:    0.00 PKD
ROOT
HETATM    1  C   UNL     1      -7.437   8.213  70.344  1.00  0.00    -0.067 C  
HETATM    2  C   UNL     1      -8.493   8.453  69.275  1.00  0.00    -0.125 C  
ENDROOT
BRANCH   2   3
HETATM    3  N   UNL     1      -8.866   7.230  68.560  1.00  0.00    -0.129 N  
HETATM    4  O   UNL     1      -6.981   7.436  67.229  1.00  0.00    -0.077 OA 
HETATM    5  C   UNL     1      -7.949   6.770  67.592  1.00  0.00    -0.113 C  
BRANCH   3   6
HETATM    6  C   UNL     1     -10.050   6.488  69.013  1.00  0.00    -0.165 C  
HETATM    7  C   UNL     1     -10.873   7.094  70.137  1.00  0.00    -0.279 C  
ENDBRANCH   3   6
BRANCH   5   8
HETATM    8  C   UNL     1      -8.133   5.438  66.939  1.00  0.00    -0.105 A  
HETATM    9  C   UNL     1      -7.523   4.279  67.422  1.00  0.00    -0.073 A  
HETATM   10  C   UNL     1      -7.861   3.025  66.903  1.00  0.00    -0.076 A  
HETATM   11  C   UNL     1      -7.373   1.774  67.570  1.00  0.00    -0.054 C  
HETATM   12  C   UNL     1      -8.686   2.957  65.778  1.00  0.00    -0.128 A  
HETATM   13  C   UNL     1      -9.201   4.124  65.205  1.00  0.00    -0.152 A  
HETATM   14  C   UNL     1      -8.939   5.365  65.796  1.00  0.00    -0.161 A  
ENDBRANCH   5   8
ENDBRANCH   2   3
TORSDOF 3
ENDMDL
MODEL      262
REMARK 921   NORMALIZED FREE ENERGY PREDICTED BY IDOCK:   -1.32 KCAL/MOL
REMARK 922        TOTAL FREE ENERGY PREDICTED BY IDOCK:   -1.73 KCAL/MOL
REMARK 923 INTER-LIGAND FREE ENERGY PREDICTED BY IDOCK:   -1.88 KCAL/MOL
REMARK 924 INTRA-LIGAND FREE ENERGY PREDICTED BY IDOCK:    0.14 KCAL/MOL
REMARK 927      BINDING AFFINITY PREDICTED BY RF-SCORE:    0.00 PKD
ROOT
HETATM    1  C   UNL     1      -9.320   8.612  66.393  1.00  0.00    -0.271 C  
HETATM    2  C   UNL     1     -10.258   7.440  66.645  1.00  0.00    -0.177 C  
ENDROOT
BRANCH   2   3
HETATM    3  N   UNL     1      -9.558   6.247  67.128  1.00  0.00    -0.128 N  
HETATM    4  O   UNL     1     -10.000   6.873  69.313  1.00  0.00    -0.155 OA 
HETATM    5  C   UNL     1      -9.580   6.031  68.521  1.00  0.00    -0.121 C  
BRANCH   3   6
HETATM    6  C   UNL     1      -9.048   5.287  66.139  1.00  0.00    -0.148 C  
HETATM    7  C   UNL     1      -7.582   5.388  65.752  1.00  0.00    -0.083 C  
ENDBRANCH   3   6
BRANCH   5   8
HETATM    8  C   UNL     1      -9.065   4.755  69.104  1.00  0.00    -0.155 A  
HETATM    9  C   UNL     1      -8.221   4.729  70.217  1.00  0.00    -0.079 A  
HETATM   10  C   UNL     1      -7.908   3.521  70.847  1.00  0.00    -0.047 A  
HETATM   11  C   UNL     1      -7.188   3.519  72.163  1.00  0.00    -0.050 C  
HETATM   12  C   UNL     1      -8.306   2.322  70.251  1.00  0.00    -0.072 A  
HETATM   13  C   UNL     1      -9.043   2.332  69.063  1.00  0.00    -0.186 A  
HETATM   14  C   UNL     1      -9.439   3.549  68.498  1.00  0.00    -0.207 A  
ENDBRANCH   5   8
ENDBRANCH   2   3
TORSDOF 3
ENDMDL
MODEL      263
REMARK 921   NORMALIZED FREE ENERGY PREDICTED BY IDOCK:    3.28 KCAL/MOL
REMARK 922        TOTAL FREE ENERGY PREDICTED BY IDOCK:    3.67 KCAL/MOL
REMARK 923 INTER-LIGAND FREE ENERGY PREDICTED BY IDOCK:    3.74 KCAL/MOL
REMARK 924 INTRA-LIGAND FREE ENERGY PREDICTED BY IDOCK:   -0.07 KCAL/MOL
REMARK 927      BINDING AFFINITY PREDICTED BY RF-SCORE:    0.00 PKD
ROOT
HETATM    1  C   UNL     1     -10.113  19.771  71.776  1.00  0.00     3.009 C  
HETATM    2  C   UNL     1      -8.943  20.466  71.093  1.00  0.00     2.104 C  
ENDROOT
BRANCH   2   3
HETATM    3  N   UNL     1      -8.766  20.043  69.702  1.00  0.00     0.520 N  
HETATM    4  O   UNL     1      -6.495  20.465  69.863  1.00  0.00    -0.293 OA 
HETATM    5  C   UNL     1      -7.440  20.004  69.225  1.00  0.00    -0.014 C  
BRANCH   3   6
HETATM    6  C   UNL     1      -9.934  19.529  68.972  1.00  0.00    -0.414 C  
HETATM    7  C   UNL     1     -10.363  20.272  67.718  1.00  0.00    -0.408 C  
ENDBRANCH   3   6
BRANCH   5   8
HETATM    8  C   UNL     1      -7.125  19.411  67.890  1.00  0.00    -0.290 A  
HETATM    9  C   UNL     1      -7.419  18.082  67.575  1.00  0.00    -0.217 A  
HETATM   10  C   UNL     1      -7.282  17.613  66.265  1.00  0.00    -0.342 A  
HETATM   11  C   UNL     1      -7.806  16.258  65.889  1.00  0.00     0.640 C  
HETATM   12  C   UNL     1      -6.684  18.436  65.308  1.00  0.00    -0.063 A  
HETATM   13  C   UNL     1      -6.267  19.727  65.646  1.00  0.00    -0.235 A  
HETATM   14  C   UNL     1      -6.503  20.222  66.932  1.00  0.00    -0.254 A  
ENDBRANCH   5   8
ENDBRANCH   2   3
TORSDOF 3
ENDMDL
MODEL      264
REMARK 921   NORMALIZED FREE ENERGY PREDICTED BY IDOCK:    3.65 KCAL/MOL
REMARK 922        TOTAL FREE ENERGY PREDICTED BY IDOCK:    4.11 KCAL/MOL
REMARK 923 INTER-LIGAND FREE ENERGY PREDICTED BY IDOCK:    3.94 KCAL/MOL
REMARK 924 INTRA-LIGAND FREE ENERGY PREDICTED BY IDOCK:    0.16 KCAL/MOL
REMARK 927      BINDING AFFINITY PREDICTED BY RF-SCORE:    0.00 PKD
ROOT
HETATM    1  C   UNL     1     -12.360   1.866  71.703  1.00  0.00     4.845 C  
HETATM    2  C   UNL     1     -11.053   1.763  72.476  1.00  0.00     0.154 C  
ENDROOT
BRANCH   2   3
HETATM    3  N   UNL     1     -10.072   2.771  72.067  1.00  0.00    -0.152 N  
HETATM    4  O   UNL     1      -9.836   3.435  74.274  1.00  0.00    -0.103 OA 
HETATM    5  C   UNL     1      -9.456   3.500  73.106  1.00  0.00    -0.106 C  
BRANCH   3   6
HETATM    6  C   UNL     1      -9.675   2.829  70.653  1.00  0.00    -0.016 C  
HETATM    7  C   UNL     1      -9.955   4.116  69.896  1.00  0.00    -0.116 C  
ENDBRANCH   3   6
BRANCH   5   8
HETATM    8  C   UNL     1      -8.310   4.415  72.820  1.00  0.00    -0.105 A  
HETATM    9  C   UNL     1      -8.307   5.755  73.216  1.00  0.00    -0.116 A  
HETATM   10  C   UNL     1      -7.151   6.531  73.098  1.00  0.00    -0.078 A  
HETATM   11  C   UNL     1      -7.087   7.893  73.724  1.00  0.00    -0.151 C  
HETATM   12  C   UNL     1      -6.047   6.006  72.422  1.00  0.00    -0.041 A  
HETATM   13  C   UNL     1      -6.084   4.707  71.907  1.00  0.00    -0.021 A  
HETATM   14  C   UNL     1      -7.210   3.904  72.121  1.00  0.00    -0.052 A  
ENDBRANCH   5   8
ENDBRANCH   2   3
TORSDOF 3
ENDMDL
MODEL      265
REMARK 921   NORMALIZED FREE ENERGY PREDICTED BY IDOCK:   16.57 KCAL/MOL
REMARK 922        TOTAL FREE ENERGY PREDICTED BY IDOCK:   19.29 KCAL/MOL
REMARK 923 INTER-LIGAND FREE ENERGY PREDICTED BY IDOCK:   18.71 KCAL/MOL
REMARK 924 INTRA-LIGAND FREE ENERGY PREDICTED BY IDOCK:    0.58 KCAL/MOL
REMARK 927      BINDING AFFINITY PREDICTED BY RF-SCORE:    0.00 PKD
ROOT
HETATM    1  C   UNL     1     -12.895   1.682  70.179  1.00  0.00    13.247 C  
HETATM    2  C   UNL     1     -11.927   1.710  71.353  1.00  0.00     4.109 C  
ENDROOT
BRANCH   2   3
HETATM    3  N   UNL     1     -10.825   2.655  71.157  1.00  0.00     1.758 N  
HETATM    4  O   UNL     1     -11.213   3.543  73.260  1.00  0.00    -0.178 OA 
HETATM    5  C   UNL     1     -10.506   3.479  72.255  1.00  0.00     0.022 C  
BRANCH   3   6
HETATM    6  C   UNL     1     -10.030   2.558  69.924  1.00  0.00     0.558 C  
HETATM    7  C   UNL     1      -9.719   3.848  69.184  1.00  0.00    -0.143 C  
ENDBRANCH   3   6
BRANCH   5   8
HETATM    8  C   UNL     1      -9.287   4.343  72.234  1.00  0.00    -0.168 A  
HETATM    9  C   UNL     1      -8.031   3.853  71.867  1.00  0.00    -0.075 A  
HETATM   10  C   UNL     1      -6.953   4.723  71.680  1.00  0.00    -0.052 A  
HETATM   11  C   UNL     1      -5.674   4.223  71.075  1.00  0.00    -0.012 C  
HETATM   12  C   UNL     1      -7.097   6.067  72.031  1.00  0.00    -0.087 A  
HETATM   13  C   UNL     1      -8.316   6.544  72.523  1.00  0.00    -0.114 A  
HETATM   14  C   UNL     1      -9.417   5.686  72.608  1.00  0.00    -0.157 A  
ENDBRANCH   5   8
ENDBRANCH   2   3
TORSDOF 3
ENDMDL
