MODEL        1
REMARK 921   NORMALIZED FREE ENERGY PREDICTED BY IDOCK:   -6.93 KCAL/MOL
REMARK 922        TOTAL FREE ENERGY PREDICTED BY IDOCK:   -9.92 KCAL/MOL
REMARK 923 INTER-LIGAND FREE ENERGY PREDICTED BY IDOCK:  -10.18 KCAL/MOL
REMARK 924 INTRA-LIGAND FREE ENERGY PREDICTED BY IDOCK:    0.26 KCAL/MOL
REMARK 927      BINDING AFFINITY PREDICTED BY RF-SCORE:    0.00 PKD
ROOT
HETATM    1  C   UNL     1     -11.522  12.733  67.844  1.00  0.00    -0.365 C  
HETATM    2  C   UNL     1     -11.908  12.404  69.169  1.00  0.00    -0.352 C  
HETATM    3  C   UNL     1     -10.766  13.324  68.958  1.00  0.00    -0.156 C  
HETATM    4  C   UNL     1     -10.487  14.040  67.029  1.00  0.00    -0.275 C  
HETATM    5  C   UNL     1     -10.798  14.532  68.249  1.00  0.00    -0.247 C  
HETATM    6  C   UNL     1      -7.530   7.464  66.905  1.00  0.00    -0.097 C  
HETATM    7  C   UNL     1      -8.565   7.696  67.974  1.00  0.00    -0.123 C  
HETATM    8  C   UNL     1      -9.039   8.943  67.774  1.00  0.00    -0.143 C  
HETATM    9  F   UNL     1     -10.759   8.012  66.431  1.00  0.00    -0.297 F  
HETATM   10  C   UNL     1      -8.947  14.445  68.657  1.00  0.00    -0.172 C  
HETATM   11  C   UNL     1     -10.046   9.151  66.662  1.00  0.00    -0.273 C  
HETATM   12  C   UNL     1     -11.851  15.621  68.597  1.00  0.00    -0.306 C  
HETATM   13  C   UNL     1     -11.021  10.228  67.075  1.00  0.00    -0.189 C  
HETATM   14  O   UNL     1      -7.353   6.358  66.416  1.00  0.00    -0.077 OA 
HETATM   15  C   UNL     1      -8.184  12.946  68.169  1.00  0.00    -0.163 C  
HETATM   16  C   UNL     1      -6.684   8.658  66.527  1.00  0.00    -0.071 C  
HETATM   17  O   UNL     1      -7.499  13.165  66.934  1.00  0.00    -0.367 OA 
HETATM   18  C   UNL     1      -8.976  11.471  68.151  1.00  0.00    -0.172 C  
HETATM   19  C   UNL     1      -7.355   9.992  69.393  1.00  0.00    -0.100 C  
HETATM   20  C   UNL     1      -8.078  10.142  67.999  1.00  0.00    -0.112 C  
HETATM   21  H   UNL     1      -7.085  12.352  66.670  1.00  0.00     0.000 HD 
HETATM   22  C   UNL     1     -10.309  11.570  67.269  1.00  0.00    -0.236 C  
HETATM   23  F   UNL     1      -9.448  11.204  69.441  1.00  0.00    -0.127 F  
HETATM   24  C   UNL     1      -6.950   9.907  66.991  1.00  0.00    -0.088 C  
ENDROOT
BRANCH   4  25
HETATM   25  C   UNL     1      -9.903  15.541  66.483  1.00  0.00    -0.264 C  
HETATM   26  O   UNL     1      -8.751  15.769  66.074  1.00  0.00    -0.313 OA 
BRANCH  25  27
HETATM   27  C   UNL     1     -10.781  16.785  66.579  1.00  0.00    -0.104 C  
BRANCH  27  28
HETATM   28  O   UNL     1     -10.332  17.816  65.680  1.00  0.00    -0.612 OA 
BRANCH  28  29
HETATM   29  C   UNL     1     -10.386  19.069  66.199  1.00  0.00    -0.468 C  
HETATM   30  C   UNL     1     -10.303  19.051  67.699  1.00  0.00    -0.504 C  
HETATM   31  O   UNL     1     -10.499  20.076  65.526  1.00  0.00    -0.423 OA 
ENDBRANCH  28  29
ENDBRANCH  27  28
ENDBRANCH  25  27
ENDBRANCH   4  25
BRANCH   4  32
HETATM   32  O   UNL     1     -11.777  14.284  66.185  1.00  0.00    -0.365 OA 
BRANCH  32  33
HETATM   33  C   UNL     1     -11.750  14.127  64.827  1.00  0.00    -0.410 C  
HETATM   34  O   UNL     1     -12.559  14.613  64.053  1.00  0.00    -0.819 OA 
BRANCH  33  35
HETATM   35  C   UNL     1     -10.592  13.272  64.389  1.00  0.00    -0.438 C  
BRANCH  35  36
HETATM   36  C   UNL     1     -11.083  12.175  63.460  1.00  0.00    -0.525 C  
HETATM   37  C   UNL     1     -10.083  11.031  63.342  1.00  0.00    -0.424 C  
ENDBRANCH  35  36
ENDBRANCH  33  35
ENDBRANCH  32  33
ENDBRANCH   4  32
TORSDOF 8
ENDMDL
MODEL        2
REMARK 921   NORMALIZED FREE ENERGY PREDICTED BY IDOCK:   -6.69 KCAL/MOL
REMARK 922        TOTAL FREE ENERGY PREDICTED BY IDOCK:   -9.56 KCAL/MOL
REMARK 923 INTER-LIGAND FREE ENERGY PREDICTED BY IDOCK:   -9.26 KCAL/MOL
REMARK 924 INTRA-LIGAND FREE ENERGY PREDICTED BY IDOCK:   -0.31 KCAL/MOL
REMARK 927      BINDING AFFINITY PREDICTED BY RF-SCORE:    0.00 PKD
ROOT
HETATM    1  C   UNL     1      -8.381   8.470  67.215  1.00  0.00    -0.115 C  
HETATM    2  C   UNL     1      -7.109   9.093  67.138  1.00  0.00    -0.082 C  
HETATM    3  C   UNL     1      -7.909   9.236  68.377  1.00  0.00    -0.094 C  
HETATM    4  C   UNL     1      -9.579   8.015  68.559  1.00  0.00    -0.155 C  
HETATM    5  C   UNL     1      -8.389   8.189  69.176  1.00  0.00    -0.131 C  
HETATM    6  C   UNL     1     -11.814  13.434  64.358  1.00  0.00    -0.408 C  
HETATM    7  C   UNL     1     -10.327  13.194  64.381  1.00  0.00    -0.390 C  
HETATM    8  C   UNL     1     -10.134  12.105  65.154  1.00  0.00    -0.288 C  
HETATM    9  F   UNL     1     -10.233  10.769  63.196  1.00  0.00    -0.359 F  
HETATM   10  C   UNL     1      -9.174   9.667  70.072  1.00  0.00    -0.275 C  
HETATM   11  C   UNL     1     -10.410  10.745  64.547  1.00  0.00    -0.331 C  
HETATM   12  C   UNL     1      -7.420   7.095  69.705  1.00  0.00    -0.097 C  
HETATM   13  C   UNL     1      -9.437   9.742  65.121  1.00  0.00    -0.338 C  
HETATM   14  O   UNL     1     -12.373  13.888  63.370  1.00  0.00    -0.760 OA 
HETATM   15  C   UNL     1     -10.103  10.718  69.025  1.00  0.00    -0.211 C  
HETATM   16  C   UNL     1     -12.555  13.146  65.644  1.00  0.00    -0.414 C  
HETATM   17  O   UNL     1     -11.488  10.398  69.173  1.00  0.00    -0.324 OA 
HETATM   18  C   UNL     1      -9.728  10.983  67.415  1.00  0.00    -0.168 C  
HETATM   19  C   UNL     1      -9.785  13.500  67.272  1.00  0.00    -0.236 C  
HETATM   20  C   UNL     1     -10.460  12.209  66.668  1.00  0.00    -0.248 C  
HETATM   21  H   UNL     1     -11.993  10.968  68.604  1.00  0.00     0.000 HD 
HETATM   22  C   UNL     1      -9.632   9.589  66.633  1.00  0.00    -0.243 C  
HETATM   23  F   UNL     1      -8.429  11.499  67.341  1.00  0.00    -0.131 F  
HETATM   24  C   UNL     1     -11.954  12.544  66.703  1.00  0.00    -0.351 C  
ENDROOT
BRANCH   4  25
HETATM   25  C   UNL     1     -10.279   7.302  69.933  1.00  0.00    -0.205 C  
HETATM   26  O   UNL     1      -9.717   6.511  70.711  1.00  0.00    -0.178 OA 
BRANCH  25  27
HETATM   27  C   UNL     1     -11.758   7.521  70.240  1.00  0.00    -0.023 C  
BRANCH  27  28
HETATM   28  O   UNL     1     -11.946   8.082  71.552  1.00  0.00    -0.280 OA 
BRANCH  28  29
HETATM   29  C   UNL     1     -13.033   8.887  71.663  1.00  0.00    -0.354 C  
HETATM   30  C   UNL     1     -14.302   8.091  71.768  1.00  0.00    -0.583 C  
HETATM   31  O   UNL     1     -12.978  10.102  71.666  1.00  0.00    -0.385 OA 
ENDBRANCH  28  29
ENDBRANCH  27  28
ENDBRANCH  25  27
ENDBRANCH   4  25
BRANCH   4  32
HETATM   32  O   UNL     1      -9.470   6.591  67.928  1.00  0.00    -0.122 OA 
BRANCH  32  33
HETATM   33  C   UNL     1     -10.446   6.135  67.088  1.00  0.00    -0.264 C  
HETATM   34  O   UNL     1     -11.479   6.733  66.831  1.00  0.00    -0.176 OA 
BRANCH  33  35
HETATM   35  C   UNL     1     -10.098   4.791  66.507  1.00  0.00    -0.286 C  
BRANCH  35  36
HETATM   36  C   UNL     1      -8.629   4.762  66.118  1.00  0.00    -0.115 C  
HETATM   37  C   UNL     1      -8.364   5.517  64.821  1.00  0.00    -0.136 C  
ENDBRANCH  35  36
ENDBRANCH  33  35
ENDBRANCH  32  33
ENDBRANCH   4  32
TORSDOF 8
ENDMDL
MODEL        3
REMARK 921   NORMALIZED FREE ENERGY PREDICTED BY IDOCK:   -6.67 KCAL/MOL
REMARK 922        TOTAL FREE ENERGY PREDICTED BY IDOCK:   -9.53 KCAL/MOL
REMARK 923 INTER-LIGAND FREE ENERGY PREDICTED BY IDOCK:   -9.20 KCAL/MOL
REMARK 924 INTRA-LIGAND FREE ENERGY PREDICTED BY IDOCK:   -0.33 KCAL/MOL
REMARK 927      BINDING AFFINITY PREDICTED BY RF-SCORE:    0.00 PKD
ROOT
HETATM    1  C   UNL     1      -8.138   8.886  66.669  1.00  0.00    -0.107 C  
HETATM    2  C   UNL     1      -6.905   9.443  66.240  1.00  0.00    -0.086 C  
HETATM    3  C   UNL     1      -7.336   9.641  67.644  1.00  0.00    -0.090 C  
HETATM    4  C   UNL     1      -8.951   8.508  68.295  1.00  0.00    -0.139 C  
HETATM    5  C   UNL     1      -7.632   8.629  68.567  1.00  0.00    -0.095 C  
HETATM    6  C   UNL     1     -11.977  13.987  64.711  1.00  0.00    -0.417 C  
HETATM    7  C   UNL     1     -10.551  13.671  64.341  1.00  0.00    -0.360 C  
HETATM    8  C   UNL     1     -10.209  12.582  65.062  1.00  0.00    -0.301 C  
HETATM    9  F   UNL     1     -10.890  11.231  63.235  1.00  0.00    -0.422 F  
HETATM   10  C   UNL     1      -8.080  10.155  69.604  1.00  0.00    -0.178 C  
HETATM   11  C   UNL     1     -10.699  11.232  64.584  1.00  0.00    -0.303 C  
HETATM   12  C   UNL     1      -6.609   7.493  68.846  1.00  0.00    -0.048 C  
HETATM   13  C   UNL     1      -9.656  10.187  64.902  1.00  0.00    -0.369 C  
HETATM   14  O   UNL     1     -12.759  14.457  63.897  1.00  0.00    -0.771 OA 
HETATM   15  C   UNL     1      -9.206  11.240  68.817  1.00  0.00    -0.126 C  
HETATM   16  C   UNL     1     -12.359  13.751  66.154  1.00  0.00    -0.496 C  
HETATM   17  O   UNL     1     -10.514  10.993  69.337  1.00  0.00    -0.329 OA 
HETATM   18  C   UNL     1      -9.265  11.468  67.159  1.00  0.00    -0.169 C  
HETATM   19  C   UNL     1      -9.241  13.982  66.975  1.00  0.00    -0.262 C  
HETATM   20  C   UNL     1     -10.112  12.721  66.605  1.00  0.00    -0.248 C  
HETATM   21  H   UNL     1     -11.126  11.581  68.910  1.00  0.00     0.000 HD 
HETATM   22  C   UNL     1      -9.445  10.062  66.415  1.00  0.00    -0.235 C  
HETATM   23  F   UNL     1      -8.010  11.915  66.728  1.00  0.00    -0.155 F  
HETATM   24  C   UNL     1     -11.525  13.131  67.029  1.00  0.00    -0.379 C  
ENDROOT
BRANCH   4  25
HETATM   25  C   UNL     1      -9.290   7.848  69.824  1.00  0.00    -0.153 C  
HETATM   26  O   UNL     1      -8.500   7.192  70.525  1.00  0.00    -0.135 OA 
BRANCH  25  27
HETATM   27  C   UNL     1     -10.701   7.935  70.400  1.00  0.00    -0.233 C  
BRANCH  27  28
HETATM   28  O   UNL     1     -10.751   8.820  71.534  1.00  0.00    -0.250 OA 
BRANCH  28  29
HETATM   29  C   UNL     1     -11.971   9.376  71.752  1.00  0.00    -0.382 C  
HETATM   30  C   UNL     1     -12.936   8.382  72.330  1.00  0.00    -0.338 C  
HETATM   31  O   UNL     1     -12.241  10.535  71.498  1.00  0.00    -0.355 OA 
ENDBRANCH  28  29
ENDBRANCH  27  28
ENDBRANCH  25  27
ENDBRANCH   4  25
BRANCH   4  32
HETATM   32  O   UNL     1      -9.080   7.074  67.693  1.00  0.00    -0.124 OA 
BRANCH  32  33
HETATM   33  C   UNL     1     -10.299   6.605  67.291  1.00  0.00    -0.232 C  
HETATM   34  O   UNL     1     -11.269   7.306  67.045  1.00  0.00    -0.221 OA 
BRANCH  33  35
HETATM   35  C   UNL     1     -10.311   5.104  67.186  1.00  0.00    -0.246 C  
BRANCH  35  36
HETATM   36  C   UNL     1      -9.243   4.515  68.093  1.00  0.00    -0.170 C  
HETATM   37  C   UNL     1      -9.776   4.218  69.489  1.00  0.00    -0.272 C  
ENDBRANCH  35  36
ENDBRANCH  33  35
ENDBRANCH  32  33
ENDBRANCH   4  32
TORSDOF 8
ENDMDL
MODEL        4
REMARK 921   NORMALIZED FREE ENERGY PREDICTED BY IDOCK:   -6.65 KCAL/MOL
REMARK 922        TOTAL FREE ENERGY PREDICTED BY IDOCK:   -9.50 KCAL/MOL
REMARK 923 INTER-LIGAND FREE ENERGY PREDICTED BY IDOCK:  -10.19 KCAL/MOL
REMARK 924 INTRA-LIGAND FREE ENERGY PREDICTED BY IDOCK:    0.70 KCAL/MOL
REMARK 927      BINDING AFFINITY PREDICTED BY RF-SCORE:    0.00 PKD
ROOT
HETATM    1  C   UNL     1     -11.149  15.383  67.328  1.00  0.00    -0.302 C  
HETATM    2  C   UNL     1     -11.128  15.736  65.954  1.00  0.00    -0.103 C  
HETATM    3  C   UNL     1     -10.303  14.597  66.418  1.00  0.00    -0.293 C  
HETATM    4  C   UNL     1     -10.653  13.913  68.348  1.00  0.00    -0.255 C  
HETATM    5  C   UNL     1     -10.770  13.454  67.082  1.00  0.00    -0.268 C  
HETATM    6  C   UNL     1      -6.419  19.678  69.267  1.00  0.00    -0.330 C  
HETATM    7  C   UNL     1      -7.198  19.638  67.978  1.00  0.00    -0.321 C  
HETATM    8  C   UNL     1      -7.972  18.534  68.042  1.00  0.00    -0.293 C  
HETATM    9  F   UNL     1      -9.707  19.873  68.949  1.00  0.00    -0.421 F  
HETATM   10  C   UNL     1      -8.903  13.116  67.129  1.00  0.00    -0.222 C  
HETATM   11  C   UNL     1      -9.233  18.597  68.879  1.00  0.00    -0.216 C  
HETATM   12  C   UNL     1     -11.927  12.610  66.478  1.00  0.00    -0.401 C  
HETATM   13  C   UNL     1     -10.298  17.745  68.230  1.00  0.00    -0.387 C  
HETATM   14  O   UNL     1      -6.120  20.737  69.800  1.00  0.00    -0.360 OA 
HETATM   15  C   UNL     1      -7.962  14.428  67.805  1.00  0.00    -0.158 C  
HETATM   16  C   UNL     1      -5.974  18.344  69.819  1.00  0.00    -0.243 C  
HETATM   17  O   UNL     1      -7.653  14.113  69.165  1.00  0.00    -0.247 OA 
HETATM   18  C   UNL     1      -8.386  16.041  67.656  1.00  0.00    -0.151 C  
HETATM   19  C   UNL     1      -6.231  17.077  66.856  1.00  0.00    -0.235 C  
HETATM   20  C   UNL     1      -7.276  17.145  68.035  1.00  0.00    -0.187 C  
HETATM   21  H   UNL     1      -7.143  14.826  69.532  1.00  0.00     0.000 HD 
HETATM   22  C   UNL     1      -9.877  16.272  68.192  1.00  0.00    -0.229 C  
HETATM   23  F   UNL     1      -8.469  16.354  66.294  1.00  0.00    -0.272 F  
HETATM   24  C   UNL     1      -6.395  17.167  69.287  1.00  0.00    -0.231 C  
ENDROOT
BRANCH   4  25
HETATM   25  C   UNL     1     -10.563  12.344  68.995  1.00  0.00    -0.049 C  
HETATM   26  O   UNL     1      -9.537  11.647  69.077  1.00  0.00    -0.054 OA 
BRANCH  25  27
HETATM   27  C   UNL     1     -11.835  11.623  69.434  1.00  0.00    -0.342 C  
BRANCH  27  28
HETATM   28  O   UNL     1     -11.693  11.062  70.752  1.00  0.00    -0.313 OA 
BRANCH  28  29
HETATM   29  C   UNL     1     -12.810  11.152  71.519  1.00  0.00    -0.437 C  
HETATM   30  C   UNL     1     -13.344   9.795  71.877  1.00  0.00    -0.530 C  
HETATM   31  O   UNL     1     -13.314  12.205  71.859  1.00  0.00    -0.463 OA 
ENDBRANCH  28  29
ENDBRANCH  27  28
ENDBRANCH  25  27
ENDBRANCH   4  25
BRANCH   4  32
HETATM   32  O   UNL     1     -12.126  13.993  68.857  1.00  0.00    -0.351 OA 
BRANCH  32  33
HETATM   33  C   UNL     1     -12.450  14.818  69.896  1.00  0.00    -0.240 C  
HETATM   34  O   UNL     1     -13.509  15.418  70.006  1.00  0.00     0.147 OA 
BRANCH  33  35
HETATM   35  C   UNL     1     -11.337  14.907  70.905  1.00  0.00    -0.259 C  
BRANCH  35  36
HETATM   36  C   UNL     1     -11.668  15.961  71.947  1.00  0.00    -0.590 C  
HETATM   37  C   UNL     1     -12.167  15.345  73.249  1.00  0.00    -0.589 C  
ENDBRANCH  35  36
ENDBRANCH  33  35
ENDBRANCH  32  33
ENDBRANCH   4  32
TORSDOF 8
ENDMDL
MODEL        5
REMARK 921   NORMALIZED FREE ENERGY PREDICTED BY IDOCK:   -6.63 KCAL/MOL
REMARK 922        TOTAL FREE ENERGY PREDICTED BY IDOCK:   -9.47 KCAL/MOL
REMARK 923 INTER-LIGAND FREE ENERGY PREDICTED BY IDOCK:   -9.10 KCAL/MOL
REMARK 924 INTRA-LIGAND FREE ENERGY PREDICTED BY IDOCK:   -0.37 KCAL/MOL
REMARK 927      BINDING AFFINITY PREDICTED BY RF-SCORE:    0.00 PKD
ROOT
HETATM    1  C   UNL     1     -11.653  12.117  68.131  1.00  0.00    -0.397 C  
HETATM    2  C   UNL     1     -11.840  11.700  69.474  1.00  0.00    -0.414 C  
HETATM    3  C   UNL     1     -10.823  12.734  69.176  1.00  0.00    -0.123 C  
HETATM    4  C   UNL     1     -10.851  13.551  67.267  1.00  0.00    -0.276 C  
HETATM    5  C   UNL     1     -11.054  13.961  68.539  1.00  0.00    -0.289 C  
HETATM    6  C   UNL     1      -7.338   7.305  66.454  1.00  0.00    -0.080 C  
HETATM    7  C   UNL     1      -8.251   7.392  67.650  1.00  0.00    -0.118 C  
HETATM    8  C   UNL     1      -8.859   8.594  67.571  1.00  0.00    -0.139 C  
HETATM    9  F   UNL     1     -10.638   7.553  66.397  1.00  0.00    -0.291 F  
HETATM   10  C   UNL     1      -9.166  14.039  68.718  1.00  0.00    -0.050 C  
HETATM   11  C   UNL     1     -10.010   8.746  66.600  1.00  0.00    -0.285 C  
HETATM   12  C   UNL     1     -12.152  14.927  69.065  1.00  0.00    -0.248 C  
HETATM   13  C   UNL     1     -11.022   9.706  67.180  1.00  0.00    -0.066 C  
HETATM   14  O   UNL     1      -7.122   6.242  65.891  1.00  0.00    -0.063 OA 
HETATM   15  C   UNL     1      -8.334  12.643  68.067  1.00  0.00    -0.175 C  
HETATM   16  C   UNL     1      -6.659   8.590  66.039  1.00  0.00    -0.054 C  
HETATM   17  O   UNL     1      -7.830  12.976  66.772  1.00  0.00    -0.398 OA 
HETATM   18  C   UNL     1      -8.983  11.099  68.067  1.00  0.00    -0.149 C  
HETATM   19  C   UNL     1      -7.092   9.737  69.030  1.00  0.00    -0.067 C  
HETATM   20  C   UNL     1      -7.992   9.871  67.742  1.00  0.00    -0.105 C  
HETATM   21  H   UNL     1      -7.379  12.219  66.419  1.00  0.00     0.000 HD 
HETATM   22  C   UNL     1     -10.418  11.103  67.357  1.00  0.00    -0.255 C  
HETATM   23  F   UNL     1      -9.265  10.736  69.389  1.00  0.00    -0.190 F  
HETATM   24  C   UNL     1      -6.980   9.788  66.595  1.00  0.00    -0.085 C  
ENDROOT
BRANCH   4  25
HETATM   25  C   UNL     1     -10.480  15.122  66.734  1.00  0.00    -0.283 C  
HETATM   26  O   UNL     1     -11.026  16.170  67.119  1.00  0.00    -0.266 OA 
BRANCH  25  27
HETATM   27  C   UNL     1      -9.474  15.329  65.605  1.00  0.00    -0.205 C  
BRANCH  27  28
HETATM   28  O   UNL     1      -8.862  16.629  65.679  1.00  0.00    -0.448 OA 
BRANCH  28  29
HETATM   29  C   UNL     1      -7.793  16.695  66.515  1.00  0.00    -0.307 C  
HETATM   30  C   UNL     1      -7.825  17.939  67.356  1.00  0.00    -0.217 C  
HETATM   31  O   UNL     1      -6.919  15.851  66.562  1.00  0.00    -0.135 OA 
ENDBRANCH  28  29
ENDBRANCH  27  28
ENDBRANCH  25  27
ENDBRANCH   4  25
BRANCH   4  32
HETATM   32  O   UNL     1     -12.253  13.701  66.596  1.00  0.00    -0.415 OA 
BRANCH  32  33
HETATM   33  C   UNL     1     -12.366  13.706  65.234  1.00  0.00    -0.465 C  
HETATM   34  O   UNL     1     -12.659  14.684  64.564  1.00  0.00    -0.626 OA 
BRANCH  33  35
HETATM   35  C   UNL     1     -12.085  12.350  64.647  1.00  0.00    -0.487 C  
BRANCH  35  36
HETATM   36  C   UNL     1     -10.838  12.411  63.780  1.00  0.00    -0.500 C  
HETATM   37  C   UNL     1     -10.144  11.058  63.676  1.00  0.00    -0.428 C  
ENDBRANCH  35  36
ENDBRANCH  33  35
ENDBRANCH  32  33
ENDBRANCH   4  32
TORSDOF 8
ENDMDL
MODEL        6
REMARK 921   NORMALIZED FREE ENERGY PREDICTED BY IDOCK:   -6.61 KCAL/MOL
REMARK 922        TOTAL FREE ENERGY PREDICTED BY IDOCK:   -9.43 KCAL/MOL
REMARK 923 INTER-LIGAND FREE ENERGY PREDICTED BY IDOCK:  -10.12 KCAL/MOL
REMARK 924 INTRA-LIGAND FREE ENERGY PREDICTED BY IDOCK:    0.68 KCAL/MOL
REMARK 927      BINDING AFFINITY PREDICTED BY RF-SCORE:    0.00 PKD
ROOT
HETATM    1  C   UNL     1     -11.284  14.853  67.079  1.00  0.00    -0.344 C  
HETATM    2  C   UNL     1     -11.369  15.326  65.744  1.00  0.00    -0.180 C  
HETATM    3  C   UNL     1     -10.433  14.222  66.060  1.00  0.00    -0.306 C  
HETATM    4  C   UNL     1     -10.618  13.345  67.933  1.00  0.00    -0.245 C  
HETATM    5  C   UNL     1     -10.770  12.991  66.637  1.00  0.00    -0.285 C  
HETATM    6  C   UNL     1      -6.800  19.337  69.169  1.00  0.00    -0.336 C  
HETATM    7  C   UNL     1      -7.646  19.346  67.922  1.00  0.00    -0.316 C  
HETATM    8  C   UNL     1      -8.326  18.180  67.922  1.00  0.00    -0.254 C  
HETATM    9  F   UNL     1     -10.106  19.286  69.034  1.00  0.00    -0.444 F  
HETATM   10  C   UNL     1      -8.883  12.806  66.560  1.00  0.00    -0.046 C  
HETATM   11  C   UNL     1      -9.539  18.065  68.823  1.00  0.00    -0.301 C  
HETATM   12  C   UNL     1     -11.891  12.111  66.016  1.00  0.00    -0.328 C  
HETATM   13  C   UNL     1     -10.569  17.188  68.152  1.00  0.00    -0.380 C  
HETATM   14  O   UNL     1      -6.555  20.366  69.782  1.00  0.00    -0.240 OA 
HETATM   15  C   UNL     1      -8.010  14.127  67.307  1.00  0.00    -0.150 C  
HETATM   16  C   UNL     1      -6.222  18.000  69.573  1.00  0.00    -0.237 C  
HETATM   17  O   UNL     1      -7.601  13.720  68.615  1.00  0.00    -0.128 OA 
HETATM   18  C   UNL     1      -8.567  15.706  67.329  1.00  0.00    -0.192 C  
HETATM   19  C   UNL     1      -6.548  16.983  66.522  1.00  0.00    -0.254 C  
HETATM   20  C   UNL     1      -7.526  16.860  67.753  1.00  0.00    -0.176 C  
HETATM   21  H   UNL     1      -7.128  14.437  69.020  1.00  0.00     0.000 HD 
HETATM   22  C   UNL     1     -10.038  15.765  67.958  1.00  0.00    -0.228 C  
HETATM   23  F   UNL     1      -8.751  16.129  66.007  1.00  0.00    -0.327 F  
HETATM   24  C   UNL     1      -6.579  16.844  68.956  1.00  0.00    -0.209 C  
ENDROOT
BRANCH   4  25
HETATM   25  C   UNL     1     -10.370  11.738  68.428  1.00  0.00    -0.214 C  
HETATM   26  O   UNL     1      -9.420  11.326  69.116  1.00  0.00    -0.074 OA 
BRANCH  25  27
HETATM   27  C   UNL     1     -11.295  10.632  67.929  1.00  0.00    -0.268 C  
BRANCH  27  28
HETATM   28  O   UNL     1     -10.710   9.331  68.121  1.00  0.00    -0.213 OA 
BRANCH  28  29
HETATM   29  C   UNL     1     -10.453   8.660  66.969  1.00  0.00    -0.284 C  
HETATM   30  C   UNL     1     -10.843   7.213  67.073  1.00  0.00    -0.382 C  
HETATM   31  O   UNL     1      -9.958   9.173  65.983  1.00  0.00    -0.291 OA 
ENDBRANCH  28  29
ENDBRANCH  27  28
ENDBRANCH  25  27
ENDBRANCH   4  25
BRANCH   4  32
HETATM   32  O   UNL     1     -12.062  13.258  68.519  1.00  0.00    -0.341 OA 
BRANCH  32  33
HETATM   33  C   UNL     1     -12.264  13.371  69.866  1.00  0.00    -0.271 C  
HETATM   34  O   UNL     1     -12.249  12.439  70.654  1.00  0.00    -0.368 OA 
BRANCH  33  35
HETATM   35  C   UNL     1     -12.514  14.798  70.273  1.00  0.00    -0.393 C  
BRANCH  35  36
HETATM   36  C   UNL     1     -13.702  14.865  71.218  1.00  0.00    -0.505 C  
HETATM   37  C   UNL     1     -13.365  15.597  72.512  1.00  0.00    -0.604 C  
ENDBRANCH  35  36
ENDBRANCH  33  35
ENDBRANCH  32  33
ENDBRANCH   4  32
TORSDOF 8
ENDMDL
MODEL        7
REMARK 921   NORMALIZED FREE ENERGY PREDICTED BY IDOCK:   -6.56 KCAL/MOL
REMARK 922        TOTAL FREE ENERGY PREDICTED BY IDOCK:   -9.37 KCAL/MOL
REMARK 923 INTER-LIGAND FREE ENERGY PREDICTED BY IDOCK:   -9.26 KCAL/MOL
REMARK 924 INTRA-LIGAND FREE ENERGY PREDICTED BY IDOCK:   -0.11 KCAL/MOL
REMARK 927      BINDING AFFINITY PREDICTED BY RF-SCORE:    0.00 PKD
ROOT
HETATM    1  C   UNL     1      -9.801  14.778  69.335  1.00  0.00    -0.072 C  
HETATM    2  C   UNL     1     -10.507  15.439  70.372  1.00  0.00    -0.209 C  
HETATM    3  C   UNL     1     -11.152  15.281  69.049  1.00  0.00    -0.263 C  
HETATM    4  C   UNL     1     -10.222  14.002  67.702  1.00  0.00    -0.241 C  
HETATM    5  C   UNL     1     -11.388  14.070  68.384  1.00  0.00    -0.321 C  
HETATM    6  C   UNL     1      -6.494  20.150  67.146  1.00  0.00    -0.202 C  
HETATM    7  C   UNL     1      -7.244  19.954  68.438  1.00  0.00    -0.331 C  
HETATM    8  C   UNL     1      -7.801  18.727  68.366  1.00  0.00    -0.351 C  
HETATM    9  F   UNL     1      -5.879  17.855  69.450  1.00  0.00    -0.188 F  
HETATM   10  C   UNL     1     -11.987  15.289  67.058  1.00  0.00     0.224 C  
HETATM   11  C   UNL     1      -6.913  17.528  68.625  1.00  0.00    -0.232 C  
HETATM   12  C   UNL     1     -12.143  12.914  69.098  1.00  0.00    -0.216 C  
HETATM   13  C   UNL     1      -7.723  16.452  69.307  1.00  0.00    -0.171 C  
HETATM   14  O   UNL     1      -5.457  20.795  67.101  1.00  0.00    -0.172 OA 
HETATM   15  C   UNL     1     -10.811  16.518  66.643  1.00  0.00    -0.053 C  
HETATM   16  C   UNL     1      -7.133  19.563  65.909  1.00  0.00    -0.306 C  
HETATM   17  O   UNL     1     -10.159  16.133  65.431  1.00  0.00    -0.485 OA 
HETATM   18  C   UNL     1      -9.706  17.144  67.734  1.00  0.00    -0.271 C  
HETATM   19  C   UNL     1      -9.997  19.627  67.406  1.00  0.00    -0.510 C  
HETATM   20  C   UNL     1      -8.916  18.483  67.313  1.00  0.00    -0.275 C  
HETATM   21  H   UNL     1      -9.521  16.800  65.206  1.00  0.00     0.000 HD 
HETATM   22  C   UNL     1      -8.860  15.962  68.404  1.00  0.00    -0.184 C  
HETATM   23  F   UNL     1     -10.410  17.701  68.809  1.00  0.00    -0.321 F  
HETATM   24  C   UNL     1      -8.226  18.758  65.974  1.00  0.00    -0.113 C  
ENDROOT
BRANCH   4  25
HETATM   25  C   UNL     1     -10.883  12.982  66.514  1.00  0.00    -0.279 C  
HETATM   26  O   UNL     1     -11.841  12.206  66.671  1.00  0.00    -0.566 OA 
BRANCH  25  27
HETATM   27  C   UNL     1     -10.223  12.877  65.141  1.00  0.00    -0.271 C  
BRANCH  27  28
HETATM   28  O   UNL     1     -10.783  13.825  64.215  1.00  0.00    -0.372 OA 
BRANCH  28  29
HETATM   29  C   UNL     1     -11.837  13.351  63.501  1.00  0.00    -0.344 C  
HETATM   30  C   UNL     1     -11.725  11.872  63.268  1.00  0.00    -0.397 C  
HETATM   31  O   UNL     1     -12.748  14.048  63.096  1.00  0.00    -0.676 OA 
ENDBRANCH  28  29
ENDBRANCH  27  28
ENDBRANCH  25  27
ENDBRANCH   4  25
BRANCH   4  32
HETATM   32  O   UNL     1      -9.503  12.757  68.310  1.00  0.00    -0.214 OA 
BRANCH  32  33
HETATM   33  C   UNL     1      -8.394  12.239  67.702  1.00  0.00    -0.166 C  
HETATM   34  O   UNL     1      -7.470  12.902  67.257  1.00  0.00    -0.147 OA 
BRANCH  33  35
HETATM   35  C   UNL     1      -8.444  10.736  67.641  1.00  0.00    -0.119 C  
BRANCH  35  36
HETATM   36  C   UNL     1      -9.465  10.213  68.638  1.00  0.00    -0.164 C  
HETATM   37  C   UNL     1     -10.299   9.075  68.061  1.00  0.00    -0.275 C  
ENDBRANCH  35  36
ENDBRANCH  33  35
ENDBRANCH  32  33
ENDBRANCH   4  32
TORSDOF 8
ENDMDL
MODEL        8
REMARK 921   NORMALIZED FREE ENERGY PREDICTED BY IDOCK:   -6.33 KCAL/MOL
REMARK 922        TOTAL FREE ENERGY PREDICTED BY IDOCK:   -9.03 KCAL/MOL
REMARK 923 INTER-LIGAND FREE ENERGY PREDICTED BY IDOCK:   -8.71 KCAL/MOL
REMARK 924 INTRA-LIGAND FREE ENERGY PREDICTED BY IDOCK:   -0.32 KCAL/MOL
REMARK 927      BINDING AFFINITY PREDICTED BY RF-SCORE:    0.00 PKD
ROOT
HETATM    1  C   UNL     1      -8.830  11.948  66.779  1.00  0.00    -0.193 C  
HETATM    2  C   UNL     1      -9.065  10.996  65.754  1.00  0.00    -0.219 C  
HETATM    3  C   UNL     1     -10.222  11.635  66.424  1.00  0.00    -0.256 C  
HETATM    4  C   UNL     1      -9.813  13.264  67.645  1.00  0.00    -0.230 C  
HETATM    5  C   UNL     1     -10.478  13.011  66.496  1.00  0.00    -0.284 C  
HETATM    6  C   UNL     1      -8.296   7.548  71.773  1.00  0.00    -0.107 C  
HETATM    7  C   UNL     1      -8.254   7.311  70.286  1.00  0.00    -0.133 C  
HETATM    8  C   UNL     1      -8.488   8.508  69.708  1.00  0.00    -0.129 C  
HETATM    9  F   UNL     1      -6.143   8.863  69.630  1.00  0.00    -0.037 F  
HETATM   10  C   UNL     1     -11.901  12.359  67.570  1.00  0.00    -0.354 C  
HETATM   11  C   UNL     1      -7.347   9.502  69.647  1.00  0.00    -0.084 C  
HETATM   12  C   UNL     1     -10.511  13.874  65.204  1.00  0.00    -0.409 C  
HETATM   13  C   UNL     1      -7.460  10.304  68.372  1.00  0.00    -0.090 C  
HETATM   14  O   UNL     1      -7.585   6.917  72.541  1.00  0.00    -0.090 OA 
HETATM   15  C   UNL     1     -11.384  11.304  68.868  1.00  0.00    -0.275 C  
HETATM   16  C   UNL     1      -9.311   8.558  72.259  1.00  0.00    -0.363 C  
HETATM   17  O   UNL     1     -11.340  12.061  70.079  1.00  0.00    -0.496 OA 
HETATM   18  C   UNL     1     -10.056  10.290  68.759  1.00  0.00    -0.187 C  
HETATM   19  C   UNL     1     -11.010   8.093  69.548  1.00  0.00    -0.056 C  
HETATM   20  C   UNL     1      -9.890   9.151  69.887  1.00  0.00    -0.206 C  
HETATM   21  H   UNL     1     -11.059  11.489  70.784  1.00  0.00     0.000 HD 
HETATM   22  C   UNL     1      -8.753  11.127  68.352  1.00  0.00    -0.157 C  
HETATM   23  F   UNL     1     -10.247   9.423  67.677  1.00  0.00    -0.208 F  
HETATM   24  C   UNL     1     -10.023   9.334  71.401  1.00  0.00    -0.323 C  
ENDROOT
BRANCH   4  25
HETATM   25  C   UNL     1     -10.726  14.662  67.961  1.00  0.00    -0.246 C  
HETATM   26  O   UNL     1     -11.259  15.392  67.108  1.00  0.00    -0.326 OA 
BRANCH  25  27
HETATM   27  C   UNL     1     -10.854  15.187  69.389  1.00  0.00    -0.262 C  
BRANCH  27  28
HETATM   28  O   UNL     1     -12.165  14.936  69.926  1.00  0.00    -0.310 OA 
BRANCH  28  29
HETATM   29  C   UNL     1     -12.449  15.638  71.053  1.00  0.00    -0.447 C  
HETATM   30  C   UNL     1     -13.878  15.449  71.476  1.00  0.00    -0.599 C  
HETATM   31  O   UNL     1     -11.643  16.340  71.634  1.00  0.00    -0.458 OA 
ENDBRANCH  28  29
ENDBRANCH  27  28
ENDBRANCH  25  27
ENDBRANCH   4  25
BRANCH   4  32
HETATM   32  O   UNL     1      -8.634  14.186  67.202  1.00  0.00    -0.209 OA 
BRANCH  32  33
HETATM   33  C   UNL     1      -7.787  14.715  68.135  1.00  0.00    -0.128 C  
HETATM   34  O   UNL     1      -7.455  14.158  69.169  1.00  0.00    -0.112 OA 
BRANCH  33  35
HETATM   35  C   UNL     1      -7.305  16.084  67.736  1.00  0.00    -0.157 C  
BRANCH  35  36
HETATM   36  C   UNL     1      -7.830  16.432  66.353  1.00  0.00    -0.297 C  
HETATM   37  C   UNL     1      -8.656  17.713  66.358  1.00  0.00    -0.269 C  
ENDBRANCH  35  36
ENDBRANCH  33  35
ENDBRANCH  32  33
ENDBRANCH   4  32
TORSDOF 8
ENDMDL
MODEL        9
REMARK 921   NORMALIZED FREE ENERGY PREDICTED BY IDOCK:   -6.28 KCAL/MOL
REMARK 922        TOTAL FREE ENERGY PREDICTED BY IDOCK:   -8.96 KCAL/MOL
REMARK 923 INTER-LIGAND FREE ENERGY PREDICTED BY IDOCK:   -9.19 KCAL/MOL
REMARK 924 INTRA-LIGAND FREE ENERGY PREDICTED BY IDOCK:    0.23 KCAL/MOL
REMARK 927      BINDING AFFINITY PREDICTED BY RF-SCORE:    0.00 PKD
ROOT
HETATM    1  C   UNL     1     -11.158  13.318  67.481  1.00  0.00    -0.292 C  
HETATM    2  C   UNL     1     -11.578  12.616  68.641  1.00  0.00    -0.356 C  
HETATM    3  C   UNL     1     -10.545  13.670  68.770  1.00  0.00    -0.247 C  
HETATM    4  C   UNL     1     -10.243  14.891  67.117  1.00  0.00    -0.245 C  
HETATM    5  C   UNL     1     -10.682  15.012  68.390  1.00  0.00    -0.245 C  
HETATM    6  C   UNL     1      -6.510   8.911  65.593  1.00  0.00    -0.063 C  
HETATM    7  C   UNL     1      -7.627   8.749  66.591  1.00  0.00    -0.089 C  
HETATM    8  C   UNL     1      -8.235   9.951  66.672  1.00  0.00    -0.121 C  
HETATM    9  F   UNL     1      -9.749   9.233  64.992  1.00  0.00    -0.309 F  
HETATM   10  C   UNL     1      -8.860  15.010  68.922  1.00  0.00    -0.201 C  
HETATM   11  C   UNL     1      -9.194  10.338  65.565  1.00  0.00    -0.190 C  
HETATM   12  C   UNL     1     -11.877  15.860  68.908  1.00  0.00    -0.314 C  
HETATM   13  C   UNL     1     -10.314  11.165  66.150  1.00  0.00    -0.302 C  
HETATM   14  O   UNL     1      -6.173   7.995  64.857  1.00  0.00    -0.048 OA 
HETATM   15  C   UNL     1      -7.895  13.777  68.141  1.00  0.00    -0.149 C  
HETATM   16  C   UNL     1      -5.794  10.242  65.604  1.00  0.00    -0.097 C  
HETATM   17  O   UNL     1      -7.170  14.379  67.066  1.00  0.00    -0.348 OA 
HETATM   18  C   UNL     1      -8.500  12.285  67.680  1.00  0.00    -0.166 C  
HETATM   19  C   UNL     1      -6.788  10.705  68.645  1.00  0.00    -0.059 C  
HETATM   20  C   UNL     1      -7.441  11.140  67.277  1.00  0.00    -0.118 C  
HETATM   21  H   UNL     1      -6.647  13.710  66.641  1.00  0.00     0.000 HD 
HETATM   22  C   UNL     1      -9.782  12.475  66.739  1.00  0.00    -0.234 C  
HETATM   23  F   UNL     1      -9.010  11.644  68.814  1.00  0.00    -0.166 F  
HETATM   24  C   UNL     1      -6.236  11.293  66.344  1.00  0.00    -0.106 C  
ENDROOT
BRANCH   4  25
HETATM   25  C   UNL     1      -9.814  16.533  67.022  1.00  0.00    -0.257 C  
HETATM   26  O   UNL     1     -10.464  17.484  67.489  1.00  0.00    -0.343 OA 
BRANCH  25  27
HETATM   27  C   UNL     1      -8.592  16.960  66.214  1.00  0.00    -0.284 C  
BRANCH  27  28
HETATM   28  O   UNL     1      -8.719  18.314  65.744  1.00  0.00    -0.453 OA 
BRANCH  28  29
HETATM   29  C   UNL     1      -7.733  19.146  66.169  1.00  0.00    -0.279 C  
HETATM   30  C   UNL     1      -6.451  18.910  65.423  1.00  0.00    -0.309 C  
HETATM   31  O   UNL     1      -7.878  19.970  67.052  1.00  0.00    -0.284 OA 
ENDBRANCH  28  29
ENDBRANCH  27  28
ENDBRANCH  25  27
ENDBRANCH   4  25
BRANCH   4  32
HETATM   32  O   UNL     1     -11.501  15.214  66.253  1.00  0.00    -0.280 OA 
BRANCH  32  33
HETATM   33  C   UNL     1     -11.373  15.448  64.912  1.00  0.00    -0.363 C  
HETATM   34  O   UNL     1     -11.416  16.551  64.390  1.00  0.00    -0.873 OA 
BRANCH  33  35
HETATM   35  C   UNL     1     -11.170  14.172  64.142  1.00  0.00    -0.056 C  
BRANCH  35  36
HETATM   36  C   UNL     1     -12.488  13.422  64.030  1.00  0.00    -0.310 C  
HETATM   37  C   UNL     1     -12.323  12.072  63.344  1.00  0.00    -0.635 C  
ENDBRANCH  35  36
ENDBRANCH  33  35
ENDBRANCH  32  33
ENDBRANCH   4  32
TORSDOF 8
ENDMDL
MODEL       10
REMARK 921   NORMALIZED FREE ENERGY PREDICTED BY IDOCK:   -6.27 KCAL/MOL
REMARK 922        TOTAL FREE ENERGY PREDICTED BY IDOCK:   -8.94 KCAL/MOL
REMARK 923 INTER-LIGAND FREE ENERGY PREDICTED BY IDOCK:   -9.00 KCAL/MOL
REMARK 924 INTRA-LIGAND FREE ENERGY PREDICTED BY IDOCK:    0.07 KCAL/MOL
REMARK 927      BINDING AFFINITY PREDICTED BY RF-SCORE:    0.00 PKD
ROOT
HETATM    1  C   UNL     1      -8.258   8.501  66.758  1.00  0.00    -0.105 C  
HETATM    2  C   UNL     1      -7.010   9.172  66.673  1.00  0.00    -0.081 C  
HETATM    3  C   UNL     1      -7.769   9.219  67.944  1.00  0.00    -0.088 C  
HETATM    4  C   UNL     1      -9.391   7.934  68.115  1.00  0.00    -0.142 C  
HETATM    5  C   UNL     1      -8.185   8.116  68.700  1.00  0.00    -0.125 C  
HETATM    6  C   UNL     1     -11.950  13.492  64.299  1.00  0.00    -0.432 C  
HETATM    7  C   UNL     1     -10.456  13.302  64.257  1.00  0.00    -0.372 C  
HETATM    8  C   UNL     1     -10.200  12.180  64.962  1.00  0.00    -0.312 C  
HETATM    9  F   UNL     1     -10.327  10.949  62.938  1.00  0.00    -0.340 F  
HETATM   10  C   UNL     1      -8.985   9.515  69.702  1.00  0.00    -0.198 C  
HETATM   11  C   UNL     1     -10.454  10.846  64.291  1.00  0.00    -0.335 C  
HETATM   12  C   UNL     1      -7.163   7.028  69.135  1.00  0.00    -0.090 C  
HETATM   13  C   UNL     1      -9.429   9.848  64.775  1.00  0.00    -0.356 C  
HETATM   14  O   UNL     1     -12.559  13.979  63.357  1.00  0.00    -0.845 OA 
HETATM   15  C   UNL     1      -9.985  10.588  68.748  1.00  0.00    -0.192 C  
HETATM   16  C   UNL     1     -12.635  13.110  65.591  1.00  0.00    -0.414 C  
HETATM   17  O   UNL     1     -11.353  10.213  68.925  1.00  0.00    -0.394 OA 
HETATM   18  C   UNL     1      -9.677  10.953  67.142  1.00  0.00    -0.174 C  
HETATM   19  C   UNL     1      -9.821  13.470  67.141  1.00  0.00    -0.245 C  
HETATM   20  C   UNL     1     -10.475  12.191  66.490  1.00  0.00    -0.254 C  
HETATM   21  H   UNL     1     -11.896  10.796  68.406  1.00  0.00     0.000 HD 
HETATM   22  C   UNL     1      -9.564   9.607  66.282  1.00  0.00    -0.281 C  
HETATM   23  F   UNL     1      -8.399  11.516  67.052  1.00  0.00    -0.139 F  
HETATM   24  C   UNL     1     -11.977  12.472  66.594  1.00  0.00    -0.351 C  
ENDROOT
BRANCH   4  25
HETATM   25  C   UNL     1     -10.018   7.124  69.472  1.00  0.00    -0.164 C  
HETATM   26  O   UNL     1      -9.411   6.291  70.167  1.00  0.00    -0.158 OA 
BRANCH  25  27
HETATM   27  C   UNL     1     -11.482   7.305  69.862  1.00  0.00    -0.054 C  
BRANCH  27  28
HETATM   28  O   UNL     1     -11.694   7.013  71.255  1.00  0.00    -0.282 OA 
BRANCH  28  29
HETATM   29  C   UNL     1     -11.404   8.043  72.091  1.00  0.00    -0.328 C  
HETATM   30  C   UNL     1     -10.556   7.595  73.246  1.00  0.00    -0.411 C  
HETATM   31  O   UNL     1     -11.796   9.182  71.922  1.00  0.00    -0.354 OA 
ENDBRANCH  28  29
ENDBRANCH  27  28
ENDBRANCH  25  27
ENDBRANCH   4  25
BRANCH   4  32
HETATM   32  O   UNL     1      -9.258   6.551  67.404  1.00  0.00    -0.121 OA 
BRANCH  32  33
HETATM   33  C   UNL     1     -10.358   5.952  66.855  1.00  0.00    -0.247 C  
HETATM   34  O   UNL     1     -11.459   6.471  66.760  1.00  0.00    -0.155 OA 
BRANCH  33  35
HETATM   35  C   UNL     1     -10.052   4.559  66.377  1.00  0.00    -0.271 C  
BRANCH  35  36
HETATM   36  C   UNL     1      -8.581   4.451  66.008  1.00  0.00    -0.113 C  
HETATM   37  C   UNL     1      -7.826   3.505  66.933  1.00  0.00    -0.080 C  
ENDBRANCH  35  36
ENDBRANCH  33  35
ENDBRANCH  32  33
ENDBRANCH   4  32
TORSDOF 8
ENDMDL
MODEL       11
REMARK 921   NORMALIZED FREE ENERGY PREDICTED BY IDOCK:   -6.26 KCAL/MOL
REMARK 922        TOTAL FREE ENERGY PREDICTED BY IDOCK:   -8.93 KCAL/MOL
REMARK 923 INTER-LIGAND FREE ENERGY PREDICTED BY IDOCK:   -8.66 KCAL/MOL
REMARK 924 INTRA-LIGAND FREE ENERGY PREDICTED BY IDOCK:   -0.27 KCAL/MOL
REMARK 927      BINDING AFFINITY PREDICTED BY RF-SCORE:    0.00 PKD
ROOT
HETATM    1  C   UNL     1      -8.994  13.542  66.997  1.00  0.00    -0.237 C  
HETATM    2  C   UNL     1      -9.173  12.876  65.758  1.00  0.00     0.219 C  
HETATM    3  C   UNL     1     -10.365  13.315  66.519  1.00  0.00    -0.285 C  
HETATM    4  C   UNL     1     -10.033  14.588  68.126  1.00  0.00    -0.220 C  
HETATM    5  C   UNL     1     -10.651  14.625  66.924  1.00  0.00    -0.281 C  
HETATM    6  C   UNL     1      -8.554   8.033  70.745  1.00  0.00    -0.129 C  
HETATM    7  C   UNL     1      -8.454   8.178  69.249  1.00  0.00    -0.134 C  
HETATM    8  C   UNL     1      -8.690   9.480  68.981  1.00  0.00    -0.142 C  
HETATM    9  F   UNL     1      -6.352   9.866  69.087  1.00  0.00    -0.043 F  
HETATM   10  C   UNL     1     -12.099  13.711  67.743  1.00  0.00    -0.325 C  
HETATM   11  C   UNL     1      -7.568  10.468  69.216  1.00  0.00    -0.134 C  
HETATM   12  C   UNL     1     -10.654  15.786  65.890  1.00  0.00    -0.350 C  
HETATM   13  C   UNL     1      -7.651  11.564  68.180  1.00  0.00    -0.113 C  
HETATM   14  O   UNL     1      -7.859   7.237  71.358  1.00  0.00    -0.094 OA 
HETATM   15  C   UNL     1     -11.608  12.369  68.755  1.00  0.00    -0.326 C  
HETATM   16  C   UNL     1      -9.605   8.879  71.428  1.00  0.00    -0.359 C  
HETATM   17  O   UNL     1     -11.623  12.798  70.118  1.00  0.00    -0.515 OA 
HETATM   18  C   UNL     1     -10.257  11.428  68.448  1.00  0.00    -0.198 C  
HETATM   19  C   UNL     1     -11.196   9.094  68.622  1.00  0.00     0.246 C  
HETATM   20  C   UNL     1     -10.110  10.044  69.259  1.00  0.00    -0.226 C  
HETATM   21  H   UNL     1     -11.356  12.069  70.667  1.00  0.00     0.000 HD 
HETATM   22  C   UNL     1      -8.957  12.353  68.316  1.00  0.00    -0.178 C  
HETATM   23  F   UNL     1     -10.393  10.858  67.176  1.00  0.00    -0.216 F  
HETATM   24  C   UNL     1     -10.301   9.838  70.764  1.00  0.00    -0.298 C  
ENDROOT
BRANCH   4  25
HETATM   25  C   UNL     1     -10.984  15.853  68.746  1.00  0.00    -0.301 C  
HETATM   26  O   UNL     1     -11.352  16.862  68.120  1.00  0.00    -0.217 OA 
BRANCH  25  27
HETATM   27  C   UNL     1     -11.364  15.872  70.224  1.00  0.00    -0.372 C  
BRANCH  27  28
HETATM   28  O   UNL     1     -12.762  15.586  70.410  1.00  0.00    -0.425 OA 
BRANCH  28  29
HETATM   29  C   UNL     1     -13.171  15.624  71.705  1.00  0.00    -0.472 C  
HETATM   30  C   UNL     1     -12.068  16.074  72.619  1.00  0.00    -0.640 C  
HETATM   31  O   UNL     1     -14.290  15.320  72.070  1.00  0.00    -0.526 OA 
ENDBRANCH  28  29
ENDBRANCH  27  28
ENDBRANCH  25  27
ENDBRANCH   4  25
BRANCH   4  32
HETATM   32  O   UNL     1      -8.857  15.604  67.975  1.00  0.00    -0.167 OA 
BRANCH  32  33
HETATM   33  C   UNL     1      -8.027  15.856  69.031  1.00  0.00    -0.222 C  
HETATM   34  O   UNL     1      -7.808  15.077  69.946  1.00  0.00    -0.114 OA 
BRANCH  33  35
HETATM   35  C   UNL     1      -7.406  17.223  68.936  1.00  0.00    -0.243 C  
BRANCH  35  36
HETATM   36  C   UNL     1      -8.058  18.009  67.811  1.00  0.00    -0.237 C  
HETATM   37  C   UNL     1      -8.790  19.243  68.322  1.00  0.00    -0.379 C  
ENDBRANCH  35  36
ENDBRANCH  33  35
ENDBRANCH  32  33
ENDBRANCH   4  32
TORSDOF 8
ENDMDL
MODEL       12
REMARK 921   NORMALIZED FREE ENERGY PREDICTED BY IDOCK:   -6.24 KCAL/MOL
REMARK 922        TOTAL FREE ENERGY PREDICTED BY IDOCK:   -8.89 KCAL/MOL
REMARK 923 INTER-LIGAND FREE ENERGY PREDICTED BY IDOCK:   -9.56 KCAL/MOL
REMARK 924 INTRA-LIGAND FREE ENERGY PREDICTED BY IDOCK:    0.67 KCAL/MOL
REMARK 927      BINDING AFFINITY PREDICTED BY RF-SCORE:    0.00 PKD
ROOT
HETATM    1  C   UNL     1     -11.437  11.753  67.478  1.00  0.00    -0.373 C  
HETATM    2  C   UNL     1     -11.708  11.905  66.094  1.00  0.00    -0.217 C  
HETATM    3  C   UNL     1     -10.363  11.453  66.520  1.00  0.00    -0.277 C  
HETATM    4  C   UNL     1     -10.147  10.910  68.513  1.00  0.00    -0.183 C  
HETATM    5  C   UNL     1     -10.079  10.322  67.297  1.00  0.00    -0.249 C  
HETATM    6  C   UNL     1      -9.722  18.109  68.599  1.00  0.00    -0.357 C  
HETATM    7  C   UNL     1     -10.437  17.509  67.416  1.00  0.00    -0.342 C  
HETATM    8  C   UNL     1     -10.471  16.178  67.633  1.00  0.00    -0.292 C  
HETATM    9  F   UNL     1     -12.590  16.458  68.663  1.00  0.00     0.251 F  
HETATM   10  C   UNL     1      -8.335  11.055  67.141  1.00  0.00    -0.132 C  
HETATM   11  C   UNL     1     -11.499  15.643  68.608  1.00  0.00    -0.375 C  
HETATM   12  C   UNL     1     -10.621   8.926  66.883  1.00  0.00    -0.254 C  
HETATM   13  C   UNL     1     -11.963  14.284  68.139  1.00  0.00    -0.343 C  
HETATM   14  O   UNL     1     -10.018  19.212  69.033  1.00  0.00    -0.416 OA 
HETATM   15  C   UNL     1      -8.225  12.733  67.627  1.00  0.00    -0.175 C  
HETATM   16  C   UNL     1      -8.581  17.298  69.169  1.00  0.00     0.040 C  
HETATM   17  O   UNL     1      -7.702  12.789  68.956  1.00  0.00    -0.320 OA 
HETATM   18  C   UNL     1      -9.475  13.832  67.439  1.00  0.00    -0.224 C  
HETATM   19  C   UNL     1      -8.303  15.771  66.333  1.00  0.00    -0.267 C  
HETATM   20  C   UNL     1      -9.130  15.395  67.622  1.00  0.00    -0.183 C  
HETATM   21  H   UNL     1      -7.643  13.700  69.219  1.00  0.00     0.000 HD 
HETATM   22  C   UNL     1     -10.807  13.279  68.134  1.00  0.00    -0.270 C  
HETATM   23  F   UNL     1      -9.809  13.896  66.081  1.00  0.00    -0.274 F  
HETATM   24  C   UNL     1      -8.322  16.029  68.757  1.00  0.00    -0.216 C  
ENDROOT
BRANCH   4  25
HETATM   25  C   UNL     1      -9.166   9.722  69.232  1.00  0.00    -0.192 C  
HETATM   26  O   UNL     1      -8.169   9.934  69.943  1.00  0.00    -0.167 OA 
BRANCH  25  27
HETATM   27  C   UNL     1      -9.408   8.245  68.932  1.00  0.00    -0.147 C  
BRANCH  27  28
HETATM   28  O   UNL     1      -9.542   7.478  70.142  1.00  0.00    -0.168 OA 
BRANCH  28  29
HETATM   29  C   UNL     1     -10.583   6.607  70.138  1.00  0.00    -0.221 C  
HETATM   30  C   UNL     1     -10.823   6.025  71.501  1.00  0.00    -0.322 C  
HETATM   31  O   UNL     1     -11.230   6.331  69.145  1.00  0.00    -0.376 OA 
ENDBRANCH  28  29
ENDBRANCH  27  28
ENDBRANCH  25  27
ENDBRANCH   4  25
BRANCH   4  32
HETATM   32  O   UNL     1     -11.383  10.237  69.187  1.00  0.00    -0.230 OA 
BRANCH  32  33
HETATM   33  C   UNL     1     -11.659  10.471  70.505  1.00  0.00    -0.350 C  
HETATM   34  O   UNL     1     -11.491   9.663  71.406  1.00  0.00    -0.356 OA 
BRANCH  33  35
HETATM   35  C   UNL     1     -12.202  11.857  70.723  1.00  0.00    -0.401 C  
BRANCH  35  36
HETATM   36  C   UNL     1     -13.152  11.858  71.909  1.00  0.00    -0.474 C  
HETATM   37  C   UNL     1     -13.646  13.259  72.247  1.00  0.00    -0.703 C  
ENDBRANCH  35  36
ENDBRANCH  33  35
ENDBRANCH  32  33
ENDBRANCH   4  32
TORSDOF 8
ENDMDL
MODEL       13
REMARK 921   NORMALIZED FREE ENERGY PREDICTED BY IDOCK:   -6.18 KCAL/MOL
REMARK 922        TOTAL FREE ENERGY PREDICTED BY IDOCK:   -8.80 KCAL/MOL
REMARK 923 INTER-LIGAND FREE ENERGY PREDICTED BY IDOCK:   -9.34 KCAL/MOL
REMARK 924 INTRA-LIGAND FREE ENERGY PREDICTED BY IDOCK:    0.53 KCAL/MOL
REMARK 927      BINDING AFFINITY PREDICTED BY RF-SCORE:    0.00 PKD
ROOT
HETATM    1  C   UNL     1     -11.365  11.775  67.572  1.00  0.00    -0.377 C  
HETATM    2  C   UNL     1     -11.579  11.868  66.173  1.00  0.00    -0.299 C  
HETATM    3  C   UNL     1     -10.254  11.433  66.673  1.00  0.00    -0.258 C  
HETATM    4  C   UNL     1     -10.121  10.975  68.694  1.00  0.00    -0.197 C  
HETATM    5  C   UNL     1     -10.006  10.336  67.509  1.00  0.00    -0.226 C  
HETATM    6  C   UNL     1      -9.676  18.171  68.488  1.00  0.00    -0.362 C  
HETATM    7  C   UNL     1     -10.344  17.522  67.304  1.00  0.00    -0.337 C  
HETATM    8  C   UNL     1     -10.392  16.201  67.576  1.00  0.00    -0.286 C  
HETATM    9  F   UNL     1     -12.550  16.529  68.506  1.00  0.00     0.433 F  
HETATM   10  C   UNL     1      -8.254  11.058  67.393  1.00  0.00    -0.122 C  
HETATM   11  C   UNL     1     -11.460  15.710  68.530  1.00  0.00    -0.375 C  
HETATM   12  C   UNL     1     -10.535   8.923  67.133  1.00  0.00    -0.344 C  
HETATM   13  C   UNL     1     -11.909  14.333  68.102  1.00  0.00    -0.374 C  
HETATM   14  O   UNL     1      -9.986  19.292  68.861  1.00  0.00    -0.422 OA 
HETATM   15  C   UNL     1      -8.159  12.755  67.810  1.00  0.00    -0.168 C  
HETATM   16  C   UNL     1      -8.562  17.383  69.138  1.00  0.00     0.065 C  
HETATM   17  O   UNL     1      -7.690  12.868  69.155  1.00  0.00    -0.324 OA 
HETATM   18  C   UNL     1      -9.396  13.847  67.524  1.00  0.00    -0.217 C  
HETATM   19  C   UNL     1      -8.174  15.735  66.384  1.00  0.00    -0.206 C  
HETATM   20  C   UNL     1      -9.054  15.416  67.653  1.00  0.00    -0.183 C  
HETATM   21  H   UNL     1      -7.639  13.789  69.382  1.00  0.00     0.000 HD 
HETATM   22  C   UNL     1     -10.757  13.327  68.187  1.00  0.00    -0.264 C  
HETATM   23  F   UNL     1      -9.674  13.853  66.152  1.00  0.00    -0.275 F  
HETATM   24  C   UNL     1      -8.291  16.097  68.792  1.00  0.00    -0.231 C  
ENDROOT
BRANCH   4  25
HETATM   25  C   UNL     1      -9.175   9.818  69.503  1.00  0.00    -0.213 C  
HETATM   26  O   UNL     1      -8.158  10.052  70.179  1.00  0.00    -0.175 OA 
BRANCH  25  27
HETATM   27  C   UNL     1      -9.478   8.331  69.340  1.00  0.00    -0.159 C  
BRANCH  27  28
HETATM   28  O   UNL     1      -9.289   7.617  70.575  1.00  0.00    -0.163 OA 
BRANCH  28  29
HETATM   29  C   UNL     1     -10.302   6.768  70.888  1.00  0.00    -0.199 C  
HETATM   30  C   UNL     1     -11.069   6.349  69.667  1.00  0.00    -0.465 C  
HETATM   31  O   UNL     1     -10.555   6.407  72.022  1.00  0.00    -0.206 OA 
ENDBRANCH  28  29
ENDBRANCH  27  28
ENDBRANCH  25  27
ENDBRANCH   4  25
BRANCH   4  32
HETATM   32  O   UNL     1     -11.386  10.334  69.346  1.00  0.00    -0.239 OA 
BRANCH  32  33
HETATM   33  C   UNL     1     -11.859  10.805  70.538  1.00  0.00    -0.356 C  
HETATM   34  O   UNL     1     -12.126  11.975  70.769  1.00  0.00    -0.349 OA 
BRANCH  33  35
HETATM   35  C   UNL     1     -12.013   9.703  71.550  1.00  0.00    -0.485 C  
BRANCH  35  36
HETATM   36  C   UNL     1     -13.485   9.504  71.876  1.00  0.00    -0.502 C  
HETATM   37  C   UNL     1     -13.927   8.060  71.673  1.00  0.00    -0.474 C  
ENDBRANCH  35  36
ENDBRANCH  33  35
ENDBRANCH  32  33
ENDBRANCH   4  32
TORSDOF 8
ENDMDL
MODEL       14
REMARK 921   NORMALIZED FREE ENERGY PREDICTED BY IDOCK:   -6.18 KCAL/MOL
REMARK 922        TOTAL FREE ENERGY PREDICTED BY IDOCK:   -8.80 KCAL/MOL
REMARK 923 INTER-LIGAND FREE ENERGY PREDICTED BY IDOCK:   -8.95 KCAL/MOL
REMARK 924 INTRA-LIGAND FREE ENERGY PREDICTED BY IDOCK:    0.14 KCAL/MOL
REMARK 927      BINDING AFFINITY PREDICTED BY RF-SCORE:    0.00 PKD
ROOT
HETATM    1  C   UNL     1      -9.989  14.154  68.760  1.00  0.00    -0.184 C  
HETATM    2  C   UNL     1     -10.960  14.614  69.686  1.00  0.00    -0.255 C  
HETATM    3  C   UNL     1     -11.322  14.510  68.253  1.00  0.00    -0.319 C  
HETATM    4  C   UNL     1      -9.989  13.501  67.022  1.00  0.00    -0.247 C  
HETATM    5  C   UNL     1     -11.257  13.353  67.466  1.00  0.00    -0.309 C  
HETATM    6  C   UNL     1      -7.134  20.091  67.671  1.00  0.00    -0.266 C  
HETATM    7  C   UNL     1      -8.073  19.673  68.773  1.00  0.00    -0.301 C  
HETATM    8  C   UNL     1      -8.426  18.400  68.501  1.00  0.00    -0.346 C  
HETATM    9  F   UNL     1      -6.632  17.670  69.871  1.00  0.00    -0.210 F  
HETATM   10  C   UNL     1     -11.770  14.616  66.144  1.00  0.00    -0.316 C  
HETATM   11  C   UNL     1      -7.440  17.301  68.837  1.00  0.00    -0.240 C  
HETATM   12  C   UNL     1     -11.958  12.045  67.929  1.00  0.00    -0.204 C  
HETATM   13  C   UNL     1      -8.201  16.069  69.265  1.00  0.00    -0.212 C  
HETATM   14  O   UNL     1      -6.208  20.862  67.879  1.00  0.00    -0.292 OA 
HETATM   15  C   UNL     1     -10.725  16.018  66.061  1.00  0.00    -0.267 C  
HETATM   16  C   UNL     1      -7.445  19.557  66.292  1.00  0.00    -0.291 C  
HETATM   17  O   UNL     1      -9.813  15.842  64.975  1.00  0.00    -0.339 OA 
HETATM   18  C   UNL     1      -9.939  16.664  67.391  1.00  0.00    -0.265 C  
HETATM   19  C   UNL     1     -10.515  19.111  67.201  1.00  0.00    -0.539 C  
HETATM   20  C   UNL     1      -9.283  18.127  67.235  1.00  0.00    -0.252 C  
HETATM   21  H   UNL     1      -9.246  16.603  64.930  1.00  0.00     0.000 HD 
HETATM   22  C   UNL     1      -9.070  15.534  68.122  1.00  0.00    -0.184 C  
HETATM   23  F   UNL     1     -10.900  17.016  68.346  1.00  0.00    -0.334 F  
HETATM   24  C   UNL     1      -8.406  18.620  66.081  1.00  0.00    -0.174 C  
ENDROOT
BRANCH   4  25
HETATM   25  C   UNL     1     -10.268  12.532  65.653  1.00  0.00    -0.267 C  
HETATM   26  O   UNL     1     -10.212  12.909  64.470  1.00  0.00    -0.345 OA 
BRANCH  25  27
HETATM   27  C   UNL     1     -10.740  11.090  65.820  1.00  0.00    -0.148 C  
BRANCH  27  28
HETATM   28  O   UNL     1     -10.126  10.221  64.851  1.00  0.00    -0.334 OA 
BRANCH  28  29
HETATM   29  C   UNL     1      -9.488   9.149  65.390  1.00  0.00    -0.160 C  
HETATM   30  C   UNL     1     -10.133   8.710  66.673  1.00  0.00    -0.364 C  
HETATM   31  O   UNL     1      -8.509   8.625  64.893  1.00  0.00    -0.169 OA 
ENDBRANCH  28  29
ENDBRANCH  27  28
ENDBRANCH  25  27
ENDBRANCH   4  25
BRANCH   4  32
HETATM   32  O   UNL     1      -9.224  12.300  67.663  1.00  0.00    -0.172 OA 
BRANCH  32  33
HETATM   33  C   UNL     1      -7.865  12.213  67.551  1.00  0.00    -0.162 C  
HETATM   34  O   UNL     1      -7.139  13.111  67.154  1.00  0.00    -0.083 OA 
BRANCH  33  35
HETATM   35  C   UNL     1      -7.357  10.862  67.976  1.00  0.00    -0.088 C  
BRANCH  35  36
HETATM   36  C   UNL     1      -7.437  10.733  69.488  1.00  0.00    -0.113 C  
HETATM   37  C   UNL     1      -8.385   9.622  69.921  1.00  0.00    -0.195 C  
ENDBRANCH  35  36
ENDBRANCH  33  35
ENDBRANCH  32  33
ENDBRANCH   4  32
TORSDOF 8
ENDMDL
MODEL       15
REMARK 921   NORMALIZED FREE ENERGY PREDICTED BY IDOCK:   -6.12 KCAL/MOL
REMARK 922        TOTAL FREE ENERGY PREDICTED BY IDOCK:   -8.73 KCAL/MOL
REMARK 923 INTER-LIGAND FREE ENERGY PREDICTED BY IDOCK:   -8.85 KCAL/MOL
REMARK 924 INTRA-LIGAND FREE ENERGY PREDICTED BY IDOCK:    0.12 KCAL/MOL
REMARK 927      BINDING AFFINITY PREDICTED BY RF-SCORE:    0.00 PKD
ROOT
HETATM    1  C   UNL     1     -11.356  11.756  67.261  1.00  0.00    -0.379 C  
HETATM    2  C   UNL     1     -11.655  11.980  65.892  1.00  0.00    -0.364 C  
HETATM    3  C   UNL     1     -10.297  11.522  66.268  1.00  0.00    -0.280 C  
HETATM    4  C   UNL     1     -10.037  10.873  68.224  1.00  0.00    -0.174 C  
HETATM    5  C   UNL     1      -9.986  10.354  66.977  1.00  0.00    -0.252 C  
HETATM    6  C   UNL     1      -9.689  18.061  68.696  1.00  0.00    -0.350 C  
HETATM    7  C   UNL     1     -10.420  17.519  67.495  1.00  0.00    -0.355 C  
HETATM    8  C   UNL     1     -10.436  16.177  67.639  1.00  0.00    -0.292 C  
HETATM    9  F   UNL     1     -12.537  16.375  68.722  1.00  0.00     0.188 F  
HETATM   10  C   UNL     1      -8.253  11.114  66.829  1.00  0.00    -0.154 C  
HETATM   11  C   UNL     1     -11.439  15.577  68.602  1.00  0.00    -0.359 C  
HETATM   12  C   UNL     1     -10.521   8.975  66.496  1.00  0.00    -0.192 C  
HETATM   13  C   UNL     1     -11.896  14.241  68.068  1.00  0.00    -0.379 C  
HETATM   14  O   UNL     1      -9.989  19.136  69.194  1.00  0.00    -0.400 OA 
HETATM   15  C   UNL     1      -8.153  12.765  67.403  1.00  0.00    -0.185 C  
HETATM   16  C   UNL     1      -8.529  17.234  69.199  1.00  0.00     0.029 C  
HETATM   17  O   UNL     1      -7.605  12.754  68.724  1.00  0.00    -0.225 OA 
HETATM   18  C   UNL     1      -9.418  13.857  67.299  1.00  0.00    -0.239 C  
HETATM   19  C   UNL     1      -8.288  15.868  66.279  1.00  0.00    -0.235 C  
HETATM   20  C   UNL     1      -9.087  15.412  67.560  1.00  0.00    -0.199 C  
HETATM   21  H   UNL     1      -7.551  13.650  69.035  1.00  0.00     0.000 HD 
HETATM   22  C   UNL     1     -10.730  13.251  67.987  1.00  0.00    -0.254 C  
HETATM   23  F   UNL     1      -9.778  13.991  65.953  1.00  0.00    -0.289 F  
HETATM   24  C   UNL     1      -8.264  15.993  68.714  1.00  0.00    -0.211 C  
ENDROOT
BRANCH   4  25
HETATM   25  C   UNL     1      -9.030   9.660  68.859  1.00  0.00    -0.144 C  
HETATM   26  O   UNL     1      -9.005   8.471  68.495  1.00  0.00    -0.139 OA 
BRANCH  25  27
HETATM   27  C   UNL     1      -8.131   9.959  70.055  1.00  0.00    -0.177 C  
BRANCH  27  28
HETATM   28  O   UNL     1      -6.773  10.198  69.645  1.00  0.00    -0.055 OA 
BRANCH  28  29
HETATM   29  C   UNL     1      -5.939  10.552  70.657  1.00  0.00    -0.104 C  
HETATM   30  C   UNL     1      -5.331   9.348  71.317  1.00  0.00    -0.055 C  
HETATM   31  O   UNL     1      -5.727  11.703  70.987  1.00  0.00    -0.339 OA 
ENDBRANCH  28  29
ENDBRANCH  27  28
ENDBRANCH  25  27
ENDBRANCH   4  25
BRANCH   4  32
HETATM   32  O   UNL     1     -11.253  10.150  68.883  1.00  0.00    -0.225 OA 
BRANCH  32  33
HETATM   33  C   UNL     1     -11.649  10.485  70.147  1.00  0.00    -0.326 C  
HETATM   34  O   UNL     1     -11.735  11.628  70.570  1.00  0.00    -0.292 OA 
BRANCH  33  35
HETATM   35  C   UNL     1     -11.972   9.268  70.970  1.00  0.00    -0.369 C  
BRANCH  35  36
HETATM   36  C   UNL     1     -13.078   9.594  71.961  1.00  0.00    -0.537 C  
HETATM   37  C   UNL     1     -14.193   8.556  71.939  1.00  0.00    -0.536 C  
ENDBRANCH  35  36
ENDBRANCH  33  35
ENDBRANCH  32  33
ENDBRANCH   4  32
TORSDOF 8
ENDMDL
MODEL       16
REMARK 921   NORMALIZED FREE ENERGY PREDICTED BY IDOCK:   -6.01 KCAL/MOL
REMARK 922        TOTAL FREE ENERGY PREDICTED BY IDOCK:   -8.57 KCAL/MOL
REMARK 923 INTER-LIGAND FREE ENERGY PREDICTED BY IDOCK:   -8.87 KCAL/MOL
REMARK 924 INTRA-LIGAND FREE ENERGY PREDICTED BY IDOCK:    0.30 KCAL/MOL
REMARK 927      BINDING AFFINITY PREDICTED BY RF-SCORE:    0.00 PKD
ROOT
HETATM    1  C   UNL     1      -8.363   8.583  67.181  1.00  0.00    -0.111 C  
HETATM    2  C   UNL     1      -7.120   9.266  67.142  1.00  0.00    -0.086 C  
HETATM    3  C   UNL     1      -7.971   9.386  68.348  1.00  0.00    -0.094 C  
HETATM    4  C   UNL     1      -9.586   8.088  68.488  1.00  0.00    -0.155 C  
HETATM    5  C   UNL     1      -8.429   8.329  69.145  1.00  0.00    -0.127 C  
HETATM    6  C   UNL     1     -11.923  13.335  64.127  1.00  0.00    -0.447 C  
HETATM    7  C   UNL     1     -10.428  13.168  64.207  1.00  0.00    -0.410 C  
HETATM    8  C   UNL     1     -10.211  12.100  65.003  1.00  0.00    -0.312 C  
HETATM    9  F   UNL     1     -10.174  10.735  63.064  1.00  0.00    -0.355 F  
HETATM   10  C   UNL     1      -9.317   9.779  69.990  1.00  0.00    -0.274 C  
HETATM   11  C   UNL     1     -10.399  10.720  64.408  1.00  0.00    -0.335 C  
HETATM   12  C   UNL     1      -7.429   7.290  69.726  1.00  0.00    -0.093 C  
HETATM   13  C   UNL     1      -9.401   9.774  65.032  1.00  0.00    -0.325 C  
HETATM   14  O   UNL     1     -12.466  13.748  63.113  1.00  0.00    -0.786 OA 
HETATM   15  C   UNL     1     -10.257  10.769  68.894  1.00  0.00    -0.203 C  
HETATM   16  C   UNL     1     -12.696  13.029  65.389  1.00  0.00    -0.369 C  
HETATM   17  O   UNL     1     -11.629  10.384  68.996  1.00  0.00    -0.416 OA 
HETATM   18  C   UNL     1      -9.836  11.030  67.294  1.00  0.00    -0.178 C  
HETATM   19  C   UNL     1     -10.008  13.539  67.112  1.00  0.00    -0.246 C  
HETATM   20  C   UNL     1     -10.598  12.209  66.503  1.00  0.00    -0.269 C  
HETATM   21  H   UNL     1     -12.140  10.921  68.401  1.00  0.00     0.000 HD 
HETATM   22  C   UNL     1      -9.643   9.632  66.538  1.00  0.00    -0.252 C  
HETATM   23  F   UNL     1      -8.561  11.607  67.259  1.00  0.00    -0.136 F  
HETATM   24  C   UNL     1     -12.106  12.470  66.478  1.00  0.00    -0.245 C  
ENDROOT
BRANCH   4  25
HETATM   25  C   UNL     1     -10.302   7.360  69.847  1.00  0.00    -0.218 C  
HETATM   26  O   UNL     1     -11.174   7.870  70.571  1.00  0.00    -0.265 OA 
BRANCH  25  27
HETATM   27  C   UNL     1      -9.800   6.008  70.345  1.00  0.00    -0.179 C  
BRANCH  27  28
HETATM   28  O   UNL     1     -10.846   5.267  70.999  1.00  0.00    -0.178 OA 
BRANCH  28  29
HETATM   29  C   UNL     1     -10.627   5.042  72.320  1.00  0.00    -0.206 C  
HETATM   30  C   UNL     1      -9.185   4.722  72.594  1.00  0.00    -0.143 C  
HETATM   31  O   UNL     1     -11.499   5.084  73.167  1.00  0.00    -0.327 OA 
ENDBRANCH  28  29
ENDBRANCH  27  28
ENDBRANCH  25  27
ENDBRANCH   4  25
BRANCH   4  32
HETATM   32  O   UNL     1      -9.385   6.663  67.884  1.00  0.00    -0.113 OA 
BRANCH  32  33
HETATM   33  C   UNL     1     -10.270   6.176  66.963  1.00  0.00    -0.202 C  
HETATM   34  O   UNL     1     -11.391   6.621  66.771  1.00  0.00    -0.270 OA 
BRANCH  33  35
HETATM   35  C   UNL     1      -9.698   5.010  66.203  1.00  0.00    -0.196 C  
BRANCH  35  36
HETATM   36  C   UNL     1      -8.654   4.304  67.052  1.00  0.00    -0.104 C  
HETATM   37  C   UNL     1      -9.268   3.232  67.944  1.00  0.00    -0.242 C  
ENDBRANCH  35  36
ENDBRANCH  33  35
ENDBRANCH  32  33
ENDBRANCH   4  32
TORSDOF 8
ENDMDL
MODEL       17
REMARK 921   NORMALIZED FREE ENERGY PREDICTED BY IDOCK:   -5.98 KCAL/MOL
REMARK 922        TOTAL FREE ENERGY PREDICTED BY IDOCK:   -8.51 KCAL/MOL
REMARK 923 INTER-LIGAND FREE ENERGY PREDICTED BY IDOCK:   -8.80 KCAL/MOL
REMARK 924 INTRA-LIGAND FREE ENERGY PREDICTED BY IDOCK:    0.29 KCAL/MOL
REMARK 927      BINDING AFFINITY PREDICTED BY RF-SCORE:    0.00 PKD
ROOT
HETATM    1  C   UNL     1      -8.676  11.209  68.818  1.00  0.00    -0.130 C  
HETATM    2  C   UNL     1      -7.281  11.203  69.078  1.00  0.00    -0.118 C  
HETATM    3  C   UNL     1      -7.753  11.260  67.675  1.00  0.00    -0.115 C  
HETATM    4  C   UNL     1      -9.776  11.628  67.381  1.00  0.00    -0.176 C  
HETATM    5  C   UNL     1      -8.596  12.236  67.125  1.00  0.00    -0.187 C  
HETATM    6  C   UNL     1      -9.469   4.579  68.873  1.00  0.00    -0.160 C  
HETATM    7  C   UNL     1      -8.311   5.404  69.370  1.00  0.00    -0.096 C  
HETATM    8  C   UNL     1      -8.600   6.684  69.058  1.00  0.00    -0.130 C  
HETATM    9  F   UNL     1      -9.580   6.925  71.205  1.00  0.00    -0.165 F  
HETATM   10  C   UNL     1      -8.426  11.076  65.632  1.00  0.00    -0.099 C  
HETATM   11  C   UNL     1      -9.588   7.424  69.936  1.00  0.00    -0.163 C  
HETATM   12  C   UNL     1      -8.251  13.745  67.267  1.00  0.00    -0.173 C  
HETATM   13  C   UNL     1      -9.188   8.878  70.011  1.00  0.00    -0.183 C  
HETATM   14  O   UNL     1      -9.837   3.573  69.463  1.00  0.00    -0.088 OA 
HETATM   15  C   UNL     1      -8.819   9.407  65.984  1.00  0.00    -0.156 C  
HETATM   16  C   UNL     1     -10.100   5.029  67.576  1.00  0.00    -0.201 C  
HETATM   17  O   UNL     1     -10.151   9.149  65.533  1.00  0.00    -0.391 OA 
HETATM   18  C   UNL     1      -8.552   8.689  67.473  1.00  0.00    -0.135 C  
HETATM   19  C   UNL     1      -7.358   6.565  66.822  1.00  0.00    -0.079 C  
HETATM   20  C   UNL     1      -8.653   7.083  67.558  1.00  0.00    -0.121 C  
HETATM   21  H   UNL     1     -10.365   8.243  65.724  1.00  0.00     0.000 HD 
HETATM   22  C   UNL     1      -9.256   9.540  68.631  1.00  0.00    -0.135 C  
HETATM   23  F   UNL     1      -7.187   8.783  67.772  1.00  0.00    -0.078 F  
HETATM   24  C   UNL     1      -9.763   6.203  66.980  1.00  0.00    -0.167 C  
ENDROOT
BRANCH   4  25
HETATM   25  C   UNL     1     -10.574  12.477  66.144  1.00  0.00    -0.253 C  
HETATM   26  O   UNL     1     -11.185  11.967  65.189  1.00  0.00    -0.311 OA 
BRANCH  25  27
HETATM   27  C   UNL     1     -10.483  13.998  66.077  1.00  0.00    -0.304 C  
BRANCH  27  28
HETATM   28  O   UNL     1     -11.213  14.520  64.952  1.00  0.00    -0.354 OA 
BRANCH  28  29
HETATM   29  C   UNL     1     -11.123  15.867  64.805  1.00  0.00    -0.384 C  
HETATM   30  C   UNL     1     -10.328  16.492  65.915  1.00  0.00    -0.365 C  
HETATM   31  O   UNL     1     -11.635  16.483  63.890  1.00  0.00    -1.175 OA 
ENDBRANCH  28  29
ENDBRANCH  27  28
ENDBRANCH  25  27
ENDBRANCH   4  25
BRANCH   4  32
HETATM   32  O   UNL     1     -10.467  12.570  68.416  1.00  0.00    -0.229 OA 
BRANCH  32  33
HETATM   33  C   UNL     1     -11.667  12.221  68.969  1.00  0.00    -0.324 C  
HETATM   34  O   UNL     1     -12.291  11.207  68.696  1.00  0.00    -0.549 OA 
BRANCH  33  35
HETATM   35  C   UNL     1     -12.140  13.245  69.965  1.00  0.00    -0.385 C  
BRANCH  35  36
HETATM   36  C   UNL     1     -11.574  14.610  69.610  1.00  0.00    -0.349 C  
HETATM   37  C   UNL     1     -11.102  15.374  70.841  1.00  0.00    -0.374 C  
ENDBRANCH  35  36
ENDBRANCH  33  35
ENDBRANCH  32  33
ENDBRANCH   4  32
TORSDOF 8
ENDMDL
MODEL       18
REMARK 921   NORMALIZED FREE ENERGY PREDICTED BY IDOCK:   -5.96 KCAL/MOL
REMARK 922        TOTAL FREE ENERGY PREDICTED BY IDOCK:   -8.49 KCAL/MOL
REMARK 923 INTER-LIGAND FREE ENERGY PREDICTED BY IDOCK:   -8.72 KCAL/MOL
REMARK 924 INTRA-LIGAND FREE ENERGY PREDICTED BY IDOCK:    0.22 KCAL/MOL
REMARK 927      BINDING AFFINITY PREDICTED BY RF-SCORE:    0.00 PKD
ROOT
HETATM    1  C   UNL     1      -8.484  11.426  68.828  1.00  0.00    -0.089 C  
HETATM    2  C   UNL     1      -7.071  11.354  68.940  1.00  0.00    -0.109 C  
HETATM    3  C   UNL     1      -7.688  11.365  67.593  1.00  0.00    -0.121 C  
HETATM    4  C   UNL     1      -9.710  11.831  67.494  1.00  0.00    -0.180 C  
HETATM    5  C   UNL     1      -8.535  12.357  67.080  1.00  0.00    -0.185 C  
HETATM    6  C   UNL     1      -9.603   4.864  69.355  1.00  0.00    -0.169 C  
HETATM    7  C   UNL     1      -8.357   5.647  69.677  1.00  0.00    -0.107 C  
HETATM    8  C   UNL     1      -8.613   6.924  69.323  1.00  0.00    -0.132 C  
HETATM    9  F   UNL     1      -9.341   7.333  71.544  1.00  0.00    -0.148 F  
HETATM   10  C   UNL     1      -8.588  11.112  65.648  1.00  0.00    -0.083 C  
HETATM   11  C   UNL     1      -9.460   7.764  70.256  1.00  0.00    -0.160 C  
HETATM   12  C   UNL     1      -8.100  13.849  67.096  1.00  0.00    -0.103 C  
HETATM   13  C   UNL     1      -8.981   9.195  70.203  1.00  0.00    -0.219 C  
HETATM   14  O   UNL     1      -9.955   3.914  70.037  1.00  0.00    -0.159 OA 
HETATM   15  C   UNL     1      -9.026   9.489  66.135  1.00  0.00    -0.158 C  
HETATM   16  C   UNL     1     -10.348   5.281  68.107  1.00  0.00    -0.181 C  
HETATM   17  O   UNL     1     -10.410   9.284  65.844  1.00  0.00    -0.272 OA 
HETATM   18  C   UNL     1      -8.635   8.836  67.627  1.00  0.00    -0.128 C  
HETATM   19  C   UNL     1      -7.628   6.617  66.980  1.00  0.00    -0.095 C  
HETATM   20  C   UNL     1      -8.808   7.246  67.817  1.00  0.00    -0.124 C  
HETATM   21  H   UNL     1     -10.647   8.403  66.109  1.00  0.00     0.000 HD 
HETATM   22  C   UNL     1      -9.165   9.786  68.802  1.00  0.00    -0.143 C  
HETATM   23  F   UNL     1      -7.243   8.868  67.775  1.00  0.00    -0.078 F  
HETATM   24  C   UNL     1     -10.018   6.400  67.411  1.00  0.00    -0.172 C  
ENDROOT
BRANCH   4  25
HETATM   25  C   UNL     1     -10.594  12.658  66.301  1.00  0.00    -0.252 C  
HETATM   26  O   UNL     1     -11.433  12.152  65.535  1.00  0.00    -0.340 OA 
BRANCH  25  27
HETATM   27  C   UNL     1     -10.305  14.129  66.015  1.00  0.00    -0.309 C  
BRANCH  27  28
HETATM   28  O   UNL     1     -11.014  14.587  64.849  1.00  0.00    -0.373 OA 
BRANCH  28  29
HETATM   29  C   UNL     1     -11.117  15.937  64.754  1.00  0.00    -0.384 C  
HETATM   30  C   UNL     1     -10.338  16.628  65.837  1.00  0.00    -0.355 C  
HETATM   31  O   UNL     1     -11.771  16.508  63.902  1.00  0.00    -1.148 OA 
ENDBRANCH  28  29
ENDBRANCH  27  28
ENDBRANCH  25  27
ENDBRANCH   4  25
BRANCH   4  32
HETATM   32  O   UNL     1     -10.236  12.865  68.539  1.00  0.00    -0.234 OA 
BRANCH  32  33
HETATM   33  C   UNL     1     -11.551  12.857  68.911  1.00  0.00    -0.315 C  
HETATM   34  O   UNL     1     -12.264  13.846  68.972  1.00  0.00    -0.350 OA 
BRANCH  33  35
HETATM   35  C   UNL     1     -12.026  11.468  69.244  1.00  0.00    -0.397 C  
BRANCH  35  36
HETATM   36  C   UNL     1     -12.305  11.362  70.734  1.00  0.00    -0.483 C  
HETATM   37  C   UNL     1     -12.512   9.919  71.178  1.00  0.00    -0.464 C  
ENDBRANCH  35  36
ENDBRANCH  33  35
ENDBRANCH  32  33
ENDBRANCH   4  32
TORSDOF 8
ENDMDL
MODEL       19
REMARK 921   NORMALIZED FREE ENERGY PREDICTED BY IDOCK:   -5.94 KCAL/MOL
REMARK 922        TOTAL FREE ENERGY PREDICTED BY IDOCK:   -8.46 KCAL/MOL
REMARK 923 INTER-LIGAND FREE ENERGY PREDICTED BY IDOCK:   -8.21 KCAL/MOL
REMARK 924 INTRA-LIGAND FREE ENERGY PREDICTED BY IDOCK:   -0.26 KCAL/MOL
REMARK 927      BINDING AFFINITY PREDICTED BY RF-SCORE:    0.00 PKD
ROOT
HETATM    1  C   UNL     1      -9.309  11.679  66.245  1.00  0.00    -0.228 C  
HETATM    2  C   UNL     1      -9.687  10.726  65.264  1.00  0.00    -0.308 C  
HETATM    3  C   UNL     1     -10.706  11.220  66.219  1.00  0.00    -0.312 C  
HETATM    4  C   UNL     1     -10.183  12.860  67.380  1.00  0.00    -0.230 C  
HETATM    5  C   UNL     1     -11.078  12.556  66.414  1.00  0.00    -0.332 C  
HETATM    6  C   UNL     1      -7.125   7.271  70.760  1.00  0.00    -0.065 C  
HETATM    7  C   UNL     1      -7.422   7.068  69.297  1.00  0.00    -0.094 C  
HETATM    8  C   UNL     1      -7.912   8.243  68.847  1.00  0.00    -0.113 C  
HETATM    9  F   UNL     1      -5.706   8.858  68.226  1.00  0.00    -0.037 F  
HETATM   10  C   UNL     1     -12.122  11.730  67.766  1.00  0.00     0.068 C  
HETATM   11  C   UNL     1      -6.929   9.359  68.560  1.00  0.00    -0.066 C  
HETATM   12  C   UNL     1     -11.513  13.436  65.208  1.00  0.00    -0.318 C  
HETATM   13  C   UNL     1      -7.431  10.168  67.387  1.00  0.00    -0.094 C  
HETATM   14  O   UNL     1      -6.187   6.708  71.306  1.00  0.00    -0.039 OA 
HETATM   15  C   UNL     1     -11.198  10.715  68.853  1.00  0.00    -0.275 C  
HETATM   16  C   UNL     1      -8.090   8.152  71.520  1.00  0.00    -0.141 C  
HETATM   17  O   UNL     1     -10.940  11.449  70.052  1.00  0.00    -0.474 OA 
HETATM   18  C   UNL     1      -9.839   9.857  68.383  1.00  0.00    -0.151 C  
HETATM   19  C   UNL     1     -10.340   7.553  69.277  1.00  0.00    -0.209 C  
HETATM   20  C   UNL     1      -9.287   8.722  69.385  1.00  0.00    -0.157 C  
HETATM   21  H   UNL     1     -10.438  10.898  70.642  1.00  0.00     0.000 HD 
HETATM   22  C   UNL     1      -8.767  10.841  67.714  1.00  0.00    -0.130 C  
HETATM   23  F   UNL     1     -10.197   8.995  67.341  1.00  0.00    -0.229 F  
HETATM   24  C   UNL     1      -9.066   8.860  70.894  1.00  0.00    -0.283 C  
ENDROOT
BRANCH   4  25
HETATM   25  C   UNL     1     -11.131  14.142  67.969  1.00  0.00    -0.267 C  
HETATM   26  O   UNL     1     -11.866  14.877  67.288  1.00  0.00    -0.345 OA 
BRANCH  25  27
HETATM   27  C   UNL     1     -11.038  14.552  69.436  1.00  0.00    -0.268 C  
BRANCH  27  28
HETATM   28  O   UNL     1     -12.282  15.101  69.909  1.00  0.00    -0.319 OA 
BRANCH  28  29
HETATM   29  C   UNL     1     -12.827  14.427  70.954  1.00  0.00    -0.351 C  
HETATM   30  C   UNL     1     -13.677  15.324  71.807  1.00  0.00    -0.605 C  
HETATM   31  O   UNL     1     -12.635  13.246  71.171  1.00  0.00    -0.360 OA 
ENDBRANCH  28  29
ENDBRANCH  27  28
ENDBRANCH  25  27
ENDBRANCH   4  25
BRANCH   4  32
HETATM   32  O   UNL     1      -9.249  13.916  66.710  1.00  0.00    -0.252 OA 
BRANCH  32  33
HETATM   33  C   UNL     1      -8.269  14.529  67.439  1.00  0.00    -0.202 C  
HETATM   34  O   UNL     1      -7.629  13.996  68.333  1.00  0.00    -0.112 OA 
BRANCH  33  35
HETATM   35  C   UNL     1      -8.067  15.957  67.011  1.00  0.00    -0.265 C  
BRANCH  35  36
HETATM   36  C   UNL     1      -9.168  16.367  66.047  1.00  0.00    -0.328 C  
HETATM   37  C   UNL     1      -9.793  17.704  66.426  1.00  0.00    -0.315 C  
ENDBRANCH  35  36
ENDBRANCH  33  35
ENDBRANCH  32  33
ENDBRANCH   4  32
TORSDOF 8
ENDMDL
MODEL       20
REMARK 921   NORMALIZED FREE ENERGY PREDICTED BY IDOCK:   -5.94 KCAL/MOL
REMARK 922        TOTAL FREE ENERGY PREDICTED BY IDOCK:   -8.45 KCAL/MOL
REMARK 923 INTER-LIGAND FREE ENERGY PREDICTED BY IDOCK:   -8.46 KCAL/MOL
REMARK 924 INTRA-LIGAND FREE ENERGY PREDICTED BY IDOCK:    0.01 KCAL/MOL
REMARK 927      BINDING AFFINITY PREDICTED BY RF-SCORE:    0.00 PKD
ROOT
HETATM    1  C   UNL     1      -8.554  12.293  66.877  1.00  0.00    -0.182 C  
HETATM    2  C   UNL     1      -8.620  11.400  65.776  1.00  0.00    -0.010 C  
HETATM    3  C   UNL     1      -9.878  11.928  66.353  1.00  0.00    -0.234 C  
HETATM    4  C   UNL     1      -9.703  13.491  67.709  1.00  0.00    -0.226 C  
HETATM    5  C   UNL     1     -10.226  13.279  66.480  1.00  0.00    -0.283 C  
HETATM    6  C   UNL     1      -8.278   7.603  71.622  1.00  0.00    -0.107 C  
HETATM    7  C   UNL     1      -8.065   7.469  70.136  1.00  0.00    -0.119 C  
HETATM    8  C   UNL     1      -8.310   8.688  69.610  1.00  0.00    -0.123 C  
HETATM    9  F   UNL     1      -5.997   9.176  69.812  1.00  0.00    -0.034 F  
HETATM   10  C   UNL     1     -11.711  12.479  67.350  1.00  0.00    -0.432 C  
HETATM   11  C   UNL     1      -7.233   9.745  69.735  1.00  0.00    -0.105 C  
HETATM   12  C   UNL     1     -10.176  14.225  65.247  1.00  0.00    -0.408 C  
HETATM   13  C   UNL     1      -7.261  10.624  68.507  1.00  0.00    -0.086 C  
HETATM   14  O   UNL     1      -7.614   6.962  72.423  1.00  0.00    -0.090 OA 
HETATM   15  C   UNL     1     -11.269  11.370  68.630  1.00  0.00    -0.243 C  
HETATM   16  C   UNL     1      -9.399   8.520  72.054  1.00  0.00    -0.353 C  
HETATM   17  O   UNL     1     -11.401  12.045  69.883  1.00  0.00    -0.482 OA 
HETATM   18  C   UNL     1      -9.876  10.440  68.606  1.00  0.00    -0.177 C  
HETATM   19  C   UNL     1     -10.770   8.146  69.150  1.00  0.00    -0.117 C  
HETATM   20  C   UNL     1      -9.760   9.239  69.673  1.00  0.00    -0.192 C  
HETATM   21  H   UNL     1     -11.161  11.443  70.578  1.00  0.00     0.000 HD 
HETATM   22  C   UNL     1      -8.593  11.373  68.396  1.00  0.00    -0.156 C  
HETATM   23  F   UNL     1      -9.898   9.639  67.459  1.00  0.00    -0.169 F  
HETATM   24  C   UNL     1     -10.064   9.311  71.172  1.00  0.00    -0.374 C  
ENDROOT
BRANCH   4  25
HETATM   25  C   UNL     1     -10.730  14.812  68.008  1.00  0.00    -0.248 C  
HETATM   26  O   UNL     1     -11.493  14.936  68.981  1.00  0.00    -0.270 OA 
BRANCH  25  27
HETATM   27  C   UNL     1     -10.859  15.931  66.977  1.00  0.00    -0.252 C  
BRANCH  27  28
HETATM   28  O   UNL     1     -10.722  17.226  67.588  1.00  0.00    -0.359 OA 
BRANCH  28  29
HETATM   29  C   UNL     1     -10.594  18.249  66.703  1.00  0.00    -0.298 C  
HETATM   30  C   UNL     1     -10.544  19.579  67.399  1.00  0.00    -0.607 C  
HETATM   31  O   UNL     1     -10.538  18.097  65.497  1.00  0.00    -0.638 OA 
ENDBRANCH  28  29
ENDBRANCH  27  28
ENDBRANCH  25  27
ENDBRANCH   4  25
BRANCH   4  32
HETATM   32  O   UNL     1      -8.544  14.505  67.454  1.00  0.00    -0.176 OA 
BRANCH  32  33
HETATM   33  C   UNL     1      -7.907  15.099  68.507  1.00  0.00    -0.135 C  
HETATM   34  O   UNL     1      -7.772  14.597  69.613  1.00  0.00    -0.073 OA 
BRANCH  33  35
HETATM   35  C   UNL     1      -7.384  16.462  68.144  1.00  0.00    -0.151 C  
BRANCH  35  36
HETATM   36  C   UNL     1      -7.131  16.536  66.647  1.00  0.00    -0.220 C  
HETATM   37  C   UNL     1      -7.046  17.974  66.150  1.00  0.00    -0.330 C  
ENDBRANCH  35  36
ENDBRANCH  33  35
ENDBRANCH  32  33
ENDBRANCH   4  32
TORSDOF 8
ENDMDL
MODEL       21
REMARK 921   NORMALIZED FREE ENERGY PREDICTED BY IDOCK:   -5.87 KCAL/MOL
REMARK 922        TOTAL FREE ENERGY PREDICTED BY IDOCK:   -8.36 KCAL/MOL
REMARK 923 INTER-LIGAND FREE ENERGY PREDICTED BY IDOCK:   -8.16 KCAL/MOL
REMARK 924 INTRA-LIGAND FREE ENERGY PREDICTED BY IDOCK:   -0.20 KCAL/MOL
REMARK 927      BINDING AFFINITY PREDICTED BY RF-SCORE:    0.00 PKD
ROOT
HETATM    1  C   UNL     1     -10.055  12.465  65.540  1.00  0.00    -0.287 C  
HETATM    2  C   UNL     1     -10.793  11.660  64.634  1.00  0.00    -0.373 C  
HETATM    3  C   UNL     1     -11.421  12.068  65.912  1.00  0.00    -0.392 C  
HETATM    4  C   UNL     1     -10.437  13.526  67.015  1.00  0.00    -0.265 C  
HETATM    5  C   UNL     1     -11.609  13.383  66.358  1.00  0.00    -0.381 C  
HETATM    6  C   UNL     1      -6.919   7.437  68.618  1.00  0.00    -0.079 C  
HETATM    7  C   UNL     1      -7.673   7.434  67.313  1.00  0.00    -0.116 C  
HETATM    8  C   UNL     1      -8.186   8.674  67.173  1.00  0.00    -0.107 C  
HETATM    9  F   UNL     1      -6.244   9.276  65.950  1.00  0.00    -0.053 F  
HETATM   10  C   UNL     1     -12.239  12.433  67.876  1.00  0.00     0.163 C  
HETATM   11  C   UNL     1      -7.259   9.778  66.709  1.00  0.00    -0.090 C  
HETATM   12  C   UNL     1     -12.330  14.424  65.457  1.00  0.00    -0.352 C  
HETATM   13  C   UNL     1      -8.037  10.748  65.853  1.00  0.00    -0.148 C  
HETATM   14  O   UNL     1      -5.904   6.774  68.771  1.00  0.00    -0.017 OA 
HETATM   15  C   UNL     1     -11.104  11.253  68.495  1.00  0.00    -0.235 C  
HETATM   16  C   UNL     1      -7.527   8.252  69.736  1.00  0.00    -0.077 C  
HETATM   17  O   UNL     1     -10.428  11.817  69.620  1.00  0.00    -0.410 OA 
HETATM   18  C   UNL     1     -10.030  10.408  67.526  1.00  0.00    -0.181 C  
HETATM   19  C   UNL     1     -10.404   8.031  68.278  1.00  0.00    -0.240 C  
HETATM   20  C   UNL     1      -9.283   9.135  68.170  1.00  0.00    -0.137 C  
HETATM   21  H   UNL     1      -9.812  11.177  69.956  1.00  0.00     0.000 HD 
HETATM   22  C   UNL     1      -9.148  11.427  66.660  1.00  0.00    -0.187 C  
HETATM   23  F   UNL     1     -10.761   9.700  66.565  1.00  0.00    -0.261 F  
HETATM   24  C   UNL     1      -8.592   9.071  69.535  1.00  0.00    -0.138 C  
ENDROOT
BRANCH   4  25
HETATM   25  C   UNL     1     -11.052  14.759  68.011  1.00  0.00    -0.286 C  
HETATM   26  O   UNL     1     -11.885  15.617  67.676  1.00  0.00    -0.104 OA 
BRANCH  25  27
HETATM   27  C   UNL     1     -10.495  14.955  69.419  1.00  0.00    -0.222 C  
BRANCH  27  28
HETATM   28  O   UNL     1     -11.442  15.628  70.269  1.00  0.00    -0.287 OA 
BRANCH  28  29
HETATM   29  C   UNL     1     -11.912  14.867  71.291  1.00  0.00    -0.340 C  
HETATM   30  C   UNL     1     -11.848  15.601  72.600  1.00  0.00    -0.590 C  
HETATM   31  O   UNL     1     -12.322  13.731  71.155  1.00  0.00    -0.355 OA 
ENDBRANCH  28  29
ENDBRANCH  27  28
ENDBRANCH  25  27
ENDBRANCH   4  25
BRANCH   4  32
HETATM   32  O   UNL     1      -9.680  14.621  66.200  1.00  0.00    -0.290 OA 
BRANCH  32  33
HETATM   33  C   UNL     1      -8.539  15.183  66.699  1.00  0.00    -0.243 C  
HETATM   34  O   UNL     1      -7.721  14.600  67.394  1.00  0.00    -0.182 OA 
BRANCH  33  35
HETATM   35  C   UNL     1      -8.403  16.625  66.289  1.00  0.00    -0.360 C  
BRANCH  35  36
HETATM   36  C   UNL     1      -8.602  17.525  67.497  1.00  0.00    -0.222 C  
HETATM   37  C   UNL     1      -9.780  18.475  67.317  1.00  0.00    -0.313 C  
ENDBRANCH  35  36
ENDBRANCH  33  35
ENDBRANCH  32  33
ENDBRANCH   4  32
TORSDOF 8
ENDMDL
MODEL       22
REMARK 921   NORMALIZED FREE ENERGY PREDICTED BY IDOCK:   -5.85 KCAL/MOL
REMARK 922        TOTAL FREE ENERGY PREDICTED BY IDOCK:   -8.32 KCAL/MOL
REMARK 923 INTER-LIGAND FREE ENERGY PREDICTED BY IDOCK:   -8.51 KCAL/MOL
REMARK 924 INTRA-LIGAND FREE ENERGY PREDICTED BY IDOCK:    0.19 KCAL/MOL
REMARK 927      BINDING AFFINITY PREDICTED BY RF-SCORE:    0.00 PKD
ROOT
HETATM    1  C   UNL     1      -8.655  10.192  69.255  1.00  0.00    -0.180 C  
HETATM    2  C   UNL     1      -7.341  10.101  69.781  1.00  0.00    -0.159 C  
HETATM    3  C   UNL     1      -7.523  10.465  68.357  1.00  0.00    -0.091 C  
HETATM    4  C   UNL     1      -9.454  10.929  67.750  1.00  0.00    -0.157 C  
HETATM    5  C   UNL     1      -8.260  11.552  67.870  1.00  0.00    -0.134 C  
HETATM    6  C   UNL     1      -9.296   3.719  67.743  1.00  0.00    -0.189 C  
HETATM    7  C   UNL     1      -8.279   4.395  68.625  1.00  0.00    -0.083 C  
HETATM    8  C   UNL     1      -8.529   5.719  68.540  1.00  0.00    -0.110 C  
HETATM    9  F   UNL     1      -9.924   5.519  70.449  1.00  0.00    -0.212 F  
HETATM   10  C   UNL     1      -7.770  10.733  66.230  1.00  0.00    -0.146 C  
HETATM   11  C   UNL     1      -9.688   6.276  69.340  1.00  0.00    -0.141 C  
HETATM   12  C   UNL     1      -7.984  12.989  68.395  1.00  0.00    -0.135 C  
HETATM   13  C   UNL     1      -9.343   7.672  69.800  1.00  0.00    -0.150 C  
HETATM   14  O   UNL     1      -9.752   2.619  68.020  1.00  0.00    -0.129 OA 
HETATM   15  C   UNL     1      -8.189   9.036  66.133  1.00  0.00    -0.115 C  
HETATM   16  C   UNL     1      -9.665   4.448  66.472  1.00  0.00    -0.230 C  
HETATM   17  O   UNL     1      -9.397   8.907  65.381  1.00  0.00    -0.388 OA 
HETATM   18  C   UNL     1      -8.208   8.013  67.459  1.00  0.00    -0.123 C  
HETATM   19  C   UNL     1      -6.862   6.051  66.625  1.00  0.00    -0.062 C  
HETATM   20  C   UNL     1      -8.289   6.428  67.180  1.00  0.00    -0.112 C  
HETATM   21  H   UNL     1      -9.625   7.986  65.329  1.00  0.00     0.000 HD 
HETATM   22  C   UNL     1      -9.149   8.613  68.607  1.00  0.00    -0.138 C  
HETATM   23  F   UNL     1      -6.934   8.012  68.038  1.00  0.00    -0.065 F  
HETATM   24  C   UNL     1      -9.242   5.714  66.217  1.00  0.00    -0.165 C  
ENDROOT
BRANCH   4  25
HETATM   25  C   UNL     1     -10.008  12.038  66.587  1.00  0.00    -0.201 C  
HETATM   26  O   UNL     1      -9.709  13.243  66.529  1.00  0.00    -0.261 OA 
BRANCH  25  27
HETATM   27  C   UNL     1     -11.050  11.611  65.557  1.00  0.00    -0.237 C  
BRANCH  27  28
HETATM   28  O   UNL     1     -12.323  12.233  65.809  1.00  0.00    -0.622 OA 
BRANCH  28  29
HETATM   29  C   UNL     1     -12.618  13.259  64.968  1.00  0.00    -0.423 C  
HETATM   30  C   UNL     1     -12.041  13.035  63.600  1.00  0.00    -0.604 C  
HETATM   31  O   UNL     1     -13.261  14.238  65.295  1.00  0.00    -0.704 OA 
ENDBRANCH  28  29
ENDBRANCH  27  28
ENDBRANCH  25  27
ENDBRANCH   4  25
BRANCH   4  32
HETATM   32  O   UNL     1     -10.359  11.645  68.801  1.00  0.00    -0.214 OA 
BRANCH  32  33
HETATM   33  C   UNL     1     -11.584  11.130  69.117  1.00  0.00    -0.324 C  
HETATM   34  O   UNL     1     -12.216  10.353  68.417  1.00  0.00    -0.099 OA 
BRANCH  33  35
HETATM   35  C   UNL     1     -12.075  11.637  70.446  1.00  0.00    -0.462 C  
BRANCH  35  36
HETATM   36  C   UNL     1     -12.840  10.538  71.167  1.00  0.00    -0.513 C  
HETATM   37  C   UNL     1     -11.908   9.518  71.810  1.00  0.00    -0.430 C  
ENDBRANCH  35  36
ENDBRANCH  33  35
ENDBRANCH  32  33
ENDBRANCH   4  32
TORSDOF 8
ENDMDL
MODEL       23
REMARK 921   NORMALIZED FREE ENERGY PREDICTED BY IDOCK:   -5.79 KCAL/MOL
REMARK 922        TOTAL FREE ENERGY PREDICTED BY IDOCK:   -8.23 KCAL/MOL
REMARK 923 INTER-LIGAND FREE ENERGY PREDICTED BY IDOCK:   -8.47 KCAL/MOL
REMARK 924 INTRA-LIGAND FREE ENERGY PREDICTED BY IDOCK:    0.24 KCAL/MOL
REMARK 927      BINDING AFFINITY PREDICTED BY RF-SCORE:    0.00 PKD
ROOT
HETATM    1  C   UNL     1      -8.947   9.555  66.967  1.00  0.00    -0.150 C  
HETATM    2  C   UNL     1      -9.556   8.523  66.207  1.00  0.00    -0.306 C  
HETATM    3  C   UNL     1     -10.390   9.643  66.702  1.00  0.00    -0.279 C  
HETATM    4  C   UNL     1      -9.386  11.283  67.486  1.00  0.00    -0.162 C  
HETATM    5  C   UNL     1     -10.189  11.004  66.435  1.00  0.00    -0.284 C  
HETATM    6  C   UNL     1      -9.431   6.504  72.887  1.00  0.00    -0.141 C  
HETATM    7  C   UNL     1      -9.589   5.930  71.503  1.00  0.00    -0.175 C  
HETATM    8  C   UNL     1      -9.477   6.969  70.649  1.00  0.00    -0.165 C  
HETATM    9  F   UNL     1      -7.156   6.506  70.482  1.00  0.00    -0.058 F  
HETATM   10  C   UNL     1     -11.652  11.123  67.638  1.00  0.00    -0.266 C  
HETATM   11  C   UNL     1      -8.088   7.491  70.344  1.00  0.00    -0.111 C  
HETATM   12  C   UNL     1     -10.052  11.507  64.970  1.00  0.00    -0.315 C  
HETATM   13  C   UNL     1      -8.045   7.968  68.912  1.00  0.00    -0.124 C  
HETATM   14  O   UNL     1      -8.896   5.870  73.784  1.00  0.00    -0.124 OA 
HETATM   15  C   UNL     1     -11.391  10.287  69.154  1.00  0.00    -0.186 C  
HETATM   16  C   UNL     1     -10.028   7.874  73.111  1.00  0.00    -0.358 C  
HETATM   17  O   UNL     1     -11.010  11.246  70.143  1.00  0.00    -0.468 OA 
HETATM   18  C   UNL     1     -10.469   8.897  69.295  1.00  0.00    -0.224 C  
HETATM   19  C   UNL     1     -12.003   7.381  70.601  1.00  0.00    -0.208 C  
HETATM   20  C   UNL     1     -10.582   8.060  70.667  1.00  0.00    -0.227 C  
HETATM   21  H   UNL     1     -10.868  10.792  70.966  1.00  0.00     0.000 HD 
HETATM   22  C   UNL     1      -9.005   9.141  68.693  1.00  0.00    -0.136 C  
HETATM   23  F   UNL     1     -11.014   7.915  68.460  1.00  0.00    -0.149 F  
HETATM   24  C   UNL     1     -10.525   8.621  72.091  1.00  0.00    -0.411 C  
ENDROOT
BRANCH   4  25
HETATM   25  C   UNL     1      -9.778  12.937  67.451  1.00  0.00    -0.201 C  
HETATM   26  O   UNL     1     -10.128  13.623  68.426  1.00  0.00    -0.234 OA 
BRANCH  25  27
HETATM   27  C   UNL     1      -9.831  13.683  66.121  1.00  0.00    -0.293 C  
BRANCH  27  28
HETATM   28  O   UNL     1     -10.539  14.930  66.246  1.00  0.00    -0.292 OA 
BRANCH  28  29
HETATM   29  C   UNL     1     -11.201  15.310  65.123  1.00  0.00    -0.370 C  
HETATM   30  C   UNL     1     -12.207  14.278  64.699  1.00  0.00    -0.470 C  
HETATM   31  O   UNL     1     -10.991  16.353  64.534  1.00  0.00    -0.750 OA 
ENDBRANCH  28  29
ENDBRANCH  27  28
ENDBRANCH  25  27
ENDBRANCH   4  25
BRANCH   4  32
HETATM   32  O   UNL     1      -8.015  11.638  66.827  1.00  0.00    -0.161 OA 
BRANCH  32  33
HETATM   33  C   UNL     1      -7.031  12.232  67.566  1.00  0.00    -0.142 C  
HETATM   34  O   UNL     1      -6.223  13.037  67.131  1.00  0.00    -0.286 OA 
BRANCH  33  35
HETATM   35  C   UNL     1      -7.056  11.771  68.999  1.00  0.00    -0.100 C  
BRANCH  35  36
HETATM   36  C   UNL     1      -5.694  11.219  69.387  1.00  0.00    -0.049 C  
HETATM   37  C   UNL     1      -5.741  10.448  70.700  1.00  0.00    -0.096 C  
ENDBRANCH  35  36
ENDBRANCH  33  35
ENDBRANCH  32  33
ENDBRANCH   4  32
TORSDOF 8
ENDMDL
MODEL       24
REMARK 921   NORMALIZED FREE ENERGY PREDICTED BY IDOCK:   -5.77 KCAL/MOL
REMARK 922        TOTAL FREE ENERGY PREDICTED BY IDOCK:   -8.21 KCAL/MOL
REMARK 923 INTER-LIGAND FREE ENERGY PREDICTED BY IDOCK:   -8.33 KCAL/MOL
REMARK 924 INTRA-LIGAND FREE ENERGY PREDICTED BY IDOCK:    0.12 KCAL/MOL
REMARK 927      BINDING AFFINITY PREDICTED BY RF-SCORE:    0.00 PKD
ROOT
HETATM    1  C   UNL     1      -8.693  11.146  68.987  1.00  0.00    -0.027 C  
HETATM    2  C   UNL     1      -7.315  11.168  69.323  1.00  0.00    -0.097 C  
HETATM    3  C   UNL     1      -7.709  10.948  67.912  1.00  0.00    -0.104 C  
HETATM    4  C   UNL     1      -9.701  11.285  67.434  1.00  0.00    -0.173 C  
HETATM    5  C   UNL     1      -8.492  11.807  67.130  1.00  0.00    -0.170 C  
HETATM    6  C   UNL     1      -9.681   4.680  70.329  1.00  0.00    -0.225 C  
HETATM    7  C   UNL     1      -8.527   5.568  70.716  1.00  0.00    -0.122 C  
HETATM    8  C   UNL     1      -8.762   6.763  70.136  1.00  0.00    -0.141 C  
HETATM    9  F   UNL     1      -9.848   7.451  72.130  1.00  0.00    -0.177 F  
HETATM   10  C   UNL     1      -8.277  10.366  65.913  1.00  0.00    -0.150 C  
HETATM   11  C   UNL     1      -9.773   7.683  70.789  1.00  0.00    -0.173 C  
HETATM   12  C   UNL     1      -8.111  13.307  66.985  1.00  0.00    -0.020 C  
HETATM   13  C   UNL     1      -9.335   9.115  70.593  1.00  0.00    -0.312 C  
HETATM   14  O   UNL     1     -10.109   3.821  71.087  1.00  0.00    -0.128 OA 
HETATM   15  C   UNL     1      -8.737   8.810  66.570  1.00  0.00    -0.120 C  
HETATM   16  C   UNL     1     -10.229   4.869  68.933  1.00  0.00    -0.137 C  
HETATM   17  O   UNL     1     -10.050   8.490  66.104  1.00  0.00    -0.456 OA 
HETATM   18  C   UNL     1      -8.570   8.404  68.186  1.00  0.00    -0.139 C  
HETATM   19  C   UNL     1      -7.406   6.172  68.046  1.00  0.00    -0.088 C  
HETATM   20  C   UNL     1      -8.723   6.851  68.587  1.00  0.00    -0.122 C  
HETATM   21  H   UNL     1     -10.300   7.645  66.461  1.00  0.00     0.000 HD 
HETATM   22  C   UNL     1      -9.311   9.485  69.107  1.00  0.00    -0.163 C  
HETATM   23  F   UNL     1      -7.222   8.533  68.538  1.00  0.00    -0.073 F  
HETATM   24  C   UNL     1      -9.826   5.891  68.133  1.00  0.00    -0.155 C  
ENDROOT
BRANCH   4  25
HETATM   25  C   UNL     1     -10.408  11.880  66.007  1.00  0.00    -0.233 C  
HETATM   26  O   UNL     1     -10.723  11.202  65.014  1.00  0.00    -0.289 OA 
BRANCH  25  27
HETATM   27  C   UNL     1     -10.601  13.381  65.816  1.00  0.00    -0.282 C  
BRANCH  27  28
HETATM   28  O   UNL     1     -11.961  13.696  65.465  1.00  0.00    -0.346 OA 
BRANCH  28  29
HETATM   29  C   UNL     1     -12.086  14.451  64.343  1.00  0.00    -0.470 C  
HETATM   30  C   UNL     1     -11.448  15.801  64.512  1.00  0.00    -0.292 C  
HETATM   31  O   UNL     1     -12.654  14.077  63.335  1.00  0.00    -0.845 OA 
ENDBRANCH  28  29
ENDBRANCH  27  28
ENDBRANCH  25  27
ENDBRANCH   4  25
BRANCH   4  32
HETATM   32  O   UNL     1     -10.419  12.430  68.216  1.00  0.00    -0.212 OA 
BRANCH  32  33
HETATM   33  C   UNL     1     -11.644  12.212  68.781  1.00  0.00    -0.327 C  
HETATM   34  O   UNL     1     -12.260  11.159  68.726  1.00  0.00    -0.555 OA 
BRANCH  33  35
HETATM   35  C   UNL     1     -12.156  13.438  69.489  1.00  0.00    -0.334 C  
BRANCH  35  36
HETATM   36  C   UNL     1     -11.124  14.550  69.404  1.00  0.00    -0.297 C  
HETATM   37  C   UNL     1     -11.587  15.695  68.511  1.00  0.00    -0.378 C  
ENDBRANCH  35  36
ENDBRANCH  33  35
ENDBRANCH  32  33
ENDBRANCH   4  32
TORSDOF 8
ENDMDL
MODEL       25
REMARK 921   NORMALIZED FREE ENERGY PREDICTED BY IDOCK:   -5.69 KCAL/MOL
REMARK 922        TOTAL FREE ENERGY PREDICTED BY IDOCK:   -8.09 KCAL/MOL
REMARK 923 INTER-LIGAND FREE ENERGY PREDICTED BY IDOCK:   -8.25 KCAL/MOL
REMARK 924 INTRA-LIGAND FREE ENERGY PREDICTED BY IDOCK:    0.15 KCAL/MOL
REMARK 927      BINDING AFFINITY PREDICTED BY RF-SCORE:    0.00 PKD
ROOT
HETATM    1  C   UNL     1      -8.940   9.452  67.052  1.00  0.00    -0.146 C  
HETATM    2  C   UNL     1      -9.574   8.405  66.334  1.00  0.00    -0.307 C  
HETATM    3  C   UNL     1     -10.397   9.516  66.865  1.00  0.00    -0.307 C  
HETATM    4  C   UNL     1      -9.377  11.177  67.582  1.00  0.00    -0.165 C  
HETATM    5  C   UNL     1     -10.232  10.878  66.579  1.00  0.00    -0.282 C  
HETATM    6  C   UNL     1      -9.056   6.439  73.010  1.00  0.00    -0.129 C  
HETATM    7  C   UNL     1      -9.281   5.852  71.641  1.00  0.00    -0.156 C  
HETATM    8  C   UNL     1      -9.230   6.886  70.776  1.00  0.00    -0.158 C  
HETATM    9  F   UNL     1      -6.915   6.457  70.486  1.00  0.00    -0.056 F  
HETATM   10  C   UNL     1     -11.629  10.984  67.859  1.00  0.00    -0.306 C  
HETATM   11  C   UNL     1      -7.869   7.426  70.392  1.00  0.00    -0.098 C  
HETATM   12  C   UNL     1     -10.182  11.372  65.106  1.00  0.00    -0.328 C  
HETATM   13  C   UNL     1      -7.910   7.893  68.956  1.00  0.00    -0.110 C  
HETATM   14  O   UNL     1      -8.464   5.820  73.882  1.00  0.00    -0.118 OA 
HETATM   15  C   UNL     1     -11.274  10.164  69.364  1.00  0.00    -0.215 C  
HETATM   16  C   UNL     1      -9.661   7.802  73.258  1.00  0.00    -0.357 C  
HETATM   17  O   UNL     1     -10.854  11.136  70.324  1.00  0.00    -0.427 OA 
HETATM   18  C   UNL     1     -10.324   8.788  69.465  1.00  0.00    -0.213 C  
HETATM   19  C   UNL     1     -11.762   7.260  70.862  1.00  0.00    -0.348 C  
HETATM   20  C   UNL     1     -10.349   7.961  70.846  1.00  0.00    -0.215 C  
HETATM   21  H   UNL     1     -10.661  10.691  71.141  1.00  0.00     0.000 HD 
HETATM   22  C   UNL     1      -8.899   9.050  68.782  1.00  0.00    -0.137 C  
HETATM   23  F   UNL     1     -10.899   7.793  68.666  1.00  0.00    -0.198 F  
HETATM   24  C   UNL     1     -10.224   8.533  72.261  1.00  0.00    -0.395 C  
ENDROOT
BRANCH   4  25
HETATM   25  C   UNL     1      -9.795  12.824  67.557  1.00  0.00    -0.211 C  
HETATM   26  O   UNL     1     -10.151  13.500  68.538  1.00  0.00    -0.234 OA 
BRANCH  25  27
HETATM   27  C   UNL     1      -9.869  13.576  66.231  1.00  0.00    -0.299 C  
BRANCH  27  28
HETATM   28  O   UNL     1     -10.101  14.981  66.436  1.00  0.00    -0.256 OA 
BRANCH  28  29
HETATM   29  C   UNL     1     -10.741  15.595  65.407  1.00  0.00    -0.408 C  
HETATM   30  C   UNL     1     -11.699  14.666  64.719  1.00  0.00    -0.429 C  
HETATM   31  O   UNL     1     -10.547  16.752  65.085  1.00  0.00    -0.663 OA 
ENDBRANCH  28  29
ENDBRANCH  27  28
ENDBRANCH  25  27
ENDBRANCH   4  25
BRANCH   4  32
HETATM   32  O   UNL     1      -8.050  11.547  66.848  1.00  0.00    -0.154 OA 
BRANCH  32  33
HETATM   33  C   UNL     1      -6.894  11.709  67.558  1.00  0.00    -0.104 C  
HETATM   34  O   UNL     1      -6.839  11.953  68.754  1.00  0.00    -0.080 OA 
BRANCH  33  35
HETATM   35  C   UNL     1      -5.678  11.551  66.686  1.00  0.00    -0.139 C  
BRANCH  35  36
HETATM   36  C   UNL     1      -5.265  10.090  66.636  1.00  0.00    -0.040 C  
HETATM   37  C   UNL     1      -5.789   9.387  65.390  1.00  0.00    -0.058 C  
ENDBRANCH  35  36
ENDBRANCH  33  35
ENDBRANCH  32  33
ENDBRANCH   4  32
TORSDOF 8
ENDMDL
MODEL       26
REMARK 921   NORMALIZED FREE ENERGY PREDICTED BY IDOCK:   -5.59 KCAL/MOL
REMARK 922        TOTAL FREE ENERGY PREDICTED BY IDOCK:   -7.94 KCAL/MOL
REMARK 923 INTER-LIGAND FREE ENERGY PREDICTED BY IDOCK:   -8.28 KCAL/MOL
REMARK 924 INTRA-LIGAND FREE ENERGY PREDICTED BY IDOCK:    0.34 KCAL/MOL
REMARK 927      BINDING AFFINITY PREDICTED BY RF-SCORE:    0.00 PKD
ROOT
HETATM    1  C   UNL     1     -10.727  11.907  66.795  1.00  0.00    -0.282 C  
HETATM    2  C   UNL     1     -11.181  10.775  67.520  1.00  0.00    -0.346 C  
HETATM    3  C   UNL     1     -10.174  11.670  68.137  1.00  0.00    -0.206 C  
HETATM    4  C   UNL     1      -9.827  13.483  67.186  1.00  0.00    -0.245 C  
HETATM    5  C   UNL     1     -10.321  13.045  68.365  1.00  0.00    -0.257 C  
HETATM    6  C   UNL     1      -5.922   8.741  63.408  1.00  0.00    -0.081 C  
HETATM    7  C   UNL     1      -7.075   8.165  64.188  1.00  0.00    -0.082 C  
HETATM    8  C   UNL     1      -7.709   9.215  64.750  1.00  0.00    -0.111 C  
HETATM    9  F   UNL     1      -9.138   9.292  62.858  1.00  0.00    -0.251 F  
HETATM   10  C   UNL     1      -8.523  12.812  68.928  1.00  0.00     0.301 C  
HETATM   11  C   UNL     1      -8.629  10.042  63.875  1.00  0.00    -0.191 C  
HETATM   12  C   UNL     1     -11.552  13.587  69.143  1.00  0.00    -0.359 C  
HETATM   13  C   UNL     1      -9.788  10.537  64.708  1.00  0.00    -0.387 C  
HETATM   14  O   UNL     1      -5.537   8.231  62.366  1.00  0.00    -0.069 OA 
HETATM   15  C   UNL     1      -7.503  12.035  67.736  1.00  0.00    -0.121 C  
HETATM   16  C   UNL     1      -5.232   9.937  64.023  1.00  0.00    -0.078 C  
HETATM   17  O   UNL     1      -6.746  13.041  67.059  1.00  0.00    -0.435 OA 
HETATM   18  C   UNL     1      -8.060  10.888  66.651  1.00  0.00    -0.147 C  
HETATM   19  C   UNL     1      -6.359   9.046  66.919  1.00  0.00    -0.059 C  
HETATM   20  C   UNL     1      -6.963  10.028  65.843  1.00  0.00    -0.113 C  
HETATM   21  H   UNL     1      -6.192  12.620  66.412  1.00  0.00     0.000 HD 
HETATM   22  C   UNL     1      -9.305  11.465  65.827  1.00  0.00    -0.247 C  
HETATM   23  F   UNL     1      -8.604   9.821  67.375  1.00  0.00    -0.124 F  
HETATM   24  C   UNL     1      -5.724  10.566  65.122  1.00  0.00    -0.137 C  
ENDROOT
BRANCH   4  25
HETATM   25  C   UNL     1      -9.426  15.006  67.827  1.00  0.00    -0.195 C  
HETATM   26  O   UNL     1      -8.299  15.358  68.215  1.00  0.00    -0.145 OA 
BRANCH  25  27
HETATM   27  C   UNL     1     -10.517  16.043  68.077  1.00  0.00    -0.275 C  
BRANCH  27  28
HETATM   28  O   UNL     1     -10.387  17.168  67.189  1.00  0.00    -0.303 OA 
BRANCH  28  29
HETATM   29  C   UNL     1     -10.239  18.361  67.820  1.00  0.00    -0.385 C  
HETATM   30  C   UNL     1     -10.782  19.493  66.996  1.00  0.00    -0.592 C  
HETATM   31  O   UNL     1      -9.720  18.489  68.913  1.00  0.00    -0.353 OA 
ENDBRANCH  28  29
ENDBRANCH  27  28
ENDBRANCH  25  27
ENDBRANCH   4  25
BRANCH   4  32
HETATM   32  O   UNL     1     -11.055  14.148  66.488  1.00  0.00    -0.308 OA 
BRANCH  32  33
HETATM   33  C   UNL     1     -11.016  14.429  65.152  1.00  0.00    -0.373 C  
HETATM   34  O   UNL     1     -10.005  14.715  64.528  1.00  0.00    -0.082 OA 
BRANCH  33  35
HETATM   35  C   UNL     1     -12.382  14.348  64.526  1.00  0.00    -0.440 C  
BRANCH  35  36
HETATM   36  C   UNL     1     -12.320  13.512  63.259  1.00  0.00    -0.150 C  
HETATM   37  C   UNL     1     -12.452  12.021  63.548  1.00  0.00    -0.654 C  
ENDBRANCH  35  36
ENDBRANCH  33  35
ENDBRANCH  32  33
ENDBRANCH   4  32
TORSDOF 8
ENDMDL
MODEL       27
REMARK 921   NORMALIZED FREE ENERGY PREDICTED BY IDOCK:   -5.58 KCAL/MOL
REMARK 922        TOTAL FREE ENERGY PREDICTED BY IDOCK:   -7.94 KCAL/MOL
REMARK 923 INTER-LIGAND FREE ENERGY PREDICTED BY IDOCK:   -8.41 KCAL/MOL
REMARK 924 INTRA-LIGAND FREE ENERGY PREDICTED BY IDOCK:    0.48 KCAL/MOL
REMARK 927      BINDING AFFINITY PREDICTED BY RF-SCORE:    0.00 PKD
ROOT
HETATM    1  C   UNL     1      -8.761  12.326  68.813  1.00  0.00     0.134 C  
HETATM    2  C   UNL     1      -7.353  12.295  68.644  1.00  0.00    -0.106 C  
HETATM    3  C   UNL     1      -8.215  12.547  67.466  1.00  0.00    -0.175 C  
HETATM    4  C   UNL     1     -10.221  12.934  67.841  1.00  0.00    -0.233 C  
HETATM    5  C   UNL     1      -9.150  13.583  67.332  1.00  0.00    -0.219 C  
HETATM    6  C   UNL     1      -9.723   5.747  68.187  1.00  0.00    -0.125 C  
HETATM    7  C   UNL     1      -8.443   6.505  68.426  1.00  0.00    -0.120 C  
HETATM    8  C   UNL     1      -8.769   7.814  68.394  1.00  0.00    -0.127 C  
HETATM    9  F   UNL     1      -9.062   7.739  70.747  1.00  0.00    -0.144 F  
HETATM   10  C   UNL     1      -9.468  12.648  65.712  1.00  0.00    -0.043 C  
HETATM   11  C   UNL     1      -9.427   8.412  69.619  1.00  0.00    -0.166 C  
HETATM   12  C   UNL     1      -8.728  15.060  67.572  1.00  0.00    -0.194 C  
HETATM   13  C   UNL     1      -8.974   9.845  69.772  1.00  0.00    -0.242 C  
HETATM   14  O   UNL     1      -9.934   4.665  68.714  1.00  0.00    -0.153 OA 
HETATM   15  C   UNL     1      -9.796  10.942  65.930  1.00  0.00    -0.236 C  
HETATM   16  C   UNL     1     -10.694   6.372  67.211  1.00  0.00    -0.426 C  
HETATM   17  O   UNL     1     -11.209  10.738  65.865  1.00  0.00     0.080 OA 
HETATM   18  C   UNL     1      -9.124  10.023  67.158  1.00  0.00    -0.138 C  
HETATM   19  C   UNL     1      -8.247   8.024  65.896  1.00  0.00    -0.127 C  
HETATM   20  C   UNL     1      -9.249   8.421  67.047  1.00  0.00    -0.186 C  
HETATM   21  H   UNL     1     -11.386   9.812  65.984  1.00  0.00     0.000 HD 
HETATM   22  C   UNL     1      -9.426  10.695  68.580  1.00  0.00    -0.176 C  
HETATM   23  F   UNL     1      -7.730  10.086  67.048  1.00  0.00    -0.094 F  
HETATM   24  C   UNL     1     -10.510   7.621  66.709  1.00  0.00    -0.319 C  
ENDROOT
BRANCH   4  25
HETATM   25  C   UNL     1     -11.321  13.942  67.027  1.00  0.00    -0.326 C  
HETATM   26  O   UNL     1     -11.339  15.184  67.069  1.00  0.00    -0.336 OA 
BRANCH  25  27
HETATM   27  C   UNL     1     -12.482  13.334  66.244  1.00  0.00    -0.216 C  
BRANCH  27  28
HETATM   28  O   UNL     1     -13.124  14.315  65.410  1.00  0.00    -0.685 OA 
BRANCH  28  29
HETATM   29  C   UNL     1     -12.502  14.528  64.221  1.00  0.00    -0.264 C  
HETATM   30  C   UNL     1     -12.251  13.240  63.491  1.00  0.00    -0.513 C  
HETATM   31  O   UNL     1     -12.183  15.628  63.812  1.00  0.00    -0.586 OA 
ENDBRANCH  28  29
ENDBRANCH  27  28
ENDBRANCH  25  27
ENDBRANCH   4  25
BRANCH   4  32
HETATM   32  O   UNL     1     -10.544  13.714  69.154  1.00  0.00    -0.176 OA 
BRANCH  32  33
HETATM   33  C   UNL     1     -11.662  13.408  69.878  1.00  0.00    -0.267 C  
HETATM   34  O   UNL     1     -12.272  12.352  69.805  1.00  0.00    -0.232 OA 
BRANCH  33  35
HETATM   35  C   UNL     1     -12.063  14.538  70.787  1.00  0.00    -0.398 C  
BRANCH  35  36
HETATM   36  C   UNL     1     -13.441  14.268  71.369  1.00  0.00    -0.402 C  
HETATM   37  C   UNL     1     -14.273  15.538  71.487  1.00  0.00    -0.478 C  
ENDBRANCH  35  36
ENDBRANCH  33  35
ENDBRANCH  32  33
ENDBRANCH   4  32
TORSDOF 8
ENDMDL
MODEL       28
REMARK 921   NORMALIZED FREE ENERGY PREDICTED BY IDOCK:   -5.56 KCAL/MOL
REMARK 922        TOTAL FREE ENERGY PREDICTED BY IDOCK:   -7.90 KCAL/MOL
REMARK 923 INTER-LIGAND FREE ENERGY PREDICTED BY IDOCK:   -7.96 KCAL/MOL
REMARK 924 INTRA-LIGAND FREE ENERGY PREDICTED BY IDOCK:    0.06 KCAL/MOL
REMARK 927      BINDING AFFINITY PREDICTED BY RF-SCORE:    0.00 PKD
ROOT
HETATM    1  C   UNL     1      -8.782  12.175  66.797  1.00  0.00    -0.183 C  
HETATM    2  C   UNL     1      -8.915  11.246  65.733  1.00  0.00    -0.191 C  
HETATM    3  C   UNL     1     -10.135  11.817  66.348  1.00  0.00    -0.239 C  
HETATM    4  C   UNL     1      -9.869  13.423  67.638  1.00  0.00    -0.226 C  
HETATM    5  C   UNL     1     -10.454  13.178  66.444  1.00  0.00    -0.287 C  
HETATM    6  C   UNL     1      -8.362   7.648  71.688  1.00  0.00    -0.108 C  
HETATM    7  C   UNL     1      -8.222   7.459  70.200  1.00  0.00    -0.133 C  
HETATM    8  C   UNL     1      -8.471   8.663  69.643  1.00  0.00    -0.129 C  
HETATM    9  F   UNL     1      -6.143   9.115  69.718  1.00  0.00    -0.036 F  
HETATM   10  C   UNL     1     -11.909  12.437  67.410  1.00  0.00    -0.360 C  
HETATM   11  C   UNL     1      -7.371   9.704  69.679  1.00  0.00    -0.093 C  
HETATM   12  C   UNL     1     -10.446  14.079  65.177  1.00  0.00    -0.415 C  
HETATM   13  C   UNL     1      -7.442  10.540  68.423  1.00  0.00    -0.092 C  
HETATM   14  O   UNL     1      -7.672   7.023  72.479  1.00  0.00    -0.092 OA 
HETATM   15  C   UNL     1     -11.426  11.365  68.707  1.00  0.00    -0.290 C  
HETATM   16  C   UNL     1      -9.446   8.601  72.139  1.00  0.00    -0.373 C  
HETATM   17  O   UNL     1     -11.487  12.085  69.940  1.00  0.00    -0.458 OA 
HETATM   18  C   UNL     1     -10.052  10.408  68.651  1.00  0.00    -0.176 C  
HETATM   19  C   UNL     1     -10.959   8.152  69.318  1.00  0.00     0.030 C  
HETATM   20  C   UNL     1      -9.907   9.243  69.753  1.00  0.00    -0.202 C  
HETATM   21  H   UNL     1     -11.225  11.503  70.644  1.00  0.00     0.000 HD 
HETATM   22  C   UNL     1      -8.764  11.310  68.348  1.00  0.00    -0.159 C  
HETATM   23  F   UNL     1     -10.142   9.568  67.535  1.00  0.00    -0.192 F  
HETATM   24  C   UNL     1     -10.138   9.373  71.261  1.00  0.00    -0.309 C  
ENDROOT
BRANCH   4  25
HETATM   25  C   UNL     1     -10.858  14.773  67.938  1.00  0.00    -0.269 C  
HETATM   26  O   UNL     1     -11.765  14.837  68.785  1.00  0.00    -0.302 OA 
BRANCH  25  27
HETATM   27  C   UNL     1     -10.751  16.011  67.053  1.00  0.00    -0.277 C  
BRANCH  27  28
HETATM   28  O   UNL     1     -10.844  17.220  67.828  1.00  0.00    -0.351 OA 
BRANCH  28  29
HETATM   29  C   UNL     1     -10.321  18.315  67.217  1.00  0.00    -0.390 C  
HETATM   30  C   UNL     1      -8.943  18.045  66.686  1.00  0.00    -0.285 C  
HETATM   31  O   UNL     1     -10.900  19.381  67.127  1.00  0.00    -0.484 OA 
ENDBRANCH  28  29
ENDBRANCH  27  28
ENDBRANCH  25  27
ENDBRANCH   4  25
BRANCH   4  32
HETATM   32  O   UNL     1      -8.706  14.405  67.294  1.00  0.00    -0.191 OA 
BRANCH  32  33
HETATM   33  C   UNL     1      -7.838  14.810  68.268  1.00  0.00    -0.125 C  
HETATM   34  O   UNL     1      -8.143  15.011  69.434  1.00  0.00    -0.194 OA 
BRANCH  33  35
HETATM   35  C   UNL     1      -6.443  14.986  67.732  1.00  0.00    -0.183 C  
BRANCH  35  36
HETATM   36  C   UNL     1      -5.663  13.691  67.890  1.00  0.00    -0.121 C  
HETATM   37  C   UNL     1      -5.223  13.458  69.331  1.00  0.00    -0.079 C  
ENDBRANCH  35  36
ENDBRANCH  33  35
ENDBRANCH  32  33
ENDBRANCH   4  32
TORSDOF 8
ENDMDL
MODEL       29
REMARK 921   NORMALIZED FREE ENERGY PREDICTED BY IDOCK:   -5.55 KCAL/MOL
REMARK 922        TOTAL FREE ENERGY PREDICTED BY IDOCK:   -7.89 KCAL/MOL
REMARK 923 INTER-LIGAND FREE ENERGY PREDICTED BY IDOCK:   -8.45 KCAL/MOL
REMARK 924 INTRA-LIGAND FREE ENERGY PREDICTED BY IDOCK:    0.57 KCAL/MOL
REMARK 927      BINDING AFFINITY PREDICTED BY RF-SCORE:    0.00 PKD
ROOT
HETATM    1  C   UNL     1      -8.683  10.630  69.424  1.00  0.00    -0.040 C  
HETATM    2  C   UNL     1      -7.317  10.685  69.803  1.00  0.00    -0.115 C  
HETATM    3  C   UNL     1      -7.675  10.124  68.480  1.00  0.00    -0.090 C  
HETATM    4  C   UNL     1      -9.633  10.402  67.845  1.00  0.00    -0.142 C  
HETATM    5  C   UNL     1      -8.391  10.781  67.470  1.00  0.00    -0.115 C  
HETATM    6  C   UNL     1     -10.023   4.772  72.336  1.00  0.00    -0.174 C  
HETATM    7  C   UNL     1      -8.841   5.685  72.532  1.00  0.00    -0.130 C  
HETATM    8  C   UNL     1      -9.000   6.699  71.655  1.00  0.00    -0.141 C  
HETATM    9  F   UNL     1     -10.114   7.919  73.357  1.00  0.00    -0.355 F  
HETATM   10  C   UNL     1      -8.207   9.068  66.674  1.00  0.00    -0.118 C  
HETATM   11  C   UNL     1      -9.985   7.793  72.006  1.00  0.00    -0.179 C  
HETATM   12  C   UNL     1      -7.934  12.177  66.962  1.00  0.00    -0.138 C  
HETATM   13  C   UNL     1      -9.473   9.109  71.468  1.00  0.00    -0.239 C  
HETATM   14  O   UNL     1     -10.516   4.155  73.269  1.00  0.00    -0.152 OA 
HETATM   15  C   UNL     1      -8.762   7.753  67.687  1.00  0.00    -0.126 C  
HETATM   16  C   UNL     1     -10.516   4.616  70.916  1.00  0.00    -0.028 C  
HETATM   17  O   UNL     1     -10.073   7.374  67.263  1.00  0.00    -0.183 OA 
HETATM   18  C   UNL     1      -8.667   7.772  69.359  1.00  0.00    -0.135 C  
HETATM   19  C   UNL     1      -7.607   5.536  69.848  1.00  0.00    -0.074 C  
HETATM   20  C   UNL     1      -8.907   6.382  70.138  1.00  0.00    -0.150 C  
HETATM   21  H   UNL     1     -10.375   6.660  67.813  1.00  0.00     0.000 HD 
HETATM   22  C   UNL     1      -9.383   9.081  69.939  1.00  0.00    -0.182 C  
HETATM   23  F   UNL     1      -7.326   7.935  69.725  1.00  0.00    -0.070 F  
HETATM   24  C   UNL     1     -10.040   5.380  69.899  1.00  0.00    -0.322 C  
ENDROOT
BRANCH   4  25
HETATM   25  C   UNL     1     -10.264  10.634  66.284  1.00  0.00    -0.245 C  
HETATM   26  O   UNL     1     -10.335   9.772  65.392  1.00  0.00    -0.154 OA 
BRANCH  25  27
HETATM   27  C   UNL     1     -10.699  12.026  65.834  1.00  0.00    -0.275 C  
BRANCH  27  28
HETATM   28  O   UNL     1     -12.131  12.116  65.715  1.00  0.00    -0.572 OA 
BRANCH  28  29
HETATM   29  C   UNL     1     -12.556  12.919  64.705  1.00  0.00    -0.425 C  
HETATM   30  C   UNL     1     -12.290  12.304  63.361  1.00  0.00    -0.624 C  
HETATM   31  O   UNL     1     -13.078  14.004  64.878  1.00  0.00    -0.693 OA 
ENDBRANCH  28  29
ENDBRANCH  27  28
ENDBRANCH  25  27
ENDBRANCH   4  25
BRANCH   4  32
HETATM   32  O   UNL     1     -10.320  11.736  68.275  1.00  0.00    -0.192 OA 
BRANCH  32  33
HETATM   33  C   UNL     1     -11.516  11.711  68.935  1.00  0.00    -0.287 C  
HETATM   34  O   UNL     1     -12.283  10.761  68.953  1.00  0.00    -0.447 OA 
BRANCH  33  35
HETATM   35  C   UNL     1     -11.787  13.010  69.646  1.00  0.00    -0.385 C  
BRANCH  35  36
HETATM   36  C   UNL     1     -11.856  14.145  68.638  1.00  0.00    -0.383 C  
HETATM   37  C   UNL     1     -11.846  15.512  69.312  1.00  0.00    -0.372 C  
ENDBRANCH  35  36
ENDBRANCH  33  35
ENDBRANCH  32  33
ENDBRANCH   4  32
TORSDOF 8
ENDMDL
MODEL       30
REMARK 921   NORMALIZED FREE ENERGY PREDICTED BY IDOCK:   -5.55 KCAL/MOL
REMARK 922        TOTAL FREE ENERGY PREDICTED BY IDOCK:   -7.88 KCAL/MOL
REMARK 923 INTER-LIGAND FREE ENERGY PREDICTED BY IDOCK:   -7.84 KCAL/MOL
REMARK 924 INTRA-LIGAND FREE ENERGY PREDICTED BY IDOCK:   -0.03 KCAL/MOL
REMARK 927      BINDING AFFINITY PREDICTED BY RF-SCORE:    0.00 PKD
ROOT
HETATM    1  C   UNL     1     -10.708   8.201  68.210  1.00  0.00    -0.073 C  
HETATM    2  C   UNL     1     -10.379   7.763  66.902  1.00  0.00    -0.396 C  
HETATM    3  C   UNL     1      -9.343   7.719  67.959  1.00  0.00    -0.146 C  
HETATM    4  C   UNL     1      -9.982   8.028  69.910  1.00  0.00    -0.189 C  
HETATM    5  C   UNL     1      -9.434   7.034  69.178  1.00  0.00    -0.143 C  
HETATM    6  C   UNL     1      -9.450  14.675  67.163  1.00  0.00    -0.229 C  
HETATM    7  C   UNL     1      -9.627  13.564  66.160  1.00  0.00    -0.219 C  
HETATM    8  C   UNL     1      -9.781  12.432  66.878  1.00  0.00    -0.217 C  
HETATM    9  F   UNL     1     -12.128  12.767  66.794  1.00  0.00    -0.432 F  
HETATM   10  C   UNL     1      -7.763   7.902  69.418  1.00  0.00    -0.105 C  
HETATM   11  C   UNL     1     -11.133  12.168  67.507  1.00  0.00    -0.275 C  
HETATM   12  C   UNL     1      -9.791   5.521  69.205  1.00  0.00    -0.233 C  
HETATM   13  C   UNL     1     -11.396  10.681  67.504  1.00  0.00    -0.241 C  
HETATM   14  O   UNL     1      -9.871  15.802  66.949  1.00  0.00    -0.228 OA 
HETATM   15  C   UNL     1      -7.821   9.633  69.166  1.00  0.00    -0.090 C  
HETATM   16  C   UNL     1      -8.667  14.329  68.409  1.00  0.00    -0.181 C  
HETATM   17  O   UNL     1      -7.893  10.277  70.440  1.00  0.00    -0.427 OA 
HETATM   18  C   UNL     1      -8.853  10.372  68.073  1.00  0.00    -0.130 C  
HETATM   19  C   UNL     1      -7.281  11.885  66.810  1.00  0.00    -0.007 C  
HETATM   20  C   UNL     1      -8.576  11.917  67.710  1.00  0.00    -0.154 C  
HETATM   21  H   UNL     1      -7.925  11.216  70.302  1.00  0.00     0.000 HD 
HETATM   22  C   UNL     1     -10.367   9.938  68.363  1.00  0.00    -0.226 C  
HETATM   23  F   UNL     1      -8.595   9.855  66.799  1.00  0.00    -0.125 F  
HETATM   24  C   UNL     1      -8.293  13.054  68.695  1.00  0.00     0.027 C  
ENDROOT
BRANCH   4  25
HETATM   25  C   UNL     1      -9.417   7.373  71.373  1.00  0.00    -0.152 C  
HETATM   26  O   UNL     1      -9.405   6.167  71.675  1.00  0.00    -0.149 OA 
BRANCH  25  27
HETATM   27  C   UNL     1      -8.971   8.296  72.504  1.00  0.00    -0.236 C  
BRANCH  27  28
HETATM   28  O   UNL     1      -7.991   7.661  73.345  1.00  0.00    -0.112 OA 
BRANCH  28  29
HETATM   29  C   UNL     1      -6.715   8.065  73.116  1.00  0.00    -0.094 C  
HETATM   30  C   UNL     1      -5.739   6.936  73.284  1.00  0.00    -0.046 C  
HETATM   31  O   UNL     1      -6.409   9.205  72.822  1.00  0.00    -0.304 OA 
ENDBRANCH  28  29
ENDBRANCH  27  28
ENDBRANCH  25  27
ENDBRANCH   4  25
BRANCH   4  32
HETATM   32  O   UNL     1     -11.404   7.491  70.268  1.00  0.00    -0.268 OA 
BRANCH  32  33
HETATM   33  C   UNL     1     -12.155   8.119  71.221  1.00  0.00    -0.288 C  
HETATM   34  O   UNL     1     -12.833   7.548  72.063  1.00  0.00    -0.276 OA 
BRANCH  33  35
HETATM   35  C   UNL     1     -12.054   9.616  71.113  1.00  0.00    -0.448 C  
BRANCH  35  36
HETATM   36  C   UNL     1     -13.187  10.267  71.889  1.00  0.00    -0.550 C  
HETATM   37  C   UNL     1     -13.130  11.788  71.819  1.00  0.00    -0.480 C  
ENDBRANCH  35  36
ENDBRANCH  33  35
ENDBRANCH  32  33
ENDBRANCH   4  32
TORSDOF 8
ENDMDL
MODEL       31
REMARK 921   NORMALIZED FREE ENERGY PREDICTED BY IDOCK:   -5.54 KCAL/MOL
REMARK 922        TOTAL FREE ENERGY PREDICTED BY IDOCK:   -7.88 KCAL/MOL
REMARK 923 INTER-LIGAND FREE ENERGY PREDICTED BY IDOCK:   -7.84 KCAL/MOL
REMARK 924 INTRA-LIGAND FREE ENERGY PREDICTED BY IDOCK:   -0.03 KCAL/MOL
REMARK 927      BINDING AFFINITY PREDICTED BY RF-SCORE:    0.00 PKD
ROOT
HETATM    1  C   UNL     1      -7.108   9.810  67.779  1.00  0.00    -0.087 C  
HETATM    2  C   UNL     1      -5.943   9.010  67.906  1.00  0.00    -0.050 C  
HETATM    3  C   UNL     1      -6.903   8.718  66.816  1.00  0.00    -0.069 C  
HETATM    4  C   UNL     1      -8.383  10.133  66.468  1.00  0.00    -0.124 C  
HETATM    5  C   UNL     1      -7.318   9.610  65.819  1.00  0.00    -0.100 C  
HETATM    6  C   UNL     1     -10.856   6.350  72.088  1.00  0.00    -0.237 C  
HETATM    7  C   UNL     1      -9.364   6.314  71.881  1.00  0.00    -0.153 C  
HETATM    8  C   UNL     1      -9.110   7.136  70.841  1.00  0.00    -0.152 C  
HETATM    9  F   UNL     1      -8.764   8.897  72.393  1.00  0.00    -0.253 F  
HETATM   10  C   UNL     1      -8.420   8.122  65.400  1.00  0.00    -0.164 C  
HETATM   11  C   UNL     1      -9.103   8.628  71.100  1.00  0.00    -0.209 C  
HETATM   12  C   UNL     1      -6.272  10.360  64.948  1.00  0.00    -0.097 C  
HETATM   13  C   UNL     1      -8.071   9.278  70.209  1.00  0.00    -0.165 C  
HETATM   14  O   UNL     1     -11.348   6.250  73.203  1.00  0.00    -0.162 OA 
HETATM   15  C   UNL     1      -9.357   7.531  66.755  1.00  0.00    -0.165 C  
HETATM   16  C   UNL     1     -11.700   6.448  70.839  1.00  0.00    -0.366 C  
HETATM   17  O   UNL     1     -10.687   8.044  66.647  1.00  0.00    -0.377 OA 
HETATM   18  C   UNL     1      -8.828   7.596  68.343  1.00  0.00    -0.130 C  
HETATM   19  C   UNL     1      -9.239   5.236  69.129  1.00  0.00    -0.153 C  
HETATM   20  C   UNL     1      -9.634   6.732  69.437  1.00  0.00    -0.146 C  
HETATM   21  H   UNL     1     -11.195   7.723  67.383  1.00  0.00     0.000 HD 
HETATM   22  C   UNL     1      -8.428   9.098  68.730  1.00  0.00    -0.130 C  
HETATM   23  F   UNL     1      -7.620   6.895  68.437  1.00  0.00    -0.098 F  
HETATM   24  C   UNL     1     -11.154   6.665  69.614  1.00  0.00    -0.390 C  
ENDROOT
BRANCH   4  25
HETATM   25  C   UNL     1      -9.136  10.608  65.020  1.00  0.00    -0.202 C  
HETATM   26  O   UNL     1      -8.557  10.898  63.960  1.00  0.00    -0.085 OA 
BRANCH  25  27
HETATM   27  C   UNL     1     -10.646  10.824  64.978  1.00  0.00    -0.173 C  
BRANCH  27  28
HETATM   28  O   UNL     1     -11.007  11.821  64.005  1.00  0.00    -0.328 OA 
BRANCH  28  29
HETATM   29  C   UNL     1     -12.299  12.233  64.083  1.00  0.00    -0.451 C  
HETATM   30  C   UNL     1     -12.530  13.107  65.283  1.00  0.00    -0.550 C  
HETATM   31  O   UNL     1     -13.158  11.919  63.281  1.00  0.00    -0.674 OA 
ENDBRANCH  28  29
ENDBRANCH  27  28
ENDBRANCH  25  27
ENDBRANCH   4  25
BRANCH   4  32
HETATM   32  O   UNL     1      -7.986  11.624  66.702  1.00  0.00    -0.155 OA 
BRANCH  32  33
HETATM   33  C   UNL     1      -8.932  12.536  67.078  1.00  0.00    -0.211 C  
HETATM   34  O   UNL     1      -9.266  13.507  66.417  1.00  0.00    -0.220 OA 
BRANCH  33  35
HETATM   35  C   UNL     1      -9.521  12.203  68.422  1.00  0.00    -0.179 C  
BRANCH  35  36
HETATM   36  C   UNL     1     -11.037  12.145  68.320  1.00  0.00    -0.288 C  
HETATM   37  C   UNL     1     -11.589  10.793  68.756  1.00  0.00    -0.350 C  
ENDBRANCH  35  36
ENDBRANCH  33  35
ENDBRANCH  32  33
ENDBRANCH   4  32
TORSDOF 8
ENDMDL
MODEL       32
REMARK 921   NORMALIZED FREE ENERGY PREDICTED BY IDOCK:   -5.53 KCAL/MOL
REMARK 922        TOTAL FREE ENERGY PREDICTED BY IDOCK:   -7.85 KCAL/MOL
REMARK 923 INTER-LIGAND FREE ENERGY PREDICTED BY IDOCK:   -7.83 KCAL/MOL
REMARK 924 INTRA-LIGAND FREE ENERGY PREDICTED BY IDOCK:   -0.02 KCAL/MOL
REMARK 927      BINDING AFFINITY PREDICTED BY RF-SCORE:    0.00 PKD
ROOT
HETATM    1  C   UNL     1      -7.348   9.293  67.608  1.00  0.00    -0.084 C  
HETATM    2  C   UNL     1      -6.857   8.035  67.174  1.00  0.00    -0.073 C  
HETATM    3  C   UNL     1      -8.155   8.521  66.652  1.00  0.00    -0.104 C  
HETATM    4  C   UNL     1      -8.636  10.503  67.041  1.00  0.00    -0.127 C  
HETATM    5  C   UNL     1      -8.372   9.725  65.968  1.00  0.00    -0.123 C  
HETATM    6  C   UNL     1     -10.344   7.051  73.139  1.00  0.00    -0.281 C  
HETATM    7  C   UNL     1      -9.326   6.367  72.262  1.00  0.00    -0.141 C  
HETATM    8  C   UNL     1      -9.097   7.205  71.229  1.00  0.00    -0.151 C  
HETATM    9  F   UNL     1      -7.290   8.130  72.457  1.00  0.00    -0.091 F  
HETATM   10  C   UNL     1     -10.159   9.098  66.097  1.00  0.00    -0.278 C  
HETATM   11  C   UNL     1      -8.189   8.394  71.467  1.00  0.00    -0.144 C  
HETATM   12  C   UNL     1      -7.523  10.084  64.717  1.00  0.00    -0.143 C  
HETATM   13  C   UNL     1      -7.412   8.681  70.204  1.00  0.00    -0.054 C  
HETATM   14  O   UNL     1     -10.334   6.916  74.353  1.00  0.00    -0.296 OA 
HETATM   15  C   UNL     1     -10.654   8.698  67.728  1.00  0.00    -0.183 C  
HETATM   16  C   UNL     1     -11.408   7.852  72.424  1.00  0.00    -0.427 C  
HETATM   17  O   UNL     1     -11.415   9.787  68.253  1.00  0.00    -0.519 OA 
HETATM   18  C   UNL     1      -9.607   8.097  68.889  1.00  0.00    -0.153 C  
HETATM   19  C   UNL     1     -10.879   6.102  69.758  1.00  0.00    -0.421 C  
HETATM   20  C   UNL     1     -10.252   7.471  70.226  1.00  0.00    -0.204 C  
HETATM   21  H   UNL     1     -11.683   9.570  69.138  1.00  0.00     0.000 HD 
HETATM   22  C   UNL     1      -8.350   9.075  69.058  1.00  0.00    -0.124 C  
HETATM   23  F   UNL     1      -9.043   6.910  68.407  1.00  0.00    -0.128 F  
HETATM   24  C   UNL     1     -11.356   8.089  71.088  1.00  0.00    -0.292 C  
ENDROOT
BRANCH   4  25
HETATM   25  C   UNL     1      -9.506  11.630  66.112  1.00  0.00    -0.224 C  
HETATM   26  O   UNL     1      -9.265  11.942  64.933  1.00  0.00     0.030 OA 
BRANCH  25  27
HETATM   27  C   UNL     1     -10.625  12.448  66.750  1.00  0.00    -0.226 C  
BRANCH  27  28
HETATM   28  O   UNL     1     -11.915  12.052  66.252  1.00  0.00    -0.596 OA 
BRANCH  28  29
HETATM   29  C   UNL     1     -12.520  12.983  65.469  1.00  0.00    -0.438 C  
HETATM   30  C   UNL     1     -12.006  14.364  65.756  1.00  0.00    -0.362 C  
HETATM   31  O   UNL     1     -13.379  12.721  64.649  1.00  0.00    -0.665 OA 
ENDBRANCH  28  29
ENDBRANCH  27  28
ENDBRANCH  25  27
ENDBRANCH   4  25
BRANCH   4  32
HETATM   32  O   UNL     1      -7.447  11.513  67.075  1.00  0.00    -0.137 OA 
BRANCH  32  33
HETATM   33  C   UNL     1      -7.431  12.526  67.992  1.00  0.00    -0.117 C  
HETATM   34  O   UNL     1      -7.652  12.389  69.186  1.00  0.00     0.049 OA 
BRANCH  33  35
HETATM   35  C   UNL     1      -7.108  13.850  67.354  1.00  0.00    -0.091 C  
BRANCH  35  36
HETATM   36  C   UNL     1      -8.221  14.845  67.639  1.00  0.00    -0.184 C  
HETATM   37  C   UNL     1      -8.701  15.546  66.374  1.00  0.00    -0.333 C  
ENDBRANCH  35  36
ENDBRANCH  33  35
ENDBRANCH  32  33
ENDBRANCH   4  32
TORSDOF 8
ENDMDL
MODEL       33
REMARK 921   NORMALIZED FREE ENERGY PREDICTED BY IDOCK:   -5.50 KCAL/MOL
REMARK 922        TOTAL FREE ENERGY PREDICTED BY IDOCK:   -7.82 KCAL/MOL
REMARK 923 INTER-LIGAND FREE ENERGY PREDICTED BY IDOCK:   -7.79 KCAL/MOL
REMARK 924 INTRA-LIGAND FREE ENERGY PREDICTED BY IDOCK:   -0.03 KCAL/MOL
REMARK 927      BINDING AFFINITY PREDICTED BY RF-SCORE:    0.00 PKD
ROOT
HETATM    1  C   UNL     1      -9.276   7.858  67.374  1.00  0.00    -0.160 C  
HETATM    2  C   UNL     1     -10.222   7.009  66.744  1.00  0.00    -0.282 C  
HETATM    3  C   UNL     1     -10.635   8.372  67.151  1.00  0.00    -0.326 C  
HETATM    4  C   UNL     1      -9.125   9.674  67.732  1.00  0.00    -0.124 C  
HETATM    5  C   UNL     1     -10.040   9.573  66.742  1.00  0.00    -0.312 C  
HETATM    6  C   UNL     1     -10.302   5.626  73.583  1.00  0.00    -0.240 C  
HETATM    7  C   UNL     1     -10.718   5.015  72.270  1.00  0.00    -0.246 C  
HETATM    8  C   UNL     1     -10.345   5.890  71.314  1.00  0.00    -0.276 C  
HETATM    9  F   UNL     1      -8.296   4.710  71.115  1.00  0.00    -0.093 F  
HETATM   10  C   UNL     1     -11.315  10.247  67.977  1.00  0.00    -0.219 C  
HETATM   11  C   UNL     1      -8.885   5.922  70.911  1.00  0.00    -0.138 C  
HETATM   12  C   UNL     1      -9.847   9.882  65.231  1.00  0.00    -0.373 C  
HETATM   13  C   UNL     1      -8.787   6.238  69.437  1.00  0.00    -0.127 C  
HETATM   14  O   UNL     1      -9.934   4.934  74.522  1.00  0.00    -0.173 OA 
HETATM   15  C   UNL     1     -11.230   9.503  69.559  1.00  0.00    -0.074 C  
HETATM   16  C   UNL     1     -10.431   7.128  73.690  1.00  0.00    -0.412 C  
HETATM   17  O   UNL     1     -10.508  10.374  70.434  1.00  0.00    -0.432 OA 
HETATM   18  C   UNL     1     -10.776   7.910  69.808  1.00  0.00    -0.233 C  
HETATM   19  C   UNL     1     -12.618   7.069  71.310  1.00  0.00    -0.418 C  
HETATM   20  C   UNL     1     -11.054   7.270  71.260  1.00  0.00    -0.270 C  
HETATM   21  H   UNL     1     -10.462   9.970  71.292  1.00  0.00     0.000 HD 
HETATM   22  C   UNL     1      -9.350   7.631  69.134  1.00  0.00    -0.147 C  
HETATM   23  F   UNL     1     -11.650   7.083  69.094  1.00  0.00    -0.109 F  
HETATM   24  C   UNL     1     -10.736   7.903  72.617  1.00  0.00    -0.411 C  
ENDROOT
BRANCH   4  25
HETATM   25  C   UNL     1      -8.987  11.357  67.545  1.00  0.00    -0.150 C  
HETATM   26  O   UNL     1      -8.898  12.187  68.466  1.00  0.00    -0.160 OA 
BRANCH  25  27
HETATM   27  C   UNL     1      -9.084  11.984  66.157  1.00  0.00    -0.129 C  
BRANCH  27  28
HETATM   28  O   UNL     1      -9.641  13.310  66.216  1.00  0.00    -0.273 OA 
BRANCH  28  29
HETATM   29  C   UNL     1     -10.876  13.420  65.661  1.00  0.00    -0.283 C  
HETATM   30  C   UNL     1     -11.935  13.620  66.707  1.00  0.00    -0.458 C  
HETATM   31  O   UNL     1     -11.088  13.354  64.465  1.00  0.00    -0.346 OA 
ENDBRANCH  28  29
ENDBRANCH  27  28
ENDBRANCH  25  27
ENDBRANCH   4  25
BRANCH   4  32
HETATM   32  O   UNL     1      -7.757   9.523  66.995  1.00  0.00    -0.091 OA 
BRANCH  32  33
HETATM   33  C   UNL     1      -6.598   9.903  67.613  1.00  0.00    -0.068 C  
HETATM   34  O   UNL     1      -5.879  10.818  67.242  1.00  0.00    -0.044 OA 
BRANCH  33  35
HETATM   35  C   UNL     1      -6.305   9.052  68.818  1.00  0.00    -0.049 C  
BRANCH  35  36
HETATM   36  C   UNL     1      -6.332   9.908  70.073  1.00  0.00    -0.071 C  
HETATM   37  C   UNL     1      -6.876   9.147  71.276  1.00  0.00    -0.070 C  
ENDBRANCH  35  36
ENDBRANCH  33  35
ENDBRANCH  32  33
ENDBRANCH   4  32
TORSDOF 8
ENDMDL
MODEL       34
REMARK 921   NORMALIZED FREE ENERGY PREDICTED BY IDOCK:   -5.48 KCAL/MOL
REMARK 922        TOTAL FREE ENERGY PREDICTED BY IDOCK:   -7.78 KCAL/MOL
REMARK 923 INTER-LIGAND FREE ENERGY PREDICTED BY IDOCK:   -7.54 KCAL/MOL
REMARK 924 INTRA-LIGAND FREE ENERGY PREDICTED BY IDOCK:   -0.23 KCAL/MOL
REMARK 927      BINDING AFFINITY PREDICTED BY RF-SCORE:    0.00 PKD
ROOT
HETATM    1  C   UNL     1      -9.090  10.116  67.212  1.00  0.00    -0.151 C  
HETATM    2  C   UNL     1      -9.573   9.073  66.381  1.00  0.00    -0.309 C  
HETATM    3  C   UNL     1     -10.537  10.033  66.966  1.00  0.00    -0.279 C  
HETATM    4  C   UNL     1      -9.742  11.727  67.865  1.00  0.00    -0.185 C  
HETATM    5  C   UNL     1     -10.520  11.424  66.802  1.00  0.00    -0.284 C  
HETATM    6  C   UNL     1      -9.067   6.594  72.885  1.00  0.00    -0.128 C  
HETATM    7  C   UNL     1      -9.174   6.109  71.463  1.00  0.00    -0.152 C  
HETATM    8  C   UNL     1      -9.213   7.214  70.691  1.00  0.00    -0.158 C  
HETATM    9  F   UNL     1      -6.855   7.075  70.471  1.00  0.00    -0.052 F  
HETATM   10  C   UNL     1     -11.965  11.259  68.023  1.00  0.00    -0.132 C  
HETATM   11  C   UNL     1      -7.910   7.936  70.416  1.00  0.00    -0.089 C  
HETATM   12  C   UNL     1     -10.476  12.050  65.380  1.00  0.00    -0.313 C  
HETATM   13  C   UNL     1      -7.955   8.520  69.024  1.00  0.00    -0.113 C  
HETATM   14  O   UNL     1      -8.439   5.970  73.728  1.00  0.00    -0.117 OA 
HETATM   15  C   UNL     1     -11.571  10.354  69.468  1.00  0.00    -0.219 C  
HETATM   16  C   UNL     1      -9.835   7.853  73.219  1.00  0.00    -0.345 C  
HETATM   17  O   UNL     1     -11.301  11.278  70.524  1.00  0.00    -0.457 OA 
HETATM   18  C   UNL     1     -10.472   9.091  69.495  1.00  0.00    -0.219 C  
HETATM   19  C   UNL     1     -11.772   7.293  70.693  1.00  0.00    -0.310 C  
HETATM   20  C   UNL     1     -10.451   8.146  70.800  1.00  0.00    -0.223 C  
HETATM   21  H   UNL     1     -11.087  10.787  71.309  1.00  0.00     0.000 HD 
HETATM   22  C   UNL     1      -9.064   9.570  68.902  1.00  0.00    -0.141 C  
HETATM   23  F   UNL     1     -10.899   8.111  68.591  1.00  0.00    -0.195 F  
HETATM   24  C   UNL     1     -10.443   8.601  72.262  1.00  0.00    -0.376 C  
ENDROOT
BRANCH   4  25
HETATM   25  C   UNL     1     -10.347  13.313  67.960  1.00  0.00    -0.241 C  
HETATM   26  O   UNL     1     -10.531  14.081  67.000  1.00  0.00    -0.271 OA 
BRANCH  25  27
HETATM   27  C   UNL     1     -10.606  13.954  69.320  1.00  0.00    -0.034 C  
BRANCH  27  28
HETATM   28  O   UNL     1     -11.959  14.433  69.427  1.00  0.00    -0.301 OA 
BRANCH  28  29
HETATM   29  C   UNL     1     -12.439  14.469  70.697  1.00  0.00    -0.343 C  
HETATM   30  C   UNL     1     -12.206  15.807  71.338  1.00  0.00    -0.500 C  
HETATM   31  O   UNL     1     -12.978  13.526  71.243  1.00  0.00    -0.338 OA 
ENDBRANCH  28  29
ENDBRANCH  27  28
ENDBRANCH  25  27
ENDBRANCH   4  25
BRANCH   4  32
HETATM   32  O   UNL     1      -8.442  12.308  67.225  1.00  0.00    -0.166 OA 
BRANCH  32  33
HETATM   33  C   UNL     1      -7.317  12.472  67.984  1.00  0.00    -0.111 C  
HETATM   34  O   UNL     1      -7.312  12.677  69.188  1.00  0.00    -0.009 OA 
BRANCH  33  35
HETATM   35  C   UNL     1      -6.066  12.371  67.154  1.00  0.00    -0.083 C  
BRANCH  35  36
HETATM   36  C   UNL     1      -5.719  10.910  66.920  1.00  0.00    -0.067 C  
HETATM   37  C   UNL     1      -5.852  10.515  65.455  1.00  0.00    -0.134 C  
ENDBRANCH  35  36
ENDBRANCH  33  35
ENDBRANCH  32  33
ENDBRANCH   4  32
TORSDOF 8
ENDMDL
MODEL       35
REMARK 921   NORMALIZED FREE ENERGY PREDICTED BY IDOCK:   -5.44 KCAL/MOL
REMARK 922        TOTAL FREE ENERGY PREDICTED BY IDOCK:   -7.73 KCAL/MOL
REMARK 923 INTER-LIGAND FREE ENERGY PREDICTED BY IDOCK:   -7.72 KCAL/MOL
REMARK 924 INTRA-LIGAND FREE ENERGY PREDICTED BY IDOCK:   -0.01 KCAL/MOL
REMARK 927      BINDING AFFINITY PREDICTED BY RF-SCORE:    0.00 PKD
ROOT
HETATM    1  C   UNL     1     -10.324   9.792  67.614  1.00  0.00    -0.281 C  
HETATM    2  C   UNL     1     -10.165   9.808  66.205  1.00  0.00    -0.278 C  
HETATM    3  C   UNL     1      -8.970   9.639  67.064  1.00  0.00    -0.150 C  
HETATM    4  C   UNL     1      -9.311   9.265  69.078  1.00  0.00    -0.151 C  
HETATM    5  C   UNL     1      -8.772   8.629  68.014  1.00  0.00    -0.141 C  
HETATM    6  C   UNL     1     -10.071  16.411  68.463  1.00  0.00    -0.248 C  
HETATM    7  C   UNL     1     -10.273  15.619  67.197  1.00  0.00    -0.270 C  
HETATM    8  C   UNL     1     -10.164  14.320  67.544  1.00  0.00    -0.240 C  
HETATM    9  F   UNL     1     -12.516  14.265  67.852  1.00  0.00    -0.310 F  
HETATM   10  C   UNL     1      -7.205   9.660  68.306  1.00  0.00    -0.079 C  
HETATM   11  C   UNL     1     -11.350  13.664  68.221  1.00  0.00    -0.289 C  
HETATM   12  C   UNL     1      -8.929   7.133  67.619  1.00  0.00    -0.125 C  
HETATM   13  C   UNL     1     -11.422  12.217  67.793  1.00  0.00    -0.398 C  
HETATM   14  O   UNL     1     -10.659  17.464  68.658  1.00  0.00    -0.357 OA 
HETATM   15  C   UNL     1      -7.519  11.356  68.607  1.00  0.00    -0.119 C  
HETATM   16  C   UNL     1      -9.056  15.860  69.438  1.00  0.00    -0.222 C  
HETATM   17  O   UNL     1      -7.458  11.587  70.016  1.00  0.00    -0.209 OA 
HETATM   18  C   UNL     1      -8.802  12.191  67.928  1.00  0.00    -0.177 C  
HETATM   19  C   UNL     1      -7.661  14.244  67.010  1.00  0.00     0.105 C  
HETATM   20  C   UNL     1      -8.783  13.799  68.026  1.00  0.00    -0.181 C  
HETATM   21  H   UNL     1      -7.629  12.508  70.179  1.00  0.00     0.000 HD 
HETATM   22  C   UNL     1     -10.181  11.444  68.250  1.00  0.00    -0.204 C  
HETATM   23  F   UNL     1      -8.696  12.111  66.535  1.00  0.00    -0.195 F  
HETATM   24  C   UNL     1      -8.484  14.639  69.271  1.00  0.00     0.030 C  
ENDROOT
BRANCH   4  25
HETATM   25  C   UNL     1      -8.434   8.325  70.189  1.00  0.00    -0.126 C  
HETATM   26  O   UNL     1      -8.192   7.110  70.083  1.00  0.00    -0.130 OA 
BRANCH  25  27
HETATM   27  C   UNL     1      -7.966   8.934  71.508  1.00  0.00    -0.066 C  
BRANCH  27  28
HETATM   28  O   UNL     1      -8.923   8.711  72.559  1.00  0.00    -0.337 OA 
BRANCH  28  29
HETATM   29  C   UNL     1      -8.382   8.244  73.714  1.00  0.00    -0.198 C  
HETATM   30  C   UNL     1      -9.042   6.969  74.157  1.00  0.00    -0.250 C  
HETATM   31  O   UNL     1      -7.483   8.802  74.314  1.00  0.00    -0.404 OA 
ENDBRANCH  28  29
ENDBRANCH  27  28
ENDBRANCH  25  27
ENDBRANCH   4  25
BRANCH   4  32
HETATM   32  O   UNL     1     -10.575   8.417  69.423  1.00  0.00    -0.224 OA 
BRANCH  32  33
HETATM   33  C   UNL     1     -11.334   8.728  70.515  1.00  0.00    -0.227 C  
HETATM   34  O   UNL     1     -11.518   9.860  70.937  1.00  0.00    -0.318 OA 
BRANCH  33  35
HETATM   35  C   UNL     1     -11.924   7.499  71.151  1.00  0.00    -0.334 C  
BRANCH  35  36
HETATM   36  C   UNL     1     -11.416   6.256  70.440  1.00  0.00    -0.414 C  
HETATM   37  C   UNL     1     -10.745   5.280  71.399  1.00  0.00    -0.203 C  
ENDBRANCH  35  36
ENDBRANCH  33  35
ENDBRANCH  32  33
ENDBRANCH   4  32
TORSDOF 8
ENDMDL
MODEL       36
REMARK 921   NORMALIZED FREE ENERGY PREDICTED BY IDOCK:   -5.41 KCAL/MOL
REMARK 922        TOTAL FREE ENERGY PREDICTED BY IDOCK:   -7.69 KCAL/MOL
REMARK 923 INTER-LIGAND FREE ENERGY PREDICTED BY IDOCK:   -7.89 KCAL/MOL
REMARK 924 INTRA-LIGAND FREE ENERGY PREDICTED BY IDOCK:    0.20 KCAL/MOL
REMARK 927      BINDING AFFINITY PREDICTED BY RF-SCORE:    0.00 PKD
ROOT
HETATM    1  C   UNL     1      -8.680  10.502  69.133  1.00  0.00    -0.155 C  
HETATM    2  C   UNL     1      -7.291  10.487  69.423  1.00  0.00    -0.133 C  
HETATM    3  C   UNL     1      -7.736  10.781  68.041  1.00  0.00    -0.101 C  
HETATM    4  C   UNL     1      -9.763  11.140  67.767  1.00  0.00    -0.171 C  
HETATM    5  C   UNL     1      -8.598  11.816  67.653  1.00  0.00    -0.153 C  
HETATM    6  C   UNL     1      -9.267   3.949  67.990  1.00  0.00    -0.163 C  
HETATM    7  C   UNL     1      -8.145   4.703  68.655  1.00  0.00    -0.082 C  
HETATM    8  C   UNL     1      -8.468   6.011  68.568  1.00  0.00    -0.113 C  
HETATM    9  F   UNL     1      -9.498   5.838  70.698  1.00  0.00    -0.163 F  
HETATM   10  C   UNL     1      -8.363  10.946  65.982  1.00  0.00    -0.165 C  
HETATM   11  C   UNL     1      -9.495   6.555  69.539  1.00  0.00    -0.146 C  
HETATM   12  C   UNL     1      -8.303  13.284  68.069  1.00  0.00    -0.162 C  
HETATM   13  C   UNL     1      -9.142   7.983  69.881  1.00  0.00    -0.145 C  
HETATM   14  O   UNL     1      -9.615   2.845  68.382  1.00  0.00    -0.179 OA 
HETATM   15  C   UNL     1      -8.711   9.231  66.021  1.00  0.00    -0.153 C  
HETATM   16  C   UNL     1      -9.886   4.606  66.778  1.00  0.00    -0.237 C  
HETATM   17  O   UNL     1     -10.025   9.021  65.499  1.00  0.00    -0.437 OA 
HETATM   18  C   UNL     1      -8.450   8.266  67.366  1.00  0.00    -0.125 C  
HETATM   19  C   UNL     1      -7.179   6.326  66.378  1.00  0.00    -0.069 C  
HETATM   20  C   UNL     1      -8.503   6.669  67.162  1.00  0.00    -0.113 C  
HETATM   21  H   UNL     1     -10.214   8.090  65.521  1.00  0.00     0.000 HD 
HETATM   22  C   UNL     1      -9.204   8.878  68.639  1.00  0.00    -0.137 C  
HETATM   23  F   UNL     1      -7.096   8.343  67.711  1.00  0.00    -0.075 F  
HETATM   24  C   UNL     1      -9.574   5.876  66.408  1.00  0.00    -0.173 C  
ENDROOT
BRANCH   4  25
HETATM   25  C   UNL     1     -10.563  12.174  66.681  1.00  0.00    -0.235 C  
HETATM   26  O   UNL     1     -11.252  11.817  65.710  1.00  0.00    -0.322 OA 
BRANCH  25  27
HETATM   27  C   UNL     1     -10.374  13.685  66.781  1.00  0.00    -0.268 C  
BRANCH  27  28
HETATM   28  O   UNL     1     -11.607  14.348  67.115  1.00  0.00    -0.351 OA 
BRANCH  28  29
HETATM   29  C   UNL     1     -11.515  15.197  68.171  1.00  0.00    -0.342 C  
HETATM   30  C   UNL     1     -10.682  16.402  67.840  1.00  0.00    -0.332 C  
HETATM   31  O   UNL     1     -12.037  14.993  69.251  1.00  0.00    -0.298 OA 
ENDBRANCH  28  29
ENDBRANCH  27  28
ENDBRANCH  25  27
ENDBRANCH   4  25
BRANCH   4  32
HETATM   32  O   UNL     1     -10.504  11.864  68.935  1.00  0.00    -0.202 OA 
BRANCH  32  33
HETATM   33  C   UNL     1     -11.754  11.461  69.310  1.00  0.00    -0.337 C  
HETATM   34  O   UNL     1     -12.517  10.813  68.609  1.00  0.00    -0.348 OA 
BRANCH  33  35
HETATM   35  C   UNL     1     -12.090  11.913  70.705  1.00  0.00    -0.325 C  
BRANCH  35  36
HETATM   36  C   UNL     1     -12.719  10.768  71.482  1.00  0.00    -0.536 C  
HETATM   37  C   UNL     1     -11.756   9.600  71.663  1.00  0.00    -0.439 C  
ENDBRANCH  35  36
ENDBRANCH  33  35
ENDBRANCH  32  33
ENDBRANCH   4  32
TORSDOF 8
ENDMDL
MODEL       37
REMARK 921   NORMALIZED FREE ENERGY PREDICTED BY IDOCK:   -5.37 KCAL/MOL
REMARK 922        TOTAL FREE ENERGY PREDICTED BY IDOCK:   -7.62 KCAL/MOL
REMARK 923 INTER-LIGAND FREE ENERGY PREDICTED BY IDOCK:   -7.92 KCAL/MOL
REMARK 924 INTRA-LIGAND FREE ENERGY PREDICTED BY IDOCK:    0.31 KCAL/MOL
REMARK 927      BINDING AFFINITY PREDICTED BY RF-SCORE:    0.00 PKD
ROOT
HETATM    1  C   UNL     1     -10.649   8.279  68.332  1.00  0.00    -0.148 C  
HETATM    2  C   UNL     1     -10.395   7.814  67.015  1.00  0.00    -0.405 C  
HETATM    3  C   UNL     1      -9.292   7.818  68.004  1.00  0.00    -0.146 C  
HETATM    4  C   UNL     1      -9.812   8.165  69.985  1.00  0.00    -0.182 C  
HETATM    5  C   UNL     1      -9.289   7.163  69.243  1.00  0.00    -0.146 C  
HETATM    6  C   UNL     1      -9.602  14.747  67.046  1.00  0.00    -0.241 C  
HETATM    7  C   UNL     1      -9.820  13.608  66.084  1.00  0.00    -0.304 C  
HETATM    8  C   UNL     1      -9.903  12.491  66.838  1.00  0.00    -0.229 C  
HETATM    9  F   UNL     1     -12.257  12.776  66.898  1.00  0.00    -0.435 F  
HETATM   10  C   UNL     1      -7.626   8.071  69.353  1.00  0.00    -0.102 C  
HETATM   11  C   UNL     1     -11.205  12.216  67.560  1.00  0.00    -0.297 C  
HETATM   12  C   UNL     1      -9.611   5.644  69.331  1.00  0.00    -0.187 C  
HETATM   13  C   UNL     1     -11.435  10.724  67.611  1.00  0.00    -0.234 C  
HETATM   14  O   UNL     1     -10.061  15.860  66.832  1.00  0.00    -0.253 OA 
HETATM   15  C   UNL     1      -7.738   9.793  69.062  1.00  0.00    -0.085 C  
HETATM   16  C   UNL     1      -8.734  14.450  68.246  1.00  0.00    -0.180 C  
HETATM   17  O   UNL     1      -7.742  10.468  70.322  1.00  0.00    -0.433 OA 
HETATM   18  C   UNL     1      -8.855  10.483  68.021  1.00  0.00    -0.131 C  
HETATM   19  C   UNL     1      -7.400  11.994  66.621  1.00  0.00     0.126 C  
HETATM   20  C   UNL     1      -8.635  12.023  67.602  1.00  0.00    -0.163 C  
HETATM   21  H   UNL     1      -7.803  11.403  70.164  1.00  0.00     0.000 HD 
HETATM   22  C   UNL     1     -10.337  10.025  68.418  1.00  0.00    -0.218 C  
HETATM   23  F   UNL     1      -8.667   9.938  66.746  1.00  0.00    -0.126 F  
HETATM   24  C   UNL     1      -8.314  13.191  68.538  1.00  0.00    -0.063 C  
ENDROOT
BRANCH   4  25
HETATM   25  C   UNL     1      -9.139   7.559  71.424  1.00  0.00    -0.137 C  
HETATM   26  O   UNL     1      -8.484   8.214  72.253  1.00  0.00    -0.139 OA 
BRANCH  25  27
HETATM   27  C   UNL     1      -9.214   6.067  71.736  1.00  0.00    -0.145 C  
BRANCH  27  28
HETATM   28  O   UNL     1      -8.895   5.802  73.114  1.00  0.00    -0.123 OA 
BRANCH  28  29
HETATM   29  C   UNL     1      -9.506   4.701  73.625  1.00  0.00    -0.127 C  
HETATM   30  C   UNL     1     -10.972   4.684  73.303  1.00  0.00    -0.381 C  
HETATM   31  O   UNL     1      -8.929   3.847  74.271  1.00  0.00    -0.094 OA 
ENDBRANCH  28  29
ENDBRANCH  27  28
ENDBRANCH  25  27
ENDBRANCH   4  25
BRANCH   4  32
HETATM   32  O   UNL     1     -11.195   7.608  70.447  1.00  0.00    -0.266 OA 
BRANCH  32  33
HETATM   33  C   UNL     1     -11.874   8.216  71.465  1.00  0.00    -0.294 C  
HETATM   34  O   UNL     1     -12.555   7.634  72.294  1.00  0.00    -0.229 OA 
BRANCH  33  35
HETATM   35  C   UNL     1     -11.687   9.709  71.445  1.00  0.00    -0.478 C  
BRANCH  35  36
HETATM   36  C   UNL     1     -13.022  10.394  71.203  1.00  0.00    -0.506 C  
HETATM   37  C   UNL     1     -12.962  11.889  71.491  1.00  0.00    -0.427 C  
ENDBRANCH  35  36
ENDBRANCH  33  35
ENDBRANCH  32  33
ENDBRANCH   4  32
TORSDOF 8
ENDMDL
MODEL       38
REMARK 921   NORMALIZED FREE ENERGY PREDICTED BY IDOCK:   -5.33 KCAL/MOL
REMARK 922        TOTAL FREE ENERGY PREDICTED BY IDOCK:   -7.56 KCAL/MOL
REMARK 923 INTER-LIGAND FREE ENERGY PREDICTED BY IDOCK:   -7.57 KCAL/MOL
REMARK 924 INTRA-LIGAND FREE ENERGY PREDICTED BY IDOCK:    0.02 KCAL/MOL
REMARK 927      BINDING AFFINITY PREDICTED BY RF-SCORE:    0.00 PKD
ROOT
HETATM    1  C   UNL     1      -9.171  10.645  67.388  1.00  0.00    -0.153 C  
HETATM    2  C   UNL     1     -10.350  10.175  68.023  1.00  0.00    -0.227 C  
HETATM    3  C   UNL     1     -10.276  10.168  66.544  1.00  0.00    -0.288 C  
HETATM    4  C   UNL     1      -8.413  10.524  65.698  1.00  0.00    -0.176 C  
HETATM    5  C   UNL     1      -9.310   9.515  65.767  1.00  0.00    -0.293 C  
HETATM    6  C   UNL     1     -10.885  17.099  67.333  1.00  0.00    -0.164 C  
HETATM    7  C   UNL     1     -11.486  15.960  68.117  1.00  0.00    -0.281 C  
HETATM    8  C   UNL     1     -10.838  14.846  67.715  1.00  0.00    -0.286 C  
HETATM    9  F   UNL     1      -9.312  15.158  69.504  1.00  0.00    -0.209 F  
HETATM   10  C   UNL     1     -10.279  10.403  64.398  1.00  0.00    -0.245 C  
HETATM   11  C   UNL     1      -9.455  14.587  68.275  1.00  0.00    -0.207 C  
HETATM   12  C   UNL     1      -9.026   8.000  65.973  1.00  0.00    -0.205 C  
HETATM   13  C   UNL     1      -9.258  13.098  68.433  1.00  0.00    -0.141 C  
HETATM   14  O   UNL     1     -10.772  18.216  67.815  1.00  0.00    -0.412 OA 
HETATM   15  C   UNL     1     -10.449  12.127  64.655  1.00  0.00    -0.299 C  
HETATM   16  C   UNL     1     -10.497  16.793  65.905  1.00  0.00    -0.311 C  
HETATM   17  O   UNL     1      -9.474  12.804  63.859  1.00  0.00    -0.506 OA 
HETATM   18  C   UNL     1     -10.561  12.827  66.172  1.00  0.00    -0.266 C  
HETATM   19  C   UNL     1     -12.578  14.319  65.911  1.00  0.00    -0.376 C  
HETATM   20  C   UNL     1     -11.039  14.364  66.253  1.00  0.00    -0.331 C  
HETATM   21  H   UNL     1      -9.566  13.739  63.999  1.00  0.00     0.000 HD 
HETATM   22  C   UNL     1      -9.316  12.388  67.077  1.00  0.00    -0.204 C  
HETATM   23  F   UNL     1     -11.665  12.278  66.834  1.00  0.00    -0.378 F  
HETATM   24  C   UNL     1     -10.523  15.530  65.405  1.00  0.00    -0.429 C  
ENDROOT
BRANCH   4  25
HETATM   25  C   UNL     1      -7.714   9.913  64.274  1.00  0.00    -0.139 C  
HETATM   26  O   UNL     1      -7.892  10.357  63.127  1.00  0.00    -0.151 OA 
BRANCH  25  27
HETATM   27  C   UNL     1      -6.867   8.644  64.320  1.00  0.00    -0.074 C  
BRANCH  27  28
HETATM   28  O   UNL     1      -6.474   8.227  63.000  1.00  0.00    -0.084 OA 
BRANCH  28  29
HETATM   29  C   UNL     1      -6.485   6.881  62.815  1.00  0.00    -0.047 C  
HETATM   30  C   UNL     1      -7.880   6.364  62.613  1.00  0.00    -0.099 C  
HETATM   31  O   UNL     1      -5.485   6.189  62.824  1.00  0.00    -0.020 OA 
ENDBRANCH  28  29
ENDBRANCH  27  28
ENDBRANCH  25  27
ENDBRANCH   4  25
BRANCH   4  32
HETATM   32  O   UNL     1      -7.179   9.984  66.485  1.00  0.00    -0.095 OA 
BRANCH  32  33
HETATM   33  C   UNL     1      -6.180  10.837  66.866  1.00  0.00    -0.076 C  
HETATM   34  O   UNL     1      -5.963  11.926  66.358  1.00  0.00    -0.171 OA 
BRANCH  33  35
HETATM   35  C   UNL     1      -5.366  10.270  67.997  1.00  0.00    -0.034 C  
BRANCH  35  36
HETATM   36  C   UNL     1      -6.288   9.684  69.053  1.00  0.00    -0.041 C  
HETATM   37  C   UNL     1      -6.651  10.702  70.127  1.00  0.00    -0.151 C  
ENDBRANCH  35  36
ENDBRANCH  33  35
ENDBRANCH  32  33
ENDBRANCH   4  32
TORSDOF 8
ENDMDL
MODEL       39
REMARK 921   NORMALIZED FREE ENERGY PREDICTED BY IDOCK:   -5.32 KCAL/MOL
REMARK 922        TOTAL FREE ENERGY PREDICTED BY IDOCK:   -7.55 KCAL/MOL
REMARK 923 INTER-LIGAND FREE ENERGY PREDICTED BY IDOCK:   -8.28 KCAL/MOL
REMARK 924 INTRA-LIGAND FREE ENERGY PREDICTED BY IDOCK:    0.73 KCAL/MOL
REMARK 927      BINDING AFFINITY PREDICTED BY RF-SCORE:    0.00 PKD
ROOT
HETATM    1  C   UNL     1     -11.347  14.131  66.217  1.00  0.00    -0.340 C  
HETATM    2  C   UNL     1     -12.624  13.566  65.964  1.00  0.00    -0.408 C  
HETATM    3  C   UNL     1     -12.025  13.420  67.311  1.00  0.00    -0.393 C  
HETATM    4  C   UNL     1     -10.341  14.567  67.715  1.00  0.00    -0.237 C  
HETATM    5  C   UNL     1     -11.617  14.465  68.151  1.00  0.00    -0.360 C  
HETATM    6  C   UNL     1      -7.784   8.934  64.007  1.00  0.00    -0.128 C  
HETATM    7  C   UNL     1      -9.244   9.244  63.802  1.00  0.00     0.171 C  
HETATM    8  C   UNL     1      -9.494  10.362  64.515  1.00  0.00    -0.342 C  
HETATM    9  F   UNL     1      -9.039  11.637  62.567  1.00  0.00    -0.366 F  
HETATM   10  C   UNL     1     -11.048  12.978  69.184  1.00  0.00    -0.245 C  
HETATM   11  C   UNL     1      -9.063  11.690  63.929  1.00  0.00     0.244 C  
HETATM   12  C   UNL     1     -12.596  15.618  68.507  1.00  0.00     0.872 C  
HETATM   13  C   UNL     1     -10.059  12.753  64.331  1.00  0.00    -0.275 C  
HETATM   14  O   UNL     1      -7.108   8.428  63.123  1.00  0.00    -0.089 OA 
HETATM   15  C   UNL     1     -10.028  11.856  68.310  1.00  0.00    -0.202 C  
HETATM   16  C   UNL     1      -7.228   9.223  65.382  1.00  0.00    -0.090 C  
HETATM   17  O   UNL     1      -8.666  12.115  68.656  1.00  0.00    -0.326 OA 
HETATM   18  C   UNL     1     -10.173  11.564  66.667  1.00  0.00    -0.219 C  
HETATM   19  C   UNL     1     -10.223   9.044  66.586  1.00  0.00    -0.333 C  
HETATM   20  C   UNL     1      -9.401  10.285  66.063  1.00  0.00    -0.224 C  
HETATM   21  H   UNL     1      -8.112  11.506  68.181  1.00  0.00     0.000 HD 
HETATM   22  C   UNL     1     -10.083  12.939  65.851  1.00  0.00    -0.295 C  
HETATM   23  F   UNL     1     -11.471  11.108  66.410  1.00  0.00    -0.282 F  
HETATM   24  C   UNL     1      -7.948   9.882  66.327  1.00  0.00    -0.108 C  
ENDROOT
BRANCH   4  25
HETATM   25  C   UNL     1      -9.817  15.284  69.164  1.00  0.00    -0.239 C  
HETATM   26  O   UNL     1      -8.678  15.190  69.652  1.00  0.00    -0.189 OA 
BRANCH  25  27
HETATM   27  C   UNL     1     -10.808  16.035  70.049  1.00  0.00    -0.353 C  
BRANCH  27  28
HETATM   28  O   UNL     1     -10.877  15.458  71.366  1.00  0.00    -0.264 OA 
BRANCH  28  29
HETATM   29  C   UNL     1     -12.085  15.594  71.971  1.00  0.00    -0.443 C  
HETATM   30  C   UNL     1     -12.963  14.401  71.724  1.00  0.00    -0.419 C  
HETATM   31  O   UNL     1     -12.410  16.569  72.621  1.00  0.00    -0.392 OA 
ENDBRANCH  28  29
ENDBRANCH  27  28
ENDBRANCH  25  27
ENDBRANCH   4  25
BRANCH   4  32
HETATM   32  O   UNL     1     -10.284  15.976  67.046  1.00  0.00    -0.270 OA 
BRANCH  32  33
HETATM   33  C   UNL     1      -9.101  16.458  66.559  1.00  0.00    -0.276 C  
HETATM   34  O   UNL     1      -8.151  15.766  66.227  1.00  0.00    -0.197 OA 
BRANCH  33  35
HETATM   35  C   UNL     1      -9.103  17.960  66.478  1.00  0.00    -0.276 C  
BRANCH  35  36
HETATM   36  C   UNL     1     -10.352  18.511  67.148  1.00  0.00    -0.433 C  
HETATM   37  C   UNL     1     -10.211  19.987  67.500  1.00  0.00    -0.551 C  
ENDBRANCH  35  36
ENDBRANCH  33  35
ENDBRANCH  32  33
ENDBRANCH   4  32
TORSDOF 8
ENDMDL
MODEL       40
REMARK 921   NORMALIZED FREE ENERGY PREDICTED BY IDOCK:   -5.30 KCAL/MOL
REMARK 922        TOTAL FREE ENERGY PREDICTED BY IDOCK:   -7.52 KCAL/MOL
REMARK 923 INTER-LIGAND FREE ENERGY PREDICTED BY IDOCK:   -7.86 KCAL/MOL
REMARK 924 INTRA-LIGAND FREE ENERGY PREDICTED BY IDOCK:    0.34 KCAL/MOL
REMARK 927      BINDING AFFINITY PREDICTED BY RF-SCORE:    0.00 PKD
ROOT
HETATM    1  C   UNL     1      -9.135   8.017  67.331  1.00  0.00    -0.147 C  
HETATM    2  C   UNL     1     -10.032   7.102  66.723  1.00  0.00    -0.278 C  
HETATM    3  C   UNL     1     -10.531   8.434  67.138  1.00  0.00    -0.380 C  
HETATM    4  C   UNL     1      -9.103   9.840  67.682  1.00  0.00    -0.131 C  
HETATM    5  C   UNL     1     -10.032   9.672  66.714  1.00  0.00    -0.289 C  
HETATM    6  C   UNL     1      -9.862   5.737  73.565  1.00  0.00    -0.166 C  
HETATM    7  C   UNL     1     -10.263   5.094  72.262  1.00  0.00    -0.255 C  
HETATM    8  C   UNL     1      -9.974   5.991  71.296  1.00  0.00    -0.223 C  
HETATM    9  F   UNL     1      -7.853   4.956  71.053  1.00  0.00    -0.074 F  
HETATM   10  C   UNL     1     -11.322  10.258  67.976  1.00  0.00    -0.219 C  
HETATM   11  C   UNL     1      -8.529   6.124  70.860  1.00  0.00    -0.128 C  
HETATM   12  C   UNL     1      -9.895   9.989  65.198  1.00  0.00    -0.388 C  
HETATM   13  C   UNL     1      -8.487   6.442  69.384  1.00  0.00    -0.126 C  
HETATM   14  O   UNL     1      -9.425   5.076  74.495  1.00  0.00    -0.121 OA 
HETATM   15  C   UNL     1     -11.150   9.527  69.557  1.00  0.00    -0.142 C  
HETATM   16  C   UNL     1     -10.093   7.227  73.672  1.00  0.00    -0.387 C  
HETATM   17  O   UNL     1     -10.472  10.449  70.414  1.00  0.00    -0.432 OA 
HETATM   18  C   UNL     1     -10.579   7.971  69.797  1.00  0.00    -0.238 C  
HETATM   19  C   UNL     1     -12.323   7.007  71.342  1.00  0.00    -0.419 C  
HETATM   20  C   UNL     1     -10.780   7.318  71.256  1.00  0.00    -0.243 C  
HETATM   21  H   UNL     1     -10.378  10.052  71.272  1.00  0.00     0.000 HD 
HETATM   22  C   UNL     1      -9.153   7.790  69.092  1.00  0.00    -0.145 C  
HETATM   23  F   UNL     1     -11.409   7.082  69.105  1.00  0.00    -0.194 F  
HETATM   24  C   UNL     1     -10.477   7.975  72.605  1.00  0.00    -0.408 C  
ENDROOT
BRANCH   4  25
HETATM   25  C   UNL     1      -9.089  11.529  67.490  1.00  0.00    -0.166 C  
HETATM   26  O   UNL     1      -8.905  12.363  68.393  1.00  0.00    -0.182 OA 
BRANCH  25  27
HETATM   27  C   UNL     1      -9.432  12.148  66.138  1.00  0.00    -0.224 C  
BRANCH  27  28
HETATM   28  O   UNL     1     -10.023  13.451  66.292  1.00  0.00    -0.283 OA 
BRANCH  28  29
HETATM   29  C   UNL     1     -11.380  13.456  66.239  1.00  0.00    -0.306 C  
HETATM   30  C   UNL     1     -11.970  14.372  67.273  1.00  0.00    -0.409 C  
HETATM   31  O   UNL     1     -12.029  12.791  65.455  1.00  0.00    -0.399 OA 
ENDBRANCH  28  29
ENDBRANCH  27  28
ENDBRANCH  25  27
ENDBRANCH   4  25
BRANCH   4  32
HETATM   32  O   UNL     1      -7.745   9.783  66.915  1.00  0.00    -0.098 OA 
BRANCH  32  33
HETATM   33  C   UNL     1      -6.566   9.767  67.606  1.00  0.00    -0.068 C  
HETATM   34  O   UNL     1      -6.455   9.993  68.801  1.00  0.00    -0.045 OA 
BRANCH  33  35
HETATM   35  C   UNL     1      -5.402   9.436  66.712  1.00  0.00    -0.042 C  
BRANCH  35  36
HETATM   36  C   UNL     1      -5.876   9.309  65.273  1.00  0.00    -0.061 C  
HETATM   37  C   UNL     1      -5.539   7.948  64.676  1.00  0.00    -0.044 C  
ENDBRANCH  35  36
ENDBRANCH  33  35
ENDBRANCH  32  33
ENDBRANCH   4  32
TORSDOF 8
ENDMDL
MODEL       41
REMARK 921   NORMALIZED FREE ENERGY PREDICTED BY IDOCK:   -5.22 KCAL/MOL
REMARK 922        TOTAL FREE ENERGY PREDICTED BY IDOCK:   -7.41 KCAL/MOL
REMARK 923 INTER-LIGAND FREE ENERGY PREDICTED BY IDOCK:   -7.34 KCAL/MOL
REMARK 924 INTRA-LIGAND FREE ENERGY PREDICTED BY IDOCK:   -0.07 KCAL/MOL
REMARK 927      BINDING AFFINITY PREDICTED BY RF-SCORE:    0.00 PKD
ROOT
HETATM    1  C   UNL     1     -10.519   6.988  70.360  1.00  0.00    -0.225 C  
HETATM    2  C   UNL     1     -11.508   6.470  69.484  1.00  0.00    -0.384 C  
HETATM    3  C   UNL     1     -10.086   6.423  69.073  1.00  0.00    -0.193 C  
HETATM    4  C   UNL     1      -8.675   6.859  70.534  1.00  0.00    -0.150 C  
HETATM    5  C   UNL     1      -9.043   5.803  69.774  1.00  0.00    -0.151 C  
HETATM    6  C   UNL     1     -10.963  13.328  68.314  1.00  0.00    -0.256 C  
HETATM    7  C   UNL     1     -11.910  12.181  68.074  1.00  0.00    -0.351 C  
HETATM    8  C   UNL     1     -11.331  11.095  68.625  1.00  0.00    -0.342 C  
HETATM    9  F   UNL     1     -12.521  11.547  70.627  1.00  0.00    -0.387 F  
HETATM   10  C   UNL     1      -8.057   6.594  68.359  1.00  0.00    -0.115 C  
HETATM   11  C   UNL     1     -11.412  10.932  70.129  1.00  0.00    -0.319 C  
HETATM   12  C   UNL     1      -9.161   4.314  70.206  1.00  0.00    -0.166 C  
HETATM   13  C   UNL     1     -11.511   9.462  70.461  1.00  0.00    -0.317 C  
HETATM   14  O   UNL     1     -11.371  14.465  68.506  1.00  0.00    -0.255 OA 
HETATM   15  C   UNL     1      -8.338   8.311  68.172  1.00  0.00    -0.129 C  
HETATM   16  C   UNL     1      -9.489  13.003  68.235  1.00  0.00    -0.208 C  
HETATM   17  O   UNL     1      -7.261   9.019  68.790  1.00  0.00    -0.072 OA 
HETATM   18  C   UNL     1      -9.802   9.050  68.514  1.00  0.00    -0.169 C  
HETATM   19  C   UNL     1     -10.198  10.415  66.432  1.00  0.00    -0.292 C  
HETATM   20  C   UNL     1     -10.019  10.558  67.992  1.00  0.00    -0.177 C  
HETATM   21  H   UNL     1      -7.414   9.951  68.689  1.00  0.00     0.000 HD 
HETATM   22  C   UNL     1     -10.255   8.709  70.011  1.00  0.00    -0.201 C  
HETATM   23  F   UNL     1     -10.793   8.458  67.722  1.00  0.00    -0.276 F  
HETATM   24  C   UNL     1      -9.038  11.726  68.129  1.00  0.00    -0.185 C  
ENDROOT
BRANCH   4  25
HETATM   25  C   UNL     1      -7.108   6.247  70.770  1.00  0.00    -0.069 C  
HETATM   26  O   UNL     1      -6.751   5.070  70.593  1.00  0.00    -0.037 OA 
BRANCH  25  27
HETATM   27  C   UNL     1      -6.017   7.140  71.356  1.00  0.00    -0.037 C  
BRANCH  27  28
HETATM   28  O   UNL     1      -5.316   6.481  72.426  1.00  0.00    -0.034 OA 
BRANCH  28  29
HETATM   29  C   UNL     1      -5.746   6.824  73.668  1.00  0.00    -0.054 C  
HETATM   30  C   UNL     1      -6.303   5.640  74.405  1.00  0.00    -0.070 C  
HETATM   31  O   UNL     1      -5.692   7.953  74.114  1.00  0.00    -0.067 OA 
ENDBRANCH  28  29
ENDBRANCH  27  28
ENDBRANCH  25  27
ENDBRANCH   4  25
BRANCH   4  32
HETATM   32  O   UNL     1      -9.023   6.415  71.989  1.00  0.00    -0.138 OA 
BRANCH  32  33
HETATM   33  C   UNL     1      -9.315   7.350  72.942  1.00  0.00    -0.164 C  
HETATM   34  O   UNL     1      -8.843   8.476  72.981  1.00  0.00    -0.321 OA 
BRANCH  33  35
HETATM   35  C   UNL     1     -10.298   6.826  73.953  1.00  0.00    -0.397 C  
BRANCH  35  36
HETATM   36  C   UNL     1     -10.333   5.307  73.900  1.00  0.00    -0.288 C  
HETATM   37  C   UNL     1     -11.528   4.788  73.109  1.00  0.00    -0.348 C  
ENDBRANCH  35  36
ENDBRANCH  33  35
ENDBRANCH  32  33
ENDBRANCH   4  32
TORSDOF 8
ENDMDL
MODEL       42
REMARK 921   NORMALIZED FREE ENERGY PREDICTED BY IDOCK:   -5.21 KCAL/MOL
REMARK 922        TOTAL FREE ENERGY PREDICTED BY IDOCK:   -7.39 KCAL/MOL
REMARK 923 INTER-LIGAND FREE ENERGY PREDICTED BY IDOCK:   -7.70 KCAL/MOL
REMARK 924 INTRA-LIGAND FREE ENERGY PREDICTED BY IDOCK:    0.31 KCAL/MOL
REMARK 927      BINDING AFFINITY PREDICTED BY RF-SCORE:    0.00 PKD
ROOT
HETATM    1  C   UNL     1     -10.796  10.090  67.626  1.00  0.00    -0.336 C  
HETATM    2  C   UNL     1     -10.794  10.105  66.208  1.00  0.00     0.050 C  
HETATM    3  C   UNL     1      -9.526   9.845  66.928  1.00  0.00    -0.202 C  
HETATM    4  C   UNL     1      -9.666   9.481  68.968  1.00  0.00    -0.170 C  
HETATM    5  C   UNL     1      -9.296   8.816  67.851  1.00  0.00    -0.155 C  
HETATM    6  C   UNL     1      -9.975  16.667  68.437  1.00  0.00    -0.255 C  
HETATM    7  C   UNL     1     -10.373  15.902  67.202  1.00  0.00    -0.300 C  
HETATM    8  C   UNL     1     -10.320  14.596  67.536  1.00  0.00    -0.234 C  
HETATM    9  F   UNL     1     -12.620  14.707  68.104  1.00  0.00    -0.126 F  
HETATM   10  C   UNL     1      -7.637   9.730  67.966  1.00  0.00    -0.082 C  
HETATM   11  C   UNL     1     -11.467  14.021  68.341  1.00  0.00    -0.306 C  
HETATM   12  C   UNL     1      -9.603   7.339  67.477  1.00  0.00    -0.171 C  
HETATM   13  C   UNL     1     -11.690  12.586  67.925  1.00  0.00    -0.416 C  
HETATM   14  O   UNL     1     -10.460  17.759  68.697  1.00  0.00    -0.354 OA 
HETATM   15  C   UNL     1      -7.793  11.442  68.298  1.00  0.00    -0.132 C  
HETATM   16  C   UNL     1      -8.899  16.038  69.293  1.00  0.00    -0.227 C  
HETATM   17  O   UNL     1      -7.559  11.658  69.692  1.00  0.00    -0.330 OA 
HETATM   18  C   UNL     1      -9.080  12.372  67.766  1.00  0.00    -0.193 C  
HETATM   19  C   UNL     1      -7.904  14.345  66.726  1.00  0.00     0.376 C  
HETATM   20  C   UNL     1      -8.934  13.974  67.860  1.00  0.00    -0.188 C  
HETATM   21  H   UNL     1      -7.644  12.587  69.872  1.00  0.00     0.000 HD 
HETATM   22  C   UNL     1     -10.464  11.723  68.241  1.00  0.00    -0.224 C  
HETATM   23  F   UNL     1      -9.136  12.295  66.370  1.00  0.00    -0.206 F  
HETATM   24  C   UNL     1      -8.439  14.781  69.064  1.00  0.00    -0.140 C  
ENDROOT
BRANCH   4  25
HETATM   25  C   UNL     1      -8.741   8.472  69.975  1.00  0.00    -0.136 C  
HETATM   26  O   UNL     1      -7.950   8.850  70.856  1.00  0.00    -0.118 OA 
BRANCH  25  27
HETATM   27  C   UNL     1      -8.750   6.961  69.761  1.00  0.00    -0.141 C  
BRANCH  27  28
HETATM   28  O   UNL     1      -9.072   6.260  70.976  1.00  0.00    -0.152 OA 
BRANCH  28  29
HETATM   29  C   UNL     1      -9.920   5.213  70.808  1.00  0.00    -0.215 C  
HETATM   30  C   UNL     1      -9.534   4.046  71.671  1.00  0.00    -0.216 C  
HETATM   31  O   UNL     1     -10.864   5.224  70.042  1.00  0.00    -0.245 OA 
ENDBRANCH  28  29
ENDBRANCH  27  28
ENDBRANCH  25  27
ENDBRANCH   4  25
BRANCH   4  32
HETATM   32  O   UNL     1     -10.942   8.723  69.452  1.00  0.00    -0.163 OA 
BRANCH  32  33
HETATM   33  C   UNL     1     -11.451   8.961  70.698  1.00  0.00    -0.242 C  
HETATM   34  O   UNL     1     -11.713   8.096  71.520  1.00  0.00    -0.268 OA 
BRANCH  33  35
HETATM   35  C   UNL     1     -11.656  10.431  70.944  1.00  0.00    -0.428 C  
BRANCH  35  36
HETATM   36  C   UNL     1     -12.958  10.651  71.697  1.00  0.00    -0.582 C  
HETATM   37  C   UNL     1     -13.285  12.130  71.858  1.00  0.00    -0.474 C  
ENDBRANCH  35  36
ENDBRANCH  33  35
ENDBRANCH  32  33
ENDBRANCH   4  32
TORSDOF 8
ENDMDL
MODEL       43
REMARK 921   NORMALIZED FREE ENERGY PREDICTED BY IDOCK:   -5.20 KCAL/MOL
REMARK 922        TOTAL FREE ENERGY PREDICTED BY IDOCK:   -7.37 KCAL/MOL
REMARK 923 INTER-LIGAND FREE ENERGY PREDICTED BY IDOCK:   -7.20 KCAL/MOL
REMARK 924 INTRA-LIGAND FREE ENERGY PREDICTED BY IDOCK:   -0.17 KCAL/MOL
REMARK 927      BINDING AFFINITY PREDICTED BY RF-SCORE:    0.00 PKD
ROOT
HETATM    1  C   UNL     1      -8.343  11.225  67.641  1.00  0.00    -0.123 C  
HETATM    2  C   UNL     1      -7.670  11.965  68.648  1.00  0.00    -0.113 C  
HETATM    3  C   UNL     1      -7.164  10.623  68.280  1.00  0.00    -0.083 C  
HETATM    4  C   UNL     1      -7.964   9.756  66.571  1.00  0.00    -0.112 C  
HETATM    5  C   UNL     1      -6.766  10.211  67.001  1.00  0.00    -0.078 C  
HETATM    6  C   UNL     1     -12.900   8.468  71.669  1.00  0.00    -0.338 C  
HETATM    7  C   UNL     1     -11.982   9.634  71.926  1.00  0.00    -0.330 C  
HETATM    8  C   UNL     1     -11.200   9.746  70.832  1.00  0.00    -0.429 C  
HETATM    9  F   UNL     1     -12.767  11.288  69.941  1.00  0.00    -0.274 F  
HETATM   10  C   UNL     1      -6.583   8.572  67.940  1.00  0.00    -0.061 C  
HETATM   11  C   UNL     1     -11.791  10.400  69.601  1.00  0.00    -0.180 C  
HETATM   12  C   UNL     1      -5.715  11.031  66.201  1.00  0.00    -0.143 C  
HETATM   13  C   UNL     1     -10.705  11.163  68.879  1.00  0.00    -0.246 C  
HETATM   14  O   UNL     1     -14.045   8.449  72.097  1.00  0.00    -0.396 OA 
HETATM   15  C   UNL     1      -8.023   8.091  68.812  1.00  0.00    -0.119 C  
HETATM   16  C   UNL     1     -12.302   7.304  70.913  1.00  0.00    -0.287 C  
HETATM   17  O   UNL     1      -8.720   7.113  68.036  1.00  0.00    -0.127 OA 
HETATM   18  C   UNL     1      -9.099   9.180  69.490  1.00  0.00    -0.155 C  
HETATM   19  C   UNL     1      -9.357   8.273  71.829  1.00  0.00    -0.266 C  
HETATM   20  C   UNL     1     -10.188   8.607  70.530  1.00  0.00    -0.229 C  
HETATM   21  H   UNL     1      -9.501   6.852  68.509  1.00  0.00     0.000 HD 
HETATM   22  C   UNL     1      -9.605  10.219  68.382  1.00  0.00    -0.155 C  
HETATM   23  F   UNL     1      -8.404   9.980  70.405  1.00  0.00    -0.204 F  
HETATM   24  C   UNL     1     -11.069   7.369  70.346  1.00  0.00    -0.284 C  
ENDROOT
BRANCH   4  25
HETATM   25  C   UNL     1      -7.252   8.730  65.417  1.00  0.00    -0.084 C  
HETATM   26  O   UNL     1      -6.172   8.929  64.835  1.00  0.00    -0.064 OA 
BRANCH  25  27
HETATM   27  C   UNL     1      -8.000   7.495  64.926  1.00  0.00    -0.132 C  
BRANCH  27  28
HETATM   28  O   UNL     1      -7.323   6.284  65.307  1.00  0.00    -0.071 OA 
BRANCH  28  29
HETATM   29  C   UNL     1      -8.098   5.170  65.248  1.00  0.00    -0.120 C  
HETATM   30  C   UNL     1      -7.449   4.089  64.431  1.00  0.00    -0.071 C  
HETATM   31  O   UNL     1      -9.185   5.072  65.784  1.00  0.00    -0.149 OA 
ENDBRANCH  28  29
ENDBRANCH  27  28
ENDBRANCH  25  27
ENDBRANCH   4  25
BRANCH   4  32
HETATM   32  O   UNL     1      -8.341  10.729  65.410  1.00  0.00    -0.161 OA 
BRANCH  32  33
HETATM   33  C   UNL     1      -9.562  10.636  64.804  1.00  0.00    -0.280 C  
HETATM   34  O   UNL     1     -10.515  10.015  65.248  1.00  0.00    -0.139 OA 
BRANCH  33  35
HETATM   35  C   UNL     1      -9.598  11.395  63.505  1.00  0.00    -0.315 C  
BRANCH  35  36
HETATM   36  C   UNL     1     -10.675  12.465  63.564  1.00  0.00    -0.473 C  
HETATM   37  C   UNL     1     -10.365  13.536  64.603  1.00  0.00    -0.406 C  
ENDBRANCH  35  36
ENDBRANCH  33  35
ENDBRANCH  32  33
ENDBRANCH   4  32
TORSDOF 8
ENDMDL
MODEL       44
REMARK 921   NORMALIZED FREE ENERGY PREDICTED BY IDOCK:   -5.20 KCAL/MOL
REMARK 922        TOTAL FREE ENERGY PREDICTED BY IDOCK:   -7.37 KCAL/MOL
REMARK 923 INTER-LIGAND FREE ENERGY PREDICTED BY IDOCK:   -7.45 KCAL/MOL
REMARK 924 INTRA-LIGAND FREE ENERGY PREDICTED BY IDOCK:    0.08 KCAL/MOL
REMARK 927      BINDING AFFINITY PREDICTED BY RF-SCORE:    0.00 PKD
ROOT
HETATM    1  C   UNL     1     -11.574  14.050  66.446  1.00  0.00    -0.381 C  
HETATM    2  C   UNL     1     -12.749  13.255  66.433  1.00  0.00     0.153 C  
HETATM    3  C   UNL     1     -11.910  13.283  67.654  1.00  0.00    -0.400 C  
HETATM    4  C   UNL     1     -10.421  14.728  67.733  1.00  0.00    -0.254 C  
HETATM    5  C   UNL     1     -11.561  14.422  68.391  1.00  0.00    -0.351 C  
HETATM    6  C   UNL     1      -7.553   9.470  63.716  1.00  0.00    -0.121 C  
HETATM    7  C   UNL     1      -9.058   9.506  63.770  1.00  0.00    -0.153 C  
HETATM    8  C   UNL     1      -9.382  10.594  64.499  1.00  0.00    -0.284 C  
HETATM    9  F   UNL     1      -9.512  11.835  62.482  1.00  0.00    -0.333 F  
HETATM   10  C   UNL     1     -10.561  13.110  69.329  1.00  0.00     0.099 C  
HETATM   11  C   UNL     1      -9.310  11.948  63.825  1.00  0.00     0.122 C  
HETATM   12  C   UNL     1     -12.660  15.398  68.899  1.00  0.00     0.373 C  
HETATM   13  C   UNL     1     -10.399  12.834  64.381  1.00  0.00    -0.388 C  
HETATM   14  O   UNL     1      -6.959   9.051  62.734  1.00  0.00    -0.094 OA 
HETATM   15  C   UNL     1      -9.518  12.148  68.304  1.00  0.00    -0.204 C  
HETATM   16  C   UNL     1      -6.831   9.918  64.966  1.00  0.00    -0.126 C  
HETATM   17  O   UNL     1      -8.188  12.661  68.398  1.00  0.00    -0.158 OA 
HETATM   18  C   UNL     1      -9.889  11.757  66.719  1.00  0.00    -0.198 C  
HETATM   19  C   UNL     1      -9.488   9.267  66.687  1.00  0.00    -0.246 C  
HETATM   20  C   UNL     1      -9.011  10.608  66.007  1.00  0.00    -0.189 C  
HETATM   21  H   UNL     1      -7.622  12.138  67.841  1.00  0.00     0.000 HD 
HETATM   22  C   UNL     1     -10.194  13.085  65.879  1.00  0.00    -0.298 C  
HETATM   23  F   UNL     1     -11.106  11.065  66.705  1.00  0.00    -0.317 F  
HETATM   24  C   UNL     1      -7.485  10.483  66.014  1.00  0.00    -0.137 C  
ENDROOT
BRANCH   4  25
HETATM   25  C   UNL     1      -9.795  15.596  69.054  1.00  0.00    -0.236 C  
HETATM   26  O   UNL     1     -10.448  16.321  69.824  1.00  0.00    -0.281 OA 
BRANCH  25  27
HETATM   27  C   UNL     1      -8.291  15.619  69.311  1.00  0.00    -0.256 C  
BRANCH  27  28
HETATM   28  O   UNL     1      -7.750  16.943  69.146  1.00  0.00    -0.227 OA 
BRANCH  28  29
HETATM   29  C   UNL     1      -6.417  16.972  68.889  1.00  0.00    -0.189 C  
HETATM   30  C   UNL     1      -5.616  17.162  70.145  1.00  0.00    -0.236 C  
HETATM   31  O   UNL     1      -5.941  16.867  67.775  1.00  0.00    -0.120 OA 
ENDBRANCH  28  29
ENDBRANCH  27  28
ENDBRANCH  25  27
ENDBRANCH   4  25
BRANCH   4  32
HETATM   32  O   UNL     1     -10.739  16.092  67.044  1.00  0.00    -0.319 OA 
BRANCH  32  33
HETATM   33  C   UNL     1      -9.748  16.792  66.415  1.00  0.00    -0.290 C  
HETATM   34  O   UNL     1      -8.908  16.300  65.677  1.00  0.00    -0.374 OA 
BRANCH  33  35
HETATM   35  C   UNL     1      -9.810  18.259  66.743  1.00  0.00    -0.344 C  
BRANCH  35  36
HETATM   36  C   UNL     1      -8.496  18.926  66.370  1.00  0.00    -0.302 C  
HETATM   37  C   UNL     1      -8.290  20.242  67.110  1.00  0.00    -0.394 C  
ENDBRANCH  35  36
ENDBRANCH  33  35
ENDBRANCH  32  33
ENDBRANCH   4  32
TORSDOF 8
ENDMDL
MODEL       45
REMARK 921   NORMALIZED FREE ENERGY PREDICTED BY IDOCK:   -5.13 KCAL/MOL
REMARK 922        TOTAL FREE ENERGY PREDICTED BY IDOCK:   -7.26 KCAL/MOL
REMARK 923 INTER-LIGAND FREE ENERGY PREDICTED BY IDOCK:   -7.18 KCAL/MOL
REMARK 924 INTRA-LIGAND FREE ENERGY PREDICTED BY IDOCK:   -0.09 KCAL/MOL
REMARK 927      BINDING AFFINITY PREDICTED BY RF-SCORE:    0.00 PKD
ROOT
HETATM    1  C   UNL     1     -10.311   7.284  69.542  1.00  0.00    -0.230 C  
HETATM    2  C   UNL     1     -11.280   6.647  68.724  1.00  0.00    -0.256 C  
HETATM    3  C   UNL     1      -9.847   6.540  68.362  1.00  0.00    -0.137 C  
HETATM    4  C   UNL     1      -8.473   7.181  69.780  1.00  0.00    -0.137 C  
HETATM    5  C   UNL     1      -8.826   6.027  69.172  1.00  0.00    -0.119 C  
HETATM    6  C   UNL     1     -10.674  13.264  66.592  1.00  0.00    -0.280 C  
HETATM    7  C   UNL     1     -11.620  12.096  66.496  1.00  0.00    -0.425 C  
HETATM    8  C   UNL     1     -11.059  11.099  67.213  1.00  0.00    -0.366 C  
HETATM    9  F   UNL     1     -12.299  11.836  69.097  1.00  0.00    -0.310 F  
HETATM   10  C   UNL     1      -7.800   6.604  67.683  1.00  0.00    -0.111 C  
HETATM   11  C   UNL     1     -11.179  11.155  68.722  1.00  0.00    -0.253 C  
HETATM   12  C   UNL     1      -8.961   4.616  69.810  1.00  0.00    -0.140 C  
HETATM   13  C   UNL     1     -11.294   9.748  69.260  1.00  0.00    -0.059 C  
HETATM   14  O   UNL     1     -11.081  14.417  66.608  1.00  0.00    -0.311 OA 
HETATM   15  C   UNL     1      -8.068   8.277  67.243  1.00  0.00    -0.109 C  
HETATM   16  C   UNL     1      -9.200  12.930  66.600  1.00  0.00    -0.222 C  
HETATM   17  O   UNL     1      -7.005   9.066  67.781  1.00  0.00    -0.076 OA 
HETATM   18  C   UNL     1      -9.537   9.058  67.437  1.00  0.00    -0.152 C  
HETATM   19  C   UNL     1      -9.874  10.110  65.171  1.00  0.00    -0.394 C  
HETATM   20  C   UNL     1      -9.734  10.476  66.698  1.00  0.00    -0.232 C  
HETATM   21  H   UNL     1      -7.151   9.974  67.543  1.00  0.00     0.000 HD 
HETATM   22  C   UNL     1     -10.030   8.938  68.956  1.00  0.00    -0.195 C  
HETATM   23  F   UNL     1     -10.510   8.360  66.714  1.00  0.00    -0.352 F  
HETATM   24  C   UNL     1      -8.751  11.650  66.691  1.00  0.00    -0.187 C  
ENDROOT
BRANCH   4  25
HETATM   25  C   UNL     1      -6.914   6.608  70.143  1.00  0.00    -0.063 C  
HETATM   26  O   UNL     1      -5.846   7.102  69.743  1.00  0.00    -0.023 OA 
BRANCH  25  27
HETATM   27  C   UNL     1      -6.739   5.316  70.936  1.00  0.00    -0.043 C  
BRANCH  27  28
HETATM   28  O   UNL     1      -6.092   5.557  72.198  1.00  0.00    -0.032 OA 
BRANCH  28  29
HETATM   29  C   UNL     1      -6.626   4.867  73.239  1.00  0.00    -0.065 C  
HETATM   30  C   UNL     1      -6.725   5.718  74.473  1.00  0.00    -0.076 C  
HETATM   31  O   UNL     1      -6.970   3.702  73.173  1.00  0.00    -0.041 OA 
ENDBRANCH  28  29
ENDBRANCH  27  28
ENDBRANCH  25  27
ENDBRANCH   4  25
BRANCH   4  32
HETATM   32  O   UNL     1      -8.859   6.951  71.275  1.00  0.00    -0.134 OA 
BRANCH  32  33
HETATM   33  C   UNL     1      -8.753   7.973  72.177  1.00  0.00    -0.157 C  
HETATM   34  O   UNL     1      -8.039   8.954  72.037  1.00  0.00    -0.355 OA 
BRANCH  33  35
HETATM   35  C   UNL     1      -9.627   7.745  73.380  1.00  0.00    -0.352 C  
BRANCH  35  36
HETATM   36  C   UNL     1     -10.978   7.205  72.942  1.00  0.00    -0.359 C  
HETATM   37  C   UNL     1     -11.935   8.318  72.532  1.00  0.00    -0.420 C  
ENDBRANCH  35  36
ENDBRANCH  33  35
ENDBRANCH  32  33
ENDBRANCH   4  32
TORSDOF 8
ENDMDL
MODEL       46
REMARK 921   NORMALIZED FREE ENERGY PREDICTED BY IDOCK:   -5.00 KCAL/MOL
REMARK 922        TOTAL FREE ENERGY PREDICTED BY IDOCK:   -7.08 KCAL/MOL
REMARK 923 INTER-LIGAND FREE ENERGY PREDICTED BY IDOCK:   -7.48 KCAL/MOL
REMARK 924 INTRA-LIGAND FREE ENERGY PREDICTED BY IDOCK:    0.40 KCAL/MOL
REMARK 927      BINDING AFFINITY PREDICTED BY RF-SCORE:    0.00 PKD
ROOT
HETATM    1  C   UNL     1      -8.304  10.318  69.524  1.00  0.00    -0.162 C  
HETATM    2  C   UNL     1      -6.969  10.346  70.006  1.00  0.00    -0.159 C  
HETATM    3  C   UNL     1      -7.249   9.724  68.691  1.00  0.00    -0.073 C  
HETATM    4  C   UNL     1      -9.140  10.036  67.891  1.00  0.00    -0.131 C  
HETATM    5  C   UNL     1      -7.858  10.348  67.594  1.00  0.00    -0.105 C  
HETATM    6  C   UNL     1     -10.097   4.687  72.633  1.00  0.00    -0.172 C  
HETATM    7  C   UNL     1      -8.897   5.567  72.872  1.00  0.00    -0.117 C  
HETATM    8  C   UNL     1      -8.948   6.534  71.932  1.00  0.00    -0.137 C  
HETATM    9  F   UNL     1     -10.139   7.888  73.473  1.00  0.00    -0.373 F  
HETATM   10  C   UNL     1      -7.683   8.587  66.908  1.00  0.00    -0.091 C  
HETATM   11  C   UNL     1      -9.912   7.682  72.145  1.00  0.00    -0.183 C  
HETATM   12  C   UNL     1      -7.308  11.696  67.049  1.00  0.00    -0.143 C  
HETATM   13  C   UNL     1      -9.308   8.945  71.579  1.00  0.00    -0.335 C  
HETATM   14  O   UNL     1     -10.684   4.142  73.557  1.00  0.00    -0.181 OA 
HETATM   15  C   UNL     1      -8.367   7.352  67.944  1.00  0.00    -0.119 C  
HETATM   16  C   UNL     1     -10.486   4.469  71.189  1.00  0.00     0.014 C  
HETATM   17  O   UNL     1      -9.656   6.997  67.439  1.00  0.00    -0.128 OA 
HETATM   18  C   UNL     1      -8.398   7.462  69.615  1.00  0.00    -0.132 C  
HETATM   19  C   UNL     1      -7.470   5.222  70.304  1.00  0.00    -0.071 C  
HETATM   20  C   UNL     1      -8.752   6.129  70.446  1.00  0.00    -0.142 C  
HETATM   21  H   UNL     1     -10.027   6.327  68.002  1.00  0.00     0.000 HD 
HETATM   22  C   UNL     1      -9.103   8.827  70.065  1.00  0.00    -0.164 C  
HETATM   23  F   UNL     1      -7.083   7.598  70.075  1.00  0.00    -0.054 F  
HETATM   24  C   UNL     1      -9.904   5.157  70.173  1.00  0.00    -0.300 C  
ENDROOT
BRANCH   4  25
HETATM   25  C   UNL     1      -9.640  10.202  66.275  1.00  0.00    -0.193 C  
HETATM   26  O   UNL     1      -9.786   9.276  65.459  1.00  0.00    -0.265 OA 
BRANCH  25  27
HETATM   27  C   UNL     1      -9.840  11.591  65.674  1.00  0.00    -0.236 C  
BRANCH  27  28
HETATM   28  O   UNL     1     -11.138  11.717  65.064  1.00  0.00    -0.308 OA 
BRANCH  28  29
HETATM   29  C   UNL     1     -11.111  12.198  63.794  1.00  0.00    -0.436 C  
HETATM   30  C   UNL     1      -9.891  11.733  63.052  1.00  0.00    -0.264 C  
HETATM   31  O   UNL     1     -11.968  12.924  63.328  1.00  0.00    -0.555 OA 
ENDBRANCH  28  29
ENDBRANCH  27  28
ENDBRANCH  25  27
ENDBRANCH   4  25
BRANCH   4  32
HETATM   32  O   UNL     1      -9.803  11.416  68.194  1.00  0.00    -0.178 OA 
BRANCH  32  33
HETATM   33  C   UNL     1     -11.083  11.474  68.669  1.00  0.00    -0.238 C  
HETATM   34  O   UNL     1     -11.854  10.528  68.709  1.00  0.00    -0.277 OA 
BRANCH  33  35
HETATM   35  C   UNL     1     -11.439  12.857  69.142  1.00  0.00    -0.360 C  
BRANCH  35  36
HETATM   36  C   UNL     1     -10.897  13.891  68.168  1.00  0.00    -0.262 C  
HETATM   37  C   UNL     1     -11.938  14.306  67.135  1.00  0.00    -0.449 C  
ENDBRANCH  35  36
ENDBRANCH  33  35
ENDBRANCH  32  33
ENDBRANCH   4  32
TORSDOF 8
ENDMDL
MODEL       47
REMARK 921   NORMALIZED FREE ENERGY PREDICTED BY IDOCK:   -4.96 KCAL/MOL
REMARK 922        TOTAL FREE ENERGY PREDICTED BY IDOCK:   -7.01 KCAL/MOL
REMARK 923 INTER-LIGAND FREE ENERGY PREDICTED BY IDOCK:   -7.43 KCAL/MOL
REMARK 924 INTRA-LIGAND FREE ENERGY PREDICTED BY IDOCK:    0.41 KCAL/MOL
REMARK 927      BINDING AFFINITY PREDICTED BY RF-SCORE:    0.00 PKD
ROOT
HETATM    1  C   UNL     1      -9.678  13.381  66.112  1.00  0.00    -0.260 C  
HETATM    2  C   UNL     1     -10.555  12.856  65.128  1.00  0.00    -0.321 C  
HETATM    3  C   UNL     1     -11.107  13.713  66.203  1.00  0.00    -0.299 C  
HETATM    4  C   UNL     1      -9.736  14.731  67.385  1.00  0.00    -0.214 C  
HETATM    5  C   UNL     1     -10.713  15.025  66.499  1.00  0.00    -0.312 C  
HETATM    6  C   UNL     1      -9.856   8.078  70.166  1.00  0.00    -0.184 C  
HETATM    7  C   UNL     1     -10.301   8.196  68.731  1.00  0.00    -0.220 C  
HETATM    8  C   UNL     1     -10.130   9.490  68.390  1.00  0.00    -0.199 C  
HETATM    9  F   UNL     1      -7.970   8.933  67.584  1.00  0.00    -0.098 F  
HETATM   10  C   UNL     1     -11.952  14.734  67.906  1.00  0.00    -0.260 C  
HETATM   11  C   UNL     1      -8.728   9.960  68.062  1.00  0.00    -0.125 C  
HETATM   12  C   UNL     1     -10.695  16.111  65.387  1.00  0.00    -0.374 C  
HETATM   13  C   UNL     1      -8.802  11.017  66.986  1.00  0.00    -0.143 C  
HETATM   14  O   UNL     1      -9.320   7.063  70.587  1.00  0.00    -0.161 OA 
HETATM   15  C   UNL     1     -11.633  13.291  68.845  1.00  0.00    -0.314 C  
HETATM   16  C   UNL     1     -10.171   9.254  71.060  1.00  0.00    -0.384 C  
HETATM   17  O   UNL     1     -10.959  13.670  70.047  1.00  0.00    -0.442 OA 
HETATM   18  C   UNL     1     -10.953  11.903  68.200  1.00  0.00    -0.227 C  
HETATM   19  C   UNL     1     -12.530  10.117  69.025  1.00  0.00     1.114 C  
HETATM   20  C   UNL     1     -11.017  10.558  69.086  1.00  0.00    -0.286 C  
HETATM   21  H   UNL     1     -10.785  12.887  70.556  1.00  0.00     0.000 HD 
HETATM   22  C   UNL     1      -9.567  12.250  67.477  1.00  0.00    -0.184 C  
HETATM   23  F   UNL     1     -11.770  11.452  67.157  1.00  0.00    -0.348 F  
HETATM   24  C   UNL     1     -10.668  10.420  70.570  1.00  0.00    -0.096 C  
ENDROOT
BRANCH   4  25
HETATM   25  C   UNL     1      -9.838  16.256  68.128  1.00  0.00    -0.229 C  
HETATM   26  O   UNL     1      -9.859  16.470  69.352  1.00  0.00    -0.234 OA 
BRANCH  25  27
HETATM   27  C   UNL     1     -10.032  17.510  67.279  1.00  0.00    -0.312 C  
BRANCH  27  28
HETATM   28  O   UNL     1      -8.910  18.403  67.395  1.00  0.00    -0.254 OA 
BRANCH  28  29
HETATM   29  C   UNL     1      -8.788  19.281  66.367  1.00  0.00    -0.348 C  
HETATM   30  C   UNL     1      -7.410  19.247  65.771  1.00  0.00    -0.260 C  
HETATM   31  O   UNL     1      -9.686  20.010  65.990  1.00  0.00    -0.424 OA 
ENDBRANCH  28  29
ENDBRANCH  27  28
ENDBRANCH  25  27
ENDBRANCH   4  25
BRANCH   4  32
HETATM   32  O   UNL     1      -8.430  15.210  66.678  1.00  0.00    -0.257 OA 
BRANCH  32  33
HETATM   33  C   UNL     1      -7.269  15.336  67.389  1.00  0.00    -0.204 C  
HETATM   34  O   UNL     1      -6.428  16.200  67.202  1.00  0.00    -0.178 OA 
BRANCH  33  35
HETATM   35  C   UNL     1      -7.145  14.269  68.443  1.00  0.00    -0.105 C  
BRANCH  35  36
HETATM   36  C   UNL     1      -6.777  14.902  69.775  1.00  0.00    -0.179 C  
HETATM   37  C   UNL     1      -5.378  14.508  70.231  1.00  0.00    -0.105 C  
ENDBRANCH  35  36
ENDBRANCH  33  35
ENDBRANCH  32  33
ENDBRANCH   4  32
TORSDOF 8
ENDMDL
MODEL       48
REMARK 921   NORMALIZED FREE ENERGY PREDICTED BY IDOCK:   -4.94 KCAL/MOL
REMARK 922        TOTAL FREE ENERGY PREDICTED BY IDOCK:   -6.99 KCAL/MOL
REMARK 923 INTER-LIGAND FREE ENERGY PREDICTED BY IDOCK:   -7.51 KCAL/MOL
REMARK 924 INTRA-LIGAND FREE ENERGY PREDICTED BY IDOCK:    0.52 KCAL/MOL
REMARK 927      BINDING AFFINITY PREDICTED BY RF-SCORE:    0.00 PKD
ROOT
HETATM    1  C   UNL     1      -9.742  12.602  65.948  1.00  0.00    -0.212 C  
HETATM    2  C   UNL     1     -10.423  12.037  64.838  1.00  0.00    -0.325 C  
HETATM    3  C   UNL     1     -11.152  12.221  66.114  1.00  0.00    -0.349 C  
HETATM    4  C   UNL     1     -10.218  13.371  67.569  1.00  0.00    -0.226 C  
HETATM    5  C   UNL     1     -11.328  13.430  66.799  1.00  0.00    -0.353 C  
HETATM    6  C   UNL     1      -7.122   6.888  68.200  1.00  0.00    -0.085 C  
HETATM    7  C   UNL     1      -7.748   7.187  66.862  1.00  0.00    -0.106 C  
HETATM    8  C   UNL     1      -8.194   8.459  66.933  1.00  0.00    -0.103 C  
HETATM    9  F   UNL     1      -6.121   9.175  66.027  1.00  0.00    -0.052 F  
HETATM   10  C   UNL     1     -12.138  12.238  68.034  1.00  0.00    -0.063 C  
HETATM   11  C   UNL     1      -7.182   9.576  66.782  1.00  0.00    -0.086 C  
HETATM   12  C   UNL     1     -11.916  14.670  66.070  1.00  0.00    -0.248 C  
HETATM   13  C   UNL     1      -7.835  10.741  66.077  1.00  0.00    -0.149 C  
HETATM   14  O   UNL     1      -6.154   6.148  68.302  1.00  0.00    -0.019 OA 
HETATM   15  C   UNL     1     -11.116  10.894  68.496  1.00  0.00    -0.256 C  
HETATM   16  C   UNL     1      -7.800   7.500  69.404  1.00  0.00    -0.121 C  
HETATM   17  O   UNL     1     -10.528  11.184  69.766  1.00  0.00    -0.450 OA 
HETATM   18  C   UNL     1      -9.990  10.196  67.471  1.00  0.00    -0.191 C  
HETATM   19  C   UNL     1     -10.532   7.743  67.693  1.00  0.00    -0.308 C  
HETATM   20  C   UNL     1      -9.361   8.778  67.906  1.00  0.00    -0.155 C  
HETATM   21  H   UNL     1      -9.973  10.454  70.016  1.00  0.00     0.000 HD 
HETATM   22  C   UNL     1      -8.989  11.311  66.908  1.00  0.00    -0.163 C  
HETATM   23  F   UNL     1     -10.655   9.736  66.329  1.00  0.00    -0.280 F  
HETATM   24  C   UNL     1      -8.806   8.405  69.283  1.00  0.00    -0.142 C  
ENDROOT
BRANCH   4  25
HETATM   25  C   UNL     1     -10.874  14.417  68.738  1.00  0.00    -0.251 C  
HETATM   26  O   UNL     1     -11.117  14.125  69.921  1.00  0.00    -0.162 OA 
BRANCH  25  27
HETATM   27  C   UNL     1     -11.330  15.818  68.342  1.00  0.00    -0.372 C  
BRANCH  27  28
HETATM   28  O   UNL     1     -10.756  16.820  69.202  1.00  0.00    -0.329 OA 
BRANCH  28  29
HETATM   29  C   UNL     1      -9.842  17.619  68.594  1.00  0.00    -0.347 C  
HETATM   30  C   UNL     1     -10.498  18.612  67.678  1.00  0.00    -0.468 C  
HETATM   31  O   UNL     1      -8.642  17.527  68.767  1.00  0.00    -0.272 OA 
ENDBRANCH  28  29
ENDBRANCH  27  28
ENDBRANCH  25  27
ENDBRANCH   4  25
BRANCH   4  32
HETATM   32  O   UNL     1      -9.343  14.559  67.059  1.00  0.00    -0.218 OA 
BRANCH  32  33
HETATM   33  C   UNL     1      -8.039  14.669  67.452  1.00  0.00    -0.196 C  
HETATM   34  O   UNL     1      -7.175  15.274  66.836  1.00  0.00    -0.161 OA 
BRANCH  33  35
HETATM   35  C   UNL     1      -7.785  13.949  68.748  1.00  0.00    -0.096 C  
BRANCH  35  36
HETATM   36  C   UNL     1      -6.402  13.320  68.727  1.00  0.00    -0.094 C  
HETATM   37  C   UNL     1      -5.471  13.947  69.758  1.00  0.00    -0.098 C  
ENDBRANCH  35  36
ENDBRANCH  33  35
ENDBRANCH  32  33
ENDBRANCH   4  32
TORSDOF 8
ENDMDL
MODEL       49
REMARK 921   NORMALIZED FREE ENERGY PREDICTED BY IDOCK:   -4.89 KCAL/MOL
REMARK 922        TOTAL FREE ENERGY PREDICTED BY IDOCK:   -6.91 KCAL/MOL
REMARK 923 INTER-LIGAND FREE ENERGY PREDICTED BY IDOCK:   -6.74 KCAL/MOL
REMARK 924 INTRA-LIGAND FREE ENERGY PREDICTED BY IDOCK:   -0.17 KCAL/MOL
REMARK 927      BINDING AFFINITY PREDICTED BY RF-SCORE:    0.00 PKD
ROOT
HETATM    1  C   UNL     1      -9.985   8.054  68.260  1.00  0.00    -0.210 C  
HETATM    2  C   UNL     1     -10.909   7.576  67.295  1.00  0.00    -0.297 C  
HETATM    3  C   UNL     1      -9.494   7.771  66.903  1.00  0.00    -0.238 C  
HETATM    4  C   UNL     1      -8.138   8.123  68.437  1.00  0.00    -0.128 C  
HETATM    5  C   UNL     1      -8.379   7.173  67.505  1.00  0.00    -0.116 C  
HETATM    6  C   UNL     1     -11.211  14.548  67.301  1.00  0.00    -0.332 C  
HETATM    7  C   UNL     1     -12.013  13.351  66.858  1.00  0.00    -0.437 C  
HETATM    8  C   UNL     1     -11.302  12.266  67.228  1.00  0.00    -0.392 C  
HETATM    9  F   UNL     1     -12.526  12.227  69.259  1.00  0.00    -0.192 F  
HETATM   10  C   UNL     1      -7.505   8.304  66.257  1.00  0.00    -0.079 C  
HETATM   11  C   UNL     1     -11.353  11.844  68.681  1.00  0.00    -0.276 C  
HETATM   12  C   UNL     1      -8.311   5.630  67.679  1.00  0.00    -0.100 C  
HETATM   13  C   UNL     1     -11.271  10.338  68.761  1.00  0.00    -0.260 C  
HETATM   14  O   UNL     1     -11.753  15.578  67.675  1.00  0.00    -0.229 OA 
HETATM   15  C   UNL     1      -7.995   9.982  66.357  1.00  0.00    -0.116 C  
HETATM   16  C   UNL     1      -9.709  14.421  67.190  1.00  0.00    -0.248 C  
HETATM   17  O   UNL     1      -7.008  10.700  67.101  1.00  0.00    -0.081 OA 
HETATM   18  C   UNL     1      -9.535  10.469  66.797  1.00  0.00    -0.163 C  
HETATM   19  C   UNL     1     -10.108  12.108  64.968  1.00  0.00    -0.289 C  
HETATM   20  C   UNL     1      -9.938  12.007  66.533  1.00  0.00    -0.224 C  
HETATM   21  H   UNL     1      -7.274  11.611  67.156  1.00  0.00     0.000 HD 
HETATM   22  C   UNL     1      -9.935   9.829  68.209  1.00  0.00    -0.175 C  
HETATM   23  F   UNL     1     -10.452   9.904  65.903  1.00  0.00    -0.303 F  
HETATM   24  C   UNL     1      -9.106  13.245  66.878  1.00  0.00    -0.235 C  
ENDROOT
BRANCH   4  25
HETATM   25  C   UNL     1      -6.506   7.674  68.590  1.00  0.00    -0.048 C  
HETATM   26  O   UNL     1      -5.527   8.359  68.247  1.00  0.00    -0.033 OA 
BRANCH  25  27
HETATM   27  C   UNL     1      -6.139   6.278  69.084  1.00  0.00    -0.029 C  
BRANCH  27  28
HETATM   28  O   UNL     1      -5.266   6.337  70.226  1.00  0.00    -0.013 OA 
BRANCH  28  29
HETATM   29  C   UNL     1      -5.725   5.666  71.314  1.00  0.00    -0.017 C  
HETATM   30  C   UNL     1      -6.665   4.561  70.925  1.00  0.00    -0.035 C  
HETATM   31  O   UNL     1      -5.416   5.940  72.458  1.00  0.00    -0.025 OA 
ENDBRANCH  28  29
ENDBRANCH  27  28
ENDBRANCH  25  27
ENDBRANCH   4  25
BRANCH   4  32
HETATM   32  O   UNL     1      -8.420   7.401  69.792  1.00  0.00    -0.133 OA 
BRANCH  32  33
HETATM   33  C   UNL     1      -8.378   8.101  70.964  1.00  0.00    -0.120 C  
HETATM   34  O   UNL     1      -7.944   9.236  71.084  1.00  0.00    -0.292 OA 
BRANCH  33  35
HETATM   35  C   UNL     1      -8.936   7.300  72.110  1.00  0.00    -0.148 C  
BRANCH  35  36
HETATM   36  C   UNL     1     -10.030   8.092  72.808  1.00  0.00    -0.364 C  
HETATM   37  C   UNL     1     -11.247   8.298  71.915  1.00  0.00    -0.365 C  
ENDBRANCH  35  36
ENDBRANCH  33  35
ENDBRANCH  32  33
ENDBRANCH   4  32
TORSDOF 8
ENDMDL
MODEL       50
REMARK 921   NORMALIZED FREE ENERGY PREDICTED BY IDOCK:   -4.88 KCAL/MOL
REMARK 922        TOTAL FREE ENERGY PREDICTED BY IDOCK:   -6.90 KCAL/MOL
REMARK 923 INTER-LIGAND FREE ENERGY PREDICTED BY IDOCK:   -6.75 KCAL/MOL
REMARK 924 INTRA-LIGAND FREE ENERGY PREDICTED BY IDOCK:   -0.15 KCAL/MOL
REMARK 927      BINDING AFFINITY PREDICTED BY RF-SCORE:    0.00 PKD
ROOT
HETATM    1  C   UNL     1     -10.254  10.472  68.653  1.00  0.00    -0.197 C  
HETATM    2  C   UNL     1     -11.634  10.323  68.944  1.00  0.00    -0.132 C  
HETATM    3  C   UNL     1     -11.150  10.026  67.576  1.00  0.00    -0.190 C  
HETATM    4  C   UNL     1      -9.093   9.916  67.315  1.00  0.00    -0.135 C  
HETATM    5  C   UNL     1     -10.162   9.093  67.233  1.00  0.00    -0.319 C  
HETATM    6  C   UNL     1     -10.502  16.989  67.216  1.00  0.00    -0.301 C  
HETATM    7  C   UNL     1     -11.521  16.128  67.916  1.00  0.00    -0.103 C  
HETATM    8  C   UNL     1     -11.034  14.870  67.887  1.00  0.00    -0.288 C  
HETATM    9  F   UNL     1     -10.043  15.267  70.006  1.00  0.00    -0.271 F  
HETATM   10  C   UNL     1     -10.500   9.851  65.526  1.00  0.00     0.099 C  
HETATM   11  C   UNL     1      -9.949  14.505  68.879  1.00  0.00    -0.206 C  
HETATM   12  C   UNL     1     -10.269   7.620  67.716  1.00  0.00    -0.259 C  
HETATM   13  C   UNL     1     -10.119  13.060  69.286  1.00  0.00     0.463 C  
HETATM   14  O   UNL     1     -10.299  18.145  67.558  1.00  0.00    -0.356 OA 
HETATM   15  C   UNL     1     -10.373  11.596  65.487  1.00  0.00    -0.264 C  
HETATM   16  C   UNL     1      -9.799  16.362  66.034  1.00  0.00    -0.362 C  
HETATM   17  O   UNL     1      -9.095  11.948  64.954  1.00  0.00    -0.410 OA 
HETATM   18  C   UNL     1     -10.760  12.579  66.787  1.00  0.00    -0.236 C  
HETATM   19  C   UNL     1     -12.265  14.295  65.716  1.00  0.00    -0.415 C  
HETATM   20  C   UNL     1     -10.910  14.159  66.512  1.00  0.00    -0.298 C  
HETATM   21  H   UNL     1      -9.026  12.896  64.933  1.00  0.00     0.000 HD 
HETATM   22  C   UNL     1      -9.939  12.126  68.085  1.00  0.00    -0.201 C  
HETATM   23  F   UNL     1     -12.094  12.346  67.138  1.00  0.00    -0.422 F  
HETATM   24  C   UNL     1      -9.946  15.048  65.722  1.00  0.00    -0.376 C  
ENDROOT
BRANCH   4  25
HETATM   25  C   UNL     1      -8.163   8.946  66.274  1.00  0.00    -0.111 C  
HETATM   26  O   UNL     1      -8.211   7.706  66.199  1.00  0.00    -0.111 OA 
BRANCH  25  27
HETATM   27  C   UNL     1      -7.078   9.575  65.406  1.00  0.00    -0.095 C  
BRANCH  27  28
HETATM   28  O   UNL     1      -6.867   8.821  64.199  1.00  0.00    -0.081 OA 
BRANCH  28  29
HETATM   29  C   UNL     1      -7.328   9.428  63.075  1.00  0.00    -0.106 C  
HETATM   30  C   UNL     1      -8.660   8.874  62.655  1.00  0.00    -0.182 C  
HETATM   31  O   UNL     1      -6.725  10.302  62.482  1.00  0.00    -0.123 OA 
ENDBRANCH  28  29
ENDBRANCH  27  28
ENDBRANCH  25  27
ENDBRANCH   4  25
BRANCH   4  32
HETATM   32  O   UNL     1      -8.270   9.346  68.512  1.00  0.00    -0.111 OA 
BRANCH  32  33
HETATM   33  C   UNL     1      -7.273  10.090  69.077  1.00  0.00    -0.076 C  
HETATM   34  O   UNL     1      -6.623  10.943  68.492  1.00  0.00    -0.054 OA 
BRANCH  33  35
HETATM   35  C   UNL     1      -7.061   9.731  70.523  1.00  0.00    -0.130 C  
BRANCH  35  36
HETATM   36  C   UNL     1      -7.762   8.420  70.837  1.00  0.00    -0.088 C  
HETATM   37  C   UNL     1      -8.930   8.608  71.797  1.00  0.00    -0.307 C  
ENDBRANCH  35  36
ENDBRANCH  33  35
ENDBRANCH  32  33
ENDBRANCH   4  32
TORSDOF 8
ENDMDL
MODEL       51
REMARK 921   NORMALIZED FREE ENERGY PREDICTED BY IDOCK:   -4.83 KCAL/MOL
REMARK 922        TOTAL FREE ENERGY PREDICTED BY IDOCK:   -6.83 KCAL/MOL
REMARK 923 INTER-LIGAND FREE ENERGY PREDICTED BY IDOCK:   -7.14 KCAL/MOL
REMARK 924 INTRA-LIGAND FREE ENERGY PREDICTED BY IDOCK:    0.31 KCAL/MOL
REMARK 927      BINDING AFFINITY PREDICTED BY RF-SCORE:    0.00 PKD
ROOT
HETATM    1  C   UNL     1     -10.340  10.816  68.945  1.00  0.00    -0.220 C  
HETATM    2  C   UNL     1     -11.734  10.731  69.192  1.00  0.00    -0.368 C  
HETATM    3  C   UNL     1     -11.213  10.345  67.861  1.00  0.00    -0.332 C  
HETATM    4  C   UNL     1      -9.153  10.149  67.683  1.00  0.00    -0.137 C  
HETATM    5  C   UNL     1     -10.249   9.361  67.604  1.00  0.00    -0.281 C  
HETATM    6  C   UNL     1     -10.294  17.251  67.162  1.00  0.00    -0.321 C  
HETATM    7  C   UNL     1     -11.369  16.465  67.867  1.00  0.00    -0.095 C  
HETATM    8  C   UNL     1     -10.928  15.191  67.922  1.00  0.00    -0.302 C  
HETATM    9  F   UNL     1      -9.999  15.666  70.053  1.00  0.00    -0.277 F  
HETATM   10  C   UNL     1     -10.497  10.037  65.848  1.00  0.00    -0.115 C  
HETATM   11  C   UNL     1      -9.894  14.842  68.972  1.00  0.00    -0.220 C  
HETATM   12  C   UNL     1     -10.428   7.920  68.158  1.00  0.00    -0.227 C  
HETATM   13  C   UNL     1     -10.131  13.428  69.447  1.00  0.00     0.543 C  
HETATM   14  O   UNL     1     -10.061  18.416  67.450  1.00  0.00    -0.321 OA 
HETATM   15  C   UNL     1     -10.305  11.773  65.723  1.00  0.00    -0.253 C  
HETATM   16  C   UNL     1      -9.574  16.538  66.041  1.00  0.00    -0.323 C  
HETATM   17  O   UNL     1      -8.996  12.050  65.220  1.00  0.00    -0.400 OA 
HETATM   18  C   UNL     1     -10.700  12.836  66.955  1.00  0.00    -0.253 C  
HETATM   19  C   UNL     1     -12.101  14.545  65.740  1.00  0.00    -0.285 C  
HETATM   20  C   UNL     1     -10.782  14.404  66.592  1.00  0.00    -0.292 C  
HETATM   21  H   UNL     1      -8.891  12.992  65.153  1.00  0.00     0.000 HD 
HETATM   22  C   UNL     1      -9.944  12.425  68.305  1.00  0.00    -0.224 C  
HETATM   23  F   UNL     1     -12.054  12.670  67.267  1.00  0.00    -0.422 F  
HETATM   24  C   UNL     1      -9.758  15.215  65.793  1.00  0.00    -0.379 C  
ENDROOT
BRANCH   4  25
HETATM   25  C   UNL     1      -8.224   9.092  66.730  1.00  0.00    -0.115 C  
HETATM   26  O   UNL     1      -7.735   9.354  65.617  1.00  0.00    -0.097 OA 
BRANCH  25  27
HETATM   27  C   UNL     1      -8.024   7.643  67.166  1.00  0.00    -0.117 C  
BRANCH  27  28
HETATM   28  O   UNL     1      -7.834   6.775  66.035  1.00  0.00    -0.096 OA 
BRANCH  28  29
HETATM   29  C   UNL     1      -8.202   5.486  66.253  1.00  0.00    -0.111 C  
HETATM   30  C   UNL     1      -7.174   4.748  67.063  1.00  0.00    -0.077 C  
HETATM   31  O   UNL     1      -9.232   4.996  65.832  1.00  0.00    -0.147 OA 
ENDBRANCH  28  29
ENDBRANCH  27  28
ENDBRANCH  25  27
ENDBRANCH   4  25
BRANCH   4  32
HETATM   32  O   UNL     1      -8.396   9.615  68.938  1.00  0.00    -0.108 OA 
BRANCH  32  33
HETATM   33  C   UNL     1      -7.378  10.343  69.488  1.00  0.00    -0.144 C  
HETATM   34  O   UNL     1      -7.120  10.390  70.681  1.00  0.00    -0.300 OA 
BRANCH  33  35
HETATM   35  C   UNL     1      -6.601  11.093  68.440  1.00  0.00    -0.058 C  
BRANCH  35  36
HETATM   36  C   UNL     1      -6.447  12.547  68.855  1.00  0.00    -0.091 C  
HETATM   37  C   UNL     1      -6.555  13.497  67.669  1.00  0.00    -0.177 C  
ENDBRANCH  35  36
ENDBRANCH  33  35
ENDBRANCH  32  33
ENDBRANCH   4  32
TORSDOF 8
ENDMDL
MODEL       52
REMARK 921   NORMALIZED FREE ENERGY PREDICTED BY IDOCK:   -4.82 KCAL/MOL
REMARK 922        TOTAL FREE ENERGY PREDICTED BY IDOCK:   -6.81 KCAL/MOL
REMARK 923 INTER-LIGAND FREE ENERGY PREDICTED BY IDOCK:   -6.40 KCAL/MOL
REMARK 924 INTRA-LIGAND FREE ENERGY PREDICTED BY IDOCK:   -0.41 KCAL/MOL
REMARK 927      BINDING AFFINITY PREDICTED BY RF-SCORE:    0.00 PKD
ROOT
HETATM    1  C   UNL     1      -9.431   8.850  69.658  1.00  0.00    -0.168 C  
HETATM    2  C   UNL     1     -10.050   9.540  68.584  1.00  0.00    -0.198 C  
HETATM    3  C   UNL     1     -10.838   8.549  69.352  1.00  0.00    -0.103 C  
HETATM    4  C   UNL     1      -9.995   7.848  71.116  1.00  0.00    -0.173 C  
HETATM    5  C   UNL     1     -11.071   8.570  70.733  1.00  0.00    -0.288 C  
HETATM    6  C   UNL     1      -6.772   3.963  65.965  1.00  0.00    -0.049 C  
HETATM    7  C   UNL     1      -7.347   5.285  65.525  1.00  0.00    -0.069 C  
HETATM    8  C   UNL     1      -7.826   5.875  66.640  1.00  0.00    -0.101 C  
HETATM    9  F   UNL     1      -5.735   6.967  66.891  1.00  0.00    -0.015 F  
HETATM   10  C   UNL     1     -11.904   6.923  70.290  1.00  0.00    -0.311 C  
HETATM   11  C   UNL     1      -6.836   6.543  67.572  1.00  0.00    -0.076 C  
HETATM   12  C   UNL     1     -11.658   9.839  71.413  1.00  0.00    -0.452 C  
HETATM   13  C   UNL     1      -7.487   7.754  68.196  1.00  0.00    -0.108 C  
HETATM   14  O   UNL     1      -5.792   3.479  65.418  1.00  0.00    -0.017 OA 
HETATM   15  C   UNL     1     -10.871   5.823  69.404  1.00  0.00    -0.323 C  
HETATM   16  C   UNL     1      -7.515   3.248  67.069  1.00  0.00    -0.074 C  
HETATM   17  O   UNL     1     -10.345   4.858  70.317  1.00  0.00    -0.254 OA 
HETATM   18  C   UNL     1      -9.686   6.329  68.334  1.00  0.00    -0.124 C  
HETATM   19  C   UNL     1     -10.176   4.916  66.304  1.00  0.00    -0.312 C  
HETATM   20  C   UNL     1      -9.041   5.224  67.354  1.00  0.00    -0.112 C  
HETATM   21  H   UNL     1      -9.783   4.261  69.836  1.00  0.00     0.000 HD 
HETATM   22  C   UNL     1      -8.689   7.352  69.057  1.00  0.00    -0.133 C  
HETATM   23  F   UNL     1     -10.290   7.101  67.335  1.00  0.00    -0.211 F  
HETATM   24  C   UNL     1      -8.537   3.833  67.747  1.00  0.00    -0.112 C  
ENDROOT
BRANCH   4  25
HETATM   25  C   UNL     1     -10.725   7.381  72.578  1.00  0.00    -0.272 C  
HETATM   26  O   UNL     1     -11.553   8.047  73.224  1.00  0.00    -0.224 OA 
BRANCH  25  27
HETATM   27  C   UNL     1     -10.292   6.093  73.273  1.00  0.00    -0.227 C  
BRANCH  27  28
HETATM   28  O   UNL     1     -11.312   5.082  73.187  1.00  0.00    -0.314 OA 
BRANCH  28  29
HETATM   29  C   UNL     1     -10.928   3.863  73.647  1.00  0.00    -0.250 C  
HETATM   30  C   UNL     1      -9.537   3.899  74.212  1.00  0.00    -0.131 C  
HETATM   31  O   UNL     1     -11.627   2.869  73.593  1.00  0.00    -0.197 OA 
ENDBRANCH  28  29
ENDBRANCH  27  28
ENDBRANCH  25  27
ENDBRANCH   4  25
BRANCH   4  32
HETATM   32  O   UNL     1      -9.128   8.865  71.923  1.00  0.00    -0.331 OA 
BRANCH  32  33
HETATM   33  C   UNL     1      -8.110   8.420  72.719  1.00  0.00    -0.105 C  
HETATM   34  O   UNL     1      -8.053   8.574  73.929  1.00  0.00    -0.375 OA 
BRANCH  33  35
HETATM   35  C   UNL     1      -7.050   7.710  71.921  1.00  0.00    -0.064 C  
BRANCH  35  36
HETATM   36  C   UNL     1      -6.768   6.348  72.535  1.00  0.00    -0.065 C  
HETATM   37  C   UNL     1      -7.068   5.209  71.567  1.00  0.00    -0.062 C  
ENDBRANCH  35  36
ENDBRANCH  33  35
ENDBRANCH  32  33
ENDBRANCH   4  32
TORSDOF 8
ENDMDL
MODEL       53
REMARK 921   NORMALIZED FREE ENERGY PREDICTED BY IDOCK:   -4.75 KCAL/MOL
REMARK 922        TOTAL FREE ENERGY PREDICTED BY IDOCK:   -6.71 KCAL/MOL
REMARK 923 INTER-LIGAND FREE ENERGY PREDICTED BY IDOCK:   -6.47 KCAL/MOL
REMARK 924 INTRA-LIGAND FREE ENERGY PREDICTED BY IDOCK:   -0.24 KCAL/MOL
REMARK 927      BINDING AFFINITY PREDICTED BY RF-SCORE:    0.00 PKD
ROOT
HETATM    1  C   UNL     1      -8.327   7.619  71.698  1.00  0.00    -0.118 C  
HETATM    2  C   UNL     1      -8.597   8.446  72.819  1.00  0.00    -0.240 C  
HETATM    3  C   UNL     1      -9.661   7.549  72.312  1.00  0.00    -0.203 C  
HETATM    4  C   UNL     1      -9.095   6.120  70.916  1.00  0.00    -0.150 C  
HETATM    5  C   UNL     1      -9.575   6.157  72.179  1.00  0.00    -0.162 C  
HETATM    6  C   UNL     1      -9.851  12.158  67.044  1.00  0.00    -0.203 C  
HETATM    7  C   UNL     1      -9.592  12.352  68.516  1.00  0.00    -0.121 C  
HETATM    8  C   UNL     1      -9.408  11.118  69.030  1.00  0.00    -0.065 C  
HETATM    9  F   UNL     1      -7.077  11.381  68.674  1.00  0.00    -0.070 F  
HETATM   10  C   UNL     1     -11.291   6.450  71.421  1.00  0.00    -0.354 C  
HETATM   11  C   UNL     1      -8.065  10.453  68.816  1.00  0.00    -0.125 C  
HETATM   12  C   UNL     1      -9.150   5.275  73.386  1.00  0.00    -0.128 C  
HETATM   13  C   UNL     1      -7.734   9.610  70.025  1.00  0.00    -0.162 C  
HETATM   14  O   UNL     1      -9.476  12.975  66.216  1.00  0.00    -0.253 OA 
HETATM   15  C   UNL     1     -11.305   7.642  70.139  1.00  0.00    -0.132 C  
HETATM   16  C   UNL     1     -10.654  10.935  66.665  1.00  0.00    -0.305 C  
HETATM   17  O   UNL     1     -11.301   6.960  68.883  1.00  0.00    -0.510 OA 
HETATM   18  C   UNL     1     -10.276   8.962  70.095  1.00  0.00    -0.196 C  
HETATM   19  C   UNL     1     -11.877  10.859  69.656  1.00  0.00    -0.416 C  
HETATM   20  C   UNL     1     -10.613  10.139  69.048  1.00  0.00    -0.245 C  
HETATM   21  H   UNL     1     -11.309   7.607  68.187  1.00  0.00     0.000 HD 
HETATM   22  C   UNL     1      -8.753   8.480  70.204  1.00  0.00    -0.137 C  
HETATM   23  F   UNL     1     -10.471   9.717  71.258  1.00  0.00    -0.372 F  
HETATM   24  C   UNL     1     -10.977   9.975  67.570  1.00  0.00    -0.276 C  
ENDROOT
BRANCH   4  25
HETATM   25  C   UNL     1      -9.673   4.543  70.655  1.00  0.00    -0.212 C  
HETATM   26  O   UNL     1      -9.988   3.728  71.538  1.00  0.00    -0.179 OA 
BRANCH  25  27
HETATM   27  C   UNL     1      -9.734   3.975  69.240  1.00  0.00    -0.120 C  
BRANCH  27  28
HETATM   28  O   UNL     1      -9.620   5.013  68.250  1.00  0.00    -0.127 OA 
BRANCH  28  29
HETATM   29  C   UNL     1      -9.733   4.577  66.969  1.00  0.00    -0.202 C  
HETATM   30  C   UNL     1      -8.592   3.676  66.590  1.00  0.00    -0.111 C  
HETATM   31  O   UNL     1     -10.642   4.892  66.225  1.00  0.00    -0.306 OA 
ENDBRANCH  28  29
ENDBRANCH  27  28
ENDBRANCH  25  27
ENDBRANCH   4  25
BRANCH   4  32
HETATM   32  O   UNL     1      -7.662   5.523  71.076  1.00  0.00    -0.097 OA 
BRANCH  32  33
HETATM   33  C   UNL     1      -6.873   5.326  69.977  1.00  0.00    -0.052 C  
HETATM   34  O   UNL     1      -6.807   6.083  69.022  1.00  0.00    -0.058 OA 
BRANCH  33  35
HETATM   35  C   UNL     1      -6.085   4.048  70.080  1.00  0.00    -0.019 C  
BRANCH  35  36
HETATM   36  C   UNL     1      -6.225   3.467  71.477  1.00  0.00    -0.015 C  
HETATM   37  C   UNL     1      -6.910   2.105  71.466  1.00  0.00    -0.027 C  
ENDBRANCH  35  36
ENDBRANCH  33  35
ENDBRANCH  32  33
ENDBRANCH   4  32
TORSDOF 8
ENDMDL
MODEL       54
REMARK 921   NORMALIZED FREE ENERGY PREDICTED BY IDOCK:   -4.72 KCAL/MOL
REMARK 922        TOTAL FREE ENERGY PREDICTED BY IDOCK:   -6.67 KCAL/MOL
REMARK 923 INTER-LIGAND FREE ENERGY PREDICTED BY IDOCK:   -6.98 KCAL/MOL
REMARK 924 INTRA-LIGAND FREE ENERGY PREDICTED BY IDOCK:    0.31 KCAL/MOL
REMARK 927      BINDING AFFINITY PREDICTED BY RF-SCORE:    0.00 PKD
ROOT
HETATM    1  C   UNL     1      -7.535   6.798  69.311  1.00  0.00    -0.095 C  
HETATM    2  C   UNL     1      -6.165   7.169  69.336  1.00  0.00    -0.035 C  
HETATM    3  C   UNL     1      -7.149   7.993  70.076  1.00  0.00    -0.049 C  
HETATM    4  C   UNL     1      -9.056   7.200  70.295  1.00  0.00    -0.156 C  
HETATM    5  C   UNL     1      -8.013   7.542  71.083  1.00  0.00    -0.095 C  
HETATM    6  C   UNL     1      -9.059   9.970  63.636  1.00  0.00    -0.268 C  
HETATM    7  C   UNL     1      -7.705   9.628  64.202  1.00  0.00    -0.129 C  
HETATM    8  C   UNL     1      -7.934   9.061  65.405  1.00  0.00    -0.111 C  
HETATM    9  F   UNL     1      -7.931   6.940  64.342  1.00  0.00    -0.108 F  
HETATM   10  C   UNL     1      -8.603   9.340  70.930  1.00  0.00    -0.220 C  
HETATM   11  C   UNL     1      -8.384   7.615  65.436  1.00  0.00    -0.128 C  
HETATM   12  C   UNL     1      -7.455   6.771  72.313  1.00  0.00    -0.092 C  
HETATM   13  C   UNL     1      -7.810   6.946  66.661  1.00  0.00    -0.107 C  
HETATM   14  O   UNL     1      -9.281   9.920  62.436  1.00  0.00    -0.278 OA 
HETATM   15  C   UNL     1      -9.028   9.809  69.298  1.00  0.00    -0.173 C  
HETATM   16  C   UNL     1     -10.096  10.442  64.629  1.00  0.00    -0.378 C  
HETATM   17  O   UNL     1     -10.449   9.746  69.161  1.00  0.00    -0.197 OA 
HETATM   18  C   UNL     1      -8.276   9.192  67.935  1.00  0.00    -0.112 C  
HETATM   19  C   UNL     1      -7.719  11.288  66.650  1.00  0.00    -0.148 C  
HETATM   20  C   UNL     1      -8.534   9.943  66.533  1.00  0.00    -0.127 C  
HETATM   21  H   UNL     1     -10.679  10.001  68.275  1.00  0.00     0.000 HD 
HETATM   22  C   UNL     1      -8.344   7.592  67.944  1.00  0.00    -0.123 C  
HETATM   23  F   UNL     1      -6.907   9.468  68.020  1.00  0.00    -0.069 F  
HETATM   24  C   UNL     1      -9.884  10.396  65.971  1.00  0.00    -0.289 C  
ENDROOT
BRANCH   4  25
HETATM   25  C   UNL     1     -10.172   7.347  71.569  1.00  0.00    -0.192 C  
HETATM   26  O   UNL     1      -9.980   7.005  72.748  1.00  0.00    -0.167 OA 
BRANCH  25  27
HETATM   27  C   UNL     1     -11.592   7.833  71.291  1.00  0.00    -0.277 C  
BRANCH  27  28
HETATM   28  O   UNL     1     -12.187   8.417  72.464  1.00  0.00    -0.386 OA 
BRANCH  28  29
HETATM   29  C   UNL     1     -13.302   9.152  72.216  1.00  0.00    -0.477 C  
HETATM   30  C   UNL     1     -13.075  10.145  71.113  1.00  0.00    -0.480 C  
HETATM   31  O   UNL     1     -14.347   9.022  72.825  1.00  0.00    -0.596 OA 
ENDBRANCH  28  29
ENDBRANCH  27  28
ENDBRANCH  25  27
ENDBRANCH   4  25
BRANCH   4  32
HETATM   32  O   UNL     1      -9.151   5.650  70.448  1.00  0.00    -0.140 OA 
BRANCH  32  33
HETATM   33  C   UNL     1      -9.969   4.927  69.626  1.00  0.00    -0.231 C  
HETATM   34  O   UNL     1     -10.819   5.407  68.892  1.00  0.00    -0.152 OA 
BRANCH  33  35
HETATM   35  C   UNL     1      -9.699   3.450  69.731  1.00  0.00    -0.074 C  
BRANCH  35  36
HETATM   36  C   UNL     1      -8.899   3.161  70.990  1.00  0.00    -0.143 C  
HETATM   37  C   UNL     1      -9.335   1.864  71.661  1.00  0.00    -0.174 C  
ENDBRANCH  35  36
ENDBRANCH  33  35
ENDBRANCH  32  33
ENDBRANCH   4  32
TORSDOF 8
ENDMDL
MODEL       55
REMARK 921   NORMALIZED FREE ENERGY PREDICTED BY IDOCK:   -4.60 KCAL/MOL
REMARK 922        TOTAL FREE ENERGY PREDICTED BY IDOCK:   -6.49 KCAL/MOL
REMARK 923 INTER-LIGAND FREE ENERGY PREDICTED BY IDOCK:   -6.70 KCAL/MOL
REMARK 924 INTRA-LIGAND FREE ENERGY PREDICTED BY IDOCK:    0.22 KCAL/MOL
REMARK 927      BINDING AFFINITY PREDICTED BY RF-SCORE:    0.00 PKD
ROOT
HETATM    1  C   UNL     1     -10.890   9.604  67.958  1.00  0.00    -0.250 C  
HETATM    2  C   UNL     1     -11.520   9.219  69.170  1.00  0.00     0.350 C  
HETATM    3  C   UNL     1     -10.211   9.911  69.226  1.00  0.00    -0.222 C  
HETATM    4  C   UNL     1      -9.525  10.759  67.459  1.00  0.00    -0.154 C  
HETATM    5  C   UNL     1      -9.918  11.170  68.685  1.00  0.00    -0.210 C  
HETATM    6  C   UNL     1      -7.830   3.777  66.830  1.00  0.00    -0.088 C  
HETATM    7  C   UNL     1      -8.953   4.095  67.784  1.00  0.00    -0.142 C  
HETATM    8  C   UNL     1      -9.156   5.426  67.694  1.00  0.00    -0.109 C  
HETATM    9  F   UNL     1     -10.800   5.004  66.036  1.00  0.00    -0.318 F  
HETATM   10  C   UNL     1      -8.194  10.673  69.304  1.00  0.00    -0.122 C  
HETATM   11  C   UNL     1      -9.934   5.947  66.503  1.00  0.00    -0.153 C  
HETATM   12  C   UNL     1     -10.794  12.403  69.041  1.00  0.00    -0.194 C  
HETATM   13  C   UNL     1     -10.746   7.146  66.931  1.00  0.00    -0.363 C  
HETATM   14  O   UNL     1      -7.789   2.717  66.224  1.00  0.00    -0.078 OA 
HETATM   15  C   UNL     1      -7.653   9.114  68.721  1.00  0.00    -0.083 C  
HETATM   16  C   UNL     1      -6.735   4.813  66.721  1.00  0.00    -0.051 C  
HETATM   17  O   UNL     1      -6.766   9.322  67.620  1.00  0.00    -0.067 OA 
HETATM   18  C   UNL     1      -8.689   7.836  68.408  1.00  0.00    -0.127 C  
HETATM   19  C   UNL     1      -7.567   5.940  69.634  1.00  0.00    -0.081 C  
HETATM   20  C   UNL     1      -8.037   6.378  68.194  1.00  0.00    -0.113 C  
HETATM   21  H   UNL     1      -6.473   8.476  67.303  1.00  0.00     0.000 HD 
HETATM   22  C   UNL     1      -9.837   8.292  67.389  1.00  0.00    -0.246 C  
HETATM   23  F   UNL     1      -9.387   7.532  69.583  1.00  0.00    -0.152 F  
HETATM   24  C   UNL     1      -6.835   6.033  67.311  1.00  0.00    -0.063 C  
ENDROOT
BRANCH   4  25
HETATM   25  C   UNL     1      -8.603  12.163  67.194  1.00  0.00    -0.185 C  
HETATM   26  O   UNL     1      -7.462  12.203  66.703  1.00  0.00     0.006 OA 
BRANCH  25  27
HETATM   27  C   UNL     1      -9.114  13.517  67.678  1.00  0.00    -0.205 C  
BRANCH  27  28
HETATM   28  O   UNL     1      -9.007  14.517  66.649  1.00  0.00    -0.252 OA 
BRANCH  28  29
HETATM   29  C   UNL     1      -9.753  15.630  66.874  1.00  0.00    -0.230 C  
HETATM   30  C   UNL     1     -10.209  16.258  65.588  1.00  0.00    -0.368 C  
HETATM   31  O   UNL     1     -10.005  16.062  67.982  1.00  0.00    -0.225 OA 
ENDBRANCH  28  29
ENDBRANCH  27  28
ENDBRANCH  25  27
ENDBRANCH   4  25
BRANCH   4  32
HETATM   32  O   UNL     1     -10.610  11.343  66.501  1.00  0.00    -0.243 OA 
BRANCH  32  33
HETATM   33  C   UNL     1     -10.402  11.351  65.150  1.00  0.00    -0.290 C  
HETATM   34  O   UNL     1      -9.867  10.450  64.523  1.00  0.00    -0.308 OA 
BRANCH  33  35
HETATM   35  C   UNL     1     -10.915  12.615  64.516  1.00  0.00    -0.365 C  
BRANCH  35  36
HETATM   36  C   UNL     1     -12.430  12.669  64.624  1.00  0.00    -0.538 C  
HETATM   37  C   UNL     1     -12.898  13.762  65.577  1.00  0.00    -0.464 C  
ENDBRANCH  35  36
ENDBRANCH  33  35
ENDBRANCH  32  33
ENDBRANCH   4  32
TORSDOF 8
ENDMDL
MODEL       56
REMARK 921   NORMALIZED FREE ENERGY PREDICTED BY IDOCK:   -4.59 KCAL/MOL
REMARK 922        TOTAL FREE ENERGY PREDICTED BY IDOCK:   -6.48 KCAL/MOL
REMARK 923 INTER-LIGAND FREE ENERGY PREDICTED BY IDOCK:   -6.66 KCAL/MOL
REMARK 924 INTRA-LIGAND FREE ENERGY PREDICTED BY IDOCK:    0.18 KCAL/MOL
REMARK 927      BINDING AFFINITY PREDICTED BY RF-SCORE:    0.00 PKD
ROOT
HETATM    1  C   UNL     1      -8.061  10.419  68.837  1.00  0.00    -0.129 C  
HETATM    2  C   UNL     1      -6.677  10.693  68.686  1.00  0.00    -0.057 C  
HETATM    3  C   UNL     1      -7.600  11.004  67.570  1.00  0.00    -0.106 C  
HETATM    4  C   UNL     1      -9.633  10.917  67.985  1.00  0.00    -0.162 C  
HETATM    5  C   UNL     1      -8.718  11.847  67.632  1.00  0.00    -0.162 C  
HETATM    6  C   UNL     1      -7.766   4.037  66.896  1.00  0.00    -0.088 C  
HETATM    7  C   UNL     1      -6.648   4.962  67.299  1.00  0.00    -0.050 C  
HETATM    8  C   UNL     1      -7.218   6.164  67.525  1.00  0.00    -0.076 C  
HETATM    9  F   UNL     1      -7.435   5.568  69.811  1.00  0.00    -0.063 F  
HETATM   10  C   UNL     1      -8.891  11.210  65.852  1.00  0.00    -0.193 C  
HETATM   11  C   UNL     1      -7.949   6.370  68.835  1.00  0.00    -0.110 C  
HETATM   12  C   UNL     1      -8.580  13.299  68.168  1.00  0.00    -0.177 C  
HETATM   13  C   UNL     1      -7.774   7.803  69.277  1.00  0.00    -0.100 C  
HETATM   14  O   UNL     1      -7.753   2.851  67.193  1.00  0.00    -0.072 OA 
HETATM   15  C   UNL     1      -8.882   9.464  65.721  1.00  0.00    -0.171 C  
HETATM   16  C   UNL     1      -8.861   4.644  66.050  1.00  0.00    -0.121 C  
HETATM   17  O   UNL     1     -10.231   9.010  65.595  1.00  0.00    -0.321 OA 
HETATM   18  C   UNL     1      -8.018   8.465  66.750  1.00  0.00    -0.098 C  
HETATM   19  C   UNL     1      -6.807   6.963  65.127  1.00  0.00    -0.051 C  
HETATM   20  C   UNL     1      -7.838   6.923  66.320  1.00  0.00    -0.101 C  
HETATM   21  H   UNL     1     -10.226   8.063  65.524  1.00  0.00     0.000 HD 
HETATM   22  C   UNL     1      -8.408   8.771  68.273  1.00  0.00    -0.126 C  
HETATM   23  F   UNL     1      -6.665   8.815  66.676  1.00  0.00    -0.066 F  
HETATM   24  C   UNL     1      -8.930   5.980  65.810  1.00  0.00    -0.116 C  
ENDROOT
BRANCH   4  25
HETATM   25  C   UNL     1     -10.924  11.837  67.372  1.00  0.00    -0.262 C  
HETATM   26  O   UNL     1     -11.818  11.422  66.614  1.00  0.00    -0.399 OA 
BRANCH  25  27
HETATM   27  C   UNL     1     -10.995  13.336  67.647  1.00  0.00    -0.262 C  
BRANCH  27  28
HETATM   28  O   UNL     1     -11.752  14.022  66.633  1.00  0.00    -0.359 OA 
BRANCH  28  29
HETATM   29  C   UNL     1     -11.013  14.847  65.848  1.00  0.00    -0.338 C  
HETATM   30  C   UNL     1     -10.697  14.214  64.524  1.00  0.00    -0.323 C  
HETATM   31  O   UNL     1     -10.647  15.956  66.189  1.00  0.00    -0.307 OA 
ENDBRANCH  28  29
ENDBRANCH  27  28
ENDBRANCH  25  27
ENDBRANCH   4  25
BRANCH   4  32
HETATM   32  O   UNL     1     -10.067  11.344  69.422  1.00  0.00    -0.021 OA 
BRANCH  32  33
HETATM   33  C   UNL     1     -11.237  10.879  69.953  1.00  0.00    -0.282 C  
HETATM   34  O   UNL     1     -12.142  11.584  70.372  1.00  0.00    -0.350 OA 
BRANCH  33  35
HETATM   35  C   UNL     1     -11.284   9.375  69.965  1.00  0.00    -0.217 C  
BRANCH  35  36
HETATM   36  C   UNL     1     -10.894   8.857  71.339  1.00  0.00    -0.378 C  
HETATM   37  C   UNL     1     -12.110   8.496  72.183  1.00  0.00    -0.449 C  
ENDBRANCH  35  36
ENDBRANCH  33  35
ENDBRANCH  32  33
ENDBRANCH   4  32
TORSDOF 8
ENDMDL
MODEL       57
REMARK 921   NORMALIZED FREE ENERGY PREDICTED BY IDOCK:   -4.59 KCAL/MOL
REMARK 922        TOTAL FREE ENERGY PREDICTED BY IDOCK:   -6.48 KCAL/MOL
REMARK 923 INTER-LIGAND FREE ENERGY PREDICTED BY IDOCK:   -6.46 KCAL/MOL
REMARK 924 INTRA-LIGAND FREE ENERGY PREDICTED BY IDOCK:   -0.02 KCAL/MOL
REMARK 927      BINDING AFFINITY PREDICTED BY RF-SCORE:    0.00 PKD
ROOT
HETATM    1  C   UNL     1      -8.934  11.524  68.019  1.00  0.00    -0.170 C  
HETATM    2  C   UNL     1      -9.839  11.512  69.111  1.00  0.00     0.085 C  
HETATM    3  C   UNL     1     -10.375  11.575  67.732  1.00  0.00    -0.204 C  
HETATM    4  C   UNL     1      -9.029  11.229  66.188  1.00  0.00    -0.202 C  
HETATM    5  C   UNL     1     -10.134  10.649  66.708  1.00  0.00    -0.272 C  
HETATM    6  C   UNL     1      -7.905  18.122  67.985  1.00  0.00    -0.261 C  
HETATM    7  C   UNL     1      -8.526  17.260  69.053  1.00  0.00    -0.080 C  
HETATM    8  C   UNL     1      -8.577  16.011  68.546  1.00  0.00    -0.190 C  
HETATM    9  F   UNL     1      -6.469  15.582  69.546  1.00  0.00    -0.126 F  
HETATM   10  C   UNL     1     -11.149  11.934  65.750  1.00  0.00    -0.367 C  
HETATM   11  C   UNL     1      -7.301  15.195  68.538  1.00  0.00    -0.119 C  
HETATM   12  C   UNL     1     -10.395   9.134  66.940  1.00  0.00    -0.321 C  
HETATM   13  C   UNL     1      -7.645  13.741  68.757  1.00  0.00    -0.099 C  
HETATM   14  O   UNL     1      -7.189  19.072  68.267  1.00  0.00    -0.258 OA 
HETATM   15  C   UNL     1     -10.526  13.566  65.875  1.00  0.00    -0.292 C  
HETATM   16  C   UNL     1      -8.274  17.784  66.559  1.00  0.00    -0.300 C  
HETATM   17  O   UNL     1      -9.775  13.858  64.695  1.00  0.00    -0.550 OA 
HETATM   18  C   UNL     1      -9.741  14.152  67.233  1.00  0.00    -0.236 C  
HETATM   19  C   UNL     1     -10.950  16.327  67.638  1.00  0.00    -0.245 C  
HETATM   20  C   UNL     1      -9.516  15.744  67.338  1.00  0.00    -0.213 C  
HETATM   21  H   UNL     1      -9.437  14.744  64.763  1.00  0.00     0.000 HD 
HETATM   22  C   UNL     1      -8.510  13.201  67.613  1.00  0.00    -0.194 C  
HETATM   23  F   UNL     1     -10.604  14.036  68.329  1.00  0.00    -0.226 F  
HETATM   24  C   UNL     1      -8.981  16.668  66.242  1.00  0.00    -0.340 C  
ENDROOT
BRANCH   4  25
HETATM   25  C   UNL     1      -9.253  10.489  64.675  1.00  0.00    -0.235 C  
HETATM   26  O   UNL     1      -9.793  11.009  63.683  1.00  0.00    -0.283 OA 
BRANCH  25  27
HETATM   27  C   UNL     1      -8.882   9.022  64.477  1.00  0.00    -0.081 C  
BRANCH  27  28
HETATM   28  O   UNL     1      -7.925   8.861  63.414  1.00  0.00    -0.141 OA 
BRANCH  28  29
HETATM   29  C   UNL     1      -6.962   7.937  63.666  1.00  0.00    -0.075 C  
HETATM   30  C   UNL     1      -7.551   6.646  64.159  1.00  0.00    -0.104 C  
HETATM   31  O   UNL     1      -5.773   8.142  63.519  1.00  0.00    -0.060 OA 
ENDBRANCH  28  29
ENDBRANCH  27  28
ENDBRANCH  25  27
ENDBRANCH   4  25
BRANCH   4  32
HETATM   32  O   UNL     1      -7.893  10.198  66.476  1.00  0.00    -0.107 OA 
BRANCH  32  33
HETATM   33  C   UNL     1      -6.583  10.563  66.339  1.00  0.00    -0.106 C  
HETATM   34  O   UNL     1      -6.155  11.310  65.473  1.00  0.00     0.056 OA 
BRANCH  33  35
HETATM   35  C   UNL     1      -5.715   9.929  67.392  1.00  0.00    -0.046 C  
BRANCH  35  36
HETATM   36  C   UNL     1      -6.448   8.759  68.028  1.00  0.00    -0.057 C  
HETATM   37  C   UNL     1      -6.034   7.424  67.422  1.00  0.00    -0.042 C  
ENDBRANCH  35  36
ENDBRANCH  33  35
ENDBRANCH  32  33
ENDBRANCH   4  32
TORSDOF 8
ENDMDL
MODEL       58
REMARK 921   NORMALIZED FREE ENERGY PREDICTED BY IDOCK:   -4.59 KCAL/MOL
REMARK 922        TOTAL FREE ENERGY PREDICTED BY IDOCK:   -6.47 KCAL/MOL
REMARK 923 INTER-LIGAND FREE ENERGY PREDICTED BY IDOCK:   -6.20 KCAL/MOL
REMARK 924 INTRA-LIGAND FREE ENERGY PREDICTED BY IDOCK:   -0.27 KCAL/MOL
REMARK 927      BINDING AFFINITY PREDICTED BY RF-SCORE:    0.00 PKD
ROOT
HETATM    1  C   UNL     1     -10.666   6.796  69.045  1.00  0.00    -0.280 C  
HETATM    2  C   UNL     1     -11.137   5.744  69.872  1.00  0.00    -0.327 C  
HETATM    3  C   UNL     1      -9.781   6.291  70.105  1.00  0.00    -0.187 C  
HETATM    4  C   UNL     1      -9.297   8.049  69.109  1.00  0.00    -0.151 C  
HETATM    5  C   UNL     1      -9.465   7.628  70.383  1.00  0.00    -0.164 C  
HETATM    6  C   UNL     1      -8.322   2.899  64.155  1.00  0.00    -0.086 C  
HETATM    7  C   UNL     1      -9.256   2.552  65.285  1.00  0.00    -0.107 C  
HETATM    8  C   UNL     1      -9.356   3.663  66.045  1.00  0.00    -0.171 C  
HETATM    9  F   UNL     1     -11.261   4.289  64.776  1.00  0.00    -0.363 F  
HETATM   10  C   UNL     1      -7.716   6.897  70.275  1.00  0.00    -0.100 C  
HETATM   11  C   UNL     1     -10.257   4.779  65.556  1.00  0.00    -0.135 C  
HETATM   12  C   UNL     1     -10.169   8.377  71.549  1.00  0.00    -0.294 C  
HETATM   13  C   UNL     1     -10.889   5.459  66.747  1.00  0.00    -0.190 C  
HETATM   14  O   UNL     1      -8.462   2.420  63.040  1.00  0.00    -0.076 OA 
HETATM   15  C   UNL     1      -7.406   6.018  68.794  1.00  0.00    -0.085 C  
HETATM   16  C   UNL     1      -7.170   3.815  64.501  1.00  0.00    -0.066 C  
HETATM   17  O   UNL     1      -6.679   6.868  67.904  1.00  0.00    -0.059 OA 
HETATM   18  C   UNL     1      -8.583   5.164  67.963  1.00  0.00    -0.103 C  
HETATM   19  C   UNL     1      -7.455   2.939  67.599  1.00  0.00    -0.057 C  
HETATM   20  C   UNL     1      -8.097   4.146  66.813  1.00  0.00    -0.101 C  
HETATM   21  H   UNL     1      -6.510   6.391  67.100  1.00  0.00     0.000 HD 
HETATM   22  C   UNL     1      -9.827   6.116  67.634  1.00  0.00    -0.131 C  
HETATM   23  F   UNL     1      -9.119   4.198  68.822  1.00  0.00    -0.126 F  
HETATM   24  C   UNL     1      -7.075   4.430  65.709  1.00  0.00    -0.071 C  
ENDROOT
BRANCH   4  25
HETATM   25  C   UNL     1      -8.309   9.348  69.583  1.00  0.00    -0.147 C  
HETATM   26  O   UNL     1      -8.359   9.942  70.674  1.00  0.00    -0.180 OA 
BRANCH  25  27
HETATM   27  C   UNL     1      -7.326   9.963  68.591  1.00  0.00    -0.074 C  
BRANCH  27  28
HETATM   28  O   UNL     1      -7.245  11.392  68.747  1.00  0.00    -0.092 OA 
BRANCH  28  29
HETATM   29  C   UNL     1      -7.835  12.096  67.747  1.00  0.00    -0.148 C  
HETATM   30  C   UNL     1      -8.429  13.380  68.251  1.00  0.00    -0.166 C  
HETATM   31  O   UNL     1      -7.881  11.720  66.591  1.00  0.00    -0.132 OA 
ENDBRANCH  28  29
ENDBRANCH  27  28
ENDBRANCH  25  27
ENDBRANCH   4  25
BRANCH   4  32
HETATM   32  O   UNL     1     -10.460   9.067  68.894  1.00  0.00    -0.216 OA 
BRANCH  32  33
HETATM   33  C   UNL     1     -10.602   9.704  67.693  1.00  0.00    -0.275 C  
HETATM   34  O   UNL     1     -10.226   9.259  66.619  1.00  0.00    -0.256 OA 
BRANCH  33  35
HETATM   35  C   UNL     1     -11.283  11.037  67.847  1.00  0.00    -0.375 C  
BRANCH  35  36
HETATM   36  C   UNL     1     -11.470  11.353  69.322  1.00  0.00    -0.370 C  
HETATM   37  C   UNL     1     -11.922  12.791  69.548  1.00  0.00    -0.338 C  
ENDBRANCH  35  36
ENDBRANCH  33  35
ENDBRANCH  32  33
ENDBRANCH   4  32
TORSDOF 8
ENDMDL
MODEL       59
REMARK 921   NORMALIZED FREE ENERGY PREDICTED BY IDOCK:   -4.56 KCAL/MOL
REMARK 922        TOTAL FREE ENERGY PREDICTED BY IDOCK:   -6.43 KCAL/MOL
REMARK 923 INTER-LIGAND FREE ENERGY PREDICTED BY IDOCK:   -6.18 KCAL/MOL
REMARK 924 INTRA-LIGAND FREE ENERGY PREDICTED BY IDOCK:   -0.25 KCAL/MOL
REMARK 927      BINDING AFFINITY PREDICTED BY RF-SCORE:    0.00 PKD
ROOT
HETATM    1  C   UNL     1      -8.527   7.906  70.607  1.00  0.00    -0.125 C  
HETATM    2  C   UNL     1      -9.100   8.447  71.787  1.00  0.00    -0.283 C  
HETATM    3  C   UNL     1      -9.930   7.589  70.909  1.00  0.00    -0.181 C  
HETATM    4  C   UNL     1      -8.940   6.549  69.409  1.00  0.00    -0.132 C  
HETATM    5  C   UNL     1      -9.643   6.271  70.530  1.00  0.00    -0.183 C  
HETATM    6  C   UNL     1      -9.747  13.185  66.704  1.00  0.00    -0.261 C  
HETATM    7  C   UNL     1      -9.788  13.081  68.207  1.00  0.00    -0.225 C  
HETATM    8  C   UNL     1      -9.543  11.787  68.500  1.00  0.00    -0.173 C  
HETATM    9  F   UNL     1      -7.240  12.325  68.687  1.00  0.00    -0.085 F  
HETATM   10  C   UNL     1     -11.214   6.567  69.507  1.00  0.00    -0.434 C  
HETATM   11  C   UNL     1      -8.109  11.304  68.442  1.00  0.00    -0.143 C  
HETATM   12  C   UNL     1      -9.335   5.192  71.605  1.00  0.00    -0.183 C  
HETATM   13  C   UNL     1      -7.899  10.254  69.507  1.00  0.00    -0.172 C  
HETATM   14  O   UNL     1      -9.335  14.191  66.144  1.00  0.00    -0.237 OA 
HETATM   15  C   UNL     1     -11.147   8.001  68.504  1.00  0.00     0.372 C  
HETATM   16  C   UNL     1     -10.303  12.007  65.939  1.00  0.00    -0.278 C  
HETATM   17  O   UNL     1     -10.827   7.607  67.168  1.00  0.00    -0.471 OA 
HETATM   18  C   UNL     1     -10.306   9.385  68.928  1.00  0.00    -0.213 C  
HETATM   19  C   UNL     1     -12.031  11.183  68.544  1.00  0.00    -0.250 C  
HETATM   20  C   UNL     1     -10.595  10.725  68.081  1.00  0.00    -0.238 C  
HETATM   21  H   UNL     1     -10.790   8.385  66.624  1.00  0.00     0.000 HD 
HETATM   22  C   UNL     1      -8.780   9.027  69.252  1.00  0.00    -0.138 C  
HETATM   23  F   UNL     1     -10.806   9.852  70.149  1.00  0.00    -0.247 F  
HETATM   24  C   UNL     1     -10.660  10.850  66.556  1.00  0.00    -0.295 C  
ENDROOT
BRANCH   4  25
HETATM   25  C   UNL     1      -9.253   5.020  68.736  1.00  0.00    -0.122 C  
HETATM   26  O   UNL     1      -9.506   3.982  69.372  1.00  0.00    -0.162 OA 
BRANCH  25  27
HETATM   27  C   UNL     1      -9.120   4.804  67.231  1.00  0.00    -0.119 C  
BRANCH  27  28
HETATM   28  O   UNL     1     -10.408   4.663  66.605  1.00  0.00    -0.237 OA 
BRANCH  28  29
HETATM   29  C   UNL     1     -10.355   4.415  65.271  1.00  0.00    -0.198 C  
HETATM   30  C   UNL     1      -8.984   4.672  64.715  1.00  0.00    -0.153 C  
HETATM   31  O   UNL     1     -11.308   4.042  64.613  1.00  0.00    -0.281 OA 
ENDBRANCH  28  29
ENDBRANCH  27  28
ENDBRANCH  25  27
ENDBRANCH   4  25
BRANCH   4  32
HETATM   32  O   UNL     1      -7.495   6.060  69.741  1.00  0.00    -0.076 OA 
BRANCH  32  33
HETATM   33  C   UNL     1      -6.564   5.941  68.748  1.00  0.00    -0.055 C  
HETATM   34  O   UNL     1      -6.009   4.899  68.434  1.00  0.00    -0.024 OA 
BRANCH  33  35
HETATM   35  C   UNL     1      -6.296   7.260  68.076  1.00  0.00    -0.044 C  
BRANCH  35  36
HETATM   36  C   UNL     1      -6.556   7.142  66.583  1.00  0.00    -0.055 C  
HETATM   37  C   UNL     1      -7.456   8.258  66.067  1.00  0.00    -0.077 C  
ENDBRANCH  35  36
ENDBRANCH  33  35
ENDBRANCH  32  33
ENDBRANCH   4  32
TORSDOF 8
ENDMDL
MODEL       60
REMARK 921   NORMALIZED FREE ENERGY PREDICTED BY IDOCK:   -4.49 KCAL/MOL
REMARK 922        TOTAL FREE ENERGY PREDICTED BY IDOCK:   -6.33 KCAL/MOL
REMARK 923 INTER-LIGAND FREE ENERGY PREDICTED BY IDOCK:   -6.17 KCAL/MOL
REMARK 924 INTRA-LIGAND FREE ENERGY PREDICTED BY IDOCK:   -0.16 KCAL/MOL
REMARK 927      BINDING AFFINITY PREDICTED BY RF-SCORE:    0.00 PKD
ROOT
HETATM    1  C   UNL     1      -7.944  10.596  68.850  1.00  0.00    -0.132 C  
HETATM    2  C   UNL     1      -6.954  10.901  69.819  1.00  0.00    -0.121 C  
HETATM    3  C   UNL     1      -6.618   9.977  68.711  1.00  0.00    -0.049 C  
HETATM    4  C   UNL     1      -7.978   9.858  67.147  1.00  0.00    -0.109 C  
HETATM    5  C   UNL     1      -6.703  10.262  67.342  1.00  0.00    -0.072 C  
HETATM    6  C   UNL     1     -10.785   5.595  72.242  1.00  0.00    -0.230 C  
HETATM    7  C   UNL     1      -9.829   6.653  72.728  1.00  0.00    -0.182 C  
HETATM    8  C   UNL     1      -9.487   7.377  71.641  1.00  0.00    -0.163 C  
HETATM    9  F   UNL     1     -11.260   8.869  72.149  1.00  0.00    -0.392 F  
HETATM   10  C   UNL     1      -6.207   8.432  67.262  1.00  0.00    -0.056 C  
HETATM   11  C   UNL     1     -10.473   8.409  71.136  1.00  0.00    -0.212 C  
HETATM   12  C   UNL     1      -6.001  11.518  66.754  1.00  0.00    -0.139 C  
HETATM   13  C   UNL     1      -9.712   9.586  70.573  1.00  0.00    -0.325 C  
HETATM   14  O   UNL     1     -11.702   5.193  72.942  1.00  0.00    -0.283 OA 
HETATM   15  C   UNL     1      -7.245   7.374  68.194  1.00  0.00    -0.090 C  
HETATM   16  C   UNL     1     -10.501   5.018  70.874  1.00  0.00    -0.212 C  
HETATM   17  O   UNL     1      -8.177   6.753  67.306  1.00  0.00    -0.119 OA 
HETATM   18  C   UNL     1      -8.004   7.841  69.612  1.00  0.00    -0.116 C  
HETATM   19  C   UNL     1      -7.418   5.945  71.167  1.00  0.00    -0.091 C  
HETATM   20  C   UNL     1      -8.654   6.687  70.528  1.00  0.00    -0.143 C  
HETATM   21  H   UNL     1      -8.741   6.180  67.812  1.00  0.00     0.000 HD 
HETATM   22  C   UNL     1      -8.865   9.168  69.367  1.00  0.00    -0.146 C  
HETATM   23  F   UNL     1      -7.024   8.244  70.527  1.00  0.00    -0.037 F  
HETATM   24  C   UNL     1      -9.549   5.537  70.056  1.00  0.00    -0.218 C  
ENDROOT
BRANCH   4  25
HETATM   25  C   UNL     1      -7.728   9.601  65.485  1.00  0.00    -0.112 C  
HETATM   26  O   UNL     1      -7.101  10.352  64.719  1.00  0.00    -0.120 OA 
BRANCH  25  27
HETATM   27  C   UNL     1      -8.396   8.421  64.784  1.00  0.00    -0.141 C  
BRANCH  27  28
HETATM   28  O   UNL     1      -7.430   7.433  64.383  1.00  0.00    -0.085 OA 
BRANCH  28  29
HETATM   29  C   UNL     1      -7.968   6.231  64.051  1.00  0.00    -0.099 C  
HETATM   30  C   UNL     1      -8.119   6.085  62.564  1.00  0.00    -0.100 C  
HETATM   31  O   UNL     1      -8.293   5.388  64.865  1.00  0.00    -0.133 OA 
ENDBRANCH  28  29
ENDBRANCH  27  28
ENDBRANCH  25  27
ENDBRANCH   4  25
BRANCH   4  32
HETATM   32  O   UNL     1      -8.738  11.173  66.786  1.00  0.00    -0.147 OA 
BRANCH  32  33
HETATM   33  C   UNL     1     -10.082  11.145  66.542  1.00  0.00    -0.223 C  
HETATM   34  O   UNL     1     -10.831  10.238  66.873  1.00  0.00    -0.220 OA 
BRANCH  33  35
HETATM   35  C   UNL     1     -10.541  12.375  65.808  1.00  0.00    -0.288 C  
BRANCH  35  36
HETATM   36  C   UNL     1     -11.290  11.975  64.548  1.00  0.00    -0.393 C  
HETATM   37  C   UNL     1     -10.356  11.434  63.472  1.00  0.00    -0.476 C  
ENDBRANCH  35  36
ENDBRANCH  33  35
ENDBRANCH  32  33
ENDBRANCH   4  32
TORSDOF 8
ENDMDL
MODEL       61
REMARK 921   NORMALIZED FREE ENERGY PREDICTED BY IDOCK:   -4.49 KCAL/MOL
REMARK 922        TOTAL FREE ENERGY PREDICTED BY IDOCK:   -6.33 KCAL/MOL
REMARK 923 INTER-LIGAND FREE ENERGY PREDICTED BY IDOCK:   -6.80 KCAL/MOL
REMARK 924 INTRA-LIGAND FREE ENERGY PREDICTED BY IDOCK:    0.48 KCAL/MOL
REMARK 927      BINDING AFFINITY PREDICTED BY RF-SCORE:    0.00 PKD
ROOT
HETATM    1  C   UNL     1     -10.420  10.717  69.578  1.00  0.00    -0.236 C  
HETATM    2  C   UNL     1     -11.793  10.722  69.937  1.00  0.00    -0.413 C  
HETATM    3  C   UNL     1     -11.354   9.914  68.775  1.00  0.00    -0.049 C  
HETATM    4  C   UNL     1      -9.307   9.666  68.528  1.00  0.00    -0.137 C  
HETATM    5  C   UNL     1     -10.389   8.899  68.792  1.00  0.00    -0.232 C  
HETATM    6  C   UNL     1     -10.630  16.194  65.765  1.00  0.00    -0.334 C  
HETATM    7  C   UNL     1     -11.639  15.690  66.764  1.00  0.00     0.233 C  
HETATM    8  C   UNL     1     -11.168  14.505  67.207  1.00  0.00    -0.341 C  
HETATM    9  F   UNL     1     -10.109  15.659  68.989  1.00  0.00    -0.190 F  
HETATM   10  C   UNL     1     -10.768   8.954  66.933  1.00  0.00    -0.153 C  
HETATM   11  C   UNL     1     -10.059  14.522  68.238  1.00  0.00    -0.232 C  
HETATM   12  C   UNL     1     -10.500   7.724  69.804  1.00  0.00    -0.233 C  
HETATM   13  C   UNL     1     -10.234  13.347  69.170  1.00  0.00     0.164 C  
HETATM   14  O   UNL     1     -10.403  17.388  65.634  1.00  0.00    -0.589 OA 
HETATM   15  C   UNL     1     -10.621  10.549  66.227  1.00  0.00    -0.133 C  
HETATM   16  C   UNL     1      -9.971  15.148  64.896  1.00  0.00    -0.041 C  
HETATM   17  O   UNL     1      -9.355  10.641  65.570  1.00  0.00    -0.184 OA 
HETATM   18  C   UNL     1     -10.956  11.962  67.061  1.00  0.00    -0.278 C  
HETATM   19  C   UNL     1     -12.471  13.174  65.450  1.00  0.00    -0.535 C  
HETATM   20  C   UNL     1     -11.094  13.321  66.206  1.00  0.00    -0.306 C  
HETATM   21  H   UNL     1      -9.275  11.507  65.188  1.00  0.00     0.000 HD 
HETATM   22  C   UNL     1     -10.102  12.021  68.415  1.00  0.00    -0.211 C  
HETATM   23  F   UNL     1     -12.282  11.912  67.505  1.00  0.00    -0.278 F  
HETATM   24  C   UNL     1     -10.143  13.818  65.114  1.00  0.00    -0.314 C  
ENDROOT
BRANCH   4  25
HETATM   25  C   UNL     1      -8.422   8.350  67.917  1.00  0.00    -0.131 C  
HETATM   26  O   UNL     1      -7.916   8.276  66.784  1.00  0.00    -0.097 OA 
BRANCH  25  27
HETATM   27  C   UNL     1      -8.289   7.069  68.736  1.00  0.00    -0.122 C  
BRANCH  27  28
HETATM   28  O   UNL     1      -8.094   5.922  67.890  1.00  0.00    -0.104 OA 
BRANCH  28  29
HETATM   29  C   UNL     1      -9.004   4.931  68.076  1.00  0.00    -0.110 C  
HETATM   30  C   UNL     1     -10.189   5.092  67.167  1.00  0.00    -0.234 C  
HETATM   31  O   UNL     1      -8.872   4.035  68.887  1.00  0.00    -0.092 OA 
ENDBRANCH  28  29
ENDBRANCH  27  28
ENDBRANCH  25  27
ENDBRANCH   4  25
BRANCH   4  32
HETATM   32  O   UNL     1      -8.456   9.577  69.834  1.00  0.00    -0.149 OA 
BRANCH  32  33
HETATM   33  C   UNL     1      -7.304  10.302  69.953  1.00  0.00    -0.160 C  
HETATM   34  O   UNL     1      -6.541  10.246  70.905  1.00  0.00    -0.330 OA 
BRANCH  33  35
HETATM   35  C   UNL     1      -7.080  11.192  68.761  1.00  0.00    -0.093 C  
BRANCH  35  36
HETATM   36  C   UNL     1      -5.751  10.854  68.107  1.00  0.00    -0.046 C  
HETATM   37  C   UNL     1      -5.805  10.995  66.591  1.00  0.00    -0.113 C  
ENDBRANCH  35  36
ENDBRANCH  33  35
ENDBRANCH  32  33
ENDBRANCH   4  32
TORSDOF 8
ENDMDL
MODEL       62
REMARK 921   NORMALIZED FREE ENERGY PREDICTED BY IDOCK:   -4.47 KCAL/MOL
REMARK 922        TOTAL FREE ENERGY PREDICTED BY IDOCK:   -6.30 KCAL/MOL
REMARK 923 INTER-LIGAND FREE ENERGY PREDICTED BY IDOCK:   -6.19 KCAL/MOL
REMARK 924 INTRA-LIGAND FREE ENERGY PREDICTED BY IDOCK:   -0.11 KCAL/MOL
REMARK 927      BINDING AFFINITY PREDICTED BY RF-SCORE:    0.00 PKD
ROOT
HETATM    1  C   UNL     1      -9.179   9.579  66.026  1.00  0.00    -0.248 C  
HETATM    2  C   UNL     1      -8.666  10.022  64.780  1.00  0.00    -0.206 C  
HETATM    3  C   UNL     1      -7.743   9.876  65.929  1.00  0.00    -0.110 C  
HETATM    4  C   UNL     1      -8.479   8.892  67.602  1.00  0.00    -0.121 C  
HETATM    5  C   UNL     1      -7.521   8.707  66.668  1.00  0.00    -0.089 C  
HETATM    6  C   UNL     1     -11.066  15.595  68.227  1.00  0.00    -0.336 C  
HETATM    7  C   UNL     1     -10.693  15.164  66.833  1.00  0.00    -0.308 C  
HETATM    8  C   UNL     1     -10.312  13.874  66.927  1.00  0.00    -0.266 C  
HETATM    9  F   UNL     1     -12.543  13.238  66.433  1.00  0.00    -0.405 F  
HETATM   10  C   UNL     1      -6.450   9.923  67.656  1.00  0.00    -0.064 C  
HETATM   11  C   UNL     1     -11.393  12.819  67.033  1.00  0.00    -0.314 C  
HETATM   12  C   UNL     1      -7.133   7.384  65.950  1.00  0.00    -0.065 C  
HETATM   13  C   UNL     1     -10.933  11.568  66.322  1.00  0.00    -0.328 C  
HETATM   14  O   UNL     1     -11.961  16.403  68.429  1.00  0.00    -0.006 OA 
HETATM   15  C   UNL     1      -7.304  11.361  68.173  1.00  0.00    -0.092 C  
HETATM   16  C   UNL     1     -10.229  15.022  69.348  1.00  0.00    -0.229 C  
HETATM   17  O   UNL     1      -7.684  11.197  69.541  1.00  0.00    -0.357 OA 
HETATM   18  C   UNL     1      -8.547  12.061  67.296  1.00  0.00    -0.177 C  
HETATM   19  C   UNL     1      -7.843  14.482  67.235  1.00  0.00    -0.199 C  
HETATM   20  C   UNL     1      -9.016  13.544  67.717  1.00  0.00    -0.201 C  
HETATM   21  H   UNL     1      -8.148  11.977  69.822  1.00  0.00     0.000 HD 
HETATM   22  C   UNL     1      -9.688  10.980  66.994  1.00  0.00    -0.208 C  
HETATM   23  F   UNL     1      -8.060  12.397  66.028  1.00  0.00     0.238 F  
HETATM   24  C   UNL     1      -9.309  14.046  69.134  1.00  0.00     0.250 C  
ENDROOT
BRANCH   4  25
HETATM   25  C   UNL     1      -7.693   7.886  68.725  1.00  0.00    -0.112 C  
HETATM   26  O   UNL     1      -7.008   6.886  68.452  1.00  0.00    -0.074 OA 
BRANCH  25  27
HETATM   27  C   UNL     1      -7.893   8.107  70.222  1.00  0.00    -0.093 C  
BRANCH  27  28
HETATM   28  O   UNL     1      -8.395   6.922  70.866  1.00  0.00    -0.127 OA 
BRANCH  28  29
HETATM   29  C   UNL     1      -9.088   7.161  72.010  1.00  0.00    -0.130 C  
HETATM   30  C   UNL     1      -9.462   8.610  72.137  1.00  0.00    -0.373 C  
HETATM   31  O   UNL     1      -9.357   6.303  72.829  1.00  0.00    -0.145 OA 
ENDBRANCH  28  29
ENDBRANCH  27  28
ENDBRANCH  25  27
ENDBRANCH   4  25
BRANCH   4  32
HETATM   32  O   UNL     1      -9.491   7.733  67.337  1.00  0.00    -0.137 OA 
BRANCH  32  33
HETATM   33  C   UNL     1     -10.529   7.517  68.200  1.00  0.00    -0.183 C  
HETATM   34  O   UNL     1     -11.011   8.364  68.936  1.00  0.00    -0.034 OA 
BRANCH  33  35
HETATM   35  C   UNL     1     -11.016   6.095  68.139  1.00  0.00    -0.398 C  
BRANCH  35  36
HETATM   36  C   UNL     1      -9.985   5.226  67.437  1.00  0.00    -0.206 C  
HETATM   37  C   UNL     1     -10.474   4.739  66.079  1.00  0.00    -0.332 C  
ENDBRANCH  35  36
ENDBRANCH  33  35
ENDBRANCH  32  33
ENDBRANCH   4  32
TORSDOF 8
ENDMDL
MODEL       63
REMARK 921   NORMALIZED FREE ENERGY PREDICTED BY IDOCK:   -4.44 KCAL/MOL
REMARK 922        TOTAL FREE ENERGY PREDICTED BY IDOCK:   -6.25 KCAL/MOL
REMARK 923 INTER-LIGAND FREE ENERGY PREDICTED BY IDOCK:   -6.25 KCAL/MOL
REMARK 924 INTRA-LIGAND FREE ENERGY PREDICTED BY IDOCK:   -0.00 KCAL/MOL
REMARK 927      BINDING AFFINITY PREDICTED BY RF-SCORE:    0.00 PKD
ROOT
HETATM    1  C   UNL     1      -7.210   9.132  69.140  1.00  0.00    -0.067 C  
HETATM    2  C   UNL     1      -7.189   9.483  70.515  1.00  0.00    -0.141 C  
HETATM    3  C   UNL     1      -8.165   8.474  70.044  1.00  0.00    -0.121 C  
HETATM    4  C   UNL     1      -7.905   7.749  68.115  1.00  0.00    -0.121 C  
HETATM    5  C   UNL     1      -7.862   7.277  69.381  1.00  0.00    -0.122 C  
HETATM    6  C   UNL     1     -11.269  14.060  67.181  1.00  0.00    -0.313 C  
HETATM    7  C   UNL     1     -10.511  13.907  68.474  1.00  0.00    -0.253 C  
HETATM    8  C   UNL     1      -9.902  12.704  68.413  1.00  0.00    -0.200 C  
HETATM    9  F   UNL     1      -7.988  13.783  67.519  1.00  0.00    -0.134 F  
HETATM   10  C   UNL     1      -9.758   7.208  69.322  1.00  0.00    -0.159 C  
HETATM   11  C   UNL     1      -8.640  12.588  67.584  1.00  0.00    -0.178 C  
HETATM   12  C   UNL     1      -6.840   6.276  69.990  1.00  0.00    -0.058 C  
HETATM   13  C   UNL     1      -7.711  11.592  68.238  1.00  0.00    -0.128 C  
HETATM   14  O   UNL     1     -11.410  15.150  66.648  1.00  0.00    -0.320 OA 
HETATM   15  C   UNL     1     -10.498   8.642  68.643  1.00  0.00    -0.177 C  
HETATM   16  C   UNL     1     -11.896  12.802  66.624  1.00  0.00    -0.462 C  
HETATM   17  O   UNL     1     -10.840   8.375  67.281  1.00  0.00    -0.461 OA 
HETATM   18  C   UNL     1      -9.849  10.178  68.798  1.00  0.00    -0.175 C  
HETATM   19  C   UNL     1     -11.839  11.509  69.586  1.00  0.00    -0.421 C  
HETATM   20  C   UNL     1     -10.788  11.429  68.413  1.00  0.00    -0.248 C  
HETATM   21  H   UNL     1     -11.241   9.153  66.912  1.00  0.00     0.000 HD 
HETATM   22  C   UNL     1      -8.337  10.194  68.270  1.00  0.00    -0.115 C  
HETATM   23  F   UNL     1      -9.731  10.474  70.160  1.00  0.00    -0.152 F  
HETATM   24  C   UNL     1     -11.650  11.577  67.157  1.00  0.00    -0.249 C  
ENDROOT
BRANCH   4  25
HETATM   25  C   UNL     1      -8.213   6.209  67.464  1.00  0.00    -0.109 C  
HETATM   26  O   UNL     1      -7.618   5.160  67.764  1.00  0.00    -0.085 OA 
BRANCH  25  27
HETATM   27  C   UNL     1      -9.220   6.045  66.329  1.00  0.00    -0.154 C  
BRANCH  27  28
HETATM   28  O   UNL     1      -8.568   5.687  65.097  1.00  0.00    -0.152 OA 
BRANCH  28  29
HETATM   29  C   UNL     1      -9.124   4.623  64.462  1.00  0.00    -0.132 C  
HETATM   30  C   UNL     1     -10.345   4.126  65.182  1.00  0.00    -0.198 C  
HETATM   31  O   UNL     1      -8.675   4.133  63.443  1.00  0.00    -0.102 OA 
ENDBRANCH  28  29
ENDBRANCH  27  28
ENDBRANCH  25  27
ENDBRANCH   4  25
BRANCH   4  32
HETATM   32  O   UNL     1      -6.432   7.619  67.615  1.00  0.00    -0.054 OA 
BRANCH  32  33
HETATM   33  C   UNL     1      -6.141   7.763  66.288  1.00  0.00    -0.045 C  
HETATM   34  O   UNL     1      -5.637   6.899  65.587  1.00  0.00    -0.029 OA 
BRANCH  33  35
HETATM   35  C   UNL     1      -6.518   9.128  65.781  1.00  0.00    -0.064 C  
BRANCH  35  36
HETATM   36  C   UNL     1      -7.429   8.996  64.571  1.00  0.00    -0.104 C  
HETATM   37  C   UNL     1      -8.811   9.584  64.827  1.00  0.00    -0.244 C  
ENDBRANCH  35  36
ENDBRANCH  33  35
ENDBRANCH  32  33
ENDBRANCH   4  32
TORSDOF 8
ENDMDL
MODEL       64
REMARK 921   NORMALIZED FREE ENERGY PREDICTED BY IDOCK:   -4.38 KCAL/MOL
REMARK 922        TOTAL FREE ENERGY PREDICTED BY IDOCK:   -6.17 KCAL/MOL
REMARK 923 INTER-LIGAND FREE ENERGY PREDICTED BY IDOCK:   -6.82 KCAL/MOL
REMARK 924 INTRA-LIGAND FREE ENERGY PREDICTED BY IDOCK:    0.66 KCAL/MOL
REMARK 927      BINDING AFFINITY PREDICTED BY RF-SCORE:    0.00 PKD
ROOT
HETATM    1  C   UNL     1     -10.065  10.704  69.066  1.00  0.00    -0.226 C  
HETATM    2  C   UNL     1     -11.417  10.570  69.473  1.00  0.00    -0.339 C  
HETATM    3  C   UNL     1     -11.024  10.117  68.119  1.00  0.00    -0.313 C  
HETATM    4  C   UNL     1      -8.989  10.007  67.723  1.00  0.00    -0.131 C  
HETATM    5  C   UNL     1     -10.041   9.165  67.819  1.00  0.00    -0.253 C  
HETATM    6  C   UNL     1     -10.569  16.994  66.882  1.00  0.00    -0.208 C  
HETATM    7  C   UNL     1     -11.516  16.209  67.752  1.00  0.00    -0.033 C  
HETATM    8  C   UNL     1     -11.001  14.964  67.839  1.00  0.00    -0.288 C  
HETATM    9  F   UNL     1      -9.873  15.630  69.816  1.00  0.00    -0.248 F  
HETATM   10  C   UNL     1     -10.517   9.704  66.062  1.00  0.00    -0.047 C  
HETATM   11  C   UNL     1      -9.841  14.738  68.786  1.00  0.00    -0.227 C  
HETATM   12  C   UNL     1     -10.079   7.759  68.480  1.00  0.00    -0.216 C  
HETATM   13  C   UNL     1      -9.947  13.351  69.373  1.00  0.00     0.630 C  
HETATM   14  O   UNL     1     -10.370  18.185  67.067  1.00  0.00    -0.352 OA 
HETATM   15  C   UNL     1     -10.435  11.434  65.806  1.00  0.00    -0.262 C  
HETATM   16  C   UNL     1      -9.937  16.239  65.735  1.00  0.00    -0.353 C  
HETATM   17  O   UNL     1      -9.206  11.738  65.142  1.00  0.00    -0.414 OA 
HETATM   18  C   UNL     1     -10.751  12.561  67.004  1.00  0.00    -0.242 C  
HETATM   19  C   UNL     1     -12.369  14.112  65.848  1.00  0.00    -0.486 C  
HETATM   20  C   UNL     1     -10.958  14.094  66.553  1.00  0.00    -0.309 C  
HETATM   21  H   UNL     1      -9.161  12.677  65.003  1.00  0.00     0.000 HD 
HETATM   22  C   UNL     1      -9.830  12.281  68.283  1.00  0.00    -0.217 C  
HETATM   23  F   UNL     1     -12.052  12.352  67.476  1.00  0.00    -0.417 F  
HETATM   24  C   UNL     1     -10.074  14.895  65.594  1.00  0.00    -0.387 C  
ENDROOT
BRANCH   4  25
HETATM   25  C   UNL     1      -8.112   8.932  66.741  1.00  0.00    -0.111 C  
HETATM   26  O   UNL     1      -7.538   7.899  67.125  1.00  0.00    -0.096 OA 
BRANCH  25  27
HETATM   27  C   UNL     1      -7.878   9.258  65.268  1.00  0.00    -0.105 C  
BRANCH  27  28
HETATM   28  O   UNL     1      -6.666  10.012  65.083  1.00  0.00    -0.112 OA 
BRANCH  28  29
HETATM   29  C   UNL     1      -6.149   9.937  63.830  1.00  0.00    -0.123 C  
HETATM   30  C   UNL     1      -5.417   8.644  63.611  1.00  0.00    -0.062 C  
HETATM   31  O   UNL     1      -6.260  10.817  62.998  1.00  0.00    -0.080 OA 
ENDBRANCH  28  29
ENDBRANCH  27  28
ENDBRANCH  25  27
ENDBRANCH   4  25
BRANCH   4  32
HETATM   32  O   UNL     1      -8.070   9.598  68.917  1.00  0.00    -0.092 OA 
BRANCH  32  33
HETATM   33  C   UNL     1      -7.131  10.471  69.391  1.00  0.00    -0.110 C  
HETATM   34  O   UNL     1      -6.878  10.647  70.573  1.00  0.00    -0.309 OA 
BRANCH  33  35
HETATM   35  C   UNL     1      -6.435  11.201  68.274  1.00  0.00    -0.057 C  
BRANCH  35  36
HETATM   36  C   UNL     1      -5.918  12.539  68.776  1.00  0.00    -0.066 C  
HETATM   37  C   UNL     1      -6.298  13.686  67.848  1.00  0.00    -0.159 C  
ENDBRANCH  35  36
ENDBRANCH  33  35
ENDBRANCH  32  33
ENDBRANCH   4  32
TORSDOF 8
ENDMDL
MODEL       65
REMARK 921   NORMALIZED FREE ENERGY PREDICTED BY IDOCK:   -4.37 KCAL/MOL
REMARK 922        TOTAL FREE ENERGY PREDICTED BY IDOCK:   -6.15 KCAL/MOL
REMARK 923 INTER-LIGAND FREE ENERGY PREDICTED BY IDOCK:   -5.89 KCAL/MOL
REMARK 924 INTRA-LIGAND FREE ENERGY PREDICTED BY IDOCK:   -0.27 KCAL/MOL
REMARK 927      BINDING AFFINITY PREDICTED BY RF-SCORE:    0.00 PKD
ROOT
HETATM    1  C   UNL     1      -7.592   9.137  69.183  1.00  0.00    -0.073 C  
HETATM    2  C   UNL     1      -8.060   9.574  70.450  1.00  0.00    -0.209 C  
HETATM    3  C   UNL     1      -8.887   8.630  69.661  1.00  0.00    -0.137 C  
HETATM    4  C   UNL     1      -7.989   7.761  68.003  1.00  0.00    -0.122 C  
HETATM    5  C   UNL     1      -8.487   7.370  69.197  1.00  0.00    -0.133 C  
HETATM    6  C   UNL     1     -10.019  14.281  65.684  1.00  0.00    -0.320 C  
HETATM    7  C   UNL     1      -9.836  14.143  67.173  1.00  0.00    -0.253 C  
HETATM    8  C   UNL     1      -9.387  12.888  67.382  1.00  0.00    -0.194 C  
HETATM    9  F   UNL     1      -7.170  13.725  67.275  1.00  0.00    -0.175 F  
HETATM   10  C   UNL     1     -10.211   7.473  68.409  1.00  0.00    -0.211 C  
HETATM   11  C   UNL     1      -7.925  12.602  67.111  1.00  0.00    -0.122 C  
HETATM   12  C   UNL     1      -7.894   6.321  70.179  1.00  0.00    -0.106 C  
HETATM   13  C   UNL     1      -7.434  11.569  68.097  1.00  0.00    -0.101 C  
HETATM   14  O   UNL     1      -9.824  15.343  65.112  1.00  0.00    -0.264 OA 
HETATM   15  C   UNL     1     -10.471   8.922  67.461  1.00  0.00    -0.269 C  
HETATM   16  C   UNL     1     -10.519  13.053  64.958  1.00  0.00    -0.345 C  
HETATM   17  O   UNL     1     -10.292   8.600  66.080  1.00  0.00    -0.382 OA 
HETATM   18  C   UNL     1      -9.765  10.398  67.819  1.00  0.00    -0.160 C  
HETATM   19  C   UNL     1     -11.746  11.956  67.741  1.00  0.00    -0.362 C  
HETATM   20  C   UNL     1     -10.341  11.703  67.070  1.00  0.00    -0.248 C  
HETATM   21  H   UNL     1     -10.433   9.386  65.566  1.00  0.00     0.000 HD 
HETATM   22  C   UNL     1      -8.175  10.240  67.919  1.00  0.00    -0.109 C  
HETATM   23  F   UNL     1     -10.146  10.770  69.113  1.00  0.00    -0.198 F  
HETATM   24  C   UNL     1     -10.633  11.848  65.574  1.00  0.00    -0.313 C  
ENDROOT
BRANCH   4  25
HETATM   25  C   UNL     1      -8.192   6.217  67.321  1.00  0.00    -0.106 C  
HETATM   26  O   UNL     1      -7.878   5.139  67.854  1.00  0.00    -0.090 OA 
BRANCH  25  27
HETATM   27  C   UNL     1      -8.698   6.073  65.888  1.00  0.00    -0.154 C  
BRANCH  27  28
HETATM   28  O   UNL     1      -8.255   7.165  65.062  1.00  0.00    -0.134 OA 
BRANCH  28  29
HETATM   29  C   UNL     1      -7.752   6.785  63.859  1.00  0.00    -0.112 C  
HETATM   30  C   UNL     1      -7.915   7.864  62.827  1.00  0.00    -0.146 C  
HETATM   31  O   UNL     1      -7.244   5.700  63.651  1.00  0.00    -0.049 OA 
ENDBRANCH  28  29
ENDBRANCH  27  28
ENDBRANCH  25  27
ENDBRANCH   4  25
BRANCH   4  32
HETATM   32  O   UNL     1      -6.461   7.462  68.117  1.00  0.00    -0.042 OA 
BRANCH  32  33
HETATM   33  C   UNL     1      -5.669   7.500  67.004  1.00  0.00    -0.031 C  
HETATM   34  O   UNL     1      -5.314   6.521  66.367  1.00  0.00    -0.013 OA 
BRANCH  33  35
HETATM   35  C   UNL     1      -5.275   8.909  66.649  1.00  0.00    -0.038 C  
BRANCH  35  36
HETATM   36  C   UNL     1      -5.236   9.069  65.139  1.00  0.00    -0.037 C  
HETATM   37  C   UNL     1      -6.095  10.234  64.663  1.00  0.00    -0.125 C  
ENDBRANCH  35  36
ENDBRANCH  33  35
ENDBRANCH  32  33
ENDBRANCH   4  32
TORSDOF 8
ENDMDL
MODEL       66
REMARK 921   NORMALIZED FREE ENERGY PREDICTED BY IDOCK:   -4.35 KCAL/MOL
REMARK 922        TOTAL FREE ENERGY PREDICTED BY IDOCK:   -6.12 KCAL/MOL
REMARK 923 INTER-LIGAND FREE ENERGY PREDICTED BY IDOCK:   -5.95 KCAL/MOL
REMARK 924 INTRA-LIGAND FREE ENERGY PREDICTED BY IDOCK:   -0.18 KCAL/MOL
REMARK 927      BINDING AFFINITY PREDICTED BY RF-SCORE:    0.00 PKD
ROOT
HETATM    1  C   UNL     1      -9.471   8.998  68.549  1.00  0.00    -0.148 C  
HETATM    2  C   UNL     1     -10.424   9.534  67.645  1.00  0.00    -0.321 C  
HETATM    3  C   UNL     1     -10.871   8.563  68.671  1.00  0.00     0.014 C  
HETATM    4  C   UNL     1      -9.514   8.100  70.173  1.00  0.00    -0.167 C  
HETATM    5  C   UNL     1     -10.720   8.699  70.057  1.00  0.00    -0.233 C  
HETATM    6  C   UNL     1      -7.447   3.998  64.613  1.00  0.00    -0.072 C  
HETATM    7  C   UNL     1      -8.248   5.224  64.260  1.00  0.00    -0.132 C  
HETATM    8  C   UNL     1      -8.462   5.880  65.419  1.00  0.00    -0.153 C  
HETATM    9  F   UNL     1      -6.500   7.146  64.998  1.00  0.00    -0.038 F  
HETATM   10  C   UNL     1     -11.475   6.958  69.981  1.00  0.00    -0.328 C  
HETATM   11  C   UNL     1      -7.327   6.706  65.988  1.00  0.00    -0.076 C  
HETATM   12  C   UNL     1     -11.222   9.978  70.782  1.00  0.00    -0.428 C  
HETATM   13  C   UNL     1      -7.900   7.919  66.682  1.00  0.00    -0.102 C  
HETATM   14  O   UNL     1      -6.610   3.540  63.849  1.00  0.00    -0.035 OA 
HETATM   15  C   UNL     1     -10.618   5.860  68.921  1.00  0.00    -0.288 C  
HETATM   16  C   UNL     1      -7.786   3.337  65.929  1.00  0.00    -0.085 C  
HETATM   17  O   UNL     1      -9.770   5.029  69.716  1.00  0.00    -0.158 OA 
HETATM   18  C   UNL     1      -9.825   6.350  67.530  1.00  0.00    -0.123 C  
HETATM   19  C   UNL     1     -10.707   4.718  65.823  1.00  0.00    -0.220 C  
HETATM   20  C   UNL     1      -9.365   5.210  66.489  1.00  0.00    -0.142 C  
HETATM   21  H   UNL     1      -9.304   4.433  69.141  1.00  0.00     0.000 HD 
HETATM   22  C   UNL     1      -8.776   7.511  67.871  1.00  0.00    -0.124 C  
HETATM   23  F   UNL     1     -10.752   6.976  66.688  1.00  0.00    -0.351 F  
HETATM   24  C   UNL     1      -8.638   3.904  66.823  1.00  0.00    -0.107 C  
ENDROOT
BRANCH   4  25
HETATM   25  C   UNL     1      -9.768   7.720  71.810  1.00  0.00    -0.164 C  
HETATM   26  O   UNL     1     -10.421   8.399  72.622  1.00  0.00    -0.326 OA 
BRANCH  25  27
HETATM   27  C   UNL     1      -9.074   6.512  72.433  1.00  0.00    -0.133 C  
BRANCH  27  28
HETATM   28  O   UNL     1      -9.833   5.979  73.533  1.00  0.00    -0.157 OA 
BRANCH  28  29
HETATM   29  C   UNL     1     -10.561   4.874  73.225  1.00  0.00    -0.232 C  
HETATM   30  C   UNL     1      -9.677   3.709  72.882  1.00  0.00    -0.186 C  
HETATM   31  O   UNL     1     -11.776   4.845  73.219  1.00  0.00    -0.312 OA 
ENDBRANCH  28  29
ENDBRANCH  27  28
ENDBRANCH  25  27
ENDBRANCH   4  25
BRANCH   4  32
HETATM   32  O   UNL     1      -8.565   9.252  70.632  1.00  0.00    -0.202 OA 
BRANCH  32  33
HETATM   33  C   UNL     1      -7.210   9.086  70.582  1.00  0.00    -0.093 C  
HETATM   34  O   UNL     1      -6.635   8.011  70.671  1.00  0.00    -0.037 OA 
BRANCH  33  35
HETATM   35  C   UNL     1      -6.495  10.398  70.405  1.00  0.00    -0.125 C  
BRANCH  35  36
HETATM   36  C   UNL     1      -6.434  10.757  68.930  1.00  0.00    -0.047 C  
HETATM   37  C   UNL     1      -7.312  11.957  68.595  1.00  0.00    -0.115 C  
ENDBRANCH  35  36
ENDBRANCH  33  35
ENDBRANCH  32  33
ENDBRANCH   4  32
TORSDOF 8
ENDMDL
MODEL       67
REMARK 921   NORMALIZED FREE ENERGY PREDICTED BY IDOCK:   -4.31 KCAL/MOL
REMARK 922        TOTAL FREE ENERGY PREDICTED BY IDOCK:   -6.06 KCAL/MOL
REMARK 923 INTER-LIGAND FREE ENERGY PREDICTED BY IDOCK:   -6.55 KCAL/MOL
REMARK 924 INTRA-LIGAND FREE ENERGY PREDICTED BY IDOCK:    0.49 KCAL/MOL
REMARK 927      BINDING AFFINITY PREDICTED BY RF-SCORE:    0.00 PKD
ROOT
HETATM    1  C   UNL     1      -8.251   9.703  68.600  1.00  0.00    -0.105 C  
HETATM    2  C   UNL     1      -9.014   9.844  69.788  1.00  0.00    -0.242 C  
HETATM    3  C   UNL     1      -9.609   9.140  68.628  1.00  0.00    -0.157 C  
HETATM    4  C   UNL     1      -8.326   8.656  67.068  1.00  0.00    -0.106 C  
HETATM    5  C   UNL     1      -9.081   8.012  67.986  1.00  0.00    -0.130 C  
HETATM    6  C   UNL     1      -9.912  15.601  65.946  1.00  0.00    -0.351 C  
HETATM    7  C   UNL     1     -10.081  15.111  67.361  1.00  0.00    -0.229 C  
HETATM    8  C   UNL     1      -9.664  13.828  67.367  1.00  0.00    -0.235 C  
HETATM    9  F   UNL     1      -7.504  14.594  67.981  1.00  0.00    -0.097 F  
HETATM   10  C   UNL     1     -10.574   8.353  66.865  1.00  0.00    -0.285 C  
HETATM   11  C   UNL     1      -8.172  13.566  67.386  1.00  0.00    -0.181 C  
HETATM   12  C   UNL     1      -8.711   6.742  68.803  1.00  0.00    -0.125 C  
HETATM   13  C   UNL     1      -7.901  12.315  68.187  1.00  0.00    -0.148 C  
HETATM   14  O   UNL     1      -9.614  16.761  65.703  1.00  0.00    -0.527 OA 
HETATM   15  C   UNL     1     -10.639   9.992  66.252  1.00  0.00    -0.044 C  
HETATM   16  C   UNL     1     -10.198  14.596  64.855  1.00  0.00    -0.322 C  
HETATM   17  O   UNL     1     -10.133   9.998  64.915  1.00  0.00    -0.341 OA 
HETATM   18  C   UNL     1     -10.073  11.319  67.102  1.00  0.00    -0.192 C  
HETATM   19  C   UNL     1     -12.017  12.916  66.933  1.00  0.00    -0.402 C  
HETATM   20  C   UNL     1     -10.488  12.781  66.569  1.00  0.00    -0.276 C  
HETATM   21  H   UNL     1     -10.168  10.887  64.582  1.00  0.00     0.000 HD 
HETATM   22  C   UNL     1      -8.547  11.090  67.531  1.00  0.00    -0.128 C  
HETATM   23  F   UNL     1     -10.756  11.388  68.322  1.00  0.00    -0.183 F  
HETATM   24  C   UNL     1     -10.424  13.283  65.124  1.00  0.00    -0.346 C  
ENDROOT
BRANCH   4  25
HETATM   25  C   UNL     1      -8.326   7.323  66.013  1.00  0.00    -0.140 C  
HETATM   26  O   UNL     1      -8.720   7.328  64.835  1.00  0.00     0.085 OA 
BRANCH  25  27
HETATM   27  C   UNL     1      -7.922   5.943  66.524  1.00  0.00    -0.102 C  
BRANCH  27  28
HETATM   28  O   UNL     1      -8.649   4.900  65.849  1.00  0.00    -0.116 OA 
BRANCH  28  29
HETATM   29  C   UNL     1      -9.743   4.459  66.522  1.00  0.00    -0.215 C  
HETATM   30  C   UNL     1      -9.366   3.546  67.653  1.00  0.00    -0.250 C  
HETATM   31  O   UNL     1     -10.884   4.762  66.230  1.00  0.00    -0.219 OA 
ENDBRANCH  28  29
ENDBRANCH  27  28
ENDBRANCH  25  27
ENDBRANCH   4  25
BRANCH   4  32
HETATM   32  O   UNL     1      -6.861   8.289  67.463  1.00  0.00    -0.067 OA 
BRANCH  32  33
HETATM   33  C   UNL     1      -5.830   8.570  66.612  1.00  0.00    -0.048 C  
HETATM   34  O   UNL     1      -5.224   7.739  65.952  1.00  0.00    -0.025 OA 
BRANCH  33  35
HETATM   35  C   UNL     1      -5.519  10.042  66.580  1.00  0.00    -0.045 C  
BRANCH  35  36
HETATM   36  C   UNL     1      -5.425  10.518  65.140  1.00  0.00    -0.146 C  
HETATM   37  C   UNL     1      -6.693  10.215  64.351  1.00  0.00    -0.110 C  
ENDBRANCH  35  36
ENDBRANCH  33  35
ENDBRANCH  32  33
ENDBRANCH   4  32
TORSDOF 8
ENDMDL
MODEL       68
REMARK 921   NORMALIZED FREE ENERGY PREDICTED BY IDOCK:   -4.20 KCAL/MOL
REMARK 922        TOTAL FREE ENERGY PREDICTED BY IDOCK:   -5.91 KCAL/MOL
REMARK 923 INTER-LIGAND FREE ENERGY PREDICTED BY IDOCK:   -6.02 KCAL/MOL
REMARK 924 INTRA-LIGAND FREE ENERGY PREDICTED BY IDOCK:    0.11 KCAL/MOL
REMARK 927      BINDING AFFINITY PREDICTED BY RF-SCORE:    0.00 PKD
ROOT
HETATM    1  C   UNL     1     -10.308   9.477  70.796  1.00  0.00    -0.377 C  
HETATM    2  C   UNL     1     -11.367  10.204  70.195  1.00  0.00    -0.372 C  
HETATM    3  C   UNL     1     -11.377   8.724  70.124  1.00  0.00    -0.099 C  
HETATM    4  C   UNL     1     -10.007   7.721  71.321  1.00  0.00    -0.175 C  
HETATM    5  C   UNL     1     -11.349   7.844  71.214  1.00  0.00    -0.289 C  
HETATM    6  C   UNL     1      -6.156   9.760  65.574  1.00  0.00    -0.072 C  
HETATM    7  C   UNL     1      -7.402  10.562  65.845  1.00  0.00    -0.142 C  
HETATM    8  C   UNL     1      -7.923  10.073  66.990  1.00  0.00    -0.106 C  
HETATM    9  F   UNL     1      -6.704  11.723  68.182  1.00  0.00    -0.058 F  
HETATM   10  C   UNL     1     -11.259   6.595  69.788  1.00  0.00    -0.413 C  
HETATM   11  C   UNL     1      -7.287  10.496  68.298  1.00  0.00    -0.088 C  
HETATM   12  C   UNL     1     -12.388   7.981  72.363  1.00  0.00    -0.299 C  
HETATM   13  C   UNL     1      -8.358  10.594  69.358  1.00  0.00    -0.073 C  
HETATM   14  O   UNL     1      -5.177  10.260  65.040  1.00  0.00    -0.070 OA 
HETATM   15  C   UNL     1      -9.970   6.915  68.647  1.00  0.00    -0.149 C  
HETATM   16  C   UNL     1      -6.216   8.294  65.937  1.00  0.00    -0.048 C  
HETATM   17  O   UNL     1      -8.871   6.052  68.949  1.00  0.00    -0.120 OA 
HETATM   18  C   UNL     1      -9.426   8.455  68.276  1.00  0.00    -0.138 C  
HETATM   19  C   UNL     1      -9.441   8.421  65.755  1.00  0.00    -0.088 C  
HETATM   20  C   UNL     1      -8.476   8.622  66.986  1.00  0.00    -0.110 C  
HETATM   21  H   UNL     1      -8.172   6.226  68.330  1.00  0.00     0.000 HD 
HETATM   22  C   UNL     1      -9.006   9.229  69.613  1.00  0.00    -0.164 C  
HETATM   23  F   UNL     1     -10.504   9.199  67.783  1.00  0.00    -0.248 F  
HETATM   24  C   UNL     1      -7.261   7.763  66.625  1.00  0.00    -0.087 C  
ENDROOT
BRANCH   4  25
HETATM   25  C   UNL     1     -10.126   6.223  72.115  1.00  0.00    -0.182 C  
HETATM   26  O   UNL     1     -11.044   5.873  72.876  1.00  0.00    -0.255 OA 
BRANCH  25  27
HETATM   27  C   UNL     1      -8.986   5.213  72.017  1.00  0.00    -0.133 C  
BRANCH  27  28
HETATM   28  O   UNL     1      -9.423   3.891  72.381  1.00  0.00    -0.118 OA 
BRANCH  28  29
HETATM   29  C   UNL     1      -9.690   3.082  71.324  1.00  0.00    -0.138 C  
HETATM   30  C   UNL     1     -10.112   1.711  71.770  1.00  0.00    -0.205 C  
HETATM   31  O   UNL     1      -9.588   3.430  70.163  1.00  0.00    -0.181 OA 
ENDBRANCH  28  29
ENDBRANCH  27  28
ENDBRANCH  25  27
ENDBRANCH   4  25
BRANCH   4  32
HETATM   32  O   UNL     1      -9.678   8.377  72.698  1.00  0.00    -0.278 OA 
BRANCH  32  33
HETATM   33  C   UNL     1      -8.482   8.127  73.310  1.00  0.00    -0.230 C  
HETATM   34  O   UNL     1      -8.357   7.733  74.460  1.00  0.00    -0.218 OA 
BRANCH  33  35
HETATM   35  C   UNL     1      -7.320   8.396  72.393  1.00  0.00    -0.126 C  
BRANCH  35  36
HETATM   36  C   UNL     1      -6.023   7.985  73.070  1.00  0.00    -0.061 C  
HETATM   37  C   UNL     1      -5.331   9.162  73.747  1.00  0.00    -0.113 C  
ENDBRANCH  35  36
ENDBRANCH  33  35
ENDBRANCH  32  33
ENDBRANCH   4  32
TORSDOF 8
ENDMDL
MODEL       69
REMARK 921   NORMALIZED FREE ENERGY PREDICTED BY IDOCK:   -4.20 KCAL/MOL
REMARK 922        TOTAL FREE ENERGY PREDICTED BY IDOCK:   -5.90 KCAL/MOL
REMARK 923 INTER-LIGAND FREE ENERGY PREDICTED BY IDOCK:   -6.02 KCAL/MOL
REMARK 924 INTRA-LIGAND FREE ENERGY PREDICTED BY IDOCK:    0.12 KCAL/MOL
REMARK 927      BINDING AFFINITY PREDICTED BY RF-SCORE:    0.00 PKD
ROOT
HETATM    1  C   UNL     1      -9.915   8.376  71.855  1.00  0.00    -0.331 C  
HETATM    2  C   UNL     1     -11.319   8.576  71.798  1.00  0.00    -0.377 C  
HETATM    3  C   UNL     1     -10.785   7.195  71.746  1.00  0.00    -0.241 C  
HETATM    4  C   UNL     1      -8.771   6.954  72.194  1.00  0.00    -0.127 C  
HETATM    5  C   UNL     1      -9.967   6.589  72.709  1.00  0.00    -0.186 C  
HETATM    6  C   UNL     1      -8.794   9.120  65.315  1.00  0.00    -0.199 C  
HETATM    7  C   UNL     1     -10.015   9.483  66.120  1.00  0.00    -0.342 C  
HETATM    8  C   UNL     1      -9.775   9.059  67.378  1.00  0.00    -0.217 C  
HETATM    9  F   UNL     1      -8.912  11.211  67.878  1.00  0.00    -0.132 F  
HETATM   10  C   UNL     1     -10.006   5.212  71.403  1.00  0.00    -0.252 C  
HETATM   11  C   UNL     1      -8.869   9.901  68.251  1.00  0.00    -0.119 C  
HETATM   12  C   UNL     1     -10.393   6.566  74.203  1.00  0.00    -0.351 C  
HETATM   13  C   UNL     1      -9.345   9.815  69.682  1.00  0.00    -0.237 C  
HETATM   14  O   UNL     1      -8.405   9.821  64.392  1.00  0.00    -0.144 OA 
HETATM   15  C   UNL     1      -9.547   5.743  69.799  1.00  0.00    -0.157 C  
HETATM   16  C   UNL     1      -8.125   7.813  65.672  1.00  0.00    -0.129 C  
HETATM   17  O   UNL     1      -8.184   5.377  69.572  1.00  0.00    -0.094 OA 
HETATM   18  C   UNL     1      -9.849   7.283  69.215  1.00  0.00    -0.166 C  
HETATM   19  C   UNL     1     -10.902   6.795  66.976  1.00  0.00    -0.453 C  
HETATM   20  C   UNL     1      -9.671   7.530  67.633  1.00  0.00    -0.182 C  
HETATM   21  H   UNL     1      -7.934   5.665  68.702  1.00  0.00     0.000 HD 
HETATM   22  C   UNL     1      -9.244   8.380  70.211  1.00  0.00    -0.154 C  
HETATM   23  F   UNL     1     -11.229   7.512  69.263  1.00  0.00    -0.155 F  
HETATM   24  C   UNL     1      -8.492   7.089  66.762  1.00  0.00    -0.118 C  
ENDROOT
BRANCH   4  25
HETATM   25  C   UNL     1      -7.958   5.673  72.961  1.00  0.00    -0.104 C  
HETATM   26  O   UNL     1      -6.993   5.041  72.498  1.00  0.00    -0.070 OA 
BRANCH  25  27
HETATM   27  C   UNL     1      -8.471   5.128  74.291  1.00  0.00    -0.104 C  
BRANCH  27  28
HETATM   28  O   UNL     1      -8.127   3.741  74.458  1.00  0.00    -0.083 OA 
BRANCH  28  29
HETATM   29  C   UNL     1      -9.016   2.875  73.907  1.00  0.00    -0.075 C  
HETATM   30  C   UNL     1     -10.398   3.076  74.461  1.00  0.00    -0.216 C  
HETATM   31  O   UNL     1      -8.720   2.038  73.077  1.00  0.00    -0.062 OA 
ENDBRANCH  28  29
ENDBRANCH  27  28
ENDBRANCH  25  27
ENDBRANCH   4  25
BRANCH   4  32
HETATM   32  O   UNL     1      -8.178   7.918  73.268  1.00  0.00    -0.147 OA 
BRANCH  32  33
HETATM   33  C   UNL     1      -6.841   8.202  73.273  1.00  0.00    -0.108 C  
HETATM   34  O   UNL     1      -6.078   7.949  74.193  1.00  0.00    -0.082 OA 
BRANCH  33  35
HETATM   35  C   UNL     1      -6.410   8.874  71.997  1.00  0.00    -0.048 C  
BRANCH  35  36
HETATM   36  C   UNL     1      -5.239   8.121  71.388  1.00  0.00    -0.033 C  
HETATM   37  C   UNL     1      -5.558   7.594  69.995  1.00  0.00    -0.023 C  
ENDBRANCH  35  36
ENDBRANCH  33  35
ENDBRANCH  32  33
ENDBRANCH   4  32
TORSDOF 8
ENDMDL
MODEL       70
REMARK 921   NORMALIZED FREE ENERGY PREDICTED BY IDOCK:   -4.13 KCAL/MOL
REMARK 922        TOTAL FREE ENERGY PREDICTED BY IDOCK:   -5.81 KCAL/MOL
REMARK 923 INTER-LIGAND FREE ENERGY PREDICTED BY IDOCK:   -7.53 KCAL/MOL
REMARK 924 INTRA-LIGAND FREE ENERGY PREDICTED BY IDOCK:    1.73 KCAL/MOL
REMARK 927      BINDING AFFINITY PREDICTED BY RF-SCORE:    0.00 PKD
ROOT
HETATM    1  C   UNL     1      -9.039  10.819  66.469  1.00  0.00    -0.181 C  
HETATM    2  C   UNL     1      -9.616  10.085  65.401  1.00  0.00    -0.342 C  
HETATM    3  C   UNL     1     -10.503  10.707  66.411  1.00  0.00    -0.276 C  
HETATM    4  C   UNL     1      -9.626  12.054  67.726  1.00  0.00    -0.193 C  
HETATM    5  C   UNL     1     -10.553  12.068  66.742  1.00  0.00    -0.260 C  
HETATM    6  C   UNL     1      -8.021   5.593  70.499  1.00  0.00    -0.104 C  
HETATM    7  C   UNL     1      -8.336   5.613  69.025  1.00  0.00    -0.100 C  
HETATM    8  C   UNL     1      -8.529   6.908  68.700  1.00  0.00    -0.121 C  
HETATM    9  F   UNL     1      -6.231   7.045  68.123  1.00  0.00    -0.029 F  
HETATM   10  C   UNL     1     -11.782  11.380  68.014  1.00  0.00    -0.324 C  
HETATM   11  C   UNL     1      -7.307   7.784  68.517  1.00  0.00    -0.091 C  
HETATM   12  C   UNL     1     -10.751  13.141  65.635  1.00  0.00    -0.294 C  
HETATM   13  C   UNL     1      -7.587   8.801  67.436  1.00  0.00    -0.090 C  
HETATM   14  O   UNL     1      -7.251   4.773  70.976  1.00  0.00    -0.055 OA 
HETATM   15  C   UNL     1     -11.139  10.073  68.985  1.00  0.00    -0.180 C  
HETATM   16  C   UNL     1      -8.763   6.596  71.352  1.00  0.00    -0.129 C  
HETATM   17  O   UNL     1     -10.733  10.602  70.249  1.00  0.00    -0.453 OA 
HETATM   18  C   UNL     1     -10.014   8.970  68.419  1.00  0.00    -0.180 C  
HETATM   19  C   UNL     1     -11.057   6.772  69.082  1.00  0.00    -0.270 C  
HETATM   20  C   UNL     1      -9.760   7.643  69.297  1.00  0.00    -0.164 C  
HETATM   21  H   UNL     1     -10.384   9.892  70.776  1.00  0.00     0.000 HD 
HETATM   22  C   UNL     1      -8.731   9.735  67.842  1.00  0.00    -0.125 C  
HETATM   23  F   UNL     1     -10.550   8.325  67.298  1.00  0.00    -0.320 F  
HETATM   24  C   UNL     1      -9.535   7.573  70.809  1.00  0.00    -0.163 C  
ENDROOT
BRANCH   4  25
HETATM   25  C   UNL     1     -10.254  13.458  68.449  1.00  0.00    -0.251 C  
HETATM   26  O   UNL     1      -9.624  14.505  68.675  1.00  0.00    -0.214 OA 
BRANCH  25  27
HETATM   27  C   UNL     1     -11.680  13.467  68.993  1.00  0.00    -0.323 C  
BRANCH  27  28
HETATM   28  O   UNL     1     -11.695  13.405  70.430  1.00  0.00    -0.240 OA 
BRANCH  28  29
HETATM   29  C   UNL     1     -12.746  14.045  71.005  1.00  0.00    -0.361 C  
HETATM   30  C   UNL     1     -12.748  15.510  70.673  1.00  0.00    -0.487 C  
HETATM   31  O   UNL     1     -13.571  13.495  71.709  1.00  0.00    -0.380 OA 
ENDBRANCH  28  29
ENDBRANCH  27  28
ENDBRANCH  25  27
ENDBRANCH   4  25
BRANCH   4  32
HETATM   32  O   UNL     1      -8.460  12.921  67.156  1.00  0.00    -0.189 OA 
BRANCH  32  33
HETATM   33  C   UNL     1      -7.174  12.693  67.558  1.00  0.00    -0.155 C  
HETATM   34  O   UNL     1      -6.219  12.575  66.806  1.00  0.00    -0.146 OA 
BRANCH  33  35
HETATM   35  C   UNL     1      -7.068  12.601  69.056  1.00  0.00    -0.028 C  
BRANCH  35  36
HETATM   36  C   UNL     1      -6.244  13.762  69.588  1.00  0.00    -0.121 C  
HETATM   37  C   UNL     1      -5.596  13.440  70.928  1.00  0.00    -0.197 C  
ENDBRANCH  35  36
ENDBRANCH  33  35
ENDBRANCH  32  33
ENDBRANCH   4  32
TORSDOF 8
ENDMDL
MODEL       71
REMARK 921   NORMALIZED FREE ENERGY PREDICTED BY IDOCK:   -4.08 KCAL/MOL
REMARK 922        TOTAL FREE ENERGY PREDICTED BY IDOCK:   -5.72 KCAL/MOL
REMARK 923 INTER-LIGAND FREE ENERGY PREDICTED BY IDOCK:   -6.08 KCAL/MOL
REMARK 924 INTRA-LIGAND FREE ENERGY PREDICTED BY IDOCK:    0.35 KCAL/MOL
REMARK 927      BINDING AFFINITY PREDICTED BY RF-SCORE:    0.00 PKD
ROOT
HETATM    1  C   UNL     1      -9.412   8.382  67.025  1.00  0.00    -0.225 C  
HETATM    2  C   UNL     1     -10.660   7.726  66.864  1.00  0.00    -0.347 C  
HETATM    3  C   UNL     1     -10.582   8.926  67.729  1.00  0.00    -0.266 C  
HETATM    4  C   UNL     1      -8.829  10.036  67.635  1.00  0.00    -0.121 C  
HETATM    5  C   UNL     1     -10.139  10.197  67.341  1.00  0.00    -0.251 C  
HETATM    6  C   UNL     1      -7.208   4.556  72.035  1.00  0.00    -0.066 C  
HETATM    7  C   UNL     1      -8.354   4.318  71.087  1.00  0.00    -0.097 C  
HETATM    8  C   UNL     1      -8.438   5.420  70.314  1.00  0.00    -0.119 C  
HETATM    9  F   UNL     1      -7.025   4.352  68.737  1.00  0.00    -0.047 F  
HETATM   10  C   UNL     1     -10.423  10.505  69.192  1.00  0.00    -0.250 C  
HETATM   11  C   UNL     1      -7.447   5.570  69.180  1.00  0.00    -0.078 C  
HETATM   12  C   UNL     1     -10.756  10.902  66.100  1.00  0.00    -0.225 C  
HETATM   13  C   UNL     1      -8.121   6.271  68.025  1.00  0.00    -0.115 C  
HETATM   14  O   UNL     1      -6.494   3.641  72.418  1.00  0.00    -0.013 OA 
HETATM   15  C   UNL     1      -9.600   9.364  70.234  1.00  0.00    -0.249 C  
HETATM   16  C   UNL     1      -7.038   5.974  72.532  1.00  0.00    -0.084 C  
HETATM   17  O   UNL     1      -8.402   9.974  70.720  1.00  0.00    -0.354 OA 
HETATM   18  C   UNL     1      -9.321   7.767  69.816  1.00  0.00    -0.153 C  
HETATM   19  C   UNL     1     -10.149   6.540  71.857  1.00  0.00    -0.200 C  
HETATM   20  C   UNL     1      -8.854   6.759  70.983  1.00  0.00    -0.141 C  
HETATM   21  H   UNL     1      -7.956   9.355  71.286  1.00  0.00     0.000 HD 
HETATM   22  C   UNL     1      -8.549   7.690  68.415  1.00  0.00    -0.124 C  
HETATM   23  F   UNL     1     -10.552   7.155  69.553  1.00  0.00    -0.207 F  
HETATM   24  C   UNL     1      -7.762   7.007  72.026  1.00  0.00    -0.092 C  
ENDROOT
BRANCH   4  25
HETATM   25  C   UNL     1      -8.573  11.709  67.790  1.00  0.00    -0.144 C  
HETATM   26  O   UNL     1      -7.927  12.266  68.694  1.00  0.00    -0.124 OA 
BRANCH  25  27
HETATM   27  C   UNL     1      -9.257  12.680  66.831  1.00  0.00    -0.216 C  
BRANCH  27  28
HETATM   28  O   UNL     1      -9.589  13.918  67.486  1.00  0.00    -0.218 OA 
BRANCH  28  29
HETATM   29  C   UNL     1     -10.891  14.020  67.856  1.00  0.00    -0.244 C  
HETATM   30  C   UNL     1     -11.795  14.158  66.665  1.00  0.00    -0.447 C  
HETATM   31  O   UNL     1     -11.268  14.012  69.013  1.00  0.00    -0.254 OA 
ENDBRANCH  28  29
ENDBRANCH  27  28
ENDBRANCH  25  27
ENDBRANCH   4  25
BRANCH   4  32
HETATM   32  O   UNL     1      -8.121  10.099  66.246  1.00  0.00    -0.118 OA 
BRANCH  32  33
HETATM   33  C   UNL     1      -6.762   9.981  66.161  1.00  0.00    -0.100 C  
HETATM   34  O   UNL     1      -6.020   9.771  67.109  1.00  0.00    -0.051 OA 
BRANCH  33  35
HETATM   35  C   UNL     1      -6.276  10.143  64.746  1.00  0.00    -0.130 C  
BRANCH  35  36
HETATM   36  C   UNL     1      -6.227   8.788  64.059  1.00  0.00    -0.072 C  
HETATM   37  C   UNL     1      -7.615   8.288  63.675  1.00  0.00    -0.134 C  
ENDBRANCH  35  36
ENDBRANCH  33  35
ENDBRANCH  32  33
ENDBRANCH   4  32
TORSDOF 8
ENDMDL
MODEL       72
REMARK 921   NORMALIZED FREE ENERGY PREDICTED BY IDOCK:   -4.06 KCAL/MOL
REMARK 922        TOTAL FREE ENERGY PREDICTED BY IDOCK:   -5.70 KCAL/MOL
REMARK 923 INTER-LIGAND FREE ENERGY PREDICTED BY IDOCK:   -6.28 KCAL/MOL
REMARK 924 INTRA-LIGAND FREE ENERGY PREDICTED BY IDOCK:    0.58 KCAL/MOL
REMARK 927      BINDING AFFINITY PREDICTED BY RF-SCORE:    0.00 PKD
ROOT
HETATM    1  C   UNL     1     -10.677   6.923  70.791  1.00  0.00    -0.262 C  
HETATM    2  C   UNL     1     -11.759   6.458  70.000  1.00  0.00    -0.345 C  
HETATM    3  C   UNL     1     -10.376   6.305  69.492  1.00  0.00    -0.263 C  
HETATM    4  C   UNL     1      -8.838   6.671  70.839  1.00  0.00    -0.146 C  
HETATM    5  C   UNL     1      -9.330   5.628  70.133  1.00  0.00    -0.188 C  
HETATM    6  C   UNL     1     -10.837  13.238  68.627  1.00  0.00    -0.259 C  
HETATM    7  C   UNL     1     -11.874  12.155  68.483  1.00  0.00    -0.365 C  
HETATM    8  C   UNL     1     -11.332  11.041  69.018  1.00  0.00    -0.345 C  
HETATM    9  F   UNL     1     -12.342  11.614  71.087  1.00  0.00    -0.433 F  
HETATM   10  C   UNL     1      -8.396   6.320  68.633  1.00  0.00    -0.112 C  
HETATM   11  C   UNL     1     -11.315  10.914  70.527  1.00  0.00    -0.120 C  
HETATM   12  C   UNL     1      -9.516   4.159  70.608  1.00  0.00    -0.242 C  
HETATM   13  C   UNL     1     -11.490   9.461  70.902  1.00  0.00    -0.382 C  
HETATM   14  O   UNL     1     -11.152  14.403  68.819  1.00  0.00    -0.236 OA 
HETATM   15  C   UNL     1      -8.573   8.049  68.424  1.00  0.00    -0.127 C  
HETATM   16  C   UNL     1      -9.398  12.810  68.454  1.00  0.00    -0.143 C  
HETATM   17  O   UNL     1      -7.410   8.693  68.948  1.00  0.00    -0.078 OA 
HETATM   18  C   UNL     1      -9.956   8.894  68.850  1.00  0.00    -0.190 C  
HETATM   19  C   UNL     1     -10.407  10.243  66.768  1.00  0.00    -0.288 C  
HETATM   20  C   UNL     1     -10.107  10.403  68.308  1.00  0.00    -0.174 C  
HETATM   21  H   UNL     1      -7.506   9.631  68.835  1.00  0.00     0.000 HD 
HETATM   22  C   UNL     1     -10.323   8.615  70.383  1.00  0.00    -0.225 C  
HETATM   23  F   UNL     1     -11.039   8.357  68.144  1.00  0.00    -0.102 F  
HETATM   24  C   UNL     1      -9.042  11.503  68.347  1.00  0.00    -0.185 C  
ENDROOT
BRANCH   4  25
HETATM   25  C   UNL     1      -7.302   5.956  70.980  1.00  0.00    -0.082 C  
HETATM   26  O   UNL     1      -6.250   6.387  70.478  1.00  0.00    -0.036 OA 
BRANCH  25  27
HETATM   27  C   UNL     1      -7.146   4.609  71.679  1.00  0.00    -0.062 C  
BRANCH  27  28
HETATM   28  O   UNL     1      -5.853   4.485  72.298  1.00  0.00    -0.014 OA 
BRANCH  28  29
HETATM   29  C   UNL     1      -5.896   4.257  73.636  1.00  0.00    -0.008 C  
HETATM   30  C   UNL     1      -6.924   3.220  73.987  1.00  0.00    -0.045 C  
HETATM   31  O   UNL     1      -5.192   4.833  74.443  1.00  0.00    -0.008 OA 
ENDBRANCH  28  29
ENDBRANCH  27  28
ENDBRANCH  25  27
ENDBRANCH   4  25
BRANCH   4  32
HETATM   32  O   UNL     1      -9.110   6.280  72.325  1.00  0.00    -0.141 OA 
BRANCH  32  33
HETATM   33  C   UNL     1      -8.546   7.002  73.339  1.00  0.00    -0.131 C  
HETATM   34  O   UNL     1      -8.612   6.709  74.523  1.00  0.00    -0.141 OA 
BRANCH  33  35
HETATM   35  C   UNL     1      -7.824   8.217  72.823  1.00  0.00    -0.197 C  
BRANCH  35  36
HETATM   36  C   UNL     1      -6.465   8.333  73.492  1.00  0.00    -0.131 C  
HETATM   37  C   UNL     1      -5.467   9.102  72.635  1.00  0.00    -0.073 C  
ENDBRANCH  35  36
ENDBRANCH  33  35
ENDBRANCH  32  33
ENDBRANCH   4  32
TORSDOF 8
ENDMDL
MODEL       73
REMARK 921   NORMALIZED FREE ENERGY PREDICTED BY IDOCK:   -4.05 KCAL/MOL
REMARK 922        TOTAL FREE ENERGY PREDICTED BY IDOCK:   -5.68 KCAL/MOL
REMARK 923 INTER-LIGAND FREE ENERGY PREDICTED BY IDOCK:   -6.33 KCAL/MOL
REMARK 924 INTRA-LIGAND FREE ENERGY PREDICTED BY IDOCK:    0.65 KCAL/MOL
REMARK 927      BINDING AFFINITY PREDICTED BY RF-SCORE:    0.00 PKD
ROOT
HETATM    1  C   UNL     1      -7.540   8.153  69.380  1.00  0.00    -0.101 C  
HETATM    2  C   UNL     1      -6.571   9.076  69.851  1.00  0.00    -0.042 C  
HETATM    3  C   UNL     1      -7.851   8.937  70.584  1.00  0.00    -0.124 C  
HETATM    4  C   UNL     1      -9.059   7.331  70.060  1.00  0.00    -0.148 C  
HETATM    5  C   UNL     1      -8.362   7.756  71.138  1.00  0.00    -0.112 C  
HETATM    6  C   UNL     1     -10.428  12.284  65.000  1.00  0.00    -0.290 C  
HETATM    7  C   UNL     1      -9.105  12.419  65.707  1.00  0.00     0.166 C  
HETATM    8  C   UNL     1      -9.017  11.365  66.545  1.00  0.00    -0.192 C  
HETATM    9  F   UNL     1      -7.885  10.173  64.834  1.00  0.00    -0.129 F  
HETATM   10  C   UNL     1      -9.807   8.933  71.496  1.00  0.00    -0.384 C  
HETATM   11  C   UNL     1      -8.640  10.020  65.958  1.00  0.00    -0.138 C  
HETATM   12  C   UNL     1      -7.498   6.903  72.110  1.00  0.00    -0.091 C  
HETATM   13  C   UNL     1      -7.816   9.256  66.966  1.00  0.00    -0.098 C  
HETATM   14  O   UNL     1     -10.574  12.647  63.842  1.00  0.00    -0.404 OA 
HETATM   15  C   UNL     1     -10.393   9.785  70.083  1.00  0.00    -0.282 C  
HETATM   16  C   UNL     1     -11.572  11.740  65.826  1.00  0.00    -0.194 C  
HETATM   17  O   UNL     1     -11.566   9.123  69.606  1.00  0.00    -0.428 OA 
HETATM   18  C   UNL     1      -9.411  10.237  68.804  1.00  0.00    -0.166 C  
HETATM   19  C   UNL     1     -10.022  12.665  68.508  1.00  0.00    -0.166 C  
HETATM   20  C   UNL     1     -10.006  11.288  67.739  1.00  0.00    -0.193 C  
HETATM   21  H   UNL     1     -11.884   9.585  68.840  1.00  0.00     0.000 HD 
HETATM   22  C   UNL     1      -8.627   8.963  68.232  1.00  0.00    -0.134 C  
HETATM   23  F   UNL     1      -8.393  11.062  69.297  1.00  0.00    -0.145 F  
HETATM   24  C   UNL     1     -11.385  11.239  67.075  1.00  0.00    -0.262 C  
ENDROOT
BRANCH   4  25
HETATM   25  C   UNL     1     -10.102   6.381  71.008  1.00  0.00    -0.182 C  
HETATM   26  O   UNL     1     -11.324   6.560  71.149  1.00  0.00    -0.284 OA 
BRANCH  25  27
HETATM   27  C   UNL     1      -9.540   5.257  71.874  1.00  0.00    -0.152 C  
BRANCH  27  28
HETATM   28  O   UNL     1     -10.179   5.218  73.163  1.00  0.00    -0.170 OA 
BRANCH  28  29
HETATM   29  C   UNL     1     -11.080   4.213  73.307  1.00  0.00    -0.222 C  
HETATM   30  C   UNL     1     -10.462   2.872  73.028  1.00  0.00    -0.252 C  
HETATM   31  O   UNL     1     -12.244   4.387  73.614  1.00  0.00     0.126 OA 
ENDBRANCH  28  29
ENDBRANCH  27  28
ENDBRANCH  25  27
ENDBRANCH   4  25
BRANCH   4  32
HETATM   32  O   UNL     1      -8.326   6.022  69.630  1.00  0.00    -0.115 OA 
BRANCH  32  33
HETATM   33  C   UNL     1      -8.500   5.519  68.371  1.00  0.00    -0.101 C  
HETATM   34  O   UNL     1      -7.640   5.497  67.505  1.00  0.00    -0.086 OA 
BRANCH  33  35
HETATM   35  C   UNL     1      -9.894   4.989  68.172  1.00  0.00    -0.203 C  
BRANCH  35  36
HETATM   36  C   UNL     1     -10.425   5.434  66.819  1.00  0.00    -0.347 C  
HETATM   37  C   UNL     1     -11.122   6.787  66.892  1.00  0.00    -0.283 C  
ENDBRANCH  35  36
ENDBRANCH  33  35
ENDBRANCH  32  33
ENDBRANCH   4  32
TORSDOF 8
ENDMDL
MODEL       74
REMARK 921   NORMALIZED FREE ENERGY PREDICTED BY IDOCK:   -4.01 KCAL/MOL
REMARK 922        TOTAL FREE ENERGY PREDICTED BY IDOCK:   -5.62 KCAL/MOL
REMARK 923 INTER-LIGAND FREE ENERGY PREDICTED BY IDOCK:   -5.83 KCAL/MOL
REMARK 924 INTRA-LIGAND FREE ENERGY PREDICTED BY IDOCK:    0.20 KCAL/MOL
REMARK 927      BINDING AFFINITY PREDICTED BY RF-SCORE:    0.00 PKD
ROOT
HETATM    1  C   UNL     1      -9.965   6.707  68.436  1.00  0.00    -0.146 C  
HETATM    2  C   UNL     1     -11.098   6.418  67.632  1.00  0.00    -0.388 C  
HETATM    3  C   UNL     1      -9.777   6.589  66.983  1.00  0.00    -0.188 C  
HETATM    4  C   UNL     1      -8.121   6.649  68.233  1.00  0.00    -0.111 C  
HETATM    5  C   UNL     1      -8.618   5.852  67.261  1.00  0.00    -0.106 C  
HETATM    6  C   UNL     1     -10.820  13.328  68.571  1.00  0.00    -0.265 C  
HETATM    7  C   UNL     1     -11.789  12.251  68.159  1.00  0.00    -0.372 C  
HETATM    8  C   UNL     1     -11.110  11.087  68.234  1.00  0.00    -0.316 C  
HETATM    9  F   UNL     1     -11.907  10.833  70.454  1.00  0.00    -0.317 F  
HETATM   10  C   UNL     1      -7.919   7.096  66.010  1.00  0.00    -0.112 C  
HETATM   11  C   UNL     1     -10.907  10.470  69.602  1.00  0.00    -0.274 C  
HETATM   12  C   UNL     1      -8.645   4.299  67.223  1.00  0.00    -0.105 C  
HETATM   13  C   UNL     1     -10.934   8.966  69.474  1.00  0.00    -0.097 C  
HETATM   14  O   UNL     1     -11.190  14.324  69.175  1.00  0.00    -0.249 OA 
HETATM   15  C   UNL     1      -8.240   8.768  66.418  1.00  0.00    -0.111 C  
HETATM   16  C   UNL     1      -9.385  13.136  68.137  1.00  0.00    -0.217 C  
HETATM   17  O   UNL     1      -7.070   9.321  67.025  1.00  0.00    -0.084 OA 
HETATM   18  C   UNL     1      -9.617   9.273  67.225  1.00  0.00    -0.155 C  
HETATM   19  C   UNL     1     -10.405  11.179  65.774  1.00  0.00    -0.316 C  
HETATM   20  C   UNL     1      -9.937  10.852  67.245  1.00  0.00    -0.216 C  
HETATM   21  H   UNL     1      -7.244  10.228  67.247  1.00  0.00     0.000 HD 
HETATM   22  C   UNL     1      -9.780   8.466  68.599  1.00  0.00    -0.171 C  
HETATM   23  F   UNL     1     -10.736   8.889  66.477  1.00  0.00    -0.296 F  
HETATM   24  C   UNL     1      -8.954  11.983  67.561  1.00  0.00    -0.174 C  
ENDROOT
BRANCH   4  25
HETATM   25  C   UNL     1      -6.533   6.094  67.988  1.00  0.00    -0.049 C  
HETATM   26  O   UNL     1      -5.559   6.795  67.664  1.00  0.00    -0.014 OA 
BRANCH  25  27
HETATM   27  C   UNL     1      -6.226   4.601  68.047  1.00  0.00    -0.036 C  
BRANCH  27  28
HETATM   28  O   UNL     1      -5.306   4.295  69.111  1.00  0.00    -0.010 OA 
BRANCH  28  29
HETATM   29  C   UNL     1      -5.430   3.038  69.610  1.00  0.00    -0.016 C  
HETATM   30  C   UNL     1      -5.559   3.048  71.106  1.00  0.00    -0.012 C  
HETATM   31  O   UNL     1      -5.424   2.034  68.924  1.00  0.00    -0.012 OA 
ENDBRANCH  28  29
ENDBRANCH  27  28
ENDBRANCH  25  27
ENDBRANCH   4  25
BRANCH   4  32
HETATM   32  O   UNL     1      -8.186   5.762  69.516  1.00  0.00    -0.105 OA 
BRANCH  32  33
HETATM   33  C   UNL     1      -7.839   6.284  70.731  1.00  0.00    -0.106 C  
HETATM   34  O   UNL     1      -6.925   7.073  70.915  1.00  0.00    -0.059 OA 
BRANCH  33  35
HETATM   35  C   UNL     1      -8.724   5.766  71.832  1.00  0.00    -0.135 C  
BRANCH  35  36
HETATM   36  C   UNL     1      -9.854   4.939  71.241  1.00  0.00    -0.253 C  
HETATM   37  C   UNL     1      -9.704   3.456  71.556  1.00  0.00    -0.233 C  
ENDBRANCH  35  36
ENDBRANCH  33  35
ENDBRANCH  32  33
ENDBRANCH   4  32
TORSDOF 8
ENDMDL
MODEL       75
REMARK 921   NORMALIZED FREE ENERGY PREDICTED BY IDOCK:   -3.80 KCAL/MOL
REMARK 922        TOTAL FREE ENERGY PREDICTED BY IDOCK:   -5.32 KCAL/MOL
REMARK 923 INTER-LIGAND FREE ENERGY PREDICTED BY IDOCK:   -5.78 KCAL/MOL
REMARK 924 INTRA-LIGAND FREE ENERGY PREDICTED BY IDOCK:    0.46 KCAL/MOL
REMARK 927      BINDING AFFINITY PREDICTED BY RF-SCORE:    0.00 PKD
ROOT
HETATM    1  C   UNL     1      -7.493   9.641  68.778  1.00  0.00    -0.075 C  
HETATM    2  C   UNL     1      -7.375  10.055  70.130  1.00  0.00    -0.171 C  
HETATM    3  C   UNL     1      -8.483   9.150  69.747  1.00  0.00    -0.140 C  
HETATM    4  C   UNL     1      -8.388   8.303  67.853  1.00  0.00    -0.128 C  
HETATM    5  C   UNL     1      -8.352   7.894  69.141  1.00  0.00    -0.133 C  
HETATM    6  C   UNL     1     -11.004  14.923  66.688  1.00  0.00    -0.325 C  
HETATM    7  C   UNL     1     -10.219  14.744  67.962  1.00  0.00    -0.226 C  
HETATM    8  C   UNL     1      -9.762  13.474  67.946  1.00  0.00    -0.225 C  
HETATM    9  F   UNL     1      -7.769  14.265  66.931  1.00  0.00    -0.162 F  
HETATM   10  C   UNL     1     -10.244   8.054  69.149  1.00  0.00    -0.221 C  
HETATM   11  C   UNL     1      -8.557  13.163  67.083  1.00  0.00    -0.192 C  
HETATM   12  C   UNL     1      -7.435   6.808  69.770  1.00  0.00    -0.091 C  
HETATM   13  C   UNL     1      -7.730  12.095  67.759  1.00  0.00    -0.139 C  
HETATM   14  O   UNL     1     -11.034  15.994  66.101  1.00  0.00    -0.225 OA 
HETATM   15  C   UNL     1     -10.833   9.531  68.417  1.00  0.00    -0.137 C  
HETATM   16  C   UNL     1     -11.799  13.725  66.221  1.00  0.00    -0.426 C  
HETATM   17  O   UNL     1     -11.258   9.241  67.084  1.00  0.00    -0.217 OA 
HETATM   18  C   UNL     1      -9.998  10.982  68.466  1.00  0.00    -0.193 C  
HETATM   19  C   UNL     1     -11.781  12.585  69.246  1.00  0.00    -0.379 C  
HETATM   20  C   UNL     1     -10.794  12.318  68.045  1.00  0.00    -0.253 C  
HETATM   21  H   UNL     1     -11.577  10.042  66.686  1.00  0.00     0.000 HD 
HETATM   22  C   UNL     1      -8.517  10.788  67.889  1.00  0.00    -0.122 C  
HETATM   23  F   UNL     1      -9.791  11.330  69.806  1.00  0.00     0.066 F  
HETATM   24  C   UNL     1     -11.681  12.507  66.812  1.00  0.00    -0.453 C  
ENDROOT
BRANCH   4  25
HETATM   25  C   UNL     1      -8.905   6.782  67.298  1.00  0.00    -0.118 C  
HETATM   26  O   UNL     1      -9.799   6.578  66.459  1.00  0.00    -0.167 OA 
BRANCH  25  27
HETATM   27  C   UNL     1      -8.340   5.508  67.920  1.00  0.00    -0.099 C  
BRANCH  27  28
HETATM   28  O   UNL     1      -9.343   4.480  68.014  1.00  0.00    -0.125 OA 
BRANCH  28  29
HETATM   29  C   UNL     1      -8.912   3.333  68.599  1.00  0.00    -0.132 C  
HETATM   30  C   UNL     1      -9.077   3.378  70.091  1.00  0.00    -0.203 C  
HETATM   31  O   UNL     1      -8.441   2.395  67.984  1.00  0.00    -0.069 OA 
ENDBRANCH  28  29
ENDBRANCH  27  28
ENDBRANCH  25  27
ENDBRANCH   4  25
BRANCH   4  32
HETATM   32  O   UNL     1      -6.962   7.969  67.313  1.00  0.00    -0.071 OA 
BRANCH  32  33
HETATM   33  C   UNL     1      -6.702   8.039  65.973  1.00  0.00    -0.053 C  
HETATM   34  O   UNL     1      -7.236   8.819  65.199  1.00  0.00    -0.085 OA 
BRANCH  33  35
HETATM   35  C   UNL     1      -5.667   7.030  65.554  1.00  0.00    -0.032 C  
BRANCH  35  36
HETATM   36  C   UNL     1      -5.627   6.932  64.038  1.00  0.00    -0.032 C  
HETATM   37  C   UNL     1      -6.653   5.942  63.499  1.00  0.00    -0.033 C  
ENDBRANCH  35  36
ENDBRANCH  33  35
ENDBRANCH  32  33
ENDBRANCH   4  32
TORSDOF 8
ENDMDL
MODEL       76
REMARK 921   NORMALIZED FREE ENERGY PREDICTED BY IDOCK:   -3.76 KCAL/MOL
REMARK 922        TOTAL FREE ENERGY PREDICTED BY IDOCK:   -5.25 KCAL/MOL
REMARK 923 INTER-LIGAND FREE ENERGY PREDICTED BY IDOCK:   -5.75 KCAL/MOL
REMARK 924 INTRA-LIGAND FREE ENERGY PREDICTED BY IDOCK:    0.50 KCAL/MOL
REMARK 927      BINDING AFFINITY PREDICTED BY RF-SCORE:    0.00 PKD
ROOT
HETATM    1  C   UNL     1      -7.587   7.817  70.860  1.00  0.00    -0.079 C  
HETATM    2  C   UNL     1      -7.500   8.636  72.015  1.00  0.00    -0.078 C  
HETATM    3  C   UNL     1      -8.704   7.796  71.816  1.00  0.00    -0.147 C  
HETATM    4  C   UNL     1      -8.609   6.367  70.311  1.00  0.00    -0.135 C  
HETATM    5  C   UNL     1      -8.722   6.404  71.658  1.00  0.00    -0.133 C  
HETATM    6  C   UNL     1     -10.114  12.497  66.822  1.00  0.00    -0.223 C  
HETATM    7  C   UNL     1      -9.454  12.654  68.167  1.00  0.00    -0.218 C  
HETATM    8  C   UNL     1      -9.193  11.405  68.606  1.00  0.00    -0.149 C  
HETATM    9  F   UNL     1      -7.039  11.572  67.624  1.00  0.00    -0.080 F  
HETATM   10  C   UNL     1     -10.564   6.784  71.401  1.00  0.00    -0.247 C  
HETATM   11  C   UNL     1      -7.992  10.685  68.028  1.00  0.00    -0.107 C  
HETATM   12  C   UNL     1      -8.024   5.484  72.698  1.00  0.00    -0.103 C  
HETATM   13  C   UNL     1      -7.383   9.808  69.096  1.00  0.00    -0.079 C  
HETATM   14  O   UNL     1      -9.943  13.311  65.926  1.00  0.00    -0.285 OA 
HETATM   15  C   UNL     1     -10.873   7.997  70.177  1.00  0.00    -0.242 C  
HETATM   16  C   UNL     1     -11.047  11.317  66.672  1.00  0.00    -0.299 C  
HETATM   17  O   UNL     1     -11.246   7.336  68.966  1.00  0.00    -0.450 OA 
HETATM   18  C   UNL     1      -9.835   9.272  69.858  1.00  0.00    -0.199 C  
HETATM   19  C   UNL     1     -11.406  11.244  69.883  1.00  0.00    -0.329 C  
HETATM   20  C   UNL     1     -10.391  10.480  68.949  1.00  0.00    -0.226 C  
HETATM   21  H   UNL     1     -11.413   7.995  68.301  1.00  0.00     0.000 HD 
HETATM   22  C   UNL     1      -8.365   8.721  69.543  1.00  0.00    -0.119 C  
HETATM   23  F   UNL     1      -9.670  10.014  71.033  1.00  0.00    -0.135 F  
HETATM   24  C   UNL     1     -11.154  10.356  67.627  1.00  0.00    -0.361 C  
ENDROOT
BRANCH   4  25
HETATM   25  C   UNL     1      -9.309   4.822  70.212  1.00  0.00    -0.151 C  
HETATM   26  O   UNL     1     -10.179   4.468  69.398  1.00  0.00    -0.148 OA 
BRANCH  25  27
HETATM   27  C   UNL     1      -8.967   3.758  71.251  1.00  0.00    -0.104 C  
BRANCH  27  28
HETATM   28  O   UNL     1     -10.146   3.069  71.706  1.00  0.00    -0.152 OA 
BRANCH  28  29
HETATM   29  C   UNL     1      -9.944   2.276  72.791  1.00  0.00    -0.129 C  
HETATM   30  C   UNL     1     -11.211   1.592  73.217  1.00  0.00    -0.275 C  
HETATM   31  O   UNL     1      -8.870   2.152  73.347  1.00  0.00    -0.068 OA 
ENDBRANCH  28  29
ENDBRANCH  27  28
ENDBRANCH  25  27
ENDBRANCH   4  25
BRANCH   4  32
HETATM   32  O   UNL     1      -7.216   5.705  70.069  1.00  0.00    -0.064 OA 
BRANCH  32  33
HETATM   33  C   UNL     1      -6.805   5.414  68.799  1.00  0.00    -0.055 C  
HETATM   34  O   UNL     1      -7.124   4.413  68.176  1.00  0.00    -0.058 OA 
BRANCH  33  35
HETATM   35  C   UNL     1      -5.900   6.482  68.248  1.00  0.00    -0.020 C  
BRANCH  35  36
HETATM   36  C   UNL     1      -6.000   6.512  66.732  1.00  0.00    -0.025 C  
HETATM   37  C   UNL     1      -7.166   7.367  66.250  1.00  0.00    -0.078 C  
ENDBRANCH  35  36
ENDBRANCH  33  35
ENDBRANCH  32  33
ENDBRANCH   4  32
TORSDOF 8
ENDMDL
MODEL       77
REMARK 921   NORMALIZED FREE ENERGY PREDICTED BY IDOCK:   -3.71 KCAL/MOL
REMARK 922        TOTAL FREE ENERGY PREDICTED BY IDOCK:   -5.19 KCAL/MOL
REMARK 923 INTER-LIGAND FREE ENERGY PREDICTED BY IDOCK:   -5.59 KCAL/MOL
REMARK 924 INTRA-LIGAND FREE ENERGY PREDICTED BY IDOCK:    0.41 KCAL/MOL
REMARK 927      BINDING AFFINITY PREDICTED BY RF-SCORE:    0.00 PKD
ROOT
HETATM    1  C   UNL     1      -8.133  10.203  67.019  1.00  0.00    -0.117 C  
HETATM    2  C   UNL     1      -7.427  10.337  65.795  1.00  0.00    -0.144 C  
HETATM    3  C   UNL     1      -6.673  10.364  67.070  1.00  0.00    -0.080 C  
HETATM    4  C   UNL     1      -7.708   9.807  68.782  1.00  0.00    -0.081 C  
HETATM    5  C   UNL     1      -6.665   9.360  68.047  1.00  0.00    -0.063 C  
HETATM    6  C   UNL     1      -9.648  16.670  67.709  1.00  0.00    -0.236 C  
HETATM    7  C   UNL     1      -9.151  15.932  66.493  1.00  0.00    -0.320 C  
HETATM    8  C   UNL     1      -8.919  14.664  66.891  1.00  0.00    -0.275 C  
HETATM    9  F   UNL     1     -11.126  14.111  66.219  1.00  0.00    -0.303 F  
HETATM   10  C   UNL     1      -5.605  10.670  68.920  1.00  0.00    -0.040 C  
HETATM   11  C   UNL     1     -10.109  13.739  67.047  1.00  0.00    -0.256 C  
HETATM   12  C   UNL     1      -6.330   7.891  67.664  1.00  0.00    -0.052 C  
HETATM   13  C   UNL     1      -9.695  12.337  66.668  1.00  0.00    -0.229 C  
HETATM   14  O   UNL     1     -10.473  17.568  67.619  1.00  0.00    -0.349 OA 
HETATM   15  C   UNL     1      -6.364  12.244  69.019  1.00  0.00    -0.088 C  
HETATM   16  C   UNL     1      -9.019  16.281  69.027  1.00  0.00    -0.254 C  
HETATM   17  O   UNL     1      -6.925  12.398  70.325  1.00  0.00    -0.122 OA 
HETATM   18  C   UNL     1      -7.410  12.840  67.855  1.00  0.00    -0.120 C  
HETATM   19  C   UNL     1      -6.459  15.134  67.421  1.00  0.00    -0.050 C  
HETATM   20  C   UNL     1      -7.772  14.409  67.906  1.00  0.00    -0.152 C  
HETATM   21  H   UNL     1      -7.338  13.252  70.378  1.00  0.00     0.000 HD 
HETATM   22  C   UNL     1      -8.610  11.808  67.611  1.00  0.00    -0.153 C  
HETATM   23  F   UNL     1      -6.739  12.867  66.627  1.00  0.00     0.162 F  
HETATM   24  C   UNL     1      -8.185  15.215  69.141  1.00  0.00    -0.214 C  
ENDROOT
BRANCH   4  25
HETATM   25  C   UNL     1      -7.174   9.000  70.180  1.00  0.00    -0.062 C  
HETATM   26  O   UNL     1      -6.822   9.540  71.242  1.00  0.00    -0.281 OA 
BRANCH  25  27
HETATM   27  C   UNL     1      -6.983   7.486  70.164  1.00  0.00    -0.059 C  
BRANCH  27  28
HETATM   28  O   UNL     1      -7.587   6.868  71.314  1.00  0.00    -0.085 OA 
BRANCH  28  29
HETATM   29  C   UNL     1      -6.719   6.172  72.093  1.00  0.00    -0.068 C  
HETATM   30  C   UNL     1      -5.372   6.045  71.441  1.00  0.00    -0.018 C  
HETATM   31  O   UNL     1      -7.008   5.704  73.178  1.00  0.00    -0.077 OA 
ENDBRANCH  28  29
ENDBRANCH  27  28
ENDBRANCH  25  27
ENDBRANCH   4  25
BRANCH   4  32
HETATM   32  O   UNL     1      -8.793   8.699  68.608  1.00  0.00    -0.140 OA 
BRANCH  32  33
HETATM   33  C   UNL     1      -9.976   8.784  69.286  1.00  0.00    -0.194 C  
HETATM   34  O   UNL     1     -10.522   9.828  69.607  1.00  0.00    -0.210 OA 
BRANCH  33  35
HETATM   35  C   UNL     1     -10.537   7.423  69.599  1.00  0.00    -0.243 C  
BRANCH  35  36
HETATM   36  C   UNL     1     -10.949   7.359  71.060  1.00  0.00    -0.268 C  
HETATM   37  C   UNL     1     -12.449   7.561  71.243  1.00  0.00    -0.354 C  
ENDBRANCH  35  36
ENDBRANCH  33  35
ENDBRANCH  32  33
ENDBRANCH   4  32
TORSDOF 8
ENDMDL
MODEL       78
REMARK 921   NORMALIZED FREE ENERGY PREDICTED BY IDOCK:   -3.69 KCAL/MOL
REMARK 922        TOTAL FREE ENERGY PREDICTED BY IDOCK:   -5.16 KCAL/MOL
REMARK 923 INTER-LIGAND FREE ENERGY PREDICTED BY IDOCK:   -6.16 KCAL/MOL
REMARK 924 INTRA-LIGAND FREE ENERGY PREDICTED BY IDOCK:    1.00 KCAL/MOL
REMARK 927      BINDING AFFINITY PREDICTED BY RF-SCORE:    0.00 PKD
ROOT
HETATM    1  C   UNL     1      -7.014   9.380  68.148  1.00  0.00    -0.075 C  
HETATM    2  C   UNL     1      -5.910   9.529  67.269  1.00  0.00    -0.045 C  
HETATM    3  C   UNL     1      -7.253   9.964  66.820  1.00  0.00    -0.091 C  
HETATM    4  C   UNL     1      -8.740  10.054  68.268  1.00  0.00    -0.119 C  
HETATM    5  C   UNL     1      -8.072  10.906  67.458  1.00  0.00    -0.116 C  
HETATM    6  C   UNL     1      -8.439   3.072  66.486  1.00  0.00    -0.106 C  
HETATM    7  C   UNL     1      -7.195   3.873  66.204  1.00  0.00    -0.068 C  
HETATM    8  C   UNL     1      -7.433   5.115  66.677  1.00  0.00    -0.087 C  
HETATM    9  F   UNL     1      -6.442   4.461  68.730  1.00  0.00    -0.032 F  
HETATM   10  C   UNL     1      -9.238  10.351  66.066  1.00  0.00    -0.200 C  
HETATM   11  C   UNL     1      -7.318   5.341  68.170  1.00  0.00    -0.072 C  
HETATM   12  C   UNL     1      -7.526  12.319  67.805  1.00  0.00    -0.126 C  
HETATM   13  C   UNL     1      -6.794   6.735  68.418  1.00  0.00    -0.074 C  
HETATM   14  O   UNL     1      -8.384   1.880  66.754  1.00  0.00    -0.079 OA 
HETATM   15  C   UNL     1      -9.473   8.618  65.987  1.00  0.00    -0.208 C  
HETATM   16  C   UNL     1      -9.751   3.809  66.352  1.00  0.00    -0.142 C  
HETATM   17  O   UNL     1     -10.714   8.298  66.618  1.00  0.00    -0.299 OA 
HETATM   18  C   UNL     1      -8.293   7.507  66.408  1.00  0.00    -0.126 C  
HETATM   19  C   UNL     1      -8.301   5.957  64.419  1.00  0.00    -0.048 C  
HETATM   20  C   UNL     1      -8.525   5.971  65.981  1.00  0.00    -0.139 C  
HETATM   21  H   UNL     1     -10.841   7.357  66.575  1.00  0.00     0.000 HD 
HETATM   22  C   UNL     1      -7.770   7.793  67.894  1.00  0.00    -0.122 C  
HETATM   23  F   UNL     1      -7.166   7.731  65.608  1.00  0.00    -0.063 F  
HETATM   24  C   UNL     1      -9.807   5.153  66.160  1.00  0.00    -0.204 C  
ENDROOT
BRANCH   4  25
HETATM   25  C   UNL     1     -10.060  11.112  68.429  1.00  0.00    -0.184 C  
HETATM   26  O   UNL     1     -10.044  12.335  68.211  1.00  0.00    -0.209 OA 
BRANCH  25  27
HETATM   27  C   UNL     1     -11.385  10.603  68.992  1.00  0.00    -0.277 C  
BRANCH  27  28
HETATM   28  O   UNL     1     -11.922  11.509  69.972  1.00  0.00    -0.312 OA 
BRANCH  28  29
HETATM   29  C   UNL     1     -12.741  10.923  70.883  1.00  0.00    -0.370 C  
HETATM   30  C   UNL     1     -13.178  11.897  71.940  1.00  0.00    -0.467 C  
HETATM   31  O   UNL     1     -13.066   9.752  70.845  1.00  0.00    -0.312 OA 
ENDBRANCH  28  29
ENDBRANCH  27  28
ENDBRANCH  25  27
ENDBRANCH   4  25
BRANCH   4  32
HETATM   32  O   UNL     1      -8.287  10.468  69.703  1.00  0.00    -0.119 OA 
BRANCH  32  33
HETATM   33  C   UNL     1      -8.326   9.560  70.724  1.00  0.00    -0.029 C  
HETATM   34  O   UNL     1      -7.412   9.353  71.508  1.00  0.00    -0.337 OA 
BRANCH  33  35
HETATM   35  C   UNL     1      -9.643   8.833  70.773  1.00  0.00    -0.256 C  
BRANCH  35  36
HETATM   36  C   UNL     1      -9.593   7.747  71.835  1.00  0.00    -0.210 C  
HETATM   37  C   UNL     1     -10.755   7.851  72.816  1.00  0.00    -0.435 C  
ENDBRANCH  35  36
ENDBRANCH  33  35
ENDBRANCH  32  33
ENDBRANCH   4  32
TORSDOF 8
ENDMDL
MODEL       79
REMARK 921   NORMALIZED FREE ENERGY PREDICTED BY IDOCK:   -3.58 KCAL/MOL
REMARK 922        TOTAL FREE ENERGY PREDICTED BY IDOCK:   -5.00 KCAL/MOL
REMARK 923 INTER-LIGAND FREE ENERGY PREDICTED BY IDOCK:   -5.43 KCAL/MOL
REMARK 924 INTRA-LIGAND FREE ENERGY PREDICTED BY IDOCK:    0.43 KCAL/MOL
REMARK 927      BINDING AFFINITY PREDICTED BY RF-SCORE:    0.00 PKD
ROOT
HETATM    1  C   UNL     1      -8.104  11.488  68.213  1.00  0.00    -0.148 C  
HETATM    2  C   UNL     1      -6.815  12.077  68.148  1.00  0.00    -0.069 C  
HETATM    3  C   UNL     1      -7.868  12.544  67.218  1.00  0.00    -0.160 C  
HETATM    4  C   UNL     1      -9.807  11.906  67.603  1.00  0.00    -0.187 C  
HETATM    5  C   UNL     1      -9.117  13.068  67.579  1.00  0.00    -0.191 C  
HETATM    6  C   UNL     1      -6.764   6.325  64.197  1.00  0.00    -0.038 C  
HETATM    7  C   UNL     1      -5.813   7.272  64.880  1.00  0.00    -0.037 C  
HETATM    8  C   UNL     1      -6.580   8.185  65.511  1.00  0.00    -0.049 C  
HETATM    9  F   UNL     1      -6.491   6.831  67.456  1.00  0.00    -0.038 F  
HETATM   10  C   UNL     1      -9.312  13.039  65.691  1.00  0.00     0.198 C  
HETATM   11  C   UNL     1      -7.226   7.787  66.821  1.00  0.00    -0.088 C  
HETATM   12  C   UNL     1      -9.213  14.254  68.579  1.00  0.00    -0.197 C  
HETATM   13  C   UNL     1      -7.291   8.994  67.726  1.00  0.00    -0.084 C  
HETATM   14  O   UNL     1      -6.502   5.138  64.070  1.00  0.00    -0.032 OA 
HETATM   15  C   UNL     1      -8.982  11.479  64.969  1.00  0.00     0.147 C  
HETATM   16  C   UNL     1      -8.021   6.939  63.625  1.00  0.00    -0.062 C  
HETATM   17  O   UNL     1     -10.227  10.825  64.712  1.00  0.00    -0.306 OA 
HETATM   18  C   UNL     1      -7.863  10.395  65.583  1.00  0.00    -0.154 C  
HETATM   19  C   UNL     1      -6.527   9.804  63.528  1.00  0.00    -0.117 C  
HETATM   20  C   UNL     1      -7.429   9.157  64.647  1.00  0.00    -0.104 C  
HETATM   21  H   UNL     1     -10.048   9.978  64.320  1.00  0.00     0.000 HD 
HETATM   22  C   UNL     1      -8.177  10.088  67.122  1.00  0.00    -0.117 C  
HETATM   23  F   UNL     1      -6.611  11.022  65.616  1.00  0.00    -0.103 F  
HETATM   24  C   UNL     1      -8.361   8.234  63.859  1.00  0.00    -0.032 C  
ENDROOT
BRANCH   4  25
HETATM   25  C   UNL     1     -11.295  12.690  67.359  1.00  0.00    -0.313 C  
HETATM   26  O   UNL     1     -12.212  12.297  66.617  1.00  0.00    -0.574 OA 
BRANCH  25  27
HETATM   27  C   UNL     1     -11.554  14.056  67.989  1.00  0.00    -0.337 C  
BRANCH  27  28
HETATM   28  O   UNL     1     -12.758  14.051  68.777  1.00  0.00     0.231 OA 
BRANCH  28  29
HETATM   29  C   UNL     1     -12.551  14.202  70.111  1.00  0.00    -0.268 C  
HETATM   30  C   UNL     1     -12.357  15.645  70.480  1.00  0.00    -0.443 C  
HETATM   31  O   UNL     1     -12.518  13.277  70.899  1.00  0.00    -0.362 OA 
ENDBRANCH  28  29
ENDBRANCH  27  28
ENDBRANCH  25  27
ENDBRANCH   4  25
BRANCH   4  32
HETATM   32  O   UNL     1     -10.194  11.730  69.105  1.00  0.00    -0.083 OA 
BRANCH  32  33
HETATM   33  C   UNL     1     -10.983  10.684  69.493  1.00  0.00    -0.272 C  
HETATM   34  O   UNL     1     -12.145  10.523  69.152  1.00  0.00    -0.226 OA 
BRANCH  33  35
HETATM   35  C   UNL     1     -10.246   9.739  70.403  1.00  0.00    -0.343 C  
BRANCH  35  36
HETATM   36  C   UNL     1     -10.999   8.422  70.498  1.00  0.00    -0.258 C  
HETATM   37  C   UNL     1     -10.277   7.294  69.770  1.00  0.00    -0.214 C  
ENDBRANCH  35  36
ENDBRANCH  33  35
ENDBRANCH  32  33
ENDBRANCH   4  32
TORSDOF 8
ENDMDL
MODEL       80
REMARK 921   NORMALIZED FREE ENERGY PREDICTED BY IDOCK:   -3.50 KCAL/MOL
REMARK 922        TOTAL FREE ENERGY PREDICTED BY IDOCK:   -4.88 KCAL/MOL
REMARK 923 INTER-LIGAND FREE ENERGY PREDICTED BY IDOCK:   -5.26 KCAL/MOL
REMARK 924 INTRA-LIGAND FREE ENERGY PREDICTED BY IDOCK:    0.38 KCAL/MOL
REMARK 927      BINDING AFFINITY PREDICTED BY RF-SCORE:    0.00 PKD
ROOT
HETATM    1  C   UNL     1     -10.081   7.492  67.434  1.00  0.00    -0.282 C  
HETATM    2  C   UNL     1     -11.490   7.590  67.303  1.00  0.00     0.956 C  
HETATM    3  C   UNL     1     -10.721   8.782  67.731  1.00  0.00    -0.193 C  
HETATM    4  C   UNL     1      -8.655   8.675  67.554  1.00  0.00    -0.135 C  
HETATM    5  C   UNL     1      -9.674   9.387  67.023  1.00  0.00    -0.233 C  
HETATM    6  C   UNL     1     -10.077   5.170  73.695  1.00  0.00    -0.188 C  
HETATM    7  C   UNL     1     -11.214   5.254  72.710  1.00  0.00    -0.347 C  
HETATM    8  C   UNL     1     -10.720   5.872  71.617  1.00  0.00    -0.308 C  
HETATM    9  F   UNL     1     -10.211   3.738  70.714  1.00  0.00    -0.215 F  
HETATM   10  C   UNL     1      -9.644  10.435  68.605  1.00  0.00    -0.166 C  
HETATM   11  C   UNL     1      -9.871   5.057  70.664  1.00  0.00    -0.212 C  
HETATM   12  C   UNL     1      -9.868   9.814  65.541  1.00  0.00    -0.378 C  
HETATM   13  C   UNL     1     -10.110   5.542  69.254  1.00  0.00    -0.293 C  
HETATM   14  O   UNL     1      -9.963   4.224  74.461  1.00  0.00    -0.146 OA 
HETATM   15  C   UNL     1      -9.529   9.494  70.077  1.00  0.00    -0.232 C  
HETATM   16  C   UNL     1      -9.131   6.349  73.722  1.00  0.00    -0.143 C  
HETATM   17  O   UNL     1      -8.169   9.503  70.517  1.00  0.00    -0.181 OA 
HETATM   18  C   UNL     1     -10.195   7.967  70.251  1.00  0.00    -0.200 C  
HETATM   19  C   UNL     1     -11.451   8.189  72.425  1.00  0.00    -0.462 C  
HETATM   20  C   UNL     1     -10.297   7.361  71.740  1.00  0.00    -0.215 C  
HETATM   21  H   UNL     1      -8.107   8.992  71.316  1.00  0.00     0.000 HD 
HETATM   22  C   UNL     1      -9.667   6.999  69.089  1.00  0.00    -0.156 C  
HETATM   23  F   UNL     1     -11.571   8.054  70.014  1.00  0.00    -0.178 F  
HETATM   24  C   UNL     1      -9.195   7.346  72.802  1.00  0.00    -0.192 C  
ENDROOT
BRANCH   4  25
HETATM   25  C   UNL     1      -7.514   9.882  67.193  1.00  0.00    -0.091 C  
HETATM   26  O   UNL     1      -6.748  10.427  68.006  1.00  0.00    -0.064 OA 
BRANCH  25  27
HETATM   27  C   UNL     1      -7.446  10.476  65.788  1.00  0.00    -0.139 C  
BRANCH  27  28
HETATM   28  O   UNL     1      -6.139  10.307  65.210  1.00  0.00    -0.107 OA 
BRANCH  28  29
HETATM   29  C   UNL     1      -6.133   9.622  64.037  1.00  0.00    -0.102 C  
HETATM   30  C   UNL     1      -7.491   9.612  63.396  1.00  0.00    -0.118 C  
HETATM   31  O   UNL     1      -5.148   9.078  63.576  1.00  0.00    -0.060 OA 
ENDBRANCH  28  29
ENDBRANCH  27  28
ENDBRANCH  25  27
ENDBRANCH   4  25
BRANCH   4  32
HETATM   32  O   UNL     1      -8.103   7.852  66.347  1.00  0.00    -0.102 OA 
BRANCH  32  33
HETATM   33  C   UNL     1      -7.213   6.837  66.558  1.00  0.00    -0.073 C  
HETATM   34  O   UNL     1      -6.304   6.864  67.373  1.00  0.00    -0.041 OA 
BRANCH  33  35
HETATM   35  C   UNL     1      -7.484   5.664  65.655  1.00  0.00    -0.074 C  
BRANCH  35  36
HETATM   36  C   UNL     1      -7.316   4.367  66.430  1.00  0.00    -0.081 C  
HETATM   37  C   UNL     1      -8.421   3.365  66.118  1.00  0.00    -0.110 C  
ENDBRANCH  35  36
ENDBRANCH  33  35
ENDBRANCH  32  33
ENDBRANCH   4  32
TORSDOF 8
ENDMDL
MODEL       81
REMARK 921   NORMALIZED FREE ENERGY PREDICTED BY IDOCK:   -3.46 KCAL/MOL
REMARK 922        TOTAL FREE ENERGY PREDICTED BY IDOCK:   -4.82 KCAL/MOL
REMARK 923 INTER-LIGAND FREE ENERGY PREDICTED BY IDOCK:   -6.14 KCAL/MOL
REMARK 924 INTRA-LIGAND FREE ENERGY PREDICTED BY IDOCK:    1.32 KCAL/MOL
REMARK 927      BINDING AFFINITY PREDICTED BY RF-SCORE:    0.00 PKD
ROOT
HETATM    1  C   UNL     1      -9.831  10.996  68.469  1.00  0.00    -0.194 C  
HETATM    2  C   UNL     1      -9.127  10.589  69.632  1.00  0.00     0.024 C  
HETATM    3  C   UNL     1      -8.406  11.343  68.580  1.00  0.00    -0.153 C  
HETATM    4  C   UNL     1      -9.564  12.211  67.091  1.00  0.00    -0.194 C  
HETATM    5  C   UNL     1      -8.747  12.611  68.091  1.00  0.00    -0.190 C  
HETATM    6  C   UNL     1      -8.980   5.315  65.064  1.00  0.00    -0.074 C  
HETATM    7  C   UNL     1      -8.778   5.585  66.532  1.00  0.00    -0.119 C  
HETATM    8  C   UNL     1      -9.004   6.904  66.706  1.00  0.00    -0.141 C  
HETATM    9  F   UNL     1     -11.268   6.392  67.200  1.00  0.00    -0.399 F  
HETATM   10  C   UNL     1      -7.292  12.201  66.943  1.00  0.00    -0.009 C  
HETATM   11  C   UNL     1     -10.441   7.379  66.750  1.00  0.00    -0.246 C  
HETATM   12  C   UNL     1      -8.949  13.803  69.067  1.00  0.00     0.275 C  
HETATM   13  C   UNL     1     -10.547   8.541  67.709  1.00  0.00    -0.242 C  
HETATM   14  O   UNL     1      -9.439   4.254  64.666  1.00  0.00    -0.157 OA 
HETATM   15  C   UNL     1      -7.451  10.666  66.118  1.00  0.00    -0.138 C  
HETATM   16  C   UNL     1      -8.523   6.401  64.118  1.00  0.00     0.204 C  
HETATM   17  O   UNL     1      -7.918  10.909  64.789  1.00  0.00    -0.363 OA 
HETATM   18  C   UNL     1      -8.226   9.338  66.780  1.00  0.00    -0.115 C  
HETATM   19  C   UNL     1      -6.533   7.506  66.413  1.00  0.00    -0.049 C  
HETATM   20  C   UNL     1      -8.015   7.912  66.060  1.00  0.00    -0.103 C  
HETATM   21  H   UNL     1      -8.004  10.076  64.341  1.00  0.00     0.000 HD 
HETATM   22  C   UNL     1      -9.713   9.731  67.227  1.00  0.00    -0.213 C  
HETATM   23  F   UNL     1      -7.592   9.009  67.984  1.00  0.00    -0.088 F  
HETATM   24  C   UNL     1      -8.114   7.618  64.561  1.00  0.00    -0.098 C  
ENDROOT
BRANCH   4  25
HETATM   25  C   UNL     1      -9.342  13.656  66.223  1.00  0.00    -0.133 C  
HETATM   26  O   UNL     1      -9.311  13.764  64.985  1.00  0.00     0.395 OA 
BRANCH  25  27
HETATM   27  C   UNL     1      -9.041  14.956  66.963  1.00  0.00    -0.237 C  
BRANCH  27  28
HETATM   28  O   UNL     1      -9.006  16.078  66.063  1.00  0.00    -0.337 OA 
BRANCH  28  29
HETATM   29  C   UNL     1     -10.151  16.807  66.037  1.00  0.00    -0.332 C  
HETATM   30  C   UNL     1     -10.552  17.255  67.413  1.00  0.00    -0.303 C  
HETATM   31  O   UNL     1     -10.774  17.054  65.022  1.00  0.00    -0.713 OA 
ENDBRANCH  28  29
ENDBRANCH  27  28
ENDBRANCH  25  27
ENDBRANCH   4  25
BRANCH   4  32
HETATM   32  O   UNL     1     -10.970  12.736  67.521  1.00  0.00    -0.236 OA 
BRANCH  32  33
HETATM   33  C   UNL     1     -11.897  13.071  66.575  1.00  0.00    -0.403 C  
HETATM   34  O   UNL     1     -12.633  14.045  66.634  1.00  0.00    -0.358 OA 
BRANCH  33  35
HETATM   35  C   UNL     1     -11.911  12.087  65.437  1.00  0.00    -0.184 C  
BRANCH  35  36
HETATM   36  C   UNL     1     -12.188  12.814  64.131  1.00  0.00    -0.506 C  
HETATM   37  C   UNL     1     -13.090  12.007  63.205  1.00  0.00    -0.010 C  
ENDBRANCH  35  36
ENDBRANCH  33  35
ENDBRANCH  32  33
ENDBRANCH   4  32
TORSDOF 8
ENDMDL
MODEL       82
REMARK 921   NORMALIZED FREE ENERGY PREDICTED BY IDOCK:   -3.43 KCAL/MOL
REMARK 922        TOTAL FREE ENERGY PREDICTED BY IDOCK:   -4.77 KCAL/MOL
REMARK 923 INTER-LIGAND FREE ENERGY PREDICTED BY IDOCK:   -5.19 KCAL/MOL
REMARK 924 INTRA-LIGAND FREE ENERGY PREDICTED BY IDOCK:    0.42 KCAL/MOL
REMARK 927      BINDING AFFINITY PREDICTED BY RF-SCORE:    0.00 PKD
ROOT
HETATM    1  C   UNL     1      -9.993   5.957  69.419  1.00  0.00    -0.229 C  
HETATM    2  C   UNL     1     -10.308   4.731  70.060  1.00  0.00    -0.153 C  
HETATM    3  C   UNL     1      -8.941   5.285  70.196  1.00  0.00    -0.156 C  
HETATM    4  C   UNL     1      -8.653   7.236  69.545  1.00  0.00    -0.134 C  
HETATM    5  C   UNL     1      -8.608   6.547  70.707  1.00  0.00    -0.135 C  
HETATM    6  C   UNL     1      -8.394   3.312  63.500  1.00  0.00    -0.089 C  
HETATM    7  C   UNL     1      -9.130   2.686  64.656  1.00  0.00    -0.129 C  
HETATM    8  C   UNL     1      -9.126   3.604  65.645  1.00  0.00    -0.150 C  
HETATM    9  F   UNL     1     -11.220   4.385  64.849  1.00  0.00    -0.363 F  
HETATM   10  C   UNL     1      -6.886   5.947  70.178  1.00  0.00    -0.053 C  
HETATM   11  C   UNL     1     -10.112   4.750  65.555  1.00  0.00    -0.136 C  
HETATM   12  C   UNL     1      -9.129   6.994  72.102  1.00  0.00    -0.141 C  
HETATM   13  C   UNL     1     -10.558   5.128  66.947  1.00  0.00    -0.234 C  
HETATM   14  O   UNL     1      -8.704   3.074  62.342  1.00  0.00    -0.074 OA 
HETATM   15  C   UNL     1      -6.802   5.419  68.511  1.00  0.00    -0.056 C  
HETATM   16  C   UNL     1      -7.218   4.192  63.857  1.00  0.00    -0.051 C  
HETATM   17  O   UNL     1      -6.241   6.474  67.727  1.00  0.00    -0.028 OA 
HETATM   18  C   UNL     1      -8.082   4.701  67.704  1.00  0.00    -0.100 C  
HETATM   19  C   UNL     1      -6.989   2.664  66.697  1.00  0.00    -0.049 C  
HETATM   20  C   UNL     1      -7.769   3.976  66.299  1.00  0.00    -0.090 C  
HETATM   21  H   UNL     1      -6.195   6.188  66.822  1.00  0.00     0.000 HD 
HETATM   22  C   UNL     1      -9.379   5.636  67.784  1.00  0.00    -0.113 C  
HETATM   23  F   UNL     1      -8.457   3.549  68.403  1.00  0.00    -0.086 F  
HETATM   24  C   UNL     1      -6.942   4.540  65.141  1.00  0.00    -0.062 C  
ENDROOT
BRANCH   4  25
HETATM   25  C   UNL     1      -7.624   8.455  70.134  1.00  0.00    -0.070 C  
HETATM   26  O   UNL     1      -6.878   9.172  69.446  1.00  0.00    -0.047 OA 
BRANCH  25  27
HETATM   27  C   UNL     1      -7.472   8.669  71.637  1.00  0.00    -0.092 C  
BRANCH  27  28
HETATM   28  O   UNL     1      -6.091   8.834  72.007  1.00  0.00    -0.066 OA 
BRANCH  28  29
HETATM   29  C   UNL     1      -5.842   8.648  73.329  1.00  0.00    -0.099 C  
HETATM   30  C   UNL     1      -5.773   7.189  73.678  1.00  0.00    -0.053 C  
HETATM   31  O   UNL     1      -5.705   9.557  74.126  1.00  0.00    -0.302 OA 
ENDBRANCH  28  29
ENDBRANCH  27  28
ENDBRANCH  25  27
ENDBRANCH   4  25
BRANCH   4  32
HETATM   32  O   UNL     1      -9.853   8.216  69.736  1.00  0.00    -0.182 OA 
BRANCH  32  33
HETATM   33  C   UNL     1     -10.135   9.152  68.781  1.00  0.00    -0.197 C  
HETATM   34  O   UNL     1      -9.739   9.110  67.627  1.00  0.00    -0.149 OA 
BRANCH  33  35
HETATM   35  C   UNL     1     -11.000  10.258  69.323  1.00  0.00    -0.284 C  
BRANCH  35  36
HETATM   36  C   UNL     1     -11.055  10.173  70.840  1.00  0.00    -0.326 C  
HETATM   37  C   UNL     1     -12.439  10.504  71.383  1.00  0.00    -0.516 C  
ENDBRANCH  35  36
ENDBRANCH  33  35
ENDBRANCH  32  33
ENDBRANCH   4  32
TORSDOF 8
ENDMDL
MODEL       83
REMARK 921   NORMALIZED FREE ENERGY PREDICTED BY IDOCK:   -3.42 KCAL/MOL
REMARK 922        TOTAL FREE ENERGY PREDICTED BY IDOCK:   -4.77 KCAL/MOL
REMARK 923 INTER-LIGAND FREE ENERGY PREDICTED BY IDOCK:   -5.30 KCAL/MOL
REMARK 924 INTRA-LIGAND FREE ENERGY PREDICTED BY IDOCK:    0.54 KCAL/MOL
REMARK 927      BINDING AFFINITY PREDICTED BY RF-SCORE:    0.00 PKD
ROOT
HETATM    1  C   UNL     1      -7.024  11.013  67.969  1.00  0.00    -0.068 C  
HETATM    2  C   UNL     1      -7.079  11.613  69.253  1.00  0.00    -0.055 C  
HETATM    3  C   UNL     1      -7.743  10.306  69.039  1.00  0.00    -0.110 C  
HETATM    4  C   UNL     1      -7.323   9.323  67.259  1.00  0.00    -0.091 C  
HETATM    5  C   UNL     1      -7.130   9.132  68.583  1.00  0.00    -0.071 C  
HETATM    6  C   UNL     1     -12.326  14.189  65.440  1.00  0.00    -0.463 C  
HETATM    7  C   UNL     1     -11.535  14.497  66.684  1.00  0.00    -0.373 C  
HETATM    8  C   UNL     1     -10.616  13.515  66.798  1.00  0.00    -0.272 C  
HETATM    9  F   UNL     1      -9.093  14.880  65.595  1.00  0.00    -0.264 F  
HETATM   10  C   UNL     1      -8.932   8.544  68.668  1.00  0.00    -0.139 C  
HETATM   11  C   UNL     1      -9.385  13.588  65.919  1.00  0.00     0.081 C  
HETATM   12  C   UNL     1      -5.860   8.581  69.291  1.00  0.00    -0.038 C  
HETATM   13  C   UNL     1      -8.205  13.025  66.675  1.00  0.00     0.239 C  
HETATM   14  O   UNL     1     -12.774  15.077  64.730  1.00  0.00    -0.274 OA 
HETATM   15  C   UNL     1     -10.053   9.566  67.795  1.00  0.00    -0.198 C  
HETATM   16  C   UNL     1     -12.587  12.726  65.162  1.00  0.00    -0.513 C  
HETATM   17  O   UNL     1     -10.329   8.961  66.530  1.00  0.00    -0.276 OA 
HETATM   18  C   UNL     1      -9.855  11.220  67.626  1.00  0.00    -0.175 C  
HETATM   19  C   UNL     1     -12.125  12.089  68.297  1.00  0.00    -0.061 C  
HETATM   20  C   UNL     1     -11.112  12.073  67.089  1.00  0.00    -0.344 C  
HETATM   21  H   UNL     1     -10.938   9.516  66.055  1.00  0.00     0.000 HD 
HETATM   22  C   UNL     1      -8.417  11.543  67.002  1.00  0.00    -0.164 C  
HETATM   23  F   UNL     1      -9.802  11.793  68.902  1.00  0.00    -0.194 F  
HETATM   24  C   UNL     1     -12.001  11.738  65.888  1.00  0.00     0.207 C  
ENDROOT
BRANCH   4  25
HETATM   25  C   UNL     1      -7.200   7.663  66.918  1.00  0.00    -0.088 C  
HETATM   26  O   UNL     1      -6.429   6.861  67.472  1.00  0.00    -0.046 OA 
BRANCH  25  27
HETATM   27  C   UNL     1      -8.000   7.056  65.769  1.00  0.00    -0.116 C  
BRANCH  27  28
HETATM   28  O   UNL     1      -9.226   6.464  66.237  1.00  0.00    -0.158 OA 
BRANCH  28  29
HETATM   29  C   UNL     1      -9.501   5.250  65.693  1.00  0.00    -0.081 C  
HETATM   30  C   UNL     1      -8.402   4.793  64.777  1.00  0.00    -0.132 C  
HETATM   31  O   UNL     1     -10.520   4.624  65.916  1.00  0.00    -0.287 OA 
ENDBRANCH  28  29
ENDBRANCH  27  28
ENDBRANCH  25  27
ENDBRANCH   4  25
BRANCH   4  32
HETATM   32  O   UNL     1      -5.880   9.503  66.691  1.00  0.00    -0.053 OA 
BRANCH  32  33
HETATM   33  C   UNL     1      -5.686  10.136  65.495  1.00  0.00    -0.081 C  
HETATM   34  O   UNL     1      -5.163  11.231  65.363  1.00  0.00    -0.265 OA 
BRANCH  33  35
HETATM   35  C   UNL     1      -6.201   9.317  64.342  1.00  0.00    -0.077 C  
BRANCH  35  36
HETATM   36  C   UNL     1      -6.992  10.202  63.393  1.00  0.00    -0.121 C  
HETATM   37  C   UNL     1      -8.496  10.020  63.559  1.00  0.00    -0.187 C  
ENDBRANCH  35  36
ENDBRANCH  33  35
ENDBRANCH  32  33
ENDBRANCH   4  32
TORSDOF 8
ENDMDL
MODEL       84
REMARK 921   NORMALIZED FREE ENERGY PREDICTED BY IDOCK:   -3.39 KCAL/MOL
REMARK 922        TOTAL FREE ENERGY PREDICTED BY IDOCK:   -4.71 KCAL/MOL
REMARK 923 INTER-LIGAND FREE ENERGY PREDICTED BY IDOCK:   -5.24 KCAL/MOL
REMARK 924 INTRA-LIGAND FREE ENERGY PREDICTED BY IDOCK:    0.53 KCAL/MOL
REMARK 927      BINDING AFFINITY PREDICTED BY RF-SCORE:    0.00 PKD
ROOT
HETATM    1  C   UNL     1      -7.941  11.877  66.659  1.00  0.00    -0.032 C  
HETATM    2  C   UNL     1      -6.725  12.167  67.330  1.00  0.00    -0.143 C  
HETATM    3  C   UNL     1      -7.800  11.458  68.061  1.00  0.00    -0.121 C  
HETATM    4  C   UNL     1      -9.393  10.752  66.930  1.00  0.00    -0.160 C  
HETATM    5  C   UNL     1      -8.394  10.245  67.687  1.00  0.00    -0.114 C  
HETATM    6  C   UNL     1     -10.886  17.741  67.897  1.00  0.00    -0.218 C  
HETATM    7  C   UNL     1      -9.435  17.358  68.026  1.00  0.00    -0.281 C  
HETATM    8  C   UNL     1      -9.367  16.042  67.736  1.00  0.00    -0.211 C  
HETATM    9  F   UNL     1      -8.925  16.621  65.478  1.00  0.00    -0.168 F  
HETATM   10  C   UNL     1      -9.451  10.667  69.205  1.00  0.00    -0.185 C  
HETATM   11  C   UNL     1      -9.413  15.632  66.279  1.00  0.00    -0.319 C  
HETATM   12  C   UNL     1      -7.515   8.997  67.392  1.00  0.00    -0.085 C  
HETATM   13  C   UNL     1      -8.546  14.411  66.082  1.00  0.00     0.580 C  
HETATM   14  O   UNL     1     -11.222  18.848  67.503  1.00  0.00    -0.229 OA 
HETATM   15  C   UNL     1     -10.168  12.263  69.147  1.00  0.00     0.207 C  
HETATM   16  C   UNL     1     -11.891  16.705  68.346  1.00  0.00     0.473 C  
HETATM   17  O   UNL     1     -11.528  12.137  68.727  1.00  0.00    -0.256 OA 
HETATM   18  C   UNL     1      -9.440  13.575  68.403  1.00  0.00    -0.185 C  
HETATM   19  C   UNL     1      -9.608  15.348  70.189  1.00  0.00     0.173 C  
HETATM   20  C   UNL     1     -10.046  15.037  68.706  1.00  0.00    -0.231 C  
HETATM   21  H   UNL     1     -11.917  13.003  68.695  1.00  0.00     0.000 HD 
HETATM   22  C   UNL     1      -9.082  13.220  66.884  1.00  0.00    -0.235 C  
HETATM   23  F   UNL     1      -8.192  13.788  69.000  1.00  0.00    -0.091 F  
HETATM   24  C   UNL     1     -11.522  15.441  68.683  1.00  0.00    -0.357 C  
ENDROOT
BRANCH   4  25
HETATM   25  C   UNL     1     -10.355   9.364  67.125  1.00  0.00    -0.258 C  
HETATM   26  O   UNL     1     -11.258   9.217  67.966  1.00  0.00     0.009 OA 
BRANCH  25  27
HETATM   27  C   UNL     1     -10.067   8.111  66.303  1.00  0.00    -0.003 C  
BRANCH  27  28
HETATM   28  O   UNL     1     -10.405   6.916  67.030  1.00  0.00    -0.222 OA 
BRANCH  28  29
HETATM   29  C   UNL     1      -9.956   5.770  66.456  1.00  0.00    -0.163 C  
HETATM   30  C   UNL     1      -8.774   6.024  65.565  1.00  0.00    -0.120 C  
HETATM   31  O   UNL     1     -10.462   4.679  66.639  1.00  0.00    -0.225 OA 
ENDBRANCH  28  29
ENDBRANCH  27  28
ENDBRANCH  25  27
ENDBRANCH   4  25
BRANCH   4  32
HETATM   32  O   UNL     1      -9.056  10.264  65.486  1.00  0.00    -0.158 OA 
BRANCH  32  33
HETATM   33  C   UNL     1      -9.699  10.807  64.410  1.00  0.00    -0.301 C  
HETATM   34  O   UNL     1      -9.343  10.680  63.248  1.00  0.00    -0.242 OA 
BRANCH  33  35
HETATM   35  C   UNL     1     -10.913  11.593  64.826  1.00  0.00    -0.351 C  
BRANCH  35  36
HETATM   36  C   UNL     1     -11.301  12.565  63.723  1.00  0.00    -0.534 C  
HETATM   37  C   UNL     1     -12.026  13.790  64.267  1.00  0.00    -0.481 C  
ENDBRANCH  35  36
ENDBRANCH  33  35
ENDBRANCH  32  33
ENDBRANCH   4  32
TORSDOF 8
ENDMDL
MODEL       85
REMARK 921   NORMALIZED FREE ENERGY PREDICTED BY IDOCK:   -3.25 KCAL/MOL
REMARK 922        TOTAL FREE ENERGY PREDICTED BY IDOCK:   -4.51 KCAL/MOL
REMARK 923 INTER-LIGAND FREE ENERGY PREDICTED BY IDOCK:   -5.27 KCAL/MOL
REMARK 924 INTRA-LIGAND FREE ENERGY PREDICTED BY IDOCK:    0.77 KCAL/MOL
REMARK 927      BINDING AFFINITY PREDICTED BY RF-SCORE:    0.00 PKD
ROOT
HETATM    1  C   UNL     1      -7.737  11.740  68.007  1.00  0.00    -0.123 C  
HETATM    2  C   UNL     1      -7.973  11.970  69.387  1.00  0.00     0.631 C  
HETATM    3  C   UNL     1      -8.943  11.160  68.614  1.00  0.00    -0.162 C  
HETATM    4  C   UNL     1      -8.360  10.564  66.712  1.00  0.00    -0.128 C  
HETATM    5  C   UNL     1      -8.658   9.989  67.899  1.00  0.00    -0.121 C  
HETATM    6  C   UNL     1     -10.599  17.360  65.815  1.00  0.00    -0.182 C  
HETATM    7  C   UNL     1     -10.170  16.991  67.211  1.00  0.00    -0.310 C  
HETATM    8  C   UNL     1      -9.722  15.720  67.143  1.00  0.00    -0.227 C  
HETATM    9  F   UNL     1      -7.536  16.571  66.789  1.00  0.00    -0.189 F  
HETATM   10  C   UNL     1     -10.487  10.209  67.444  1.00  0.00    -0.310 C  
HETATM   11  C   UNL     1      -8.334  15.485  66.585  1.00  0.00    -0.251 C  
HETATM   12  C   UNL     1      -7.932   8.801  68.591  1.00  0.00    -0.107 C  
HETATM   13  C   UNL     1      -7.707  14.312  67.300  1.00  0.00    -0.145 C  
HETATM   14  O   UNL     1     -10.478  18.500  65.389  1.00  0.00    -0.538 OA 
HETATM   15  C   UNL     1     -10.870  11.787  66.790  1.00  0.00    -0.270 C  
HETATM   16  C   UNL     1     -11.244  16.260  65.003  1.00  0.00    -0.181 C  
HETATM   17  O   UNL     1     -10.935  11.687  65.366  1.00  0.00    -0.299 OA 
HETATM   18  C   UNL     1     -10.079  13.191  67.246  1.00  0.00    -0.233 C  
HETATM   19  C   UNL     1     -12.006  14.737  67.750  1.00  0.00    -0.247 C  
HETATM   20  C   UNL     1     -10.742  14.596  66.818  1.00  0.00    -0.301 C  
HETATM   21  H   UNL     1     -11.142  12.543  65.011  1.00  0.00     0.000 HD 
HETATM   22  C   UNL     1      -8.499  13.025  67.047  1.00  0.00    -0.142 C  
HETATM   23  F   UNL     1     -10.226  13.355  68.628  1.00  0.00    -0.229 F  
HETATM   24  C   UNL     1     -11.280  14.973  65.435  1.00  0.00    -0.356 C  
ENDROOT
BRANCH   4  25
HETATM   25  C   UNL     1      -8.712   9.145  65.845  1.00  0.00    -0.158 C  
HETATM   26  O   UNL     1      -9.301   9.088  64.751  1.00  0.00    -0.056 OA 
BRANCH  25  27
HETATM   27  C   UNL     1      -8.405   7.779  66.452  1.00  0.00    -0.131 C  
BRANCH  27  28
HETATM   28  O   UNL     1      -9.567   6.930  66.450  1.00  0.00    -0.166 OA 
BRANCH  28  29
HETATM   29  C   UNL     1      -9.516   5.914  67.349  1.00  0.00    -0.111 C  
HETATM   30  C   UNL     1     -10.726   5.901  68.239  1.00  0.00    -0.319 C  
HETATM   31  O   UNL     1      -8.595   5.123  67.425  1.00  0.00    -0.106 OA 
ENDBRANCH  28  29
ENDBRANCH  27  28
ENDBRANCH  25  27
ENDBRANCH   4  25
BRANCH   4  32
HETATM   32  O   UNL     1      -6.842  10.256  66.516  1.00  0.00    -0.090 OA 
BRANCH  32  33
HETATM   33  C   UNL     1      -6.286  10.309  65.269  1.00  0.00    -0.125 C  
HETATM   34  O   UNL     1      -6.472  11.207  64.461  1.00  0.00     0.551 OA 
BRANCH  33  35
HETATM   35  C   UNL     1      -5.408   9.118  65.000  1.00  0.00    -0.041 C  
BRANCH  35  36
HETATM   36  C   UNL     1      -5.922   8.362  63.785  1.00  0.00    -0.071 C  
HETATM   37  C   UNL     1      -5.534   6.889  63.820  1.00  0.00    -0.028 C  
ENDBRANCH  35  36
ENDBRANCH  33  35
ENDBRANCH  32  33
ENDBRANCH   4  32
TORSDOF 8
ENDMDL
MODEL       86
REMARK 921   NORMALIZED FREE ENERGY PREDICTED BY IDOCK:   -3.24 KCAL/MOL
REMARK 922        TOTAL FREE ENERGY PREDICTED BY IDOCK:   -4.50 KCAL/MOL
REMARK 923 INTER-LIGAND FREE ENERGY PREDICTED BY IDOCK:   -5.51 KCAL/MOL
REMARK 924 INTRA-LIGAND FREE ENERGY PREDICTED BY IDOCK:    1.01 KCAL/MOL
REMARK 927      BINDING AFFINITY PREDICTED BY RF-SCORE:    0.00 PKD
ROOT
HETATM    1  C   UNL     1     -10.505   6.807  70.726  1.00  0.00    -0.242 C  
HETATM    2  C   UNL     1     -11.257   5.719  71.241  1.00  0.00    -0.223 C  
HETATM    3  C   UNL     1      -9.843   5.878  71.654  1.00  0.00    -0.197 C  
HETATM    4  C   UNL     1      -8.919   7.670  71.156  1.00  0.00    -0.138 C  
HETATM    5  C   UNL     1      -9.284   7.003  72.274  1.00  0.00    -0.147 C  
HETATM    6  C   UNL     1      -8.585   3.778  65.094  1.00  0.00    -0.113 C  
HETATM    7  C   UNL     1      -9.669   3.387  66.064  1.00  0.00     0.011 C  
HETATM    8  C   UNL     1      -9.606   4.276  67.077  1.00  0.00    -0.227 C  
HETATM    9  F   UNL     1     -11.217   5.597  65.941  1.00  0.00    -0.117 F  
HETATM   10  C   UNL     1      -7.722   5.949  72.047  1.00  0.00    -0.102 C  
HETATM   11  C   UNL     1     -10.208   5.648  66.856  1.00  0.00    -0.227 C  
HETATM   12  C   UNL     1      -9.921   7.588  73.566  1.00  0.00    -0.371 C  
HETATM   13  C   UNL     1     -10.791   6.145  68.158  1.00  0.00    -0.389 C  
HETATM   14  O   UNL     1      -8.720   3.625  63.889  1.00  0.00    -0.093 OA 
HETATM   15  C   UNL     1      -7.467   5.405  70.403  1.00  0.00    -0.075 C  
HETATM   16  C   UNL     1      -7.305   4.303  65.702  1.00  0.00    -0.077 C  
HETATM   17  O   UNL     1      -6.503   6.260  69.785  1.00  0.00    -0.039 OA 
HETATM   18  C   UNL     1      -8.715   5.061  69.341  1.00  0.00    -0.091 C  
HETATM   19  C   UNL     1      -8.044   2.794  68.463  1.00  0.00    -0.072 C  
HETATM   20  C   UNL     1      -8.348   4.267  67.988  1.00  0.00    -0.097 C  
HETATM   21  H   UNL     1      -6.365   5.965  68.893  1.00  0.00     0.000 HD 
HETATM   22  C   UNL     1      -9.701   6.317  69.220  1.00  0.00    -0.157 C  
HETATM   23  F   UNL     1      -9.515   4.061  69.905  1.00  0.00    -0.191 F  
HETATM   24  C   UNL     1      -7.195   4.573  67.029  1.00  0.00    -0.073 C  
ENDROOT
BRANCH   4  25
HETATM   25  C   UNL     1      -7.730   8.563  71.980  1.00  0.00    -0.096 C  
HETATM   26  O   UNL     1      -7.891   9.178  73.048  1.00  0.00    -0.048 OA 
BRANCH  25  27
HETATM   27  C   UNL     1      -6.352   8.762  71.355  1.00  0.00    -0.068 C  
BRANCH  27  28
HETATM   28  O   UNL     1      -5.818  10.063  71.663  1.00  0.00    -0.272 OA 
BRANCH  28  29
HETATM   29  C   UNL     1      -5.807  10.923  70.612  1.00  0.00    -0.107 C  
HETATM   30  C   UNL     1      -5.347  10.249  69.351  1.00  0.00    -0.038 C  
HETATM   31  O   UNL     1      -6.121  12.095  70.694  1.00  0.00    -0.269 OA 
ENDBRANCH  28  29
ENDBRANCH  27  28
ENDBRANCH  25  27
ENDBRANCH   4  25
BRANCH   4  32
HETATM   32  O   UNL     1      -9.821   8.943  71.165  1.00  0.00    -0.224 OA 
BRANCH  32  33
HETATM   33  C   UNL     1     -10.296   9.457  69.992  1.00  0.00    -0.233 C  
HETATM   34  O   UNL     1     -11.479   9.606  69.724  1.00  0.00    -0.176 OA 
BRANCH  33  35
HETATM   35  C   UNL     1      -9.179   9.821  69.051  1.00  0.00    -0.165 C  
BRANCH  35  36
HETATM   36  C   UNL     1      -9.269  11.295  68.691  1.00  0.00    -0.163 C  
HETATM   37  C   UNL     1      -9.903  11.513  67.323  1.00  0.00    -0.208 C  
ENDBRANCH  35  36
ENDBRANCH  33  35
ENDBRANCH  32  33
ENDBRANCH   4  32
TORSDOF 8
ENDMDL
MODEL       87
REMARK 921   NORMALIZED FREE ENERGY PREDICTED BY IDOCK:   -3.24 KCAL/MOL
REMARK 922        TOTAL FREE ENERGY PREDICTED BY IDOCK:   -4.49 KCAL/MOL
REMARK 923 INTER-LIGAND FREE ENERGY PREDICTED BY IDOCK:   -5.06 KCAL/MOL
REMARK 924 INTRA-LIGAND FREE ENERGY PREDICTED BY IDOCK:    0.57 KCAL/MOL
REMARK 927      BINDING AFFINITY PREDICTED BY RF-SCORE:    0.00 PKD
ROOT
HETATM    1  C   UNL     1      -7.553  10.199  67.609  1.00  0.00    -0.090 C  
HETATM    2  C   UNL     1      -6.949  10.408  68.876  1.00  0.00    -0.067 C  
HETATM    3  C   UNL     1      -8.228   9.665  68.801  1.00  0.00    -0.106 C  
HETATM    4  C   UNL     1      -8.865   9.086  66.911  1.00  0.00    -0.116 C  
HETATM    5  C   UNL     1      -8.464   8.499  68.061  1.00  0.00    -0.131 C  
HETATM    6  C   UNL     1     -10.846  16.004  67.391  1.00  0.00    -0.277 C  
HETATM    7  C   UNL     1      -9.719  15.581  68.297  1.00  0.00    -0.201 C  
HETATM    8  C   UNL     1      -9.459  14.292  67.997  1.00  0.00    -0.204 C  
HETATM    9  F   UNL     1      -7.821  15.042  66.452  1.00  0.00    -0.038 F  
HETATM   10  C   UNL     1     -10.212   8.819  68.727  1.00  0.00    -0.224 C  
HETATM   11  C   UNL     1      -8.651  14.002  66.749  1.00  0.00    -0.055 C  
HETATM   12  C   UNL     1      -7.539   7.260  68.226  1.00  0.00    -0.118 C  
HETATM   13  C   UNL     1      -7.792  12.783  66.990  1.00  0.00    -0.022 C  
HETATM   14  O   UNL     1     -10.928  17.146  66.963  1.00  0.00    -0.113 OA 
HETATM   15  C   UNL     1     -10.813  10.429  68.395  1.00  0.00    -0.245 C  
HETATM   16  C   UNL     1     -11.896  14.956  67.101  1.00  0.00    -0.229 C  
HETATM   17  O   UNL     1     -11.683  10.366  67.263  1.00  0.00    -0.326 OA 
HETATM   18  C   UNL     1      -9.829  11.782  68.307  1.00  0.00    -0.198 C  
HETATM   19  C   UNL     1     -11.040  13.407  69.806  1.00  0.00     0.065 C  
HETATM   20  C   UNL     1     -10.541  13.227  68.321  1.00  0.00    -0.262 C  
HETATM   21  H   UNL     1     -12.009  11.240  67.082  1.00  0.00     0.000 HD 
HETATM   22  C   UNL     1      -8.656  11.543  67.244  1.00  0.00    -0.150 C  
HETATM   23  F   UNL     1      -9.154  11.919  69.525  1.00  0.00     0.387 F  
HETATM   24  C   UNL     1     -11.750  13.662  67.488  1.00  0.00    -0.406 C  
ENDROOT
BRANCH   4  25
HETATM   25  C   UNL     1      -9.725   7.707  66.411  1.00  0.00    -0.127 C  
HETATM   26  O   UNL     1     -10.915   7.459  66.667  1.00  0.00    -0.119 OA 
BRANCH  25  27
HETATM   27  C   UNL     1      -9.005   6.582  65.672  1.00  0.00     0.015 C  
BRANCH  27  28
HETATM   28  O   UNL     1      -9.503   5.291  66.068  1.00  0.00    -0.155 OA 
BRANCH  28  29
HETATM   29  C   UNL     1      -9.818   4.474  65.030  1.00  0.00    -0.111 C  
HETATM   30  C   UNL     1      -8.633   4.230  64.140  1.00  0.00    -0.115 C  
HETATM   31  O   UNL     1     -10.927   4.011  64.846  1.00  0.00    -0.179 OA 
ENDBRANCH  28  29
ENDBRANCH  27  28
ENDBRANCH  25  27
ENDBRANCH   4  25
BRANCH   4  32
HETATM   32  O   UNL     1      -7.748   8.709  65.887  1.00  0.00    -0.096 OA 
BRANCH  32  33
HETATM   33  C   UNL     1      -7.600   9.430  64.736  1.00  0.00    -0.111 C  
HETATM   34  O   UNL     1      -6.529   9.790  64.273  1.00  0.00    -0.105 OA 
BRANCH  33  35
HETATM   35  C   UNL     1      -8.927   9.737  64.097  1.00  0.00    -0.276 C  
BRANCH  35  36
HETATM   36  C   UNL     1      -8.911  11.146  63.527  1.00  0.00    -0.064 C  
HETATM   37  C   UNL     1     -10.300  11.773  63.510  1.00  0.00    -0.490 C  
ENDBRANCH  35  36
ENDBRANCH  33  35
ENDBRANCH  32  33
ENDBRANCH   4  32
TORSDOF 8
ENDMDL
MODEL       88
REMARK 921   NORMALIZED FREE ENERGY PREDICTED BY IDOCK:   -3.22 KCAL/MOL
REMARK 922        TOTAL FREE ENERGY PREDICTED BY IDOCK:   -4.47 KCAL/MOL
REMARK 923 INTER-LIGAND FREE ENERGY PREDICTED BY IDOCK:   -5.99 KCAL/MOL
REMARK 924 INTRA-LIGAND FREE ENERGY PREDICTED BY IDOCK:    1.52 KCAL/MOL
REMARK 927      BINDING AFFINITY PREDICTED BY RF-SCORE:    0.00 PKD
ROOT
HETATM    1  C   UNL     1      -9.989  10.534  66.932  1.00  0.00    -0.246 C  
HETATM    2  C   UNL     1     -11.227  11.013  67.432  1.00  0.00    -0.355 C  
HETATM    3  C   UNL     1      -9.968  11.481  68.056  1.00  0.00    -0.197 C  
HETATM    4  C   UNL     1      -8.204  11.031  67.056  1.00  0.00    -0.138 C  
HETATM    5  C   UNL     1      -8.913  12.130  67.401  1.00  0.00    -0.180 C  
HETATM    6  C   UNL     1      -9.808   4.964  70.610  1.00  0.00    -0.219 C  
HETATM    7  C   UNL     1     -10.966   5.888  70.337  1.00  0.00    -0.376 C  
HETATM    8  C   UNL     1     -10.469   6.908  69.606  1.00  0.00    -0.240 C  
HETATM    9  F   UNL     1     -11.067   5.718  67.643  1.00  0.00    -0.325 F  
HETATM   10  C   UNL     1      -8.161  11.958  69.136  1.00  0.00     0.336 C  
HETATM   11  C   UNL     1     -10.225   6.672  68.130  1.00  0.00    -0.170 C  
HETATM   12  C   UNL     1      -9.179  13.399  66.544  1.00  0.00    -0.182 C  
HETATM   13  C   UNL     1     -10.494   7.952  67.376  1.00  0.00    -0.360 C  
HETATM   14  O   UNL     1      -9.960   3.753  70.685  1.00  0.00    -0.149 OA 
HETATM   15  C   UNL     1      -8.182  10.322  69.758  1.00  0.00    -0.094 C  
HETATM   16  C   UNL     1      -8.470   5.625  70.849  1.00  0.00    -0.125 C  
HETATM   17  O   UNL     1      -6.886   9.748  69.570  1.00  0.00    -0.051 OA 
HETATM   18  C   UNL     1      -9.378   9.210  69.391  1.00  0.00    -0.160 C  
HETATM   19  C   UNL     1     -10.008   8.346  71.674  1.00  0.00    -0.302 C  
HETATM   20  C   UNL     1      -9.450   7.867  70.279  1.00  0.00    -0.163 C  
HETATM   21  H   UNL     1      -6.897   8.860  69.908  1.00  0.00     0.000 HD 
HETATM   22  C   UNL     1      -9.523   9.058  67.803  1.00  0.00    -0.162 C  
HETATM   23  F   UNL     1     -10.612   9.737  69.790  1.00  0.00    -0.208 F  
HETATM   24  C   UNL     1      -8.280   6.957  70.661  1.00  0.00    -0.120 C  
ENDROOT
BRANCH   4  25
HETATM   25  C   UNL     1      -6.752  11.906  66.933  1.00  0.00    -0.076 C  
HETATM   26  O   UNL     1      -5.805  11.641  66.173  1.00  0.00    -0.174 OA 
BRANCH  25  27
HETATM   27  C   UNL     1      -6.473  13.065  67.886  1.00  0.00    -0.130 C  
BRANCH  27  28
HETATM   28  O   UNL     1      -5.737  14.116  67.235  1.00  0.00    -0.297 OA 
BRANCH  28  29
HETATM   29  C   UNL     1      -5.836  15.326  67.844  1.00  0.00    -0.146 C  
HETATM   30  C   UNL     1      -6.572  15.228  69.149  1.00  0.00    -0.130 C  
HETATM   31  O   UNL     1      -5.391  16.357  67.376  1.00  0.00    -0.132 OA 
ENDBRANCH  28  29
ENDBRANCH  27  28
ENDBRANCH  25  27
ENDBRANCH   4  25
BRANCH   4  32
HETATM   32  O   UNL     1      -8.275  11.012  65.497  1.00  0.00    -0.105 OA 
BRANCH  32  33
HETATM   33  C   UNL     1      -8.339   9.823  64.827  1.00  0.00    -0.155 C  
HETATM   34  O   UNL     1      -9.271   9.470  64.121  1.00  0.00    -0.226 OA 
BRANCH  33  35
HETATM   35  C   UNL     1      -7.111   8.985  65.062  1.00  0.00    -0.087 C  
BRANCH  35  36
HETATM   36  C   UNL     1      -7.511   7.537  65.291  1.00  0.00    -0.084 C  
HETATM   37  C   UNL     1      -6.909   6.971  66.571  1.00  0.00    -0.061 C  
ENDBRANCH  35  36
ENDBRANCH  33  35
ENDBRANCH  32  33
ENDBRANCH   4  32
TORSDOF 8
ENDMDL
MODEL       89
REMARK 921   NORMALIZED FREE ENERGY PREDICTED BY IDOCK:   -3.02 KCAL/MOL
REMARK 922        TOTAL FREE ENERGY PREDICTED BY IDOCK:   -4.17 KCAL/MOL
REMARK 923 INTER-LIGAND FREE ENERGY PREDICTED BY IDOCK:   -4.93 KCAL/MOL
REMARK 924 INTRA-LIGAND FREE ENERGY PREDICTED BY IDOCK:    0.77 KCAL/MOL
REMARK 927      BINDING AFFINITY PREDICTED BY RF-SCORE:    0.00 PKD
ROOT
HETATM    1  C   UNL     1      -6.698   5.789  69.920  1.00  0.00    -0.052 C  
HETATM    2  C   UNL     1      -5.347   5.798  69.487  1.00  0.00    -0.004 C  
HETATM    3  C   UNL     1      -5.757   6.699  70.589  1.00  0.00    -0.023 C  
HETATM    4  C   UNL     1      -7.639   6.380  71.407  1.00  0.00    -0.094 C  
HETATM    5  C   UNL     1      -6.347   6.310  71.799  1.00  0.00    -0.046 C  
HETATM    6  C   UNL     1      -8.950  10.173  65.415  1.00  0.00    -0.177 C  
HETATM    7  C   UNL     1      -7.650   9.412  65.437  1.00  0.00    -0.100 C  
HETATM    8  C   UNL     1      -7.639   8.720  66.596  1.00  0.00    -0.089 C  
HETATM    9  F   UNL     1      -8.596   6.882  65.440  1.00  0.00    -0.149 F  
HETATM   10  C   UNL     1      -6.402   8.196  72.004  1.00  0.00    -0.055 C  
HETATM   11  C   UNL     1      -8.459   7.449  66.672  1.00  0.00    -0.124 C  
HETATM   12  C   UNL     1      -5.678   5.224  72.687  1.00  0.00    -0.022 C  
HETATM   13  C   UNL     1      -7.747   6.456  67.560  1.00  0.00    -0.101 C  
HETATM   14  O   UNL     1      -9.547  10.388  64.371  1.00  0.00    -0.265 OA 
HETATM   15  C   UNL     1      -7.167   9.032  70.669  1.00  0.00    -0.093 C  
HETATM   16  C   UNL     1      -9.431  10.708  66.744  1.00  0.00    -0.189 C  
HETATM   17  O   UNL     1      -8.510   9.348  71.039  1.00  0.00    -0.285 OA 
HETATM   18  C   UNL     1      -7.104   8.492  69.085  1.00  0.00    -0.064 C  
HETATM   19  C   UNL     1      -6.397  10.575  67.851  1.00  0.00    -0.059 C  
HETATM   20  C   UNL     1      -7.563   9.515  67.927  1.00  0.00    -0.087 C  
HETATM   21  H   UNL     1      -8.925   9.801  70.315  1.00  0.00     0.000 HD 
HETATM   22  C   UNL     1      -7.631   6.983  68.993  1.00  0.00    -0.104 C  
HETATM   23  F   UNL     1      -5.761   8.401  68.700  1.00  0.00    -0.034 F  
HETATM   24  C   UNL     1      -8.826  10.379  67.916  1.00  0.00    -0.125 C  
ENDROOT
BRANCH   4  25
HETATM   25  C   UNL     1      -8.197   6.577  73.001  1.00  0.00    -0.111 C  
HETATM   26  O   UNL     1      -7.978   5.804  73.950  1.00  0.00    -0.106 OA 
BRANCH  25  27
HETATM   27  C   UNL     1      -9.145   7.722  73.345  1.00  0.00    -0.276 C  
BRANCH  27  28
HETATM   28  O   UNL     1     -10.507   7.267  73.438  1.00  0.00    -0.318 OA 
BRANCH  28  29
HETATM   29  C   UNL     1     -11.248   7.494  72.323  1.00  0.00    -0.283 C  
HETATM   30  C   UNL     1     -12.285   6.427  72.122  1.00  0.00    -0.278 C  
HETATM   31  O   UNL     1     -11.077   8.441  71.579  1.00  0.00    -0.242 OA 
ENDBRANCH  28  29
ENDBRANCH  27  28
ENDBRANCH  25  27
ENDBRANCH   4  25
BRANCH   4  32
HETATM   32  O   UNL     1      -8.130   4.899  71.464  1.00  0.00    -0.106 OA 
BRANCH  32  33
HETATM   33  C   UNL     1      -9.225   4.510  70.745  1.00  0.00    -0.139 C  
HETATM   34  O   UNL     1     -10.015   5.273  70.210  1.00  0.00    -0.201 OA 
BRANCH  33  35
HETATM   35  C   UNL     1      -9.349   3.012  70.687  1.00  0.00    -0.221 C  
BRANCH  35  36
HETATM   36  C   UNL     1     -10.035   2.502  71.943  1.00  0.00    -0.218 C  
HETATM   37  C   UNL     1      -9.109   2.526  73.153  1.00  0.00    -0.093 C  
ENDBRANCH  35  36
ENDBRANCH  33  35
ENDBRANCH  32  33
ENDBRANCH   4  32
TORSDOF 8
ENDMDL
MODEL       90
REMARK 921   NORMALIZED FREE ENERGY PREDICTED BY IDOCK:   -2.90 KCAL/MOL
REMARK 922        TOTAL FREE ENERGY PREDICTED BY IDOCK:   -4.00 KCAL/MOL
REMARK 923 INTER-LIGAND FREE ENERGY PREDICTED BY IDOCK:   -4.18 KCAL/MOL
REMARK 924 INTRA-LIGAND FREE ENERGY PREDICTED BY IDOCK:    0.18 KCAL/MOL
REMARK 927      BINDING AFFINITY PREDICTED BY RF-SCORE:    0.00 PKD
ROOT
HETATM    1  C   UNL     1      -9.984   8.103  67.205  1.00  0.00    -0.283 C  
HETATM    2  C   UNL     1     -11.152   7.569  67.807  1.00  0.00     0.088 C  
HETATM    3  C   UNL     1     -10.370   8.594  68.536  1.00  0.00    -0.228 C  
HETATM    4  C   UNL     1      -8.895   9.585  67.461  1.00  0.00    -0.125 C  
HETATM    5  C   UNL     1     -10.062   9.881  68.076  1.00  0.00    -0.202 C  
HETATM    6  C   UNL     1      -5.815   3.333  69.317  1.00  0.00    -0.023 C  
HETATM    7  C   UNL     1      -7.322   3.338  69.288  1.00  0.00    -0.048 C  
HETATM    8  C   UNL     1      -7.685   4.561  68.848  1.00  0.00    -0.070 C  
HETATM    9  F   UNL     1      -7.731   3.690  66.641  1.00  0.00    -0.077 F  
HETATM   10  C   UNL     1      -9.097   9.882  69.710  1.00  0.00    -0.249 C  
HETATM   11  C   UNL     1      -7.591   4.839  67.362  1.00  0.00    -0.086 C  
HETATM   12  C   UNL     1     -11.188  10.829  67.576  1.00  0.00    -0.346 C  
HETATM   13  C   UNL     1      -8.710   5.772  66.964  1.00  0.00    -0.109 C  
HETATM   14  O   UNL     1      -5.175   2.321  69.076  1.00  0.00    -0.011 OA 
HETATM   15  C   UNL     1      -8.003   8.527  69.887  1.00  0.00    -0.106 C  
HETATM   16  C   UNL     1      -5.153   4.629  69.724  1.00  0.00     0.000 C  
HETATM   17  O   UNL     1      -6.681   8.963  69.562  1.00  0.00    -0.046 OA 
HETATM   18  C   UNL     1      -8.299   7.011  69.240  1.00  0.00    -0.129 C  
HETATM   19  C   UNL     1      -7.882   5.506  71.219  1.00  0.00    -0.110 C  
HETATM   20  C   UNL     1      -7.383   5.788  69.750  1.00  0.00    -0.071 C  
HETATM   21  H   UNL     1      -6.088   8.227  69.658  1.00  0.00     0.000 HD 
HETATM   22  C   UNL     1      -8.574   7.126  67.667  1.00  0.00    -0.122 C  
HETATM   23  F   UNL     1      -9.509   6.536  69.757  1.00  0.00    -0.148 F  
HETATM   24  C   UNL     1      -5.858   5.779  69.888  1.00  0.00    -0.024 C  
ENDROOT
BRANCH   4  25
HETATM   25  C   UNL     1      -8.335  11.186  67.575  1.00  0.00    -0.122 C  
HETATM   26  O   UNL     1      -9.039  12.209  67.522  1.00  0.00    -0.169 OA 
BRANCH  25  27
HETATM   27  C   UNL     1      -6.837  11.470  67.638  1.00  0.00    -0.083 C  
BRANCH  27  28
HETATM   28  O   UNL     1      -6.465  12.048  68.903  1.00  0.00    -0.070 OA 
BRANCH  28  29
HETATM   29  C   UNL     1      -6.026  13.330  68.822  1.00  0.00    -0.076 C  
HETATM   30  C   UNL     1      -6.046  14.006  70.163  1.00  0.00    -0.154 C  
HETATM   31  O   UNL     1      -5.674  13.861  67.786  1.00  0.00    -0.215 OA 
ENDBRANCH  28  29
ENDBRANCH  27  28
ENDBRANCH  25  27
ENDBRANCH   4  25
BRANCH   4  32
HETATM   32  O   UNL     1      -9.191   9.841  65.950  1.00  0.00    -0.162 OA 
BRANCH  32  33
HETATM   33  C   UNL     1      -8.266   9.503  65.002  1.00  0.00    -0.136 C  
HETATM   34  O   UNL     1      -7.100   9.223  65.235  1.00  0.00    -0.086 OA 
BRANCH  33  35
HETATM   35  C   UNL     1      -8.856   9.517  63.618  1.00  0.00    -0.236 C  
BRANCH  35  36
HETATM   36  C   UNL     1      -7.987   8.698  62.678  1.00  0.00    -0.150 C  
HETATM   37  C   UNL     1      -8.233   7.202  62.828  1.00  0.00     0.001 C  
ENDBRANCH  35  36
ENDBRANCH  33  35
ENDBRANCH  32  33
ENDBRANCH   4  32
TORSDOF 8
ENDMDL
MODEL       91
REMARK 921   NORMALIZED FREE ENERGY PREDICTED BY IDOCK:   -2.83 KCAL/MOL
REMARK 922        TOTAL FREE ENERGY PREDICTED BY IDOCK:   -3.90 KCAL/MOL
REMARK 923 INTER-LIGAND FREE ENERGY PREDICTED BY IDOCK:   -5.03 KCAL/MOL
REMARK 924 INTRA-LIGAND FREE ENERGY PREDICTED BY IDOCK:    1.13 KCAL/MOL
REMARK 927      BINDING AFFINITY PREDICTED BY RF-SCORE:    0.00 PKD
ROOT
HETATM    1  C   UNL     1      -7.273   8.945  68.252  1.00  0.00    -0.079 C  
HETATM    2  C   UNL     1      -5.862   8.967  68.401  1.00  0.00    -0.041 C  
HETATM    3  C   UNL     1      -6.479   9.696  67.269  1.00  0.00    -0.069 C  
HETATM    4  C   UNL     1      -8.543   9.922  67.315  1.00  0.00    -0.125 C  
HETATM    5  C   UNL     1      -7.444  10.708  67.365  1.00  0.00    -0.094 C  
HETATM    6  C   UNL     1      -7.564   3.232  64.806  1.00  0.00    -0.077 C  
HETATM    7  C   UNL     1      -6.424   3.803  65.609  1.00  0.00    -0.033 C  
HETATM    8  C   UNL     1      -6.838   5.013  66.041  1.00  0.00    -0.061 C  
HETATM    9  F   UNL     1      -7.606   3.974  68.031  1.00  0.00    -0.065 F  
HETATM   10  C   UNL     1      -7.344  10.534  65.478  1.00  0.00    -0.106 C  
HETATM   11  C   UNL     1      -7.781   5.059  67.225  1.00  0.00    -0.092 C  
HETATM   12  C   UNL     1      -7.198  11.946  68.272  1.00  0.00    -0.089 C  
HETATM   13  C   UNL     1      -7.484   6.293  68.044  1.00  0.00    -0.090 C  
HETATM   14  O   UNL     1      -7.793   2.032  64.786  1.00  0.00    -0.067 OA 
HETATM   15  C   UNL     1      -7.575   8.896  64.904  1.00  0.00    -0.108 C  
HETATM   16  C   UNL     1      -8.357   4.219  63.981  1.00  0.00    -0.103 C  
HETATM   17  O   UNL     1      -8.923   8.758  64.451  1.00  0.00    -0.427 OA 
HETATM   18  C   UNL     1      -7.102   7.540  65.767  1.00  0.00    -0.065 C  
HETATM   19  C   UNL     1      -5.829   6.232  64.029  1.00  0.00    -0.022 C  
HETATM   20  C   UNL     1      -7.075   6.130  64.989  1.00  0.00    -0.061 C  
HETATM   21  H   UNL     1      -9.048   7.869  64.140  1.00  0.00     0.000 HD 
HETATM   22  C   UNL     1      -7.744   7.567  67.234  1.00  0.00    -0.116 C  
HETATM   23  F   UNL     1      -5.725   7.623  66.004  1.00  0.00    -0.033 F  
HETATM   24  C   UNL     1      -8.172   5.560  64.085  1.00  0.00    -0.120 C  
ENDROOT
BRANCH   4  25
HETATM   25  C   UNL     1      -9.526  11.193  66.760  1.00  0.00    -0.184 C  
HETATM   26  O   UNL     1     -10.476  11.085  65.966  1.00  0.00    -0.253 OA 
BRANCH  25  27
HETATM   27  C   UNL     1      -9.204  12.635  67.144  1.00  0.00    -0.214 C  
BRANCH  27  28
HETATM   28  O   UNL     1     -10.363  13.480  67.033  1.00  0.00    -0.249 OA 
BRANCH  28  29
HETATM   29  C   UNL     1     -10.679  14.146  68.174  1.00  0.00    -0.245 C  
HETATM   30  C   UNL     1     -12.024  13.733  68.700  1.00  0.00    -0.401 C  
HETATM   31  O   UNL     1      -9.960  14.979  68.692  1.00  0.00    -0.207 OA 
ENDBRANCH  28  29
ENDBRANCH  27  28
ENDBRANCH  25  27
ENDBRANCH   4  25
BRANCH   4  32
HETATM   32  O   UNL     1      -9.191  10.093  68.724  1.00  0.00    -0.149 OA 
BRANCH  32  33
HETATM   33  C   UNL     1     -10.199   9.260  69.122  1.00  0.00    -0.206 C  
HETATM   34  O   UNL     1     -11.363   9.355  68.765  1.00  0.00     0.074 OA 
BRANCH  33  35
HETATM   35  C   UNL     1      -9.704   8.199  70.066  1.00  0.00    -0.172 C  
BRANCH  35  36
HETATM   36  C   UNL     1      -9.205   8.842  71.350  1.00  0.00    -0.325 C  
HETATM   37  C   UNL     1      -9.867   8.245  72.586  1.00  0.00    -0.357 C  
ENDBRANCH  35  36
ENDBRANCH  33  35
ENDBRANCH  32  33
ENDBRANCH   4  32
TORSDOF 8
ENDMDL
MODEL       92
REMARK 921   NORMALIZED FREE ENERGY PREDICTED BY IDOCK:   -2.76 KCAL/MOL
REMARK 922        TOTAL FREE ENERGY PREDICTED BY IDOCK:   -3.80 KCAL/MOL
REMARK 923 INTER-LIGAND FREE ENERGY PREDICTED BY IDOCK:   -5.33 KCAL/MOL
REMARK 924 INTRA-LIGAND FREE ENERGY PREDICTED BY IDOCK:    1.53 KCAL/MOL
REMARK 927      BINDING AFFINITY PREDICTED BY RF-SCORE:    0.00 PKD
ROOT
HETATM    1  C   UNL     1      -7.061   8.127  68.664  1.00  0.00    -0.072 C  
HETATM    2  C   UNL     1      -5.818   7.999  67.992  1.00  0.00    -0.041 C  
HETATM    3  C   UNL     1      -7.064   7.636  67.279  1.00  0.00    -0.085 C  
HETATM    4  C   UNL     1      -8.852   8.183  68.181  1.00  0.00    -0.132 C  
HETATM    5  C   UNL     1      -8.163   8.475  67.056  1.00  0.00    -0.107 C  
HETATM    6  C   UNL     1      -6.930   2.137  71.613  1.00  0.00    -0.031 C  
HETATM    7  C   UNL     1      -5.812   2.896  70.947  1.00  0.00    -0.014 C  
HETATM    8  C   UNL     1      -6.368   4.016  70.439  1.00  0.00    -0.027 C  
HETATM    9  F   UNL     1      -5.814   5.137  72.455  1.00  0.00    -0.017 F  
HETATM   10  C   UNL     1      -8.839   6.856  66.331  1.00  0.00    -0.155 C  
HETATM   11  C   UNL     1      -6.663   5.157  71.390  1.00  0.00    -0.043 C  
HETATM   12  C   UNL     1      -7.969   9.867  66.392  1.00  0.00    -0.111 C  
HETATM   13  C   UNL     1      -6.463   6.467  70.665  1.00  0.00    -0.044 C  
HETATM   14  O   UNL     1      -6.739   1.469  72.618  1.00  0.00    -0.017 OA 
HETATM   15  C   UNL     1      -8.746   5.495  67.428  1.00  0.00    -0.107 C  
HETATM   16  C   UNL     1      -8.276   2.198  70.928  1.00  0.00    -0.066 C  
HETATM   17  O   UNL     1     -10.030   5.303  68.025  1.00  0.00    -0.142 OA 
HETATM   18  C   UNL     1      -7.533   5.310  68.567  1.00  0.00    -0.072 C  
HETATM   19  C   UNL     1      -6.787   2.937  68.155  1.00  0.00    -0.048 C  
HETATM   20  C   UNL     1      -7.386   3.870  69.276  1.00  0.00    -0.053 C  
HETATM   21  H   UNL     1      -9.980   4.565  68.620  1.00  0.00     0.000 HD 
HETATM   22  C   UNL     1      -7.447   6.608  69.500  1.00  0.00    -0.093 C  
HETATM   23  F   UNL     1      -6.300   5.292  67.905  1.00  0.00    -0.033 F  
HETATM   24  C   UNL     1      -8.513   3.024  69.875  1.00  0.00    -0.094 C  
ENDROOT
BRANCH   4  25
HETATM   25  C   UNL     1     -10.333   8.658  67.496  1.00  0.00    -0.269 C  
HETATM   26  O   UNL     1     -11.101   7.930  66.844  1.00  0.00    -0.036 OA 
BRANCH  25  27
HETATM   27  C   UNL     1     -10.770  10.119  67.554  1.00  0.00    -0.290 C  
BRANCH  27  28
HETATM   28  O   UNL     1     -11.029  10.643  66.239  1.00  0.00    -0.099 OA 
BRANCH  28  29
HETATM   29  C   UNL     1     -11.264  11.980  66.208  1.00  0.00    -0.342 C  
HETATM   30  C   UNL     1     -10.113  12.757  66.780  1.00  0.00    -0.239 C  
HETATM   31  O   UNL     1     -12.288  12.477  65.779  1.00  0.00    -0.627 OA 
ENDBRANCH  28  29
ENDBRANCH  27  28
ENDBRANCH  25  27
ENDBRANCH   4  25
BRANCH   4  32
HETATM   32  O   UNL     1      -8.844   9.520  68.985  1.00  0.00    -0.134 OA 
BRANCH  32  33
HETATM   33  C   UNL     1      -9.059   9.512  70.335  1.00  0.00    -0.246 C  
HETATM   34  O   UNL     1      -8.186   9.392  71.180  1.00  0.00    -0.314 OA 
BRANCH  33  35
HETATM   35  C   UNL     1     -10.519   9.669  70.666  1.00  0.00    -0.379 C  
BRANCH  35  36
HETATM   36  C   UNL     1     -11.036   8.403  71.329  1.00  0.00    -0.307 C  
HETATM   37  C   UNL     1     -12.161   8.690  72.316  1.00  0.00    -0.443 C  
ENDBRANCH  35  36
ENDBRANCH  33  35
ENDBRANCH  32  33
ENDBRANCH   4  32
TORSDOF 8
ENDMDL
MODEL       93
REMARK 921   NORMALIZED FREE ENERGY PREDICTED BY IDOCK:   -2.68 KCAL/MOL
REMARK 922        TOTAL FREE ENERGY PREDICTED BY IDOCK:   -3.68 KCAL/MOL
REMARK 923 INTER-LIGAND FREE ENERGY PREDICTED BY IDOCK:   -5.10 KCAL/MOL
REMARK 924 INTRA-LIGAND FREE ENERGY PREDICTED BY IDOCK:    1.42 KCAL/MOL
REMARK 927      BINDING AFFINITY PREDICTED BY RF-SCORE:    0.00 PKD
ROOT
HETATM    1  C   UNL     1      -9.238   9.915  66.304  1.00  0.00    -0.208 C  
HETATM    2  C   UNL     1     -10.572   9.668  65.889  1.00  0.00     0.221 C  
HETATM    3  C   UNL     1     -10.333  10.531  67.069  1.00  0.00    -0.289 C  
HETATM    4  C   UNL     1      -8.375  11.139  67.401  1.00  0.00    -0.135 C  
HETATM    5  C   UNL     1      -9.565  11.703  67.094  1.00  0.00    -0.185 C  
HETATM    6  C   UNL     1      -8.618   4.454  70.097  1.00  0.00    -0.073 C  
HETATM    7  C   UNL     1      -9.660   4.779  69.057  1.00  0.00    -0.233 C  
HETATM    8  C   UNL     1      -9.391   6.033  68.636  1.00  0.00    -0.121 C  
HETATM    9  F   UNL     1      -8.071   5.104  66.898  1.00  0.00    -0.104 F  
HETATM   10  C   UNL     1     -10.004  11.564  68.935  1.00  0.00    -0.117 C  
HETATM   11  C   UNL     1      -8.256   6.224  67.652  1.00  0.00    -0.117 C  
HETATM   12  C   UNL     1      -9.843  12.848  66.080  1.00  0.00    -0.270 C  
HETATM   13  C   UNL     1      -8.601   7.358  66.715  1.00  0.00    -0.127 C  
HETATM   14  O   UNL     1      -8.186   3.319  70.235  1.00  0.00    -0.045 OA 
HETATM   15  C   UNL     1      -9.602  10.014  69.644  1.00  0.00    -0.226 C  
HETATM   16  C   UNL     1      -8.194   5.594  70.994  1.00  0.00    -0.121 C  
HETATM   17  O   UNL     1      -8.368  10.144  70.353  1.00  0.00    -0.380 OA 
HETATM   18  C   UNL     1      -9.644   8.572  68.795  1.00  0.00    -0.149 C  
HETATM   19  C   UNL     1     -10.982   7.094  70.339  1.00  0.00    -0.290 C  
HETATM   20  C   UNL     1      -9.572   7.203  69.641  1.00  0.00    -0.154 C  
HETATM   21  H   UNL     1      -8.150   9.303  70.738  1.00  0.00     0.000 HD 
HETATM   22  C   UNL     1      -8.739   8.679  67.478  1.00  0.00    -0.135 C  
HETATM   23  F   UNL     1     -10.939   8.388  68.296  1.00  0.00    -0.165 F  
HETATM   24  C   UNL     1      -8.592   6.874  70.771  1.00  0.00    -0.144 C  
ENDROOT
BRANCH   4  25
HETATM   25  C   UNL     1      -7.766  12.587  68.051  1.00  0.00    -0.140 C  
HETATM   26  O   UNL     1      -7.106  12.693  69.099  1.00  0.00    -0.070 OA 
BRANCH  25  27
HETATM   27  C   UNL     1      -8.112  13.924  67.402  1.00  0.00    -0.178 C  
BRANCH  27  28
HETATM   28  O   UNL     1      -7.790  15.027  68.267  1.00  0.00    -0.112 OA 
BRANCH  28  29
HETATM   29  C   UNL     1      -8.490  16.162  68.007  1.00  0.00    -0.168 C  
HETATM   30  C   UNL     1      -7.922  16.904  66.832  1.00  0.00    -0.248 C  
HETATM   31  O   UNL     1      -9.450  16.529  68.658  1.00  0.00    -0.225 OA 
ENDBRANCH  28  29
ENDBRANCH  27  28
ENDBRANCH  25  27
ENDBRANCH   4  25
BRANCH   4  32
HETATM   32  O   UNL     1      -7.501  11.391  66.133  1.00  0.00    -0.032 OA 
BRANCH  32  33
HETATM   33  C   UNL     1      -6.223  10.911  66.073  1.00  0.00    -0.115 C  
HETATM   34  O   UNL     1      -5.448  10.875  67.016  1.00  0.00    -0.043 OA 
BRANCH  33  35
HETATM   35  C   UNL     1      -5.874  10.428  64.691  1.00  0.00    -0.124 C  
BRANCH  35  36
HETATM   36  C   UNL     1      -5.275   9.034  64.769  1.00  0.00    -0.042 C  
HETATM   37  C   UNL     1      -5.388   8.437  66.167  1.00  0.00    -0.034 C  
ENDBRANCH  35  36
ENDBRANCH  33  35
ENDBRANCH  32  33
ENDBRANCH   4  32
TORSDOF 8
ENDMDL
MODEL       94
REMARK 921   NORMALIZED FREE ENERGY PREDICTED BY IDOCK:   -2.59 KCAL/MOL
REMARK 922        TOTAL FREE ENERGY PREDICTED BY IDOCK:   -3.54 KCAL/MOL
REMARK 923 INTER-LIGAND FREE ENERGY PREDICTED BY IDOCK:   -3.76 KCAL/MOL
REMARK 924 INTRA-LIGAND FREE ENERGY PREDICTED BY IDOCK:    0.22 KCAL/MOL
REMARK 927      BINDING AFFINITY PREDICTED BY RF-SCORE:    0.00 PKD
ROOT
HETATM    1  C   UNL     1      -8.910  14.386  68.207  1.00  0.00    -0.182 C  
HETATM    2  C   UNL     1      -8.230  13.409  68.979  1.00  0.00     0.311 C  
HETATM    3  C   UNL     1      -9.265  12.973  68.014  1.00  0.00    -0.212 C  
HETATM    4  C   UNL     1      -9.958  14.401  66.674  1.00  0.00    -0.272 C  
HETATM    5  C   UNL     1      -9.275  13.235  66.637  1.00  0.00    -0.222 C  
HETATM    6  C   UNL     1     -13.623  15.754  72.737  1.00  0.00    -0.580 C  
HETATM    7  C   UNL     1     -12.320  15.017  72.910  1.00  0.00    -0.466 C  
HETATM    8  C   UNL     1     -11.767  14.937  71.681  1.00  0.00    -0.395 C  
HETATM    9  F   UNL     1     -10.593  16.947  72.141  1.00  0.00     1.440 F  
HETATM   10  C   UNL     1     -10.948  12.356  66.811  1.00  0.00    -0.305 C  
HETATM   11  C   UNL     1     -11.074  16.167  71.132  1.00  0.00    -0.060 C  
HETATM   12  C   UNL     1      -8.043  12.880  65.759  1.00  0.00     2.117 C  
HETATM   13  C   UNL     1      -9.901  15.734  70.286  1.00  0.00     0.267 C  
HETATM   14  O   UNL     1     -14.057  16.497  73.604  1.00  0.00    -0.153 OA 
HETATM   15  C   UNL     1     -11.991  13.052  68.034  1.00  0.00    -0.290 C  
HETATM   16  C   UNL     1     -14.386  15.467  71.464  1.00  0.00    -0.452 C  
HETATM   17  O   UNL     1     -12.947  13.895  67.389  1.00  0.00     0.076 OA 
HETATM   18  C   UNL     1     -11.419  13.771  69.434  1.00  0.00    -0.286 C  
HETATM   19  C   UNL     1     -12.819  12.651  71.206  1.00  0.00    -0.344 C  
HETATM   20  C   UNL     1     -12.480  14.071  70.608  1.00  0.00    -0.435 C  
HETATM   21  H   UNL     1     -13.513  14.274  68.053  1.00  0.00     0.000 HD 
HETATM   22  C   UNL     1     -10.366  14.923  69.073  1.00  0.00    -0.245 C  
HETATM   23  F   UNL     1     -10.657  12.831  70.137  1.00  0.00     0.560 F  
HETATM   24  C   UNL     1     -13.855  14.727  70.456  1.00  0.00     0.364 C  
ENDROOT
BRANCH   4  25
HETATM   25  C   UNL     1     -10.477  14.243  65.064  1.00  0.00    -0.435 C  
HETATM   26  O   UNL     1      -9.809  13.776  64.126  1.00  0.00     0.107 OA 
BRANCH  25  27
HETATM   27  C   UNL     1     -11.832  14.802  64.638  1.00  0.00    -0.436 C  
BRANCH  27  28
HETATM   28  O   UNL     1     -12.440  13.988  63.619  1.00  0.00    -0.803 OA 
BRANCH  28  29
HETATM   29  C   UNL     1     -12.773  12.737  64.030  1.00  0.00    -0.206 C  
HETATM   30  C   UNL     1     -12.197  11.687  63.124  1.00  0.00    -0.150 C  
HETATM   31  O   UNL     1     -13.461  12.506  65.005  1.00  0.00    -0.436 OA 
ENDBRANCH  28  29
ENDBRANCH  27  28
ENDBRANCH  25  27
ENDBRANCH   4  25
BRANCH   4  32
HETATM   32  O   UNL     1      -8.918  15.460  66.190  1.00  0.00    -0.312 OA 
BRANCH  32  33
HETATM   33  C   UNL     1      -9.172  16.794  66.348  1.00  0.00    -0.279 C  
HETATM   34  O   UNL     1     -10.286  17.295  66.361  1.00  0.00    -0.314 OA 
BRANCH  33  35
HETATM   35  C   UNL     1      -7.903  17.587  66.506  1.00  0.00    -0.312 C  
BRANCH  35  36
HETATM   36  C   UNL     1      -7.681  17.919  67.973  1.00  0.00    -0.245 C  
HETATM   37  C   UNL     1      -6.355  17.376  68.490  1.00  0.00    -0.176 C  
ENDBRANCH  35  36
ENDBRANCH  33  35
ENDBRANCH  32  33
ENDBRANCH   4  32
TORSDOF 8
ENDMDL
MODEL       95
REMARK 921   NORMALIZED FREE ENERGY PREDICTED BY IDOCK:   -2.58 KCAL/MOL
REMARK 922        TOTAL FREE ENERGY PREDICTED BY IDOCK:   -3.52 KCAL/MOL
REMARK 923 INTER-LIGAND FREE ENERGY PREDICTED BY IDOCK:   -4.47 KCAL/MOL
REMARK 924 INTRA-LIGAND FREE ENERGY PREDICTED BY IDOCK:    0.95 KCAL/MOL
REMARK 927      BINDING AFFINITY PREDICTED BY RF-SCORE:    0.00 PKD
ROOT
HETATM    1  C   UNL     1     -10.037   9.386  67.237  1.00  0.00    -0.285 C  
HETATM    2  C   UNL     1     -11.160   9.389  68.104  1.00  0.00    -0.000 C  
HETATM    3  C   UNL     1      -9.825   9.722  68.652  1.00  0.00    -0.168 C  
HETATM    4  C   UNL     1      -8.303  10.049  67.277  1.00  0.00    -0.121 C  
HETATM    5  C   UNL     1      -8.983  10.752  68.211  1.00  0.00    -0.143 C  
HETATM    6  C   UNL     1      -8.701   2.866  67.784  1.00  0.00    -0.114 C  
HETATM    7  C   UNL     1      -9.945   3.620  68.176  1.00  0.00     0.211 C  
HETATM    8  C   UNL     1      -9.686   4.922  67.937  1.00  0.00    -0.202 C  
HETATM    9  F   UNL     1     -10.633   4.655  65.778  1.00  0.00    -0.274 F  
HETATM   10  C   UNL     1      -7.855   9.946  69.507  1.00  0.00    -0.140 C  
HETATM   11  C   UNL     1      -9.763   5.411  66.506  1.00  0.00    -0.164 C  
HETATM   12  C   UNL     1      -9.510  12.211  68.108  1.00  0.00    -0.205 C  
HETATM   13  C   UNL     1     -10.271   6.833  66.497  1.00  0.00    -0.125 C  
HETATM   14  O   UNL     1      -8.758   1.742  67.308  1.00  0.00    -0.091 OA 
HETATM   15  C   UNL     1      -7.636   8.224  69.283  1.00  0.00    -0.094 C  
HETATM   16  C   UNL     1      -7.386   3.552  68.076  1.00  0.00    -0.054 C  
HETATM   17  O   UNL     1      -6.383   8.005  68.633  1.00  0.00    -0.049 OA 
HETATM   18  C   UNL     1      -8.814   7.218  68.645  1.00  0.00    -0.129 C  
HETATM   19  C   UNL     1      -8.866   5.340  70.326  1.00  0.00    -0.145 C  
HETATM   20  C   UNL     1      -8.604   5.629  68.798  1.00  0.00    -0.104 C  
HETATM   21  H   UNL     1      -6.264   7.070  68.511  1.00  0.00     0.000 HD 
HETATM   22  C   UNL     1      -9.299   7.770  67.222  1.00  0.00    -0.175 C  
HETATM   23  F   UNL     1      -9.958   7.311  69.446  1.00  0.00    -0.162 F  
HETATM   24  C   UNL     1      -7.325   4.840  68.505  1.00  0.00    -0.065 C  
ENDROOT
BRANCH   4  25
HETATM   25  C   UNL     1      -6.971  11.103  67.336  1.00  0.00    -0.093 C  
HETATM   26  O   UNL     1      -5.778  10.765  67.425  1.00  0.00    -0.044 OA 
BRANCH  25  27
HETATM   27  C   UNL     1      -7.191  12.612  67.397  1.00  0.00    -0.138 C  
BRANCH  27  28
HETATM   28  O   UNL     1      -6.341  13.227  68.382  1.00  0.00    -0.072 OA 
BRANCH  28  29
HETATM   29  C   UNL     1      -6.622  14.534  68.622  1.00  0.00    -0.087 C  
HETATM   30  C   UNL     1      -7.217  15.202  67.416  1.00  0.00    -0.231 C  
HETATM   31  O   UNL     1      -6.404  15.089  69.682  1.00  0.00    -0.120 OA 
ENDBRANCH  28  29
ENDBRANCH  27  28
ENDBRANCH  25  27
ENDBRANCH   4  25
BRANCH   4  32
HETATM   32  O   UNL     1      -8.718  10.716  65.928  1.00  0.00    -0.164 OA 
BRANCH  32  33
HETATM   33  C   UNL     1      -8.585  10.031  64.753  1.00  0.00    -0.177 C  
HETATM   34  O   UNL     1      -9.472   9.886  63.927  1.00  0.00    -0.273 OA 
BRANCH  33  35
HETATM   35  C   UNL     1      -7.199   9.466  64.593  1.00  0.00    -0.104 C  
BRANCH  35  36
HETATM   36  C   UNL     1      -7.222   8.322  63.593  1.00  0.00    -0.093 C  
HETATM   37  C   UNL     1      -5.982   8.309  62.708  1.00  0.00    -0.082 C  
ENDBRANCH  35  36
ENDBRANCH  33  35
ENDBRANCH  32  33
ENDBRANCH   4  32
TORSDOF 8
ENDMDL
MODEL       96
REMARK 921   NORMALIZED FREE ENERGY PREDICTED BY IDOCK:   -2.48 KCAL/MOL
REMARK 922        TOTAL FREE ENERGY PREDICTED BY IDOCK:   -3.38 KCAL/MOL
REMARK 923 INTER-LIGAND FREE ENERGY PREDICTED BY IDOCK:   -7.33 KCAL/MOL
REMARK 924 INTRA-LIGAND FREE ENERGY PREDICTED BY IDOCK:    3.95 KCAL/MOL
REMARK 927      BINDING AFFINITY PREDICTED BY RF-SCORE:    0.00 PKD
ROOT
HETATM    1  C   UNL     1      -7.912  10.368  68.151  1.00  0.00    -0.110 C  
HETATM    2  C   UNL     1      -7.132   9.476  67.371  1.00  0.00    -0.086 C  
HETATM    3  C   UNL     1      -8.599   9.515  67.170  1.00  0.00    -0.133 C  
HETATM    4  C   UNL     1      -9.626  11.078  68.073  1.00  0.00    -0.170 C  
HETATM    5  C   UNL     1      -9.356  10.641  66.823  1.00  0.00    -0.179 C  
HETATM    6  C   UNL     1      -8.677   6.297  73.389  1.00  0.00    -0.125 C  
HETATM    7  C   UNL     1      -7.707   6.199  72.239  1.00  0.00    -0.100 C  
HETATM    8  C   UNL     1      -8.009   7.217  71.406  1.00  0.00    -0.097 C  
HETATM    9  F   UNL     1      -6.399   8.543  72.538  1.00  0.00    -0.070 F  
HETATM   10  C   UNL     1     -10.750   9.375  67.062  1.00  0.00    -0.207 C  
HETATM   11  C   UNL     1      -7.529   8.605  71.778  1.00  0.00    -0.081 C  
HETATM   12  C   UNL     1      -8.976  11.492  65.578  1.00  0.00    -0.037 C  
HETATM   13  C   UNL     1      -7.193   9.364  70.516  1.00  0.00    -0.126 C  
HETATM   14  O   UNL     1      -8.355   5.980  74.525  1.00  0.00    -0.114 OA 
HETATM   15  C   UNL     1     -10.708   8.559  68.610  1.00  0.00    -0.041 C  
HETATM   16  C   UNL     1     -10.079   6.742  73.042  1.00  0.00    -0.212 C  
HETATM   17  O   UNL     1     -11.659   9.181  69.478  1.00  0.00    -0.419 OA 
HETATM   18  C   UNL     1      -9.292   8.218  69.435  1.00  0.00    -0.155 C  
HETATM   19  C   UNL     1      -9.588   5.778  69.996  1.00  0.00    -0.206 C  
HETATM   20  C   UNL     1      -9.376   7.187  70.671  1.00  0.00    -0.158 C  
HETATM   21  H   UNL     1     -11.636   8.738  70.318  1.00  0.00     0.000 HD 
HETATM   22  C   UNL     1      -8.436   9.556  69.642  1.00  0.00    -0.174 C  
HETATM   23  F   UNL     1      -8.480   7.426  68.615  1.00  0.00    -0.125 F  
HETATM   24  C   UNL     1     -10.406   7.195  71.803  1.00  0.00    -0.216 C  
ENDROOT
BRANCH   4  25
HETATM   25  C   UNL     1     -11.008  11.928  67.566  1.00  0.00    -0.247 C  
HETATM   26  O   UNL     1     -12.071  12.035  68.201  1.00  0.00    -0.480 OA 
BRANCH  25  27
HETATM   27  C   UNL     1     -11.056  12.549  66.173  1.00  0.00    -0.298 C  
BRANCH  27  28
HETATM   28  O   UNL     1     -12.235  12.139  65.456  1.00  0.00    -0.549 OA 
BRANCH  28  29
HETATM   29  C   UNL     1     -12.281  12.568  64.168  1.00  0.00    -0.467 C  
HETATM   30  C   UNL     1     -11.648  11.578  63.233  1.00  0.00    -0.142 C  
HETATM   31  O   UNL     1     -12.766  13.630  63.826  1.00  0.00    -0.681 OA 
ENDBRANCH  28  29
ENDBRANCH  27  28
ENDBRANCH  25  27
ENDBRANCH   4  25
BRANCH   4  32
HETATM   32  O   UNL     1      -8.873  12.442  68.166  1.00  0.00    -0.182 OA 
BRANCH  32  33
HETATM   33  C   UNL     1      -9.570  13.600  68.365  1.00  0.00    -0.203 C  
HETATM   34  O   UNL     1     -10.410  13.767  69.236  1.00  0.00    -0.052 OA 
BRANCH  33  35
HETATM   35  C   UNL     1      -9.181  14.661  67.372  1.00  0.00    -0.201 C  
BRANCH  35  36
HETATM   36  C   UNL     1      -9.955  15.939  67.652  1.00  0.00    -0.237 C  
HETATM   37  C   UNL     1      -9.367  16.721  68.820  1.00  0.00    -0.254 C  
ENDBRANCH  35  36
ENDBRANCH  33  35
ENDBRANCH  32  33
ENDBRANCH   4  32
TORSDOF 8
ENDMDL
MODEL       97
REMARK 921   NORMALIZED FREE ENERGY PREDICTED BY IDOCK:   -2.41 KCAL/MOL
REMARK 922        TOTAL FREE ENERGY PREDICTED BY IDOCK:   -3.28 KCAL/MOL
REMARK 923 INTER-LIGAND FREE ENERGY PREDICTED BY IDOCK:   -3.33 KCAL/MOL
REMARK 924 INTRA-LIGAND FREE ENERGY PREDICTED BY IDOCK:    0.05 KCAL/MOL
REMARK 927      BINDING AFFINITY PREDICTED BY RF-SCORE:    0.00 PKD
ROOT
HETATM    1  C   UNL     1      -7.627  11.935  68.153  1.00  0.00    -0.121 C  
HETATM    2  C   UNL     1      -7.515  12.851  69.231  1.00  0.00     0.312 C  
HETATM    3  C   UNL     1      -8.419  11.685  69.366  1.00  0.00     0.649 C  
HETATM    4  C   UNL     1      -8.263  10.208  67.915  1.00  0.00    -0.109 C  
HETATM    5  C   UNL     1      -8.054  10.338  69.244  1.00  0.00    -0.156 C  
HETATM    6  C   UNL     1     -12.346  15.285  64.822  1.00  0.00     0.024 C  
HETATM    7  C   UNL     1     -11.460  15.753  65.947  1.00  0.00     0.244 C  
HETATM    8  C   UNL     1     -10.736  14.679  66.326  1.00  0.00    -0.316 C  
HETATM    9  F   UNL     1      -9.038  15.364  64.818  1.00  0.00     0.585 F  
HETATM   10  C   UNL     1      -9.929  10.146  69.465  1.00  0.00    -0.257 C  
HETATM   11  C   UNL     1      -9.551  14.283  65.471  1.00  0.00    -0.040 C  
HETATM   12  C   UNL     1      -6.881   9.760  70.084  1.00  0.00    -0.109 C  
HETATM   13  C   UNL     1      -8.466  13.724  66.361  1.00  0.00     0.485 C  
HETATM   14  O   UNL     1     -12.651  16.025  63.898  1.00  0.00    -0.706 OA 
HETATM   15  C   UNL     1     -10.876  11.097  68.341  1.00  0.00    -0.205 C  
HETATM   16  C   UNL     1     -12.886  13.878  64.940  1.00  0.00    -0.221 C  
HETATM   17  O   UNL     1     -11.313  10.245  67.280  1.00  0.00    -0.354 OA 
HETATM   18  C   UNL     1     -10.381  12.580  67.741  1.00  0.00    -0.222 C  
HETATM   19  C   UNL     1     -12.420  14.011  68.136  1.00  0.00     0.229 C  
HETATM   20  C   UNL     1     -11.479  13.485  66.985  1.00  0.00    -0.369 C  
HETATM   21  H   UNL     1     -11.826  10.761  66.669  1.00  0.00     0.000 HD 
HETATM   22  C   UNL     1      -8.935  12.448  67.067  1.00  0.00    -0.209 C  
HETATM   23  F   UNL     1     -10.169  13.447  68.819  1.00  0.00    -0.231 F  
HETATM   24  C   UNL     1     -12.464  13.023  65.908  1.00  0.00    -0.323 C  
ENDROOT
BRANCH   4  25
HETATM   25  C   UNL     1      -8.466   8.524  68.028  1.00  0.00    -0.131 C  
HETATM   26  O   UNL     1      -8.093   7.808  68.973  1.00  0.00    -0.121 OA 
BRANCH  25  27
HETATM   27  C   UNL     1      -9.052   7.742  66.856  1.00  0.00    -0.144 C  
BRANCH  27  28
HETATM   28  O   UNL     1     -10.489   7.700  66.918  1.00  0.00    -0.315 OA 
BRANCH  28  29
HETATM   29  C   UNL     1     -10.998   6.478  67.222  1.00  0.00    -0.400 C  
HETATM   30  C   UNL     1     -11.249   6.336  68.696  1.00  0.00    -0.328 C  
HETATM   31  O   UNL     1     -11.210   5.610  66.398  1.00  0.00    -0.075 OA 
ENDBRANCH  28  29
ENDBRANCH  27  28
ENDBRANCH  25  27
ENDBRANCH   4  25
BRANCH   4  32
HETATM   32  O   UNL     1      -6.837   9.954  67.333  1.00  0.00    -0.080 OA 
BRANCH  32  33
HETATM   33  C   UNL     1      -6.656   9.842  65.983  1.00  0.00    -0.086 C  
HETATM   34  O   UNL     1      -7.499  10.114  65.142  1.00  0.00    -0.134 OA 
BRANCH  33  35
HETATM   35  C   UNL     1      -5.279   9.338  65.646  1.00  0.00    -0.039 C  
BRANCH  35  36
HETATM   36  C   UNL     1      -5.215   7.834  65.857  1.00  0.00    -0.025 C  
HETATM   37  C   UNL     1      -5.517   7.062  64.579  1.00  0.00    -0.032 C  
ENDBRANCH  35  36
ENDBRANCH  33  35
ENDBRANCH  32  33
ENDBRANCH   4  32
TORSDOF 8
ENDMDL
MODEL       98
REMARK 921   NORMALIZED FREE ENERGY PREDICTED BY IDOCK:   -2.32 KCAL/MOL
REMARK 922        TOTAL FREE ENERGY PREDICTED BY IDOCK:   -3.15 KCAL/MOL
REMARK 923 INTER-LIGAND FREE ENERGY PREDICTED BY IDOCK:   -3.29 KCAL/MOL
REMARK 924 INTRA-LIGAND FREE ENERGY PREDICTED BY IDOCK:    0.14 KCAL/MOL
REMARK 927      BINDING AFFINITY PREDICTED BY RF-SCORE:    0.00 PKD
ROOT
HETATM    1  C   UNL     1      -7.264  15.749  68.047  1.00  0.00    -0.141 C  
HETATM    2  C   UNL     1      -6.076  15.735  67.271  1.00  0.00    -0.029 C  
HETATM    3  C   UNL     1      -7.326  15.198  66.685  1.00  0.00     0.711 C  
HETATM    4  C   UNL     1      -9.084  15.575  67.725  1.00  0.00    -0.178 C  
HETATM    5  C   UNL     1      -8.533  15.893  66.532  1.00  0.00    -0.348 C  
HETATM    6  C   UNL     1      -6.170   9.955  71.181  1.00  0.00     0.017 C  
HETATM    7  C   UNL     1      -5.211  10.807  70.392  1.00  0.00    -0.066 C  
HETATM    8  C   UNL     1      -5.937  11.831  69.896  1.00  0.00    -0.146 C  
HETATM    9  F   UNL     1      -5.351  13.099  71.813  1.00  0.00    -0.163 F  
HETATM   10  C   UNL     1      -9.070  14.176  65.929  1.00  0.00     0.262 C  
HETATM   11  C   UNL     1      -6.285  12.972  70.829  1.00  0.00     0.375 C  
HETATM   12  C   UNL     1      -8.563  17.267  65.805  1.00  0.00     0.212 C  
HETATM   13  C   UNL     1      -6.304  14.262  70.043  1.00  0.00    -0.150 C  
HETATM   14  O   UNL     1      -5.816   9.360  72.188  1.00  0.00    -0.198 OA 
HETATM   15  C   UNL     1      -8.722  12.886  67.060  1.00  0.00    -0.195 C  
HETATM   16  C   UNL     1      -7.567   9.829  70.618  1.00  0.00    -0.026 C  
HETATM   17  O   UNL     1      -9.919  12.574  67.776  1.00  0.00    -0.200 OA 
HETATM   18  C   UNL     1      -7.403  12.894  68.092  1.00  0.00    -0.119 C  
HETATM   19  C   UNL     1      -6.418  10.607  67.699  1.00  0.00    -0.057 C  
HETATM   20  C   UNL     1      -7.027  11.515  68.835  1.00  0.00    -0.100 C  
HETATM   21  H   UNL     1      -9.730  11.875  68.391  1.00  0.00     0.000 HD 
HETATM   22  C   UNL     1      -7.394  14.235  68.967  1.00  0.00    -0.117 C  
HETATM   23  F   UNL     1      -6.238  12.989  67.323  1.00  0.00    -0.159 F  
HETATM   24  C   UNL     1      -7.989  10.573  69.562  1.00  0.00    -0.119 C  
ENDROOT
BRANCH   4  25
HETATM   25  C   UNL     1     -10.664  15.844  67.159  1.00  0.00    -0.301 C  
HETATM   26  O   UNL     1     -11.055  16.851  66.545  1.00  0.00     0.082 OA 
BRANCH  25  27
HETATM   27  C   UNL     1     -11.776  14.854  67.493  1.00  0.00    -0.308 C  
BRANCH  27  28
HETATM   28  O   UNL     1     -12.590  14.569  66.341  1.00  0.00    -0.251 OA 
BRANCH  28  29
HETATM   29  C   UNL     1     -12.443  13.310  65.853  1.00  0.00    -0.368 C  
HETATM   30  C   UNL     1     -12.396  13.302  64.352  1.00  0.00    -0.410 C  
HETATM   31  O   UNL     1     -12.372  12.318  66.552  1.00  0.00    -0.504 OA 
ENDBRANCH  28  29
ENDBRANCH  27  28
ENDBRANCH  25  27
ENDBRANCH   4  25
BRANCH   4  32
HETATM   32  O   UNL     1      -9.166  16.940  68.477  1.00  0.00    -0.243 OA 
BRANCH  32  33
HETATM   33  C   UNL     1     -10.075  17.117  69.482  1.00  0.00    -0.016 C  
HETATM   34  O   UNL     1     -10.462  16.237  70.235  1.00  0.00    -0.171 OA 
BRANCH  33  35
HETATM   35  C   UNL     1     -10.555  18.541  69.554  1.00  0.00     0.875 C  
BRANCH  35  36
HETATM   36  C   UNL     1      -9.702  19.419  68.652  1.00  0.00    -0.504 C  
HETATM   37  C   UNL     1     -10.549  20.302  67.744  1.00  0.00    -0.234 C  
ENDBRANCH  35  36
ENDBRANCH  33  35
ENDBRANCH  32  33
ENDBRANCH   4  32
TORSDOF 8
ENDMDL
MODEL       99
REMARK 921   NORMALIZED FREE ENERGY PREDICTED BY IDOCK:   -2.16 KCAL/MOL
REMARK 922        TOTAL FREE ENERGY PREDICTED BY IDOCK:   -2.92 KCAL/MOL
REMARK 923 INTER-LIGAND FREE ENERGY PREDICTED BY IDOCK:   -5.62 KCAL/MOL
REMARK 924 INTRA-LIGAND FREE ENERGY PREDICTED BY IDOCK:    2.70 KCAL/MOL
REMARK 927      BINDING AFFINITY PREDICTED BY RF-SCORE:    0.00 PKD
ROOT
HETATM    1  C   UNL     1      -8.018  13.865  69.057  1.00  0.00     0.098 C  
HETATM    2  C   UNL     1      -6.678  13.862  68.590  1.00  0.00    -0.098 C  
HETATM    3  C   UNL     1      -7.742  14.420  67.724  1.00  0.00    -0.172 C  
HETATM    4  C   UNL     1      -9.600  14.723  68.601  1.00  0.00    -0.218 C  
HETATM    5  C   UNL     1      -8.612  15.467  68.055  1.00  0.00    -0.155 C  
HETATM    6  C   UNL     1      -9.528   7.685  67.029  1.00  0.00    -0.163 C  
HETATM    7  C   UNL     1      -8.177   8.338  67.171  1.00  0.00    -0.119 C  
HETATM    8  C   UNL     1      -8.414   9.615  67.537  1.00  0.00    -0.125 C  
HETATM    9  F   UNL     1      -8.230   8.940  69.803  1.00  0.00    -0.101 F  
HETATM   10  C   UNL     1      -9.314  14.987  66.358  1.00  0.00    -0.334 C  
HETATM   11  C   UNL     1      -8.769   9.886  68.984  1.00  0.00    -0.151 C  
HETATM   12  C   UNL     1      -8.053  16.827  68.560  1.00  0.00    -0.241 C  
HETATM   13  C   UNL     1      -8.200  11.225  69.389  1.00  0.00     0.264 C  
HETATM   14  O   UNL     1      -9.699   6.506  67.302  1.00  0.00    -0.123 OA 
HETATM   15  C   UNL     1      -9.705  13.287  66.208  1.00  0.00    -0.268 C  
HETATM   16  C   UNL     1     -10.632   8.553  66.469  1.00  0.00     0.054 C  
HETATM   17  O   UNL     1     -11.112  13.125  66.396  1.00  0.00    -0.282 OA 
HETATM   18  C   UNL     1      -8.862  12.073  66.996  1.00  0.00    -0.197 C  
HETATM   19  C   UNL     1      -8.395  10.457  65.118  1.00  0.00    -0.165 C  
HETATM   20  C   UNL     1      -9.114  10.555  66.518  1.00  0.00    -0.175 C  
HETATM   21  H   UNL     1     -11.324  12.203  66.315  1.00  0.00     0.000 HD 
HETATM   22  C   UNL     1      -8.824  12.359  68.571  1.00  0.00    -0.056 C  
HETATM   23  F   UNL     1      -7.518  12.145  66.612  1.00  0.00    -0.099 F  
HETATM   24  C   UNL     1     -10.469   9.886  66.267  1.00  0.00    -0.171 C  
ENDROOT
BRANCH   4  25
HETATM   25  C   UNL     1     -10.771  15.922  68.317  1.00  0.00    -0.291 C  
HETATM   26  O   UNL     1     -11.697  15.853  67.491  1.00  0.00    -0.016 OA 
BRANCH  25  27
HETATM   27  C   UNL     1     -10.675  17.270  69.026  1.00  0.00    -0.158 C  
BRANCH  27  28
HETATM   28  O   UNL     1      -9.880  18.204  68.273  1.00  0.00    -0.313 OA 
BRANCH  28  29
HETATM   29  C   UNL     1     -10.157  19.508  68.532  1.00  0.00    -0.445 C  
HETATM   30  C   UNL     1     -10.131  20.337  67.280  1.00  0.00    -0.545 C  
HETATM   31  O   UNL     1     -10.385  19.942  69.645  1.00  0.00    -0.177 OA 
ENDBRANCH  28  29
ENDBRANCH  27  28
ENDBRANCH  25  27
ENDBRANCH   4  25
BRANCH   4  32
HETATM   32  O   UNL     1      -9.598  15.142  70.105  1.00  0.00    -0.032 OA 
BRANCH  32  33
HETATM   33  C   UNL     1     -10.649  14.809  70.912  1.00  0.00     0.494 C  
HETATM   34  O   UNL     1     -10.823  15.239  72.042  1.00  0.00    -0.136 OA 
BRANCH  33  35
HETATM   35  C   UNL     1     -11.579  13.835  70.241  1.00  0.00    -0.187 C  
BRANCH  35  36
HETATM   36  C   UNL     1     -12.830  13.653  71.085  1.00  0.00    -0.399 C  
HETATM   37  C   UNL     1     -12.933  12.246  71.662  1.00  0.00    -0.416 C  
ENDBRANCH  35  36
ENDBRANCH  33  35
ENDBRANCH  32  33
ENDBRANCH   4  32
TORSDOF 8
ENDMDL
MODEL      100
REMARK 921   NORMALIZED FREE ENERGY PREDICTED BY IDOCK:   -2.03 KCAL/MOL
REMARK 922        TOTAL FREE ENERGY PREDICTED BY IDOCK:   -2.71 KCAL/MOL
REMARK 923 INTER-LIGAND FREE ENERGY PREDICTED BY IDOCK:   -2.94 KCAL/MOL
REMARK 924 INTRA-LIGAND FREE ENERGY PREDICTED BY IDOCK:    0.23 KCAL/MOL
REMARK 927      BINDING AFFINITY PREDICTED BY RF-SCORE:    0.00 PKD
ROOT
HETATM    1  C   UNL     1     -10.532  11.287  65.992  1.00  0.00    -0.310 C  
HETATM    2  C   UNL     1     -11.856  11.104  65.515  1.00  0.00     0.972 C  
HETATM    3  C   UNL     1     -11.560  12.259  66.393  1.00  0.00    -0.445 C  
HETATM    4  C   UNL     1      -9.557  12.670  66.756  1.00  0.00    -0.241 C  
HETATM    5  C   UNL     1     -10.610  13.261  66.149  1.00  0.00    -0.293 C  
HETATM    6  C   UNL     1     -11.109   7.308  71.323  1.00  0.00    -0.247 C  
HETATM    7  C   UNL     1     -12.004   7.420  70.116  1.00  0.00     0.128 C  
HETATM    8  C   UNL     1     -11.500   8.422  69.366  1.00  0.00     0.519 C  
HETATM    9  F   UNL     1     -10.233   6.812  68.170  1.00  0.00    -0.146 F  
HETATM   10  C   UNL     1     -11.196  13.783  67.877  1.00  0.00    -0.299 C  
HETATM   11  C   UNL     1     -10.281   8.129  68.516  1.00  0.00    -0.208 C  
HETATM   12  C   UNL     1     -10.619  14.045  64.807  1.00  0.00    -0.441 C  
HETATM   13  C   UNL     1     -10.364   8.937  67.242  1.00  0.00    -0.350 C  
HETATM   14  O   UNL     1     -10.884   6.230  71.854  1.00  0.00    -0.225 OA 
HETATM   15  C   UNL     1     -11.111  12.505  69.071  1.00  0.00    -0.234 C  
HETATM   16  C   UNL     1     -10.564   8.607  71.871  1.00  0.00    -0.411 C  
HETATM   17  O   UNL     1      -9.926  12.687  69.849  1.00  0.00     0.899 OA 
HETATM   18  C   UNL     1     -11.334  10.886  68.706  1.00  0.00    -0.292 C  
HETATM   19  C   UNL     1     -13.007  10.182  70.456  1.00  0.00    -0.214 C  
HETATM   20  C   UNL     1     -11.553   9.866  69.934  1.00  0.00    -0.184 C  
HETATM   21  H   UNL     1      -9.880  11.993  70.496  1.00  0.00     0.000 HD 
HETATM   22  C   UNL     1     -10.332  10.439  67.540  1.00  0.00    -0.268 C  
HETATM   23  F   UNL     1     -12.602  10.730  68.136  1.00  0.00     0.262 F  
HETATM   24  C   UNL     1     -10.725   9.788  71.220  1.00  0.00    -0.204 C  
ENDROOT
BRANCH   4  25
HETATM   25  C   UNL     1      -8.760  14.152  66.999  1.00  0.00    -0.204 C  
HETATM   26  O   UNL     1      -9.076  15.240  66.487  1.00  0.00    -0.258 OA 
BRANCH  25  27
HETATM   27  C   UNL     1      -7.474  14.205  67.818  1.00  0.00    -0.165 C  
BRANCH  27  28
HETATM   28  O   UNL     1      -7.466  13.202  68.850  1.00  0.00    -0.084 OA 
BRANCH  28  29
HETATM   29  C   UNL     1      -6.280  13.079  69.499  1.00  0.00    -0.117 C  
HETATM   30  C   UNL     1      -5.147  13.644  68.691  1.00  0.00    -0.076 C  
HETATM   31  O   UNL     1      -6.158  12.564  70.594  1.00  0.00    -0.217 OA 
ENDBRANCH  28  29
ENDBRANCH  27  28
ENDBRANCH  25  27
ENDBRANCH   4  25
BRANCH   4  32
HETATM   32  O   UNL     1      -8.565  12.377  65.587  1.00  0.00     0.496 OA 
BRANCH  32  33
HETATM   33  C   UNL     1      -7.730  11.297  65.648  1.00  0.00     0.305 C  
HETATM   34  O   UNL     1      -6.992  11.038  66.587  1.00  0.00    -0.124 OA 
BRANCH  33  35
HETATM   35  C   UNL     1      -7.823  10.451  64.407  1.00  0.00    -0.064 C  
BRANCH  35  36
HETATM   36  C   UNL     1      -6.897   9.252  64.530  1.00  0.00    -0.089 C  
HETATM   37  C   UNL     1      -7.576   7.956  64.103  1.00  0.00    -0.112 C  
ENDBRANCH  35  36
ENDBRANCH  33  35
ENDBRANCH  32  33
ENDBRANCH   4  32
TORSDOF 8
ENDMDL
MODEL      101
REMARK 921   NORMALIZED FREE ENERGY PREDICTED BY IDOCK:   -1.97 KCAL/MOL
REMARK 922        TOTAL FREE ENERGY PREDICTED BY IDOCK:   -2.64 KCAL/MOL
REMARK 923 INTER-LIGAND FREE ENERGY PREDICTED BY IDOCK:   -4.43 KCAL/MOL
REMARK 924 INTRA-LIGAND FREE ENERGY PREDICTED BY IDOCK:    1.80 KCAL/MOL
REMARK 927      BINDING AFFINITY PREDICTED BY RF-SCORE:    0.00 PKD
ROOT
HETATM    1  C   UNL     1     -10.171   7.121  67.721  1.00  0.00    -0.234 C  
HETATM    2  C   UNL     1     -11.578   7.296  67.678  1.00  0.00     0.919 C  
HETATM    3  C   UNL     1     -10.724   8.425  68.116  1.00  0.00    -0.094 C  
HETATM    4  C   UNL     1      -8.680   8.224  67.813  1.00  0.00    -0.134 C  
HETATM    5  C   UNL     1      -9.688   9.012  67.378  1.00  0.00    -0.217 C  
HETATM    6  C   UNL     1      -9.936   4.489  73.853  1.00  0.00    -0.159 C  
HETATM    7  C   UNL     1     -11.122   4.679  72.943  1.00  0.00    -0.273 C  
HETATM    8  C   UNL     1     -10.658   5.326  71.853  1.00  0.00    -0.274 C  
HETATM    9  F   UNL     1     -10.313   3.218  70.821  1.00  0.00     0.022 F  
HETATM   10  C   UNL     1      -9.514   9.976  69.003  1.00  0.00    -0.190 C  
HETATM   11  C   UNL     1      -9.907   4.519  70.814  1.00  0.00    -0.210 C  
HETATM   12  C   UNL     1      -9.943   9.522  65.932  1.00  0.00    -0.342 C  
HETATM   13  C   UNL     1     -10.200   5.085  69.445  1.00  0.00    -0.268 C  
HETATM   14  O   UNL     1      -9.830   3.501  74.565  1.00  0.00    -0.114 OA 
HETATM   15  C   UNL     1      -9.366   8.957  70.419  1.00  0.00    -0.193 C  
HETATM   16  C   UNL     1      -8.930   5.616  73.881  1.00  0.00    -0.126 C  
HETATM   17  O   UNL     1      -7.985   8.876  70.779  1.00  0.00    -0.100 OA 
HETATM   18  C   UNL     1     -10.100   7.458  70.559  1.00  0.00    -0.191 C  
HETATM   19  C   UNL     1     -11.219   7.632  72.812  1.00  0.00    -0.431 C  
HETATM   20  C   UNL     1     -10.151   6.783  72.021  1.00  0.00    -0.198 C  
HETATM   21  H   UNL     1      -7.905   8.322  71.547  1.00  0.00     0.000 HD 
HETATM   22  C   UNL     1      -9.691   6.525  69.324  1.00  0.00    -0.152 C  
HETATM   23  F   UNL     1     -11.482   7.625  70.408  1.00  0.00    -0.277 F  
HETATM   24  C   UNL     1      -8.992   6.660  73.014  1.00  0.00    -0.139 C  
ENDROOT
BRANCH   4  25
HETATM   25  C   UNL     1      -7.500   9.390  67.443  1.00  0.00    -0.091 C  
HETATM   26  O   UNL     1      -7.662  10.385  66.716  1.00  0.00    -0.108 OA 
BRANCH  25  27
HETATM   27  C   UNL     1      -6.063   9.204  67.922  1.00  0.00    -0.050 C  
BRANCH  27  28
HETATM   28  O   UNL     1      -5.647  10.289  68.771  1.00  0.00    -0.038 OA 
BRANCH  28  29
HETATM   29  C   UNL     1      -5.539   9.960  70.084  1.00  0.00    -0.044 C  
HETATM   30  C   UNL     1      -5.594   8.473  70.287  1.00  0.00    -0.021 C  
HETATM   31  O   UNL     1      -5.423  10.776  70.978  1.00  0.00    -0.104 OA 
ENDBRANCH  28  29
ENDBRANCH  27  28
ENDBRANCH  25  27
ENDBRANCH   4  25
BRANCH   4  32
HETATM   32  O   UNL     1      -8.241   7.437  66.538  1.00  0.00    -0.112 OA 
BRANCH  32  33
HETATM   33  C   UNL     1      -7.719   6.179  66.653  1.00  0.00    -0.103 C  
HETATM   34  O   UNL     1      -7.015   5.798  67.576  1.00  0.00    -0.065 OA 
BRANCH  33  35
HETATM   35  C   UNL     1      -8.115   5.304  65.495  1.00  0.00    -0.119 C  
BRANCH  35  36
HETATM   36  C   UNL     1      -8.911   4.111  65.998  1.00  0.00    -0.126 C  
HETATM   37  C   UNL     1      -8.010   2.996  66.512  1.00  0.00    -0.077 C  
ENDBRANCH  35  36
ENDBRANCH  33  35
ENDBRANCH  32  33
ENDBRANCH   4  32
TORSDOF 8
ENDMDL
MODEL      102
REMARK 921   NORMALIZED FREE ENERGY PREDICTED BY IDOCK:   -1.90 KCAL/MOL
REMARK 922        TOTAL FREE ENERGY PREDICTED BY IDOCK:   -2.53 KCAL/MOL
REMARK 923 INTER-LIGAND FREE ENERGY PREDICTED BY IDOCK:   -4.33 KCAL/MOL
REMARK 924 INTRA-LIGAND FREE ENERGY PREDICTED BY IDOCK:    1.79 KCAL/MOL
REMARK 927      BINDING AFFINITY PREDICTED BY RF-SCORE:    0.00 PKD
ROOT
HETATM    1  C   UNL     1      -8.413  11.784  66.067  1.00  0.00     0.125 C  
HETATM    2  C   UNL     1      -6.999  11.883  66.125  1.00  0.00     0.715 C  
HETATM    3  C   UNL     1      -7.724  11.249  67.250  1.00  0.00    -0.138 C  
HETATM    4  C   UNL     1      -9.731  10.815  66.944  1.00  0.00    -0.178 C  
HETATM    5  C   UNL     1      -8.579  10.143  67.164  1.00  0.00    -0.125 C  
HETATM    6  C   UNL     1      -9.682  17.839  68.579  1.00  0.00    -0.343 C  
HETATM    7  C   UNL     1      -8.390  17.284  68.037  1.00  0.00    -0.228 C  
HETATM    8  C   UNL     1      -8.636  15.994  67.728  1.00  0.00    -0.168 C  
HETATM    9  F   UNL     1      -9.167  16.683  65.521  1.00  0.00    -0.202 F  
HETATM   10  C   UNL     1      -8.787  10.571  69.002  1.00  0.00    -0.174 C  
HETATM   11  C   UNL     1      -9.378  15.700  66.441  1.00  0.00    -0.300 C  
HETATM   12  C   UNL     1      -8.100   8.827  66.489  1.00  0.00    -0.103 C  
HETATM   13  C   UNL     1      -8.862  14.405  65.859  1.00  0.00     0.599 C  
HETATM   14  O   UNL     1     -10.005  19.003  68.393  1.00  0.00    -0.364 OA 
HETATM   15  C   UNL     1      -9.232  12.238  69.295  1.00  0.00     0.862 C  
HETATM   16  C   UNL     1     -10.513  16.895  69.417  1.00  0.00    -0.283 C  
HETATM   17  O   UNL     1     -10.640  12.300  69.528  1.00  0.00    -0.425 OA 
HETATM   18  C   UNL     1      -8.739  13.510  68.322  1.00  0.00    -0.172 C  
HETATM   19  C   UNL     1      -7.857  15.154  70.018  1.00  0.00     0.227 C  
HETATM   20  C   UNL     1      -8.944  15.005  68.885  1.00  0.00    -0.202 C  
HETATM   21  H   UNL     1     -10.882  13.205  69.687  1.00  0.00     0.000 HD 
HETATM   22  C   UNL     1      -9.143  13.228  66.799  1.00  0.00    -0.216 C  
HETATM   23  F   UNL     1      -7.340  13.534  68.298  1.00  0.00    -0.083 F  
HETATM   24  C   UNL     1     -10.208  15.576  69.533  1.00  0.00    -0.279 C  
ENDROOT
BRANCH   4  25
HETATM   25  C   UNL     1     -10.685   9.536  67.531  1.00  0.00    -0.245 C  
HETATM   26  O   UNL     1     -10.775   8.404  67.026  1.00  0.00    -0.289 OA 
BRANCH  25  27
HETATM   27  C   UNL     1     -11.623   9.760  68.714  1.00  0.00     0.311 C  
BRANCH  27  28
HETATM   28  O   UNL     1     -11.143   9.097  69.897  1.00  0.00    -0.229 OA 
BRANCH  28  29
HETATM   29  C   UNL     1     -11.993   9.161  70.955  1.00  0.00    -0.282 C  
HETATM   30  C   UNL     1     -13.058  10.198  70.745  1.00  0.00    -0.351 C  
HETATM   31  O   UNL     1     -11.889   8.468  71.949  1.00  0.00    -0.296 OA 
ENDBRANCH  28  29
ENDBRANCH  27  28
ENDBRANCH  25  27
ENDBRANCH   4  25
BRANCH   4  32
HETATM   32  O   UNL     1     -10.139  10.399  65.496  1.00  0.00    -0.274 OA 
BRANCH  32  33
HETATM   33  C   UNL     1     -10.736  11.303  64.664  1.00  0.00    -0.303 C  
HETATM   34  O   UNL     1     -10.210  11.795  63.677  1.00  0.00    -0.348 OA 
BRANCH  33  35
HETATM   35  C   UNL     1     -12.136  11.630  65.109  1.00  0.00     0.334 C  
BRANCH  35  36
HETATM   36  C   UNL     1     -12.120  12.865  65.995  1.00  0.00    -0.484 C  
HETATM   37  C   UNL     1     -12.786  14.060  65.325  1.00  0.00    -0.418 C  
ENDBRANCH  35  36
ENDBRANCH  33  35
ENDBRANCH  32  33
ENDBRANCH   4  32
TORSDOF 8
ENDMDL
MODEL      103
REMARK 921   NORMALIZED FREE ENERGY PREDICTED BY IDOCK:   -1.59 KCAL/MOL
REMARK 922        TOTAL FREE ENERGY PREDICTED BY IDOCK:   -2.07 KCAL/MOL
REMARK 923 INTER-LIGAND FREE ENERGY PREDICTED BY IDOCK:   -3.38 KCAL/MOL
REMARK 924 INTRA-LIGAND FREE ENERGY PREDICTED BY IDOCK:    1.32 KCAL/MOL
REMARK 927      BINDING AFFINITY PREDICTED BY RF-SCORE:    0.00 PKD
ROOT
HETATM    1  C   UNL     1     -10.224  12.548  67.119  1.00  0.00    -0.225 C  
HETATM    2  C   UNL     1     -10.907  11.708  68.036  1.00  0.00    -0.259 C  
HETATM    3  C   UNL     1      -9.604  12.293  68.428  1.00  0.00    -0.183 C  
HETATM    4  C   UNL     1      -8.841  13.783  67.199  1.00  0.00    -0.231 C  
HETATM    5  C   UNL     1      -9.290  13.658  68.468  1.00  0.00    -0.128 C  
HETATM    6  C   UNL     1      -7.101   7.655  63.818  1.00  0.00    -0.066 C  
HETATM    7  C   UNL     1      -8.266   7.570  64.770  1.00  0.00    -0.068 C  
HETATM    8  C   UNL     1      -8.469   8.823  65.228  1.00  0.00    -0.191 C  
HETATM    9  F   UNL     1     -10.036   9.148  63.476  1.00  0.00     0.859 F  
HETATM   10  C   UNL     1      -7.594  12.923  68.899  1.00  0.00     0.054 C  
HETATM   11  C   UNL     1      -9.194   9.800  64.327  1.00  0.00    -0.232 C  
HETATM   12  C   UNL     1     -10.185  14.649  69.263  1.00  0.00    -0.156 C  
HETATM   13  C   UNL     1     -10.028  10.730  65.177  1.00  0.00    -0.351 C  
HETATM   14  O   UNL     1      -7.029   6.938  62.830  1.00  0.00    -0.049 OA 
HETATM   15  C   UNL     1      -7.024  11.734  67.747  1.00  0.00    -0.094 C  
HETATM   16  C   UNL     1      -6.005   8.626  64.192  1.00  0.00    -0.067 C  
HETATM   17  O   UNL     1      -6.088  12.363  66.869  1.00  0.00    -0.428 OA 
HETATM   18  C   UNL     1      -8.042  10.716  66.891  1.00  0.00    -0.124 C  
HETATM   19  C   UNL     1      -6.970   8.465  67.273  1.00  0.00    -0.075 C  
HETATM   20  C   UNL     1      -7.376   9.466  66.123  1.00  0.00    -0.096 C  
HETATM   21  H   UNL     1      -5.779  11.718  66.244  1.00  0.00     0.000 HD 
HETATM   22  C   UNL     1      -9.144  11.570  66.104  1.00  0.00    -0.217 C  
HETATM   23  F   UNL     1      -8.790   9.966  67.806  1.00  0.00    -0.126 F  
HETATM   24  C   UNL     1      -6.134   9.496  65.228  1.00  0.00    -0.067 C  
ENDROOT
BRANCH   4  25
HETATM   25  C   UNL     1      -7.912  15.156  67.576  1.00  0.00    -0.174 C  
HETATM   26  O   UNL     1      -6.674  15.240  67.504  1.00  0.00    -0.164 OA 
BRANCH  25  27
HETATM   27  C   UNL     1      -8.581  16.395  68.164  1.00  0.00    -0.193 C  
BRANCH  27  28
HETATM   28  O   UNL     1      -7.719  17.062  69.104  1.00  0.00    -0.217 OA 
BRANCH  28  29
HETATM   29  C   UNL     1      -7.331  18.305  68.719  1.00  0.00    -0.284 C  
HETATM   30  C   UNL     1      -7.658  18.563  67.276  1.00  0.00    -0.228 C  
HETATM   31  O   UNL     1      -6.777  19.099  69.455  1.00  0.00    -0.302 OA 
ENDBRANCH  28  29
ENDBRANCH  27  28
ENDBRANCH  25  27
ENDBRANCH   4  25
BRANCH   4  32
HETATM   32  O   UNL     1      -9.884  14.727  66.522  1.00  0.00    -0.250 OA 
BRANCH  32  33
HETATM   33  C   UNL     1      -9.890  14.884  65.165  1.00  0.00    -0.130 C  
HETATM   34  O   UNL     1      -9.942  13.969  64.358  1.00  0.00    -0.168 OA 
BRANCH  33  35
HETATM   35  C   UNL     1      -9.821  16.335  64.772  1.00  0.00     1.368 C  
BRANCH  35  36
HETATM   36  C   UNL     1     -11.046  17.069  65.293  1.00  0.00     0.097 C  
HETATM   37  C   UNL     1     -10.675  18.342  66.043  1.00  0.00    -0.218 C  
ENDBRANCH  35  36
ENDBRANCH  33  35
ENDBRANCH  32  33
ENDBRANCH   4  32
TORSDOF 8
ENDMDL
MODEL      104
REMARK 921   NORMALIZED FREE ENERGY PREDICTED BY IDOCK:   -1.28 KCAL/MOL
REMARK 922        TOTAL FREE ENERGY PREDICTED BY IDOCK:   -1.62 KCAL/MOL
REMARK 923 INTER-LIGAND FREE ENERGY PREDICTED BY IDOCK:   -4.63 KCAL/MOL
REMARK 924 INTRA-LIGAND FREE ENERGY PREDICTED BY IDOCK:    3.00 KCAL/MOL
REMARK 927      BINDING AFFINITY PREDICTED BY RF-SCORE:    0.00 PKD
ROOT
HETATM    1  C   UNL     1     -10.994  11.354  68.810  1.00  0.00    -0.272 C  
HETATM    2  C   UNL     1     -12.217  11.428  68.094  1.00  0.00     0.227 C  
HETATM    3  C   UNL     1     -10.991  10.997  67.383  1.00  0.00    -0.349 C  
HETATM    4  C   UNL     1      -9.332  10.567  68.556  1.00  0.00    -0.168 C  
HETATM    5  C   UNL     1     -10.175   9.911  67.727  1.00  0.00    -0.241 C  
HETATM    6  C   UNL     1      -9.280  17.758  68.013  1.00  0.00    -0.273 C  
HETATM    7  C   UNL     1     -10.615  17.094  67.793  1.00  0.00    -0.360 C  
HETATM    8  C   UNL     1     -10.420  15.777  68.014  1.00  0.00    -0.270 C  
HETATM    9  F   UNL     1     -11.059  16.120  70.273  1.00  0.00    -0.296 F  
HETATM   10  C   UNL     1      -9.169  10.630  66.286  1.00  0.00    -0.193 C  
HETATM   11  C   UNL     1     -10.346  15.301  69.449  1.00  0.00    -0.254 C  
HETATM   12  C   UNL     1     -10.786   8.495  67.915  1.00  0.00    -0.045 C  
HETATM   13  C   UNL     1     -10.949  13.919  69.541  1.00  0.00    -0.109 C  
HETATM   14  O   UNL     1      -9.195  18.885  68.478  1.00  0.00    -0.335 OA 
HETATM   15  C   UNL     1      -8.801  12.332  66.458  1.00  0.00    -0.128 C  
HETATM   16  C   UNL     1      -8.066  16.977  67.563  1.00  0.00    -0.189 C  
HETATM   17  O   UNL     1      -7.462  12.462  66.939  1.00  0.00    -0.357 OA 
HETATM   18  C   UNL     1      -9.812  13.422  67.229  1.00  0.00    -0.233 C  
HETATM   19  C   UNL     1      -9.947  15.293  65.544  1.00  0.00    -0.383 C  
HETATM   20  C   UNL     1      -9.511  14.992  67.030  1.00  0.00    -0.240 C  
HETATM   21  H   UNL     1      -7.262  13.386  67.033  1.00  0.00     0.000 HD 
HETATM   22  C   UNL     1     -10.148  12.912  68.709  1.00  0.00    -0.058 C  
HETATM   23  F   UNL     1     -11.053  13.410  66.582  1.00  0.00    -0.282 F  
HETATM   24  C   UNL     1      -8.152  15.687  67.147  1.00  0.00    -0.247 C  
ENDROOT
BRANCH   4  25
HETATM   25  C   UNL     1      -8.097   9.419  68.340  1.00  0.00    -0.109 C  
HETATM   26  O   UNL     1      -7.039   9.356  68.991  1.00  0.00    -0.064 OA 
BRANCH  25  27
HETATM   27  C   UNL     1      -8.176   8.414  67.194  1.00  0.00    -0.108 C  
BRANCH  27  28
HETATM   28  O   UNL     1      -6.930   7.718  67.018  1.00  0.00    -0.073 OA 
BRANCH  28  29
HETATM   29  C   UNL     1      -7.064   6.425  66.626  1.00  0.00    -0.069 C  
HETATM   30  C   UNL     1      -8.144   5.722  67.398  1.00  0.00    -0.102 C  
HETATM   31  O   UNL     1      -6.383   5.905  65.762  1.00  0.00    -0.039 OA 
ENDBRANCH  28  29
ENDBRANCH  27  28
ENDBRANCH  25  27
ENDBRANCH   4  25
BRANCH   4  32
HETATM   32  O   UNL     1      -9.615   9.936  69.955  1.00  0.00    -0.234 OA 
BRANCH  32  33
HETATM   33  C   UNL     1      -8.643   9.928  70.915  1.00  0.00     0.788 C  
HETATM   34  O   UNL     1      -7.654  10.645  70.911  1.00  0.00     0.705 OA 
BRANCH  33  35
HETATM   35  C   UNL     1      -8.933   8.919  71.993  1.00  0.00    -0.108 C  
BRANCH  35  36
HETATM   36  C   UNL     1      -7.674   8.131  72.314  1.00  0.00    -0.155 C  
HETATM   37  C   UNL     1      -7.008   8.610  73.598  1.00  0.00    -0.008 C  
ENDBRANCH  35  36
ENDBRANCH  33  35
ENDBRANCH  32  33
ENDBRANCH   4  32
TORSDOF 8
ENDMDL
MODEL      105
REMARK 921   NORMALIZED FREE ENERGY PREDICTED BY IDOCK:   -1.12 KCAL/MOL
REMARK 922        TOTAL FREE ENERGY PREDICTED BY IDOCK:   -1.39 KCAL/MOL
REMARK 923 INTER-LIGAND FREE ENERGY PREDICTED BY IDOCK:   -3.71 KCAL/MOL
REMARK 924 INTRA-LIGAND FREE ENERGY PREDICTED BY IDOCK:    2.32 KCAL/MOL
REMARK 927      BINDING AFFINITY PREDICTED BY RF-SCORE:    0.00 PKD
ROOT
HETATM    1  C   UNL     1      -9.209  13.467  68.164  1.00  0.00    -0.215 C  
HETATM    2  C   UNL     1      -8.353  12.797  69.076  1.00  0.00     0.426 C  
HETATM    3  C   UNL     1      -9.430  12.033  68.403  1.00  0.00    -0.181 C  
HETATM    4  C   UNL     1     -10.402  12.975  66.829  1.00  0.00    -0.254 C  
HETATM    5  C   UNL     1      -9.607  11.899  67.020  1.00  0.00    -0.196 C  
HETATM    6  C   UNL     1     -13.554  15.692  72.720  1.00  0.00    -0.593 C  
HETATM    7  C   UNL     1     -12.169  15.132  72.918  1.00  0.00    -0.493 C  
HETATM    8  C   UNL     1     -11.739  14.753  71.696  1.00  0.00    -0.334 C  
HETATM    9  F   UNL     1     -10.745  16.892  71.446  1.00  0.00     0.452 F  
HETATM   10  C   UNL     1     -11.151  10.982  67.635  1.00  0.00    -0.363 C  
HETATM   11  C   UNL     1     -11.240  15.828  70.753  1.00  0.00    -0.375 C  
HETATM   12  C   UNL     1      -8.440  11.405  66.120  1.00  0.00    -0.105 C  
HETATM   13  C   UNL     1     -10.120  15.264  69.912  1.00  0.00    -0.204 C  
HETATM   14  O   UNL     1     -13.974  16.614  73.404  1.00  0.00    -0.116 OA 
HETATM   15  C   UNL     1     -12.132  11.912  68.748  1.00  0.00    -0.124 C  
HETATM   16  C   UNL     1     -14.408  15.005  71.679  1.00  0.00    -0.680 C  
HETATM   17  O   UNL     1     -13.233  12.470  68.028  1.00  0.00     2.541 OA 
HETATM   18  C   UNL     1     -11.500  13.035  69.819  1.00  0.00    -0.143 C  
HETATM   19  C   UNL     1     -12.585  12.354  71.990  1.00  0.00     0.066 C  
HETATM   20  C   UNL     1     -12.462  13.571  70.994  1.00  0.00    -0.451 C  
HETATM   21  H   UNL     1     -13.765  12.975  68.631  1.00  0.00     0.000 HD 
HETATM   22  C   UNL     1     -10.617  14.114  69.031  1.00  0.00    -0.227 C  
HETATM   23  F   UNL     1     -10.575  12.387  70.646  1.00  0.00     1.527 F  
HETATM   24  C   UNL     1     -13.907  14.055  70.848  1.00  0.00     0.190 C  
ENDROOT
BRANCH   4  25
HETATM   25  C   UNL     1     -11.064  12.336  65.400  1.00  0.00    -0.311 C  
HETATM   26  O   UNL     1     -11.911  12.889  64.678  1.00  0.00    -0.351 OA 
BRANCH  25  27
HETATM   27  C   UNL     1     -10.714  10.916  64.962  1.00  0.00    -0.146 C  
BRANCH  27  28
HETATM   28  O   UNL     1     -10.261  10.884  63.597  1.00  0.00    -0.337 OA 
BRANCH  28  29
HETATM   29  C   UNL     1      -9.102  10.199  63.410  1.00  0.00    -0.276 C  
HETATM   30  C   UNL     1      -8.167  10.936  62.494  1.00  0.00    -0.216 C  
HETATM   31  O   UNL     1      -8.866   9.120  63.917  1.00  0.00    -0.182 OA 
ENDBRANCH  28  29
ENDBRANCH  27  28
ENDBRANCH  25  27
ENDBRANCH   4  25
BRANCH   4  32
HETATM   32  O   UNL     1      -9.536  13.931  65.950  1.00  0.00    -0.245 OA 
BRANCH  32  33
HETATM   33  C   UNL     1      -9.932  15.223  65.745  1.00  0.00    -0.360 C  
HETATM   34  O   UNL     1     -10.960  15.555  65.176  1.00  0.00    -0.377 OA 
BRANCH  33  35
HETATM   35  C   UNL     1      -8.939  16.204  66.308  1.00  0.00    -0.379 C  
BRANCH  35  36
HETATM   36  C   UNL     1      -9.575  17.582  66.405  1.00  0.00    -0.283 C  
HETATM   37  C   UNL     1     -10.415  17.738  67.667  1.00  0.00    -0.393 C  
ENDBRANCH  35  36
ENDBRANCH  33  35
ENDBRANCH  32  33
ENDBRANCH   4  32
TORSDOF 8
ENDMDL
MODEL      106
REMARK 921   NORMALIZED FREE ENERGY PREDICTED BY IDOCK:   -1.01 KCAL/MOL
REMARK 922        TOTAL FREE ENERGY PREDICTED BY IDOCK:   -1.22 KCAL/MOL
REMARK 923 INTER-LIGAND FREE ENERGY PREDICTED BY IDOCK:   -2.92 KCAL/MOL
REMARK 924 INTRA-LIGAND FREE ENERGY PREDICTED BY IDOCK:    1.69 KCAL/MOL
REMARK 927      BINDING AFFINITY PREDICTED BY RF-SCORE:    0.00 PKD
ROOT
HETATM    1  C   UNL     1      -7.127  12.133  68.137  1.00  0.00    -0.088 C  
HETATM    2  C   UNL     1      -7.062  13.100  69.173  1.00  0.00     0.021 C  
HETATM    3  C   UNL     1      -7.789  11.833  69.415  1.00  0.00     0.416 C  
HETATM    4  C   UNL     1      -7.542  10.328  68.005  1.00  0.00    -0.088 C  
HETATM    5  C   UNL     1      -7.257  10.541  69.309  1.00  0.00    -0.103 C  
HETATM    6  C   UNL     1     -12.481  14.688  65.072  1.00  0.00    -0.228 C  
HETATM    7  C   UNL     1     -11.587  15.316  66.109  1.00  0.00     0.008 C  
HETATM    8  C   UNL     1     -10.700  14.364  66.467  1.00  0.00    -0.306 C  
HETATM    9  F   UNL     1      -9.222  15.201  64.811  1.00  0.00     0.353 F  
HETATM   10  C   UNL     1      -9.068  10.115  69.681  1.00  0.00    -0.195 C  
HETATM   11  C   UNL     1      -9.537  14.091  65.536  1.00  0.00     0.003 C  
HETATM   12  C   UNL     1      -5.959  10.159  70.076  1.00  0.00    -0.058 C  
HETATM   13  C   UNL     1      -8.326  13.718  66.357  1.00  0.00     0.650 C  
HETATM   14  O   UNL     1     -12.948  15.341  64.150  1.00  0.00    -0.436 OA 
HETATM   15  C   UNL     1     -10.213  10.884  68.603  1.00  0.00    -0.189 C  
HETATM   16  C   UNL     1     -12.817  13.229  65.278  1.00  0.00    -0.368 C  
HETATM   17  O   UNL     1     -10.607   9.938  67.607  1.00  0.00    -0.234 OA 
HETATM   18  C   UNL     1      -9.966  12.392  67.918  1.00  0.00    -0.204 C  
HETATM   19  C   UNL     1     -12.144  13.558  68.422  1.00  0.00    -0.293 C  
HETATM   20  C   UNL     1     -11.227  13.112  67.219  1.00  0.00    -0.319 C  
HETATM   21  H   UNL     1     -11.228  10.355  67.022  1.00  0.00     0.000 HD 
HETATM   22  C   UNL     1      -8.568  12.423  67.139  1.00  0.00    -0.189 C  
HETATM   23  F   UNL     1      -9.795  13.324  68.948  1.00  0.00    -0.171 F  
HETATM   24  C   UNL     1     -12.216  12.478  66.237  1.00  0.00    -0.159 C  
ENDROOT
BRANCH   4  25
HETATM   25  C   UNL     1      -7.508   8.638  68.190  1.00  0.00    -0.096 C  
HETATM   26  O   UNL     1      -8.434   7.936  68.631  1.00  0.00    -0.127 OA 
BRANCH  25  27
HETATM   27  C   UNL     1      -6.223   7.863  67.911  1.00  0.00    -0.050 C  
BRANCH  27  28
HETATM   28  O   UNL     1      -6.493   6.631  67.219  1.00  0.00    -0.042 OA 
BRANCH  28  29
HETATM   29  C   UNL     1      -5.602   5.639  67.479  1.00  0.00    -0.012 C  
HETATM   30  C   UNL     1      -5.203   5.622  68.927  1.00  0.00     0.000 C  
HETATM   31  O   UNL     1      -5.178   4.873  66.635  1.00  0.00    -0.008 OA 
ENDBRANCH  28  29
ENDBRANCH  27  28
ENDBRANCH  25  27
ENDBRANCH   4  25
BRANCH   4  32
HETATM   32  O   UNL     1      -6.140  10.239  67.324  1.00  0.00    -0.053 OA 
BRANCH  32  33
HETATM   33  C   UNL     1      -6.037   9.873  66.011  1.00  0.00    -0.072 C  
HETATM   34  O   UNL     1      -5.209   9.092  65.568  1.00  0.00    -0.036 OA 
BRANCH  33  35
HETATM   35  C   UNL     1      -7.075  10.554  65.160  1.00  0.00    -0.020 C  
BRANCH  35  36
HETATM   36  C   UNL     1      -6.828  10.238  63.694  1.00  0.00    -0.075 C  
HETATM   37  C   UNL     1      -8.122  10.192  62.892  1.00  0.00    -0.149 C  
ENDBRANCH  35  36
ENDBRANCH  33  35
ENDBRANCH  32  33
ENDBRANCH   4  32
TORSDOF 8
ENDMDL
MODEL      107
REMARK 921   NORMALIZED FREE ENERGY PREDICTED BY IDOCK:   -0.98 KCAL/MOL
REMARK 922        TOTAL FREE ENERGY PREDICTED BY IDOCK:   -1.18 KCAL/MOL
REMARK 923 INTER-LIGAND FREE ENERGY PREDICTED BY IDOCK:   -7.46 KCAL/MOL
REMARK 924 INTRA-LIGAND FREE ENERGY PREDICTED BY IDOCK:    6.28 KCAL/MOL
REMARK 927      BINDING AFFINITY PREDICTED BY RF-SCORE:    0.00 PKD
ROOT
HETATM    1  C   UNL     1     -10.360  15.010  68.569  1.00  0.00    -0.230 C  
HETATM    2  C   UNL     1      -9.163  14.943  69.327  1.00  0.00    -0.100 C  
HETATM    3  C   UNL     1      -9.250  14.198  68.050  1.00  0.00    -0.195 C  
HETATM    4  C   UNL     1     -10.874  14.624  66.827  1.00  0.00    -0.312 C  
HETATM    5  C   UNL     1      -9.528  14.747  66.791  1.00  0.00    -0.271 C  
HETATM    6  C   UNL     1     -13.524  10.058  71.741  1.00  0.00    -0.328 C  
HETATM    7  C   UNL     1     -12.287  10.815  72.150  1.00  0.00     0.510 C  
HETATM    8  C   UNL     1     -12.008  11.657  71.133  1.00  0.00     0.112 C  
HETATM    9  F   UNL     1     -13.288  13.322  72.236  1.00  0.00    -0.492 F  
HETATM   10  C   UNL     1      -9.465  12.905  66.335  1.00  0.00    -0.228 C  
HETATM   11  C   UNL     1     -12.825  12.926  71.016  1.00  0.00    -0.184 C  
HETATM   12  C   UNL     1      -8.695  15.943  66.251  1.00  0.00    -0.372 C  
HETATM   13  C   UNL     1     -11.947  14.030  70.477  1.00  0.00    -0.390 C  
HETATM   14  O   UNL     1     -14.358   9.705  72.561  1.00  0.00    -0.189 OA 
HETATM   15  C   UNL     1     -10.512  11.897  67.310  1.00  0.00    -0.222 C  
HETATM   16  C   UNL     1     -13.635   9.707  70.275  1.00  0.00     0.726 C  
HETATM   17  O   UNL     1     -11.707  11.634  66.571  1.00  0.00    -0.498 OA 
HETATM   18  C   UNL     1     -10.870  12.218  68.914  1.00  0.00    -0.196 C  
HETATM   19  C   UNL     1     -10.426   9.989  70.005  1.00  0.00    -0.337 C  
HETATM   20  C   UNL     1     -11.571  11.049  69.773  1.00  0.00    -0.401 C  
HETATM   21  H   UNL     1     -12.275  11.087  67.101  1.00  0.00     0.000 HD 
HETATM   22  C   UNL     1     -11.455  13.701  69.064  1.00  0.00    -0.346 C  
HETATM   23  F   UNL     1      -9.672  12.257  69.637  1.00  0.00     0.563 F  
HETATM   24  C   UNL     1     -12.766  10.191  69.350  1.00  0.00     0.947 C  
ENDROOT
BRANCH   4  25
HETATM   25  C   UNL     1     -11.004  14.644  65.133  1.00  0.00    -0.386 C  
HETATM   26  O   UNL     1     -10.067  14.809  64.333  1.00  0.00     0.036 OA 
BRANCH  25  27
HETATM   27  C   UNL     1     -12.376  14.567  64.469  1.00  0.00    -0.414 C  
BRANCH  27  28
HETATM   28  O   UNL     1     -12.350  13.723  63.304  1.00  0.00    -0.756 OA 
BRANCH  28  29
HETATM   29  C   UNL     1     -12.416  12.394  63.576  1.00  0.00    -0.500 C  
HETATM   30  C   UNL     1     -11.140  11.691  63.213  1.00  0.00    -0.333 C  
HETATM   31  O   UNL     1     -13.396  11.849  64.046  1.00  0.00    -0.646 OA 
ENDBRANCH  28  29
ENDBRANCH  27  28
ENDBRANCH  25  27
ENDBRANCH   4  25
BRANCH   4  32
HETATM   32  O   UNL     1     -11.385  16.099  66.841  1.00  0.00     0.028 OA 
BRANCH  32  33
HETATM   33  C   UNL     1     -10.823  17.029  66.012  1.00  0.00     0.005 C  
HETATM   34  O   UNL     1     -11.003  17.085  64.805  1.00  0.00    -0.835 OA 
BRANCH  33  35
HETATM   35  C   UNL     1      -9.944  17.988  66.767  1.00  0.00    -0.346 C  
BRANCH  35  36
HETATM   36  C   UNL     1     -10.735  18.641  67.888  1.00  0.00    -0.347 C  
HETATM   37  C   UNL     1     -10.252  20.055  68.184  1.00  0.00    -0.535 C  
ENDBRANCH  35  36
ENDBRANCH  33  35
ENDBRANCH  32  33
ENDBRANCH   4  32
TORSDOF 8
ENDMDL
MODEL      108
REMARK 921   NORMALIZED FREE ENERGY PREDICTED BY IDOCK:   -0.44 KCAL/MOL
REMARK 922        TOTAL FREE ENERGY PREDICTED BY IDOCK:   -0.39 KCAL/MOL
REMARK 923 INTER-LIGAND FREE ENERGY PREDICTED BY IDOCK:   -6.73 KCAL/MOL
REMARK 924 INTRA-LIGAND FREE ENERGY PREDICTED BY IDOCK:    6.34 KCAL/MOL
REMARK 927      BINDING AFFINITY PREDICTED BY RF-SCORE:    0.00 PKD
ROOT
HETATM    1  C   UNL     1     -10.811  10.220  68.604  1.00  0.00    -0.272 C  
HETATM    2  C   UNL     1     -11.488  10.842  69.685  1.00  0.00    -0.377 C  
HETATM    3  C   UNL     1     -10.072  11.191  69.424  1.00  0.00     0.009 C  
HETATM    4  C   UNL     1      -9.259  10.528  67.632  1.00  0.00    -0.145 C  
HETATM    5  C   UNL     1      -9.554  11.705  68.228  1.00  0.00    -0.198 C  
HETATM    6  C   UNL     1      -8.911   4.768  71.958  1.00  0.00    -0.124 C  
HETATM    7  C   UNL     1      -9.942   5.802  72.327  1.00  0.00    -0.197 C  
HETATM    8  C   UNL     1      -9.894   6.742  71.360  1.00  0.00    -0.188 C  
HETATM    9  F   UNL     1     -11.607   5.568  70.214  1.00  0.00    -0.160 F  
HETATM   10  C   UNL     1      -7.947  11.503  69.216  1.00  0.00     0.198 C  
HETATM   11  C   UNL     1     -10.574   6.441  70.041  1.00  0.00    -0.236 C  
HETATM   12  C   UNL     1     -10.180  12.971  67.578  1.00  0.00    -0.221 C  
HETATM   13  C   UNL     1     -11.142   7.721  69.475  1.00  0.00    -0.006 C  
HETATM   14  O   UNL     1      -9.075   3.583  72.210  1.00  0.00    -0.097 OA 
HETATM   15  C   UNL     1      -7.715   9.897  69.872  1.00  0.00    -0.171 C  
HETATM   16  C   UNL     1      -7.642   5.289  71.324  1.00  0.00    -0.100 C  
HETATM   17  O   UNL     1      -6.817   9.183  69.020  1.00  0.00    -0.054 OA 
HETATM   18  C   UNL     1      -8.976   8.908  70.360  1.00  0.00    -0.182 C  
HETATM   19  C   UNL     1      -8.214   8.181  72.651  1.00  0.00    -0.227 C  
HETATM   20  C   UNL     1      -8.610   7.607  71.236  1.00  0.00    -0.124 C  
HETATM   21  H   UNL     1      -6.691   8.310  69.376  1.00  0.00     0.000 HD 
HETATM   22  C   UNL     1     -10.030   8.728  69.168  1.00  0.00    -0.193 C  
HETATM   23  F   UNL     1      -9.704   9.574  71.352  1.00  0.00    -0.328 F  
HETATM   24  C   UNL     1      -7.504   6.588  70.947  1.00  0.00    -0.084 C  
ENDROOT
BRANCH   4  25
HETATM   25  C   UNL     1      -8.094  11.239  66.619  1.00  0.00    -0.160 C  
HETATM   26  O   UNL     1      -7.793  12.445  66.590  1.00  0.00     0.015 OA 
BRANCH  25  27
HETATM   27  C   UNL     1      -7.396  10.403  65.550  1.00  0.00    -0.139 C  
BRANCH  27  28
HETATM   28  O   UNL     1      -7.011   9.114  66.060  1.00  0.00    -0.083 OA 
BRANCH  28  29
HETATM   29  C   UNL     1      -7.631   8.067  65.457  1.00  0.00    -0.085 C  
HETATM   30  C   UNL     1      -7.806   6.911  66.399  1.00  0.00    -0.103 C  
HETATM   31  O   UNL     1      -7.988   8.072  64.294  1.00  0.00    -0.137 OA 
ENDBRANCH  28  29
ENDBRANCH  27  28
ENDBRANCH  25  27
ENDBRANCH   4  25
BRANCH   4  32
HETATM   32  O   UNL     1     -10.227  10.473  66.409  1.00  0.00    -0.226 OA 
BRANCH  32  33
HETATM   33  C   UNL     1     -10.986  11.562  66.083  1.00  0.00    -0.266 C  
HETATM   34  O   UNL     1     -11.946  11.959  66.724  1.00  0.00    -0.613 OA 
BRANCH  33  35
HETATM   35  C   UNL     1     -10.496  12.225  64.824  1.00  0.00    -0.328 C  
BRANCH  35  36
HETATM   36  C   UNL     1     -11.187  11.613  63.617  1.00  0.00    -0.497 C  
HETATM   37  C   UNL     1     -12.639  12.062  63.498  1.00  0.00    -0.625 C  
ENDBRANCH  35  36
ENDBRANCH  33  35
ENDBRANCH  32  33
ENDBRANCH   4  32
TORSDOF 8
ENDMDL
MODEL      109
REMARK 921   NORMALIZED FREE ENERGY PREDICTED BY IDOCK:   -0.42 KCAL/MOL
REMARK 922        TOTAL FREE ENERGY PREDICTED BY IDOCK:   -0.36 KCAL/MOL
REMARK 923 INTER-LIGAND FREE ENERGY PREDICTED BY IDOCK:   -7.69 KCAL/MOL
REMARK 924 INTRA-LIGAND FREE ENERGY PREDICTED BY IDOCK:    7.33 KCAL/MOL
REMARK 927      BINDING AFFINITY PREDICTED BY RF-SCORE:    0.00 PKD
ROOT
HETATM    1  C   UNL     1     -10.265  10.342  68.471  1.00  0.00    -0.192 C  
HETATM    2  C   UNL     1      -9.524  10.112  69.659  1.00  0.00    -0.226 C  
HETATM    3  C   UNL     1      -8.919  10.923  68.578  1.00  0.00    -0.157 C  
HETATM    4  C   UNL     1     -10.178  11.519  67.037  1.00  0.00    -0.214 C  
HETATM    5  C   UNL     1      -9.454  12.094  68.024  1.00  0.00    -0.201 C  
HETATM    6  C   UNL     1      -8.437   4.724  65.358  1.00  0.00    -0.129 C  
HETATM    7  C   UNL     1      -8.307   5.093  66.813  1.00  0.00    -0.107 C  
HETATM    8  C   UNL     1      -8.749   6.363  66.919  1.00  0.00    -0.115 C  
HETATM    9  F   UNL     1     -10.906   5.510  67.417  1.00  0.00    -0.281 F  
HETATM   10  C   UNL     1      -7.932  11.876  66.911  1.00  0.00    -0.132 C  
HETATM   11  C   UNL     1     -10.245   6.597  66.927  1.00  0.00    -0.220 C  
HETATM   12  C   UNL     1      -9.866  13.281  68.939  1.00  0.00     0.096 C  
HETATM   13  C   UNL     1     -10.557   7.770  67.827  1.00  0.00    -0.254 C  
HETATM   14  O   UNL     1      -8.708   3.585  65.009  1.00  0.00    -0.111 OA 
HETATM   15  C   UNL     1      -7.823  10.298  66.161  1.00  0.00    -0.129 C  
HETATM   16  C   UNL     1      -8.147   5.825  64.363  1.00  0.00    -0.133 C  
HETATM   17  O   UNL     1      -8.301  10.398  64.818  1.00  0.00    -0.166 OA 
HETATM   18  C   UNL     1      -8.382   8.893  66.881  1.00  0.00    -0.112 C  
HETATM   19  C   UNL     1      -6.405   7.350  66.620  1.00  0.00    -0.045 C  
HETATM   20  C   UNL     1      -7.928   7.489  66.234  1.00  0.00    -0.109 C  
HETATM   21  H   UNL     1      -8.242   9.542  64.411  1.00  0.00     0.000 HD 
HETATM   22  C   UNL     1      -9.920   9.057  67.294  1.00  0.00    -0.275 C  
HETATM   23  F   UNL     1      -7.723   8.729  68.105  1.00  0.00    -0.095 F  
HETATM   24  C   UNL     1      -7.952   7.113  64.750  1.00  0.00    -0.122 C  
ENDROOT
BRANCH   4  25
HETATM   25  C   UNL     1     -10.181  12.937  66.101  1.00  0.00    -0.278 C  
HETATM   26  O   UNL     1     -10.780  13.098  65.024  1.00  0.00    -0.297 OA 
BRANCH  25  27
HETATM   27  C   UNL     1      -9.305  14.121  66.502  1.00  0.00    -0.265 C  
BRANCH  27  28
HETATM   28  O   UNL     1      -9.529  15.255  65.645  1.00  0.00    -0.320 OA 
BRANCH  28  29
HETATM   29  C   UNL     1      -9.191  16.448  66.199  1.00  0.00    -0.330 C  
HETATM   30  C   UNL     1     -10.006  16.737  67.426  1.00  0.00    -0.267 C  
HETATM   31  O   UNL     1      -8.341  17.189  65.743  1.00  0.00    -0.519 OA 
ENDBRANCH  28  29
ENDBRANCH  27  28
ENDBRANCH  25  27
ENDBRANCH   4  25
BRANCH   4  32
HETATM   32  O   UNL     1     -11.657  11.825  67.429  1.00  0.00    -0.445 OA 
BRANCH  32  33
HETATM   33  C   UNL     1     -11.956  12.929  68.176  1.00  0.00    -0.261 C  
HETATM   34  O   UNL     1     -12.053  14.064  67.734  1.00  0.00    -0.371 OA 
BRANCH  33  35
HETATM   35  C   UNL     1     -12.152  12.583  69.627  1.00  0.00    -0.272 C  
BRANCH  35  36
HETATM   36  C   UNL     1     -12.874  13.718  70.334  1.00  0.00    -0.160 C  
HETATM   37  C   UNL     1     -13.104  13.420  71.811  1.00  0.00    -0.479 C  
ENDBRANCH  35  36
ENDBRANCH  33  35
ENDBRANCH  32  33
ENDBRANCH   4  32
TORSDOF 8
ENDMDL
MODEL      110
REMARK 921   NORMALIZED FREE ENERGY PREDICTED BY IDOCK:   -0.11 KCAL/MOL
REMARK 922        TOTAL FREE ENERGY PREDICTED BY IDOCK:    0.10 KCAL/MOL
REMARK 923 INTER-LIGAND FREE ENERGY PREDICTED BY IDOCK:   -5.54 KCAL/MOL
REMARK 924 INTRA-LIGAND FREE ENERGY PREDICTED BY IDOCK:    5.65 KCAL/MOL
REMARK 927      BINDING AFFINITY PREDICTED BY RF-SCORE:    0.00 PKD
ROOT
HETATM    1  C   UNL     1      -6.996   7.642  68.428  1.00  0.00    -0.072 C  
HETATM    2  C   UNL     1      -5.821   8.428  68.305  1.00  0.00    -0.042 C  
HETATM    3  C   UNL     1      -6.641   8.544  69.533  1.00  0.00    -0.040 C  
HETATM    4  C   UNL     1      -8.128   7.120  69.803  1.00  0.00    -0.129 C  
HETATM    5  C   UNL     1      -6.978   7.498  70.403  1.00  0.00    -0.052 C  
HETATM    6  C   UNL     1     -11.060  11.881  65.248  1.00  0.00    -0.299 C  
HETATM    7  C   UNL     1      -9.553  11.850  65.283  1.00  0.00    -0.156 C  
HETATM    8  C   UNL     1      -9.218  10.853  66.128  1.00  0.00    -0.205 C  
HETATM    9  F   UNL     1      -9.120   9.386  64.266  1.00  0.00    -0.251 F  
HETATM   10  C   UNL     1      -7.964   8.912  71.199  1.00  0.00    -0.181 C  
HETATM   11  C   UNL     1      -9.301   9.430  65.617  1.00  0.00    -0.246 C  
HETATM   12  C   UNL     1      -5.871   6.586  71.004  1.00  0.00    -0.027 C  
HETATM   13  C   UNL     1      -8.203   8.612  66.255  1.00  0.00    -0.116 C  
HETATM   14  O   UNL     1     -11.669  12.185  64.233  1.00  0.00    -0.350 OA 
HETATM   15  C   UNL     1      -9.022   9.751  70.085  1.00  0.00    -0.195 C  
HETATM   16  C   UNL     1     -11.762  11.583  66.553  1.00  0.00     0.086 C  
HETATM   17  O   UNL     1     -10.351   9.254  70.258  1.00  0.00    -0.198 OA 
HETATM   18  C   UNL     1      -8.677   9.955  68.459  1.00  0.00    -0.121 C  
HETATM   19  C   UNL     1      -9.078  12.424  68.145  1.00  0.00    -0.200 C  
HETATM   20  C   UNL     1      -9.565  11.015  67.633  1.00  0.00    -0.181 C  
HETATM   21  H   UNL     1     -10.925   9.710  69.654  1.00  0.00     0.000 HD 
HETATM   22  C   UNL     1      -8.384   8.537  67.774  1.00  0.00    -0.130 C  
HETATM   23  F   UNL     1      -7.460  10.638  68.346  1.00  0.00    -0.082 F  
HETATM   24  C   UNL     1     -11.091  11.142  67.649  1.00  0.00    -0.348 C  
ENDROOT
BRANCH   4  25
HETATM   25  C   UNL     1      -8.733   6.413  71.226  1.00  0.00    -0.135 C  
HETATM   26  O   UNL     1      -8.106   6.263  72.288  1.00  0.00    -0.108 OA 
BRANCH  25  27
HETATM   27  C   UNL     1     -10.125   5.787  71.238  1.00  0.00    -0.201 C  
BRANCH  27  28
HETATM   28  O   UNL     1     -10.894   6.237  72.368  1.00  0.00    -0.221 OA 
BRANCH  28  29
HETATM   29  C   UNL     1     -10.979   5.334  73.379  1.00  0.00    -0.316 C  
HETATM   30  C   UNL     1     -10.140   5.743  74.556  1.00  0.00    -0.301 C  
HETATM   31  O   UNL     1     -11.645   4.318  73.325  1.00  0.00    -0.229 OA 
ENDBRANCH  28  29
ENDBRANCH  27  28
ENDBRANCH  25  27
ENDBRANCH   4  25
BRANCH   4  32
HETATM   32  O   UNL     1      -7.821   5.685  69.272  1.00  0.00    -0.086 OA 
BRANCH  32  33
HETATM   33  C   UNL     1      -8.478   4.605  69.789  1.00  0.00    -0.073 C  
HETATM   34  O   UNL     1      -9.609   4.263  69.479  1.00  0.00    -0.175 OA 
BRANCH  33  35
HETATM   35  C   UNL     1      -7.639   3.875  70.803  1.00  0.00    -0.044 C  
BRANCH  35  36
HETATM   36  C   UNL     1      -8.381   2.645  71.298  1.00  0.00    -0.084 C  
HETATM   37  C   UNL     1      -7.431   1.563  71.796  1.00  0.00    -0.036 C  
ENDBRANCH  35  36
ENDBRANCH  33  35
ENDBRANCH  32  33
ENDBRANCH   4  32
TORSDOF 8
ENDMDL
MODEL      111
REMARK 921   NORMALIZED FREE ENERGY PREDICTED BY IDOCK:   -0.08 KCAL/MOL
REMARK 922        TOTAL FREE ENERGY PREDICTED BY IDOCK:    0.14 KCAL/MOL
REMARK 923 INTER-LIGAND FREE ENERGY PREDICTED BY IDOCK:   -6.76 KCAL/MOL
REMARK 924 INTRA-LIGAND FREE ENERGY PREDICTED BY IDOCK:    6.90 KCAL/MOL
REMARK 927      BINDING AFFINITY PREDICTED BY RF-SCORE:    0.00 PKD
ROOT
HETATM    1  C   UNL     1     -11.099   9.829  69.114  1.00  0.00    -0.158 C  
HETATM    2  C   UNL     1     -11.515  10.105  70.442  1.00  0.00    -0.400 C  
HETATM    3  C   UNL     1     -10.274  10.732  69.930  1.00  0.00     0.100 C  
HETATM    4  C   UNL     1      -9.921  10.576  67.889  1.00  0.00    -0.169 C  
HETATM    5  C   UNL     1     -10.168  11.548  68.796  1.00  0.00    -0.204 C  
HETATM    6  C   UNL     1      -7.753   4.227  70.535  1.00  0.00    -0.052 C  
HETATM    7  C   UNL     1      -8.750   4.981  71.377  1.00  0.00    -0.141 C  
HETATM    8  C   UNL     1      -9.076   6.086  70.673  1.00  0.00    -0.157 C  
HETATM    9  F   UNL     1     -10.898   4.886  69.743  1.00  0.00    -0.241 F  
HETATM   10  C   UNL     1      -8.338  11.432  69.284  1.00  0.00     0.243 C  
HETATM   11  C   UNL     1     -10.057   5.936  69.529  1.00  0.00    -0.203 C  
HETATM   12  C   UNL     1     -11.085  12.792  68.633  1.00  0.00    -0.304 C  
HETATM   13  C   UNL     1     -10.897   7.188  69.434  1.00  0.00    -0.225 C  
HETATM   14  O   UNL     1      -7.709   3.006  70.537  1.00  0.00    -0.043 OA 
HETATM   15  C   UNL     1      -7.757   9.791  69.471  1.00  0.00    -0.120 C  
HETATM   16  C   UNL     1      -6.775   5.069  69.747  1.00  0.00    -0.047 C  
HETATM   17  O   UNL     1      -7.056   9.418  68.282  1.00  0.00    -0.074 OA 
HETATM   18  C   UNL     1      -8.716   8.528  70.010  1.00  0.00    -0.136 C  
HETATM   19  C   UNL     1      -7.274   7.508  71.809  1.00  0.00    -0.063 C  
HETATM   20  C   UNL     1      -7.980   7.162  70.442  1.00  0.00    -0.112 C  
HETATM   21  H   UNL     1      -6.741   8.527  68.383  1.00  0.00     0.000 HD 
HETATM   22  C   UNL     1     -10.032   8.409  69.105  1.00  0.00    -0.197 C  
HETATM   23  F   UNL     1      -9.210   8.856  71.277  1.00  0.00    -0.221 F  
HETATM   24  C   UNL     1      -6.892   6.419  69.661  1.00  0.00    -0.065 C  
ENDROOT
BRANCH   4  25
HETATM   25  C   UNL     1      -9.168  11.657  66.815  1.00  0.00    -0.186 C  
HETATM   26  O   UNL     1      -8.685  11.365  65.708  1.00  0.00    -0.162 OA 
BRANCH  25  27
HETATM   27  C   UNL     1      -8.934  13.108  67.227  1.00  0.00    -0.216 C  
BRANCH  27  28
HETATM   28  O   UNL     1      -9.021  13.996  66.098  1.00  0.00    -0.025 OA 
BRANCH  28  29
HETATM   29  C   UNL     1      -9.496  15.232  66.397  1.00  0.00    -0.298 C  
HETATM   30  C   UNL     1     -10.452  15.726  65.348  1.00  0.00    -0.438 C  
HETATM   31  O   UNL     1      -9.174  15.859  67.388  1.00  0.00    -0.199 OA 
ENDBRANCH  28  29
ENDBRANCH  27  28
ENDBRANCH  25  27
ENDBRANCH   4  25
BRANCH   4  32
HETATM   32  O   UNL     1     -11.178  10.598  66.964  1.00  0.00    -0.266 OA 
BRANCH  32  33
HETATM   33  C   UNL     1     -11.349  11.611  66.062  1.00  0.00    -0.196 C  
HETATM   34  O   UNL     1     -11.888  12.679  66.308  1.00  0.00    -0.393 OA 
BRANCH  33  35
HETATM   35  C   UNL     1     -10.793  11.253  64.711  1.00  0.00    -0.314 C  
BRANCH  35  36
HETATM   36  C   UNL     1     -11.314  12.225  63.665  1.00  0.00    -0.547 C  
HETATM   37  C   UNL     1     -12.782  11.984  63.338  1.00  0.00    -0.527 C  
ENDBRANCH  35  36
ENDBRANCH  33  35
ENDBRANCH  32  33
ENDBRANCH   4  32
TORSDOF 8
ENDMDL
MODEL      112
REMARK 921   NORMALIZED FREE ENERGY PREDICTED BY IDOCK:   -0.06 KCAL/MOL
REMARK 922        TOTAL FREE ENERGY PREDICTED BY IDOCK:    0.18 KCAL/MOL
REMARK 923 INTER-LIGAND FREE ENERGY PREDICTED BY IDOCK:   -6.51 KCAL/MOL
REMARK 924 INTRA-LIGAND FREE ENERGY PREDICTED BY IDOCK:    6.69 KCAL/MOL
REMARK 927      BINDING AFFINITY PREDICTED BY RF-SCORE:    0.00 PKD
ROOT
HETATM    1  C   UNL     1      -7.744   9.078  65.427  1.00  0.00    -0.095 C  
HETATM    2  C   UNL     1      -6.722   9.876  64.851  1.00  0.00    -0.123 C  
HETATM    3  C   UNL     1      -6.778   9.730  66.324  1.00  0.00    -0.087 C  
HETATM    4  C   UNL     1      -8.060   8.277  67.072  1.00  0.00    -0.104 C  
HETATM    5  C   UNL     1      -6.731   8.525  67.038  1.00  0.00    -0.062 C  
HETATM    6  C   UNL     1     -12.384  13.874  65.664  1.00  0.00    -0.482 C  
HETATM    7  C   UNL     1     -11.086  13.841  64.899  1.00  0.00    -0.364 C  
HETATM    8  C   UNL     1     -10.473  12.691  65.249  1.00  0.00    -0.312 C  
HETATM    9  F   UNL     1     -11.500  11.644  63.384  1.00  0.00    -0.465 F  
HETATM   10  C   UNL     1      -7.014   9.739  68.469  1.00  0.00    -0.064 C  
HETATM   11  C   UNL     1     -10.957  11.405  64.611  1.00  0.00    -0.255 C  
HETATM   12  C   UNL     1      -5.578   7.511  66.795  1.00  0.00    -0.027 C  
HETATM   13  C   UNL     1      -9.782  10.476  64.422  1.00  0.00    -0.388 C  
HETATM   14  O   UNL     1     -13.391  14.381  65.192  1.00  0.00    -0.542 OA 
HETATM   15  C   UNL     1      -8.397  10.788  68.246  1.00  0.00    -0.125 C  
HETATM   16  C   UNL     1     -12.346  13.308  67.065  1.00  0.00    -0.190 C  
HETATM   17  O   UNL     1      -9.493  10.262  68.997  1.00  0.00    -0.179 OA 
HETATM   18  C   UNL     1      -8.914  11.328  66.747  1.00  0.00    -0.171 C  
HETATM   19  C   UNL     1      -9.153  13.807  67.138  1.00  0.00    -0.243 C  
HETATM   20  C   UNL     1      -9.981  12.534  66.714  1.00  0.00    -0.234 C  
HETATM   21  H   UNL     1     -10.244  10.832  68.875  1.00  0.00     0.000 HD 
HETATM   22  C   UNL     1      -9.166  10.085  65.770  1.00  0.00    -0.222 C  
HETATM   23  F   UNL     1      -7.862  12.023  66.139  1.00  0.00     0.055 F  
HETATM   24  C   UNL     1     -11.260  12.650  67.548  1.00  0.00    -0.335 C  
ENDROOT
BRANCH   4  25
HETATM   25  C   UNL     1      -7.922   7.287  68.447  1.00  0.00    -0.124 C  
HETATM   26  O   UNL     1      -6.859   6.905  68.966  1.00  0.00    -0.063 OA 
BRANCH  25  27
HETATM   27  C   UNL     1      -9.171   6.688  69.087  1.00  0.00    -0.136 C  
BRANCH  27  28
HETATM   28  O   UNL     1      -8.974   6.440  70.491  1.00  0.00    -0.149 OA 
BRANCH  28  29
HETATM   29  C   UNL     1      -8.871   5.125  70.816  1.00  0.00    -0.133 C  
HETATM   30  C   UNL     1      -8.137   4.932  72.112  1.00  0.00    -0.111 C  
HETATM   31  O   UNL     1      -9.312   4.223  70.130  1.00  0.00    -0.124 OA 
ENDBRANCH  28  29
ENDBRANCH  27  28
ENDBRANCH  25  27
ENDBRANCH   4  25
BRANCH   4  32
HETATM   32  O   UNL     1      -8.223   6.985  66.211  1.00  0.00    -0.109 OA 
BRANCH  32  33
HETATM   33  C   UNL     1      -7.856   5.770  66.718  1.00  0.00    -0.101 C  
HETATM   34  O   UNL     1      -6.755   5.511  67.180  1.00  0.00    -0.055 OA 
BRANCH  33  35
HETATM   35  C   UNL     1      -8.979   4.772  66.640  1.00  0.00    -0.111 C  
BRANCH  35  36
HETATM   36  C   UNL     1      -8.660   3.717  65.594  1.00  0.00    -0.113 C  
HETATM   37  C   UNL     1      -9.574   3.817  64.379  1.00  0.00    -0.169 C  
ENDBRANCH  35  36
ENDBRANCH  33  35
ENDBRANCH  32  33
ENDBRANCH   4  32
TORSDOF 8
ENDMDL
MODEL      113
REMARK 921   NORMALIZED FREE ENERGY PREDICTED BY IDOCK:   -0.02 KCAL/MOL
REMARK 922        TOTAL FREE ENERGY PREDICTED BY IDOCK:    0.23 KCAL/MOL
REMARK 923 INTER-LIGAND FREE ENERGY PREDICTED BY IDOCK:   -6.84 KCAL/MOL
REMARK 924 INTRA-LIGAND FREE ENERGY PREDICTED BY IDOCK:    7.07 KCAL/MOL
REMARK 927      BINDING AFFINITY PREDICTED BY RF-SCORE:    0.00 PKD
ROOT
HETATM    1  C   UNL     1      -9.180  12.796  68.526  1.00  0.00    -0.062 C  
HETATM    2  C   UNL     1      -7.804  12.713  68.862  1.00  0.00     0.137 C  
HETATM    3  C   UNL     1      -8.198  12.721  67.434  1.00  0.00    -0.186 C  
HETATM    4  C   UNL     1     -10.173  13.203  67.011  1.00  0.00    -0.250 C  
HETATM    5  C   UNL     1      -8.942  13.716  66.788  1.00  0.00    -0.196 C  
HETATM    6  C   UNL     1     -10.429   6.247  68.897  1.00  0.00    -0.232 C  
HETATM    7  C   UNL     1      -9.243   7.021  69.411  1.00  0.00    -0.147 C  
HETATM    8  C   UNL     1      -9.428   8.298  69.014  1.00  0.00    -0.155 C  
HETATM    9  F   UNL     1     -10.497   8.726  71.088  1.00  0.00    -0.234 F  
HETATM   10  C   UNL     1      -8.777  12.464  65.371  1.00  0.00     0.955 C  
HETATM   11  C   UNL     1     -10.405   9.150  69.796  1.00  0.00    -0.215 C  
HETATM   12  C   UNL     1      -8.502  15.205  66.866  1.00  0.00    -0.278 C  
HETATM   13  C   UNL     1      -9.910  10.577  69.814  1.00  0.00    -0.050 C  
HETATM   14  O   UNL     1     -10.894   5.303  69.519  1.00  0.00    -0.202 OA 
HETATM   15  C   UNL     1      -9.302  10.847  65.790  1.00  0.00    -0.203 C  
HETATM   16  C   UNL     1     -10.960   6.663  67.544  1.00  0.00    -0.416 C  
HETATM   17  O   UNL     1     -10.623  10.652  65.282  1.00  0.00    -0.231 OA 
HETATM   18  C   UNL     1      -9.160  10.200  67.328  1.00  0.00    -0.138 C  
HETATM   19  C   UNL     1      -8.084   7.969  66.860  1.00  0.00    -0.108 C  
HETATM   20  C   UNL     1      -9.376   8.612  67.495  1.00  0.00    -0.162 C  
HETATM   21  H   UNL     1     -10.908   9.774  65.510  1.00  0.00     0.000 HD 
HETATM   22  C   UNL     1      -9.863  11.161  68.399  1.00  0.00    -0.188 C  
HETATM   23  F   UNL     1      -7.810  10.221  67.696  1.00  0.00    -0.096 F  
HETATM   24  C   UNL     1     -10.514   7.775  66.904  1.00  0.00    -0.388 C  
ENDROOT
BRANCH   4  25
HETATM   25  C   UNL     1     -10.847  14.030  65.688  1.00  0.00    -0.295 C  
HETATM   26  O   UNL     1     -10.288  14.919  65.023  1.00  0.00    -0.390 OA 
BRANCH  25  27
HETATM   27  C   UNL     1     -12.302  13.788  65.294  1.00  0.00    -0.464 C  
BRANCH  27  28
HETATM   28  O   UNL     1     -12.459  13.744  63.865  1.00  0.00    -0.695 OA 
BRANCH  28  29
HETATM   29  C   UNL     1     -12.113  12.558  63.302  1.00  0.00    -0.430 C  
HETATM   30  C   UNL     1     -13.275  11.607  63.259  1.00  0.00     0.453 C  
HETATM   31  O   UNL     1     -10.995  12.302  62.896  1.00  0.00    -0.095 OA 
ENDBRANCH  28  29
ENDBRANCH  27  28
ENDBRANCH  25  27
ENDBRANCH   4  25
BRANCH   4  32
HETATM   32  O   UNL     1     -10.850  14.247  67.954  1.00  0.00    -0.247 OA 
BRANCH  32  33
HETATM   33  C   UNL     1     -10.210  15.417  68.255  1.00  0.00    -0.229 C  
HETATM   34  O   UNL     1      -9.252  15.513  69.006  1.00  0.00    -0.202 OA 
BRANCH  33  35
HETATM   35  C   UNL     1     -10.832  16.590  67.548  1.00  0.00    -0.237 C  
BRANCH  35  36
HETATM   36  C   UNL     1     -10.241  17.885  68.079  1.00  0.00    -0.381 C  
HETATM   37  C   UNL     1     -10.772  19.105  67.336  1.00  0.00    -0.578 C  
ENDBRANCH  35  36
ENDBRANCH  33  35
ENDBRANCH  32  33
ENDBRANCH   4  32
TORSDOF 8
ENDMDL
MODEL      114
REMARK 921   NORMALIZED FREE ENERGY PREDICTED BY IDOCK:    0.45 KCAL/MOL
REMARK 922        TOTAL FREE ENERGY PREDICTED BY IDOCK:    0.91 KCAL/MOL
REMARK 923 INTER-LIGAND FREE ENERGY PREDICTED BY IDOCK:   -6.31 KCAL/MOL
REMARK 924 INTRA-LIGAND FREE ENERGY PREDICTED BY IDOCK:    7.23 KCAL/MOL
REMARK 927      BINDING AFFINITY PREDICTED BY RF-SCORE:    0.00 PKD
ROOT
HETATM    1  C   UNL     1      -8.725  10.291  66.246  1.00  0.00    -0.157 C  
HETATM    2  C   UNL     1      -7.832  10.413  65.150  1.00  0.00    -0.122 C  
HETATM    3  C   UNL     1      -7.297  10.032  66.478  1.00  0.00    -0.101 C  
HETATM    4  C   UNL     1      -8.686   9.524  67.936  1.00  0.00    -0.119 C  
HETATM    5  C   UNL     1      -7.692   8.925  67.242  1.00  0.00    -0.092 C  
HETATM    6  C   UNL     1      -8.636  16.735  67.993  1.00  0.00    -0.210 C  
HETATM    7  C   UNL     1      -8.164  16.088  66.717  1.00  0.00    -0.307 C  
HETATM    8  C   UNL     1      -8.325  14.759  66.889  1.00  0.00    -0.184 C  
HETATM    9  F   UNL     1     -10.472  14.949  65.898  1.00  0.00    -0.268 F  
HETATM   10  C   UNL     1      -6.480   9.739  68.454  1.00  0.00    -0.055 C  
HETATM   11  C   UNL     1      -9.719  14.187  66.741  1.00  0.00    -0.277 C  
HETATM   12  C   UNL     1      -7.687   7.499  66.624  1.00  0.00    -0.101 C  
HETATM   13  C   UNL     1      -9.623  12.801  66.146  1.00  0.00    -0.214 C  
HETATM   14  O   UNL     1      -9.182  17.829  67.991  1.00  0.00    -0.260 OA 
HETATM   15  C   UNL     1      -6.820  11.427  68.771  1.00  0.00    -0.082 C  
HETATM   16  C   UNL     1      -8.333  15.987  69.271  1.00  0.00    -0.217 C  
HETATM   17  O   UNL     1      -7.515  11.524  70.017  1.00  0.00    -0.209 OA 
HETATM   18  C   UNL     1      -7.492  12.462  67.639  1.00  0.00    -0.138 C  
HETATM   19  C   UNL     1      -5.935  14.442  67.752  1.00  0.00    -0.111 C  
HETATM   20  C   UNL     1      -7.448  14.042  67.950  1.00  0.00    -0.153 C  
HETATM   21  H   UNL     1      -7.700  12.440  70.189  1.00  0.00     0.000 HD 
HETATM   22  C   UNL     1      -8.864  11.853  67.080  1.00  0.00    -0.190 C  
HETATM   23  F   UNL     1      -6.658  12.492  66.516  1.00  0.00     0.107 F  
HETATM   24  C   UNL     1      -7.824  14.728  69.266  1.00  0.00    -0.122 C  
ENDROOT
BRANCH   4  25
HETATM   25  C   UNL     1      -8.593   8.394  69.202  1.00  0.00    -0.134 C  
HETATM   26  O   UNL     1      -7.934   7.340  69.191  1.00  0.00    -0.115 OA 
BRANCH  25  27
HETATM   27  C   UNL     1      -9.455   8.569  70.449  1.00  0.00    -0.165 C  
BRANCH  27  28
HETATM   28  O   UNL     1      -8.653   8.878  71.603  1.00  0.00    -0.280 OA 
BRANCH  28  29
HETATM   29  C   UNL     1      -9.138   8.379  72.769  1.00  0.00    -0.229 C  
HETATM   30  C   UNL     1     -10.542   7.870  72.611  1.00  0.00    -0.394 C  
HETATM   31  O   UNL     1      -8.510   8.361  73.811  1.00  0.00    -0.305 OA 
ENDBRANCH  28  29
ENDBRANCH  27  28
ENDBRANCH  25  27
ENDBRANCH   4  25
BRANCH   4  32
HETATM   32  O   UNL     1      -9.978   8.800  67.442  1.00  0.00    -0.176 OA 
BRANCH  32  33
HETATM   33  C   UNL     1      -9.900   7.547  66.902  1.00  0.00    -0.226 C  
HETATM   34  O   UNL     1      -9.342   7.275  65.850  1.00  0.00    -0.041 OA 
BRANCH  33  35
HETATM   35  C   UNL     1     -10.592   6.526  67.764  1.00  0.00    -0.321 C  
BRANCH  35  36
HETATM   36  C   UNL     1     -10.116   5.131  67.394  1.00  0.00    -0.222 C  
HETATM   37  C   UNL     1     -10.673   4.672  66.051  1.00  0.00    -0.126 C  
ENDBRANCH  35  36
ENDBRANCH  33  35
ENDBRANCH  32  33
ENDBRANCH   4  32
TORSDOF 8
ENDMDL
MODEL      115
REMARK 921   NORMALIZED FREE ENERGY PREDICTED BY IDOCK:    0.64 KCAL/MOL
REMARK 922        TOTAL FREE ENERGY PREDICTED BY IDOCK:    1.21 KCAL/MOL
REMARK 923 INTER-LIGAND FREE ENERGY PREDICTED BY IDOCK:    0.51 KCAL/MOL
REMARK 924 INTRA-LIGAND FREE ENERGY PREDICTED BY IDOCK:    0.70 KCAL/MOL
REMARK 927      BINDING AFFINITY PREDICTED BY RF-SCORE:    0.00 PKD
ROOT
HETATM    1  C   UNL     1     -11.355  13.034  67.080  1.00  0.00    -0.343 C  
HETATM    2  C   UNL     1     -12.685  12.844  66.624  1.00  0.00     0.832 C  
HETATM    3  C   UNL     1     -12.050  14.172  66.460  1.00  0.00    -0.481 C  
HETATM    4  C   UNL     1     -10.006  14.281  66.813  1.00  0.00    -0.265 C  
HETATM    5  C   UNL     1     -10.857  14.439  65.775  1.00  0.00    -0.308 C  
HETATM    6  C   UNL     1     -12.941  14.503  73.398  1.00  0.00    -0.263 C  
HETATM    7  C   UNL     1     -13.791  13.878  72.322  1.00  0.00    -0.669 C  
HETATM    8  C   UNL     1     -13.036  13.867  71.205  1.00  0.00    -0.388 C  
HETATM    9  F   UNL     1     -12.313  11.683  71.783  1.00  0.00    -0.276 F  
HETATM   10  C   UNL     1     -11.230  16.168  66.461  1.00  0.00     0.203 C  
HETATM   11  C   UNL     1     -11.972  12.797  71.076  1.00  0.00     0.296 C  
HETATM   12  C   UNL     1     -10.668  13.961  64.308  1.00  0.00    -0.146 C  
HETATM   13  C   UNL     1     -11.845  12.400  69.625  1.00  0.00    -0.380 C  
HETATM   14  O   UNL     1     -13.026  14.151  74.565  1.00  0.00     1.319 OA 
HETATM   15  C   UNL     1     -11.493  16.203  68.192  1.00  0.00    -0.220 C  
HETATM   16  C   UNL     1     -12.034  15.629  72.958  1.00  0.00    -0.590 C  
HETATM   17  O   UNL     1     -10.289  16.642  68.826  1.00  0.00    -0.261 OA 
HETATM   18  C   UNL     1     -12.180  14.937  69.046  1.00  0.00    -0.136 C  
HETATM   19  C   UNL     1     -13.948  16.121  70.400  1.00  0.00     2.938 C  
HETATM   20  C   UNL     1     -12.658  15.227  70.558  1.00  0.00    -0.450 C  
HETATM   21  H   UNL     1     -10.432  16.660  69.765  1.00  0.00     0.000 HD 
HETATM   22  C   UNL     1     -11.375  13.581  68.769  1.00  0.00    -0.329 C  
HETATM   23  F   UNL     1     -13.452  14.685  68.519  1.00  0.00     1.749 F  
HETATM   24  C   UNL     1     -11.861  15.947  71.649  1.00  0.00    -0.565 C  
ENDROOT
BRANCH   4  25
HETATM   25  C   UNL     1      -8.812  15.248  66.087  1.00  0.00    -0.131 C  
HETATM   26  O   UNL     1      -8.965  15.961  65.081  1.00  0.00     0.365 OA 
BRANCH  25  27
HETATM   27  C   UNL     1      -7.374  15.201  66.597  1.00  0.00     0.746 C  
BRANCH  27  28
HETATM   28  O   UNL     1      -6.855  16.523  66.828  1.00  0.00    -0.210 OA 
BRANCH  28  29
HETATM   29  C   UNL     1      -6.680  16.832  68.139  1.00  0.00    -0.148 C  
HETATM   30  C   UNL     1      -5.245  16.675  68.557  1.00  0.00    -0.114 C  
HETATM   31  O   UNL     1      -7.580  17.180  68.878  1.00  0.00    -0.247 OA 
ENDBRANCH  28  29
ENDBRANCH  27  28
ENDBRANCH  25  27
ENDBRANCH   4  25
BRANCH   4  32
HETATM   32  O   UNL     1      -9.166  13.025  66.424  1.00  0.00    -0.222 OA 
BRANCH  32  33
HETATM   33  C   UNL     1      -8.402  12.390  67.363  1.00  0.00    -0.180 C  
HETATM   34  O   UNL     1      -7.879  12.938  68.321  1.00  0.00    -0.129 OA 
BRANCH  33  35
HETATM   35  C   UNL     1      -8.276  10.919  67.076  1.00  0.00    -0.134 C  
BRANCH  35  36
HETATM   36  C   UNL     1      -9.610  10.231  67.313  1.00  0.00    -0.186 C  
HETATM   37  C   UNL     1      -9.709   9.635  68.712  1.00  0.00    -0.167 C  
ENDBRANCH  35  36
ENDBRANCH  33  35
ENDBRANCH  32  33
ENDBRANCH   4  32
TORSDOF 8
ENDMDL
MODEL      116
REMARK 921   NORMALIZED FREE ENERGY PREDICTED BY IDOCK:    0.71 KCAL/MOL
REMARK 922        TOTAL FREE ENERGY PREDICTED BY IDOCK:    1.31 KCAL/MOL
REMARK 923 INTER-LIGAND FREE ENERGY PREDICTED BY IDOCK:   -1.80 KCAL/MOL
REMARK 924 INTRA-LIGAND FREE ENERGY PREDICTED BY IDOCK:    3.10 KCAL/MOL
REMARK 927      BINDING AFFINITY PREDICTED BY RF-SCORE:    0.00 PKD
ROOT
HETATM    1  C   UNL     1      -6.793   5.425  69.794  1.00  0.00    -0.060 C  
HETATM    2  C   UNL     1      -5.441   5.206  69.425  1.00  0.00    -0.008 C  
HETATM    3  C   UNL     1      -5.738   5.838  70.731  1.00  0.00    -0.013 C  
HETATM    4  C   UNL     1      -7.717   5.799  71.360  1.00  0.00    -0.107 C  
HETATM    5  C   UNL     1      -6.526   5.292  71.753  1.00  0.00    -0.039 C  
HETATM    6  C   UNL     1      -7.456  11.318  66.725  1.00  0.00    -0.146 C  
HETATM    7  C   UNL     1      -6.383  10.273  66.560  1.00  0.00    -0.078 C  
HETATM    8  C   UNL     1      -6.658   9.307  67.461  1.00  0.00    -0.064 C  
HETATM    9  F   UNL     1      -7.898   8.176  65.784  1.00  0.00    -0.083 F  
HETATM   10  C   UNL     1      -6.153   6.994  72.506  1.00  0.00    -0.041 C  
HETATM   11  C   UNL     1      -7.760   8.322  67.133  1.00  0.00    -0.097 C  
HETATM   12  C   UNL     1      -6.231   3.867  72.299  1.00  0.00    -0.013 C  
HETATM   13  C   UNL     1      -7.401   6.972  67.707  1.00  0.00    -0.097 C  
HETATM   14  O   UNL     1      -7.873  11.962  65.774  1.00  0.00     0.513 OA 
HETATM   15  C   UNL     1      -6.553   8.337  71.456  1.00  0.00    -0.058 C  
HETATM   16  C   UNL     1      -7.933  11.566  68.138  1.00  0.00    -0.136 C  
HETATM   17  O   UNL     1      -7.815   8.872  71.863  1.00  0.00    -0.320 OA 
HETATM   18  C   UNL     1      -6.455   8.264  69.786  1.00  0.00    -0.036 C  
HETATM   19  C   UNL     1      -5.149  10.352  69.247  1.00  0.00    -0.038 C  
HETATM   20  C   UNL     1      -6.535   9.651  68.970  1.00  0.00    -0.045 C  
HETATM   21  H   UNL     1      -8.032   9.601  71.293  1.00  0.00     0.000 HD 
HETATM   22  C   UNL     1      -7.313   7.029  69.235  1.00  0.00    -0.092 C  
HETATM   23  F   UNL     1      -5.140   7.941  69.432  1.00  0.00    -0.018 F  
HETATM   24  C   UNL     1      -7.549  10.780  69.177  1.00  0.00    -0.133 C  
ENDROOT
BRANCH   4  25
HETATM   25  C   UNL     1      -8.375   5.680  72.923  1.00  0.00    -0.119 C  
HETATM   26  O   UNL     1      -8.644   4.624  73.521  1.00  0.00    -0.101 OA 
BRANCH  25  27
HETATM   27  C   UNL     1      -8.799   6.940  73.674  1.00  0.00    -0.143 C  
BRANCH  27  28
HETATM   28  O   UNL     1     -10.200   7.214  73.490  1.00  0.00    -0.279 OA 
BRANCH  28  29
HETATM   29  C   UNL     1     -10.470   8.078  72.478  1.00  0.00    -0.316 C  
HETATM   30  C   UNL     1     -11.767   8.802  72.702  1.00  0.00    -0.086 C  
HETATM   31  O   UNL     1      -9.751   8.231  71.509  1.00  0.00    -0.165 OA 
ENDBRANCH  28  29
ENDBRANCH  27  28
ENDBRANCH  25  27
ENDBRANCH   4  25
BRANCH   4  32
HETATM   32  O   UNL     1      -8.548   4.540  70.960  1.00  0.00    -0.101 OA 
BRANCH  32  33
HETATM   33  C   UNL     1      -9.802   4.683  70.437  1.00  0.00    -0.236 C  
HETATM   34  O   UNL     1     -10.829   4.290  70.970  1.00  0.00     0.498 OA 
BRANCH  33  35
HETATM   35  C   UNL     1      -9.773   5.388  69.108  1.00  0.00    -0.217 C  
BRANCH  35  36
HETATM   36  C   UNL     1     -11.192   5.605  68.608  1.00  0.00     0.316 C  
HETATM   37  C   UNL     1     -11.269   5.618  67.086  1.00  0.00     0.359 C  
ENDBRANCH  35  36
ENDBRANCH  33  35
ENDBRANCH  32  33
ENDBRANCH   4  32
TORSDOF 8
ENDMDL
MODEL      117
REMARK 921   NORMALIZED FREE ENERGY PREDICTED BY IDOCK:    1.05 KCAL/MOL
REMARK 922        TOTAL FREE ENERGY PREDICTED BY IDOCK:    1.81 KCAL/MOL
REMARK 923 INTER-LIGAND FREE ENERGY PREDICTED BY IDOCK:   -2.16 KCAL/MOL
REMARK 924 INTRA-LIGAND FREE ENERGY PREDICTED BY IDOCK:    3.96 KCAL/MOL
REMARK 927      BINDING AFFINITY PREDICTED BY RF-SCORE:    0.00 PKD
ROOT
HETATM    1  C   UNL     1     -10.288   7.990  67.239  1.00  0.00    -0.371 C  
HETATM    2  C   UNL     1     -11.658   7.625  67.182  1.00  0.00     1.700 C  
HETATM    3  C   UNL     1     -11.245   8.740  68.065  1.00  0.00     0.485 C  
HETATM    4  C   UNL     1      -9.308   9.451  67.831  1.00  0.00    -0.129 C  
HETATM    5  C   UNL     1     -10.571   9.903  67.668  1.00  0.00    -0.325 C  
HETATM    6  C   UNL     1      -8.535   3.558  71.916  1.00  0.00    -0.081 C  
HETATM    7  C   UNL     1      -9.785   3.614  71.077  1.00  0.00    -0.243 C  
HETATM    8  C   UNL     1      -9.695   4.743  70.343  1.00  0.00    -0.289 C  
HETATM    9  F   UNL     1      -8.693   3.469  68.611  1.00  0.00    -0.096 F  
HETATM   10  C   UNL     1     -10.617  10.180  69.545  1.00  0.00    -0.269 C  
HETATM   11  C   UNL     1      -8.799   4.728  69.123  1.00  0.00    -0.092 C  
HETATM   12  C   UNL     1     -11.128  10.779  66.511  1.00  0.00    -0.061 C  
HETATM   13  C   UNL     1      -9.404   5.609  68.056  1.00  0.00    -0.114 C  
HETATM   14  O   UNL     1      -8.006   2.495  72.205  1.00  0.00    -0.052 OA 
HETATM   15  C   UNL     1      -9.974   8.844  70.474  1.00  0.00    -0.201 C  
HETATM   16  C   UNL     1      -8.018   4.883  72.430  1.00  0.00    -0.103 C  
HETATM   17  O   UNL     1      -8.634   9.160  70.858  1.00  0.00    -0.196 OA 
HETATM   18  C   UNL     1     -10.086   7.244  69.991  1.00  0.00    -0.190 C  
HETATM   19  C   UNL     1     -10.978   6.131  72.071  1.00  0.00    -0.305 C  
HETATM   20  C   UNL     1      -9.749   6.108  71.082  1.00  0.00    -0.199 C  
HETATM   21  H   UNL     1      -8.284   8.434  71.362  1.00  0.00     0.000 HD 
HETATM   22  C   UNL     1      -9.477   7.067  68.521  1.00  0.00    -0.134 C  
HETATM   23  F   UNL     1     -11.439   6.923  69.833  1.00  0.00    -0.312 F  
HETATM   24  C   UNL     1      -8.541   6.068  72.022  1.00  0.00    -0.136 C  
ENDROOT
BRANCH   4  25
HETATM   25  C   UNL     1      -8.681  11.022  68.002  1.00  0.00    -0.138 C  
HETATM   26  O   UNL     1      -8.699  11.912  67.134  1.00  0.00    -0.163 OA 
BRANCH  25  27
HETATM   27  C   UNL     1      -7.919  11.409  69.267  1.00  0.00     0.146 C  
BRANCH  27  28
HETATM   28  O   UNL     1      -6.969  10.394  69.639  1.00  0.00    -0.093 OA 
BRANCH  28  29
HETATM   29  C   UNL     1      -5.989  10.185  68.722  1.00  0.00    -0.040 C  
HETATM   30  C   UNL     1      -5.509  11.476  68.124  1.00  0.00    -0.042 C  
HETATM   31  O   UNL     1      -5.568   9.085  68.422  1.00  0.00    -0.037 OA 
ENDBRANCH  28  29
ENDBRANCH  27  28
ENDBRANCH  25  27
ENDBRANCH   4  25
BRANCH   4  32
HETATM   32  O   UNL     1      -8.728   9.424  66.382  1.00  0.00    -0.131 OA 
BRANCH  32  33
HETATM   33  C   UNL     1      -8.407   8.234  65.792  1.00  0.00    -0.137 C  
HETATM   34  O   UNL     1      -9.152   7.591  65.068  1.00  0.00     0.320 OA 
BRANCH  33  35
HETATM   35  C   UNL     1      -7.011   7.797  66.144  1.00  0.00    -0.062 C  
BRANCH  35  36
HETATM   36  C   UNL     1      -6.086   8.022  64.959  1.00  0.00    -0.045 C  
HETATM   37  C   UNL     1      -5.206   6.810  64.681  1.00  0.00    -0.027 C  
ENDBRANCH  35  36
ENDBRANCH  33  35
ENDBRANCH  32  33
ENDBRANCH   4  32
TORSDOF 8
ENDMDL
MODEL      118
REMARK 921   NORMALIZED FREE ENERGY PREDICTED BY IDOCK:    1.33 KCAL/MOL
REMARK 922        TOTAL FREE ENERGY PREDICTED BY IDOCK:    2.22 KCAL/MOL
REMARK 923 INTER-LIGAND FREE ENERGY PREDICTED BY IDOCK:   -0.97 KCAL/MOL
REMARK 924 INTRA-LIGAND FREE ENERGY PREDICTED BY IDOCK:    3.19 KCAL/MOL
REMARK 927      BINDING AFFINITY PREDICTED BY RF-SCORE:    0.00 PKD
ROOT
HETATM    1  C   UNL     1      -6.910  10.293  68.385  1.00  0.00    -0.061 C  
HETATM    2  C   UNL     1      -5.569  10.144  67.948  1.00  0.00    -0.038 C  
HETATM    3  C   UNL     1      -6.614  10.492  66.959  1.00  0.00    -0.077 C  
HETATM    4  C   UNL     1      -8.469  11.045  67.712  1.00  0.00    -0.122 C  
HETATM    5  C   UNL     1      -7.461  11.608  67.009  1.00  0.00    -0.150 C  
HETATM    6  C   UNL     1      -8.557   3.837  67.939  1.00  0.00    -0.098 C  
HETATM    7  C   UNL     1      -7.192   4.475  67.929  1.00  0.00    -0.065 C  
HETATM    8  C   UNL     1      -7.400   5.808  67.963  1.00  0.00    -0.073 C  
HETATM    9  F   UNL     1      -7.244   5.713  70.329  1.00  0.00    -0.058 F  
HETATM   10  C   UNL     1      -8.165  10.736  65.477  1.00  0.00    -0.104 C  
HETATM   11  C   UNL     1      -7.756   6.437  69.294  1.00  0.00    -0.101 C  
HETATM   12  C   UNL     1      -6.872  13.037  67.167  1.00  0.00     0.118 C  
HETATM   13  C   UNL     1      -7.157   7.822  69.360  1.00  0.00    -0.071 C  
HETATM   14  O   UNL     1      -8.758   2.767  68.494  1.00  0.00    -0.077 OA 
HETATM   15  C   UNL     1      -8.595   9.061  65.750  1.00  0.00    -0.160 C  
HETATM   16  C   UNL     1      -9.636   4.562  67.169  1.00  0.00    -0.209 C  
HETATM   17  O   UNL     1     -10.007   8.982  65.957  1.00  0.00    -0.345 OA 
HETATM   18  C   UNL     1      -7.786   8.063  66.824  1.00  0.00    -0.098 C  
HETATM   19  C   UNL     1      -7.348   6.021  65.412  1.00  0.00    -0.076 C  
HETATM   20  C   UNL     1      -8.072   6.480  66.736  1.00  0.00    -0.109 C  
HETATM   21  H   UNL     1     -10.241   8.073  66.105  1.00  0.00     0.000 HD 
HETATM   22  C   UNL     1      -7.750   8.731  68.279  1.00  0.00    -0.100 C  
HETATM   23  F   UNL     1      -6.439   8.007  66.449  1.00  0.00    -0.044 F  
HETATM   24  C   UNL     1      -9.440   5.800  66.644  1.00  0.00    -0.161 C  
ENDROOT
BRANCH   4  25
HETATM   25  C   UNL     1      -9.610  12.160  67.127  1.00  0.00    -0.194 C  
HETATM   26  O   UNL     1      -9.362  13.306  66.714  1.00  0.00    -0.243 OA 
BRANCH  25  27
HETATM   27  C   UNL     1     -11.100  11.834  67.185  1.00  0.00    -0.296 C  
BRANCH  27  28
HETATM   28  O   UNL     1     -11.616  11.501  65.884  1.00  0.00    -0.273 OA 
BRANCH  28  29
HETATM   29  C   UNL     1     -12.105  12.561  65.190  1.00  0.00    -0.446 C  
HETATM   30  C   UNL     1     -11.739  12.485  63.735  1.00  0.00    -0.564 C  
HETATM   31  O   UNL     1     -12.748  13.462  65.695  1.00  0.00    -0.458 OA 
ENDBRANCH  28  29
ENDBRANCH  27  28
ENDBRANCH  25  27
ENDBRANCH   4  25
BRANCH   4  32
HETATM   32  O   UNL     1      -8.465  11.824  69.065  1.00  0.00     0.031 OA 
BRANCH  32  33
HETATM   33  C   UNL     1      -9.636  12.048  69.732  1.00  0.00     1.891 C  
HETATM   34  O   UNL     1     -10.374  11.173  70.159  1.00  0.00     0.386 OA 
BRANCH  33  35
HETATM   35  C   UNL     1      -9.918  13.519  69.882  1.00  0.00     1.615 C  
BRANCH  35  36
HETATM   36  C   UNL     1      -8.908  14.322  69.079  1.00  0.00     0.062 C  
HETATM   37  C   UNL     1      -9.486  15.645  68.590  1.00  0.00    -0.204 C  
ENDBRANCH  35  36
ENDBRANCH  33  35
ENDBRANCH  32  33
ENDBRANCH   4  32
TORSDOF 8
ENDMDL
MODEL      119
REMARK 921   NORMALIZED FREE ENERGY PREDICTED BY IDOCK:    1.39 KCAL/MOL
REMARK 922        TOTAL FREE ENERGY PREDICTED BY IDOCK:    2.30 KCAL/MOL
REMARK 923 INTER-LIGAND FREE ENERGY PREDICTED BY IDOCK:   -4.08 KCAL/MOL
REMARK 924 INTRA-LIGAND FREE ENERGY PREDICTED BY IDOCK:    6.38 KCAL/MOL
REMARK 927      BINDING AFFINITY PREDICTED BY RF-SCORE:    0.00 PKD
ROOT
HETATM    1  C   UNL     1     -10.042   7.825  67.503  1.00  0.00    -0.272 C  
HETATM    2  C   UNL     1     -11.429   8.108  67.609  1.00  0.00     1.349 C  
HETATM    3  C   UNL     1     -10.449   9.142  68.016  1.00  0.00    -0.276 C  
HETATM    4  C   UNL     1      -8.465   8.806  67.502  1.00  0.00    -0.120 C  
HETATM    5  C   UNL     1      -9.444   9.691  67.209  1.00  0.00    -0.175 C  
HETATM    6  C   UNL     1      -9.438   4.835  73.443  1.00  0.00    -0.122 C  
HETATM    7  C   UNL     1     -10.686   5.166  72.665  1.00  0.00    -0.291 C  
HETATM    8  C   UNL     1     -10.277   5.837  71.568  1.00  0.00    -0.255 C  
HETATM    9  F   UNL     1     -10.203   3.772  70.403  1.00  0.00    -0.189 F  
HETATM   10  C   UNL     1      -9.040  10.544  68.855  1.00  0.00    -0.180 C  
HETATM   11  C   UNL     1      -9.696   5.037  70.421  1.00  0.00    -0.209 C  
HETATM   12  C   UNL     1      -9.793  10.301  65.822  1.00  0.00    -0.320 C  
HETATM   13  C   UNL     1     -10.071   5.702  69.117  1.00  0.00    -0.274 C  
HETATM   14  O   UNL     1      -9.344   3.803  74.091  1.00  0.00    -0.092 OA 
HETATM   15  C   UNL     1      -8.840   9.438  70.196  1.00  0.00    -0.223 C  
HETATM   16  C   UNL     1      -8.347   5.880  73.427  1.00  0.00    -0.115 C  
HETATM   17  O   UNL     1      -7.442   9.232  70.413  1.00  0.00    -0.088 OA 
HETATM   18  C   UNL     1      -9.676   7.993  70.334  1.00  0.00    -0.178 C  
HETATM   19  C   UNL     1     -10.557   8.121  72.692  1.00  0.00    -0.414 C  
HETATM   20  C   UNL     1      -9.641   7.241  71.758  1.00  0.00    -0.163 C  
HETATM   21  H   UNL     1      -7.334   8.631  71.141  1.00  0.00     0.000 HD 
HETATM   22  C   UNL     1      -9.462   7.104  69.019  1.00  0.00    -0.143 C  
HETATM   23  F   UNL     1     -11.047   8.272  70.329  1.00  0.00    -0.250 F  
HETATM   24  C   UNL     1      -8.407   6.974  72.624  1.00  0.00    -0.119 C  
ENDROOT
BRANCH   4  25
HETATM   25  C   UNL     1      -7.236   9.899  67.075  1.00  0.00    -0.090 C  
HETATM   26  O   UNL     1      -7.399  10.994  66.510  1.00  0.00    -0.138 OA 
BRANCH  25  27
HETATM   27  C   UNL     1      -5.771   9.520  67.275  1.00  0.00    -0.040 C  
BRANCH  27  28
HETATM   28  O   UNL     1      -5.611   8.599  68.368  1.00  0.00    -0.037 OA 
BRANCH  28  29
HETATM   29  C   UNL     1      -5.542   7.295  67.993  1.00  0.00    -0.025 C  
HETATM   30  C   UNL     1      -6.004   6.380  69.090  1.00  0.00    -0.021 C  
HETATM   31  O   UNL     1      -5.144   6.925  66.906  1.00  0.00    -0.012 OA 
ENDBRANCH  28  29
ENDBRANCH  27  28
ENDBRANCH  25  27
ENDBRANCH   4  25
BRANCH   4  32
HETATM   32  O   UNL     1      -8.214   8.063  66.152  1.00  0.00    -0.105 OA 
BRANCH  32  33
HETATM   33  C   UNL     1      -8.182   8.762  64.979  1.00  0.00    -0.155 C  
HETATM   34  O   UNL     1      -9.163   9.212  64.408  1.00  0.00    -0.088 OA 
BRANCH  33  35
HETATM   35  C   UNL     1      -6.777   8.915  64.461  1.00  0.00    -0.070 C  
BRANCH  35  36
HETATM   36  C   UNL     1      -6.792   8.983  62.943  1.00  0.00    -0.093 C  
HETATM   37  C   UNL     1      -5.388   9.097  62.360  1.00  0.00    -0.082 C  
ENDBRANCH  35  36
ENDBRANCH  33  35
ENDBRANCH  32  33
ENDBRANCH   4  32
TORSDOF 8
ENDMDL
MODEL      120
REMARK 921   NORMALIZED FREE ENERGY PREDICTED BY IDOCK:    2.03 KCAL/MOL
REMARK 922        TOTAL FREE ENERGY PREDICTED BY IDOCK:    3.24 KCAL/MOL
REMARK 923 INTER-LIGAND FREE ENERGY PREDICTED BY IDOCK:   -4.24 KCAL/MOL
REMARK 924 INTRA-LIGAND FREE ENERGY PREDICTED BY IDOCK:    7.48 KCAL/MOL
REMARK 927      BINDING AFFINITY PREDICTED BY RF-SCORE:    0.00 PKD
ROOT
HETATM    1  C   UNL     1      -9.741  11.461  66.087  1.00  0.00    -0.248 C  
HETATM    2  C   UNL     1      -8.682  11.554  65.147  1.00  0.00     0.287 C  
HETATM    3  C   UNL     1      -8.359  11.467  66.590  1.00  0.00    -0.167 C  
HETATM    4  C   UNL     1      -9.918  10.975  67.870  1.00  0.00    -0.174 C  
HETATM    5  C   UNL     1      -8.744  10.442  67.463  1.00  0.00    -0.125 C  
HETATM    6  C   UNL     1     -10.802  18.029  66.657  1.00  0.00     0.004 C  
HETATM    7  C   UNL     1     -10.023  17.277  65.609  1.00  0.00     0.003 C  
HETATM    8  C   UNL     1     -10.042  15.981  65.986  1.00  0.00    -0.362 C  
HETATM    9  F   UNL     1     -11.974  15.679  64.643  1.00  0.00    -0.296 F  
HETATM   10  C   UNL     1      -7.892  11.610  68.692  1.00  0.00    -0.132 C  
HETATM   11  C   UNL     1     -11.299  15.181  65.717  1.00  0.00    -0.238 C  
HETATM   12  C   UNL     1      -8.442   8.957  67.116  1.00  0.00    -0.106 C  
HETATM   13  C   UNL     1     -10.918  13.755  65.401  1.00  0.00    -0.309 C  
HETATM   14  O   UNL     1     -11.474  19.009  66.373  1.00  0.00     0.567 OA 
HETATM   15  C   UNL     1      -8.499  13.252  68.646  1.00  0.00     0.017 C  
HETATM   16  C   UNL     1     -10.649  17.541  68.079  1.00  0.00    -0.384 C  
HETATM   17  O   UNL     1      -9.419  13.427  69.726  1.00  0.00     0.752 OA 
HETATM   18  C   UNL     1      -9.076  13.984  67.255  1.00  0.00    -0.220 C  
HETATM   19  C   UNL     1      -7.833  16.178  67.266  1.00  0.00    -0.207 C  
HETATM   20  C   UNL     1      -9.292  15.580  67.285  1.00  0.00    -0.220 C  
HETATM   21  H   UNL     1      -9.749  14.318  69.701  1.00  0.00     0.000 HD 
HETATM   22  C   UNL     1     -10.230  13.090  66.598  1.00  0.00    -0.257 C  
HETATM   23  F   UNL     1      -8.058  13.975  66.294  1.00  0.00     0.329 F  
HETATM   24  C   UNL     1      -9.991  16.391  68.380  1.00  0.00    -0.238 C  
ENDROOT
BRANCH   4  25
HETATM   25  C   UNL     1      -9.918  10.079  69.315  1.00  0.00    -0.213 C  
HETATM   26  O   UNL     1      -9.080   9.219  69.638  1.00  0.00    -0.148 OA 
BRANCH  25  27
HETATM   27  C   UNL     1     -11.077  10.212  70.298  1.00  0.00    -0.317 C  
BRANCH  27  28
HETATM   28  O   UNL     1     -11.225   9.025  71.099  1.00  0.00    -0.260 OA 
BRANCH  28  29
HETATM   29  C   UNL     1     -12.375   8.981  71.822  1.00  0.00    -0.367 C  
HETATM   30  C   UNL     1     -13.184  10.234  71.649  1.00  0.00    -0.509 C  
HETATM   31  O   UNL     1     -12.694   8.043  72.527  1.00  0.00    -0.195 OA 
ENDBRANCH  28  29
ENDBRANCH  27  28
ENDBRANCH  25  27
ENDBRANCH   4  25
BRANCH   4  32
HETATM   32  O   UNL     1     -10.992   9.991  67.310  1.00  0.00    -0.262 OA 
BRANCH  32  33
HETATM   33  C   UNL     1     -10.632   8.734  66.912  1.00  0.00    -0.193 C  
HETATM   34  O   UNL     1      -9.821   8.487  66.033  1.00  0.00    -0.212 OA 
BRANCH  33  35
HETATM   35  C   UNL     1     -11.361   7.673  67.692  1.00  0.00     0.625 C  
BRANCH  35  36
HETATM   36  C   UNL     1     -10.363   6.693  68.287  1.00  0.00    -0.220 C  
HETATM   37  C   UNL     1     -10.383   5.349  67.571  1.00  0.00    -0.246 C  
ENDBRANCH  35  36
ENDBRANCH  33  35
ENDBRANCH  32  33
ENDBRANCH   4  32
TORSDOF 8
ENDMDL
MODEL      121
REMARK 921   NORMALIZED FREE ENERGY PREDICTED BY IDOCK:    2.40 KCAL/MOL
REMARK 922        TOTAL FREE ENERGY PREDICTED BY IDOCK:    3.79 KCAL/MOL
REMARK 923 INTER-LIGAND FREE ENERGY PREDICTED BY IDOCK:   -2.71 KCAL/MOL
REMARK 924 INTRA-LIGAND FREE ENERGY PREDICTED BY IDOCK:    6.49 KCAL/MOL
REMARK 927      BINDING AFFINITY PREDICTED BY RF-SCORE:    0.00 PKD
ROOT
HETATM    1  C   UNL     1      -7.545  12.825  67.442  1.00  0.00    -0.152 C  
HETATM    2  C   UNL     1      -7.298  12.278  66.156  1.00  0.00     1.169 C  
HETATM    3  C   UNL     1      -8.697  12.523  66.579  1.00  0.00    -0.035 C  
HETATM    4  C   UNL     1      -8.969  13.646  68.304  1.00  0.00    -0.187 C  
HETATM    5  C   UNL     1      -9.235  13.752  66.983  1.00  0.00    -0.256 C  
HETATM    6  C   UNL     1      -7.501   7.018  70.738  1.00  0.00    -0.082 C  
HETATM    7  C   UNL     1      -7.013   7.328  69.346  1.00  0.00    -0.062 C  
HETATM    8  C   UNL     1      -7.318   8.623  69.121  1.00  0.00    -0.076 C  
HETATM    9  F   UNL     1      -5.161   9.210  69.914  1.00  0.00    -0.029 F  
HETATM   10  C   UNL     1     -10.733  12.627  67.287  1.00  0.00    -0.259 C  
HETATM   11  C   UNL     1      -6.428   9.681  69.738  1.00  0.00    -0.049 C  
HETATM   12  C   UNL     1      -9.092  15.009  66.080  1.00  0.00    -0.237 C  
HETATM   13  C   UNL     1      -6.353  10.867  68.806  1.00  0.00    -0.048 C  
HETATM   14  O   UNL     1      -6.910   6.229  71.461  1.00  0.00    -0.067 OA 
HETATM   15  C   UNL     1     -10.383  11.237  68.293  1.00  0.00    -0.183 C  
HETATM   16  C   UNL     1      -8.790   7.686  71.156  1.00  0.00    -0.140 C  
HETATM   17  O   UNL     1     -10.821  11.517  69.624  1.00  0.00    -0.438 OA 
HETATM   18  C   UNL     1      -8.898  10.462  68.312  1.00  0.00    -0.135 C  
HETATM   19  C   UNL     1      -9.566   8.046  68.038  1.00  0.00    -0.170 C  
HETATM   20  C   UNL     1      -8.816   9.020  69.026  1.00  0.00    -0.136 C  
HETATM   21  H   UNL     1     -10.630  10.763  70.170  1.00  0.00     0.000 HD 
HETATM   22  C   UNL     1      -7.730  11.512  68.624  1.00  0.00    -0.139 C  
HETATM   23  F   UNL     1      -8.612  10.019  67.016  1.00  0.00    -0.123 F  
HETATM   24  C   UNL     1      -9.387   8.642  70.396  1.00  0.00    -0.191 C  
ENDROOT
BRANCH   4  25
HETATM   25  C   UNL     1     -10.196  14.746  68.722  1.00  0.00    -0.239 C  
HETATM   26  O   UNL     1     -10.095  15.671  69.546  1.00  0.00    -0.242 OA 
BRANCH  25  27
HETATM   27  C   UNL     1     -11.603  14.575  68.156  1.00  0.00    -0.331 C  
BRANCH  27  28
HETATM   28  O   UNL     1     -12.587  14.511  69.204  1.00  0.00    -0.080 OA 
BRANCH  28  29
HETATM   29  C   UNL     1     -12.215  13.761  70.273  1.00  0.00    -0.359 C  
HETATM   30  C   UNL     1     -12.073  14.598  71.512  1.00  0.00    -0.413 C  
HETATM   31  O   UNL     1     -12.014  12.563  70.222  1.00  0.00    -0.347 OA 
ENDBRANCH  28  29
ENDBRANCH  27  28
ENDBRANCH  25  27
ENDBRANCH   4  25
BRANCH   4  32
HETATM   32  O   UNL     1      -7.926  14.776  68.569  1.00  0.00    -0.123 OA 
BRANCH  32  33
HETATM   33  C   UNL     1      -6.861  14.548  69.395  1.00  0.00    -0.149 C  
HETATM   34  O   UNL     1      -5.689  14.634  69.061  1.00  0.00    -0.084 OA 
BRANCH  33  35
HETATM   35  C   UNL     1      -7.304  14.173  70.783  1.00  0.00     1.609 C  
BRANCH  35  36
HETATM   36  C   UNL     1      -6.089  13.954  71.670  1.00  0.00     0.245 C  
HETATM   37  C   UNL     1      -5.205  12.822  71.163  1.00  0.00    -0.170 C  
ENDBRANCH  35  36
ENDBRANCH  33  35
ENDBRANCH  32  33
ENDBRANCH   4  32
TORSDOF 8
ENDMDL
MODEL      122
REMARK 921   NORMALIZED FREE ENERGY PREDICTED BY IDOCK:    2.81 KCAL/MOL
REMARK 922        TOTAL FREE ENERGY PREDICTED BY IDOCK:    4.38 KCAL/MOL
REMARK 923 INTER-LIGAND FREE ENERGY PREDICTED BY IDOCK:    2.42 KCAL/MOL
REMARK 924 INTRA-LIGAND FREE ENERGY PREDICTED BY IDOCK:    1.96 KCAL/MOL
REMARK 927      BINDING AFFINITY PREDICTED BY RF-SCORE:    0.00 PKD
ROOT
HETATM    1  C   UNL     1      -8.719  12.610  66.215  1.00  0.00     0.182 C  
HETATM    2  C   UNL     1      -7.752  13.629  66.413  1.00  0.00     1.576 C  
HETATM    3  C   UNL     1      -7.686  12.402  67.241  1.00  0.00    -0.158 C  
HETATM    4  C   UNL     1      -8.894  10.816  66.660  1.00  0.00    -0.145 C  
HETATM    5  C   UNL     1      -7.574  11.089  66.765  1.00  0.00    -0.139 C  
HETATM    6  C   UNL     1     -13.346  15.179  70.287  1.00  0.00     0.087 C  
HETATM    7  C   UNL     1     -12.116  15.831  69.711  1.00  0.00    -0.298 C  
HETATM    8  C   UNL     1     -11.471  14.870  69.018  1.00  0.00    -0.322 C  
HETATM    9  F   UNL     1     -12.643  15.564  67.076  1.00  0.00     0.599 F  
HETATM   10  C   UNL     1      -7.743  10.746  68.624  1.00  0.00    -0.114 C  
HETATM   11  C   UNL     1     -12.000  14.506  67.646  1.00  0.00    -0.320 C  
HETATM   12  C   UNL     1      -6.441  10.705  65.773  1.00  0.00    -0.107 C  
HETATM   13  C   UNL     1     -10.840  14.137  66.753  1.00  0.00    -0.296 C  
HETATM   14  O   UNL     1     -14.391  15.797  70.427  1.00  0.00     0.397 OA 
HETATM   15  C   UNL     1      -9.145  11.495  69.358  1.00  0.00     0.652 C  
HETATM   16  C   UNL     1     -13.190  13.746  70.740  1.00  0.00    -0.077 C  
HETATM   17  O   UNL     1     -10.173  10.511  69.484  1.00  0.00    -0.242 OA 
HETATM   18  C   UNL     1      -9.787  12.955  68.845  1.00  0.00     0.152 C  
HETATM   19  C   UNL     1     -10.005  14.221  71.014  1.00  0.00     3.095 C  
HETATM   20  C   UNL     1     -10.859  13.679  69.805  1.00  0.00     0.215 C  
HETATM   21  H   UNL     1     -10.934  10.917  69.882  1.00  0.00     0.000 HD 
HETATM   22  C   UNL     1     -10.113  12.895  67.279  1.00  0.00    -0.231 C  
HETATM   23  F   UNL     1      -8.792  13.935  68.942  1.00  0.00    -0.144 F  
HETATM   24  C   UNL     1     -12.065  13.028  70.488  1.00  0.00    -0.373 C  
ENDROOT
BRANCH   4  25
HETATM   25  C   UNL     1      -8.639   9.139  66.766  1.00  0.00    -0.127 C  
HETATM   26  O   UNL     1      -7.674   8.518  66.287  1.00  0.00    -0.091 OA 
BRANCH  25  27
HETATM   27  C   UNL     1      -9.700   8.241  67.394  1.00  0.00    -0.174 C  
BRANCH  27  28
HETATM   28  O   UNL     1      -9.126   7.021  67.897  1.00  0.00    -0.128 OA 
BRANCH  28  29
HETATM   29  C   UNL     1      -9.075   6.946  69.253  1.00  0.00    -0.140 C  
HETATM   30  C   UNL     1     -10.449   6.856  69.853  1.00  0.00    -0.239 C  
HETATM   31  O   UNL     1      -8.041   6.962  69.892  1.00  0.00    -0.121 OA 
ENDBRANCH  28  29
ENDBRANCH  27  28
ENDBRANCH  25  27
ENDBRANCH   4  25
BRANCH   4  32
HETATM   32  O   UNL     1      -9.122  10.642  65.126  1.00  0.00    -0.185 OA 
BRANCH  32  33
HETATM   33  C   UNL     1     -10.071  11.386  64.483  1.00  0.00    -0.287 C  
HETATM   34  O   UNL     1      -9.834  12.309  63.719  1.00  0.00    -0.310 OA 
BRANCH  33  35
HETATM   35  C   UNL     1     -11.463  10.932  64.831  1.00  0.00     0.604 C  
BRANCH  35  36
HETATM   36  C   UNL     1     -12.475  11.659  63.960  1.00  0.00    -0.164 C  
HETATM   37  C   UNL     1     -12.992  12.931  64.621  1.00  0.00    -0.204 C  
ENDBRANCH  35  36
ENDBRANCH  33  35
ENDBRANCH  32  33
ENDBRANCH   4  32
TORSDOF 8
ENDMDL
MODEL      123
REMARK 921   NORMALIZED FREE ENERGY PREDICTED BY IDOCK:    3.00 KCAL/MOL
REMARK 922        TOTAL FREE ENERGY PREDICTED BY IDOCK:    4.66 KCAL/MOL
REMARK 923 INTER-LIGAND FREE ENERGY PREDICTED BY IDOCK:   -0.97 KCAL/MOL
REMARK 924 INTRA-LIGAND FREE ENERGY PREDICTED BY IDOCK:    5.63 KCAL/MOL
REMARK 927      BINDING AFFINITY PREDICTED BY RF-SCORE:    0.00 PKD
ROOT
HETATM    1  C   UNL     1      -8.575  12.284  66.603  1.00  0.00    -0.099 C  
HETATM    2  C   UNL     1      -8.199  12.496  65.252  1.00  0.00     2.389 C  
HETATM    3  C   UNL     1      -9.597  12.116  65.560  1.00  0.00    -0.141 C  
HETATM    4  C   UNL     1     -10.164  12.175  67.557  1.00  0.00    -0.199 C  
HETATM    5  C   UNL     1     -10.475  12.809  66.405  1.00  0.00    -0.265 C  
HETATM    6  C   UNL     1      -6.709   5.879  66.895  1.00  0.00    -0.058 C  
HETATM    7  C   UNL     1      -6.365   6.926  65.868  1.00  0.00    -0.050 C  
HETATM    8  C   UNL     1      -7.053   8.034  66.215  1.00  0.00    -0.066 C  
HETATM    9  F   UNL     1      -5.160   8.751  67.453  1.00  0.00    -0.031 F  
HETATM   10  C   UNL     1     -11.555  11.309  65.976  1.00  0.00     0.304 C  
HETATM   11  C   UNL     1      -6.513   8.878  67.350  1.00  0.00    -0.057 C  
HETATM   12  C   UNL     1     -10.737  14.327  66.193  1.00  0.00    -0.295 C  
HETATM   13  C   UNL     1      -6.819  10.331  67.073  1.00  0.00    -0.084 C  
HETATM   14  O   UNL     1      -5.894   5.041  67.252  1.00  0.00    -0.020 OA 
HETATM   15  C   UNL     1     -10.781   9.768  66.281  1.00  0.00     0.114 C  
HETATM   16  C   UNL     1      -8.132   5.887  67.404  1.00  0.00    -0.102 C  
HETATM   17  O   UNL     1     -11.257   9.258  67.528  1.00  0.00    -0.410 OA 
HETATM   18  C   UNL     1      -9.131   9.519  66.134  1.00  0.00    -0.166 C  
HETATM   19  C   UNL     1      -9.041   7.436  64.716  1.00  0.00     0.873 C  
HETATM   20  C   UNL     1      -8.602   7.998  66.123  1.00  0.00    -0.163 C  
HETATM   21  H   UNL     1     -10.837   8.422  67.693  1.00  0.00     0.000 HD 
HETATM   22  C   UNL     1      -8.331  10.577  67.030  1.00  0.00    -0.128 C  
HETATM   23  F   UNL     1      -8.750   9.835  64.825  1.00  0.00    -0.149 F  
HETATM   24  C   UNL     1      -9.005   6.880  67.090  1.00  0.00    -0.121 C  
ENDROOT
BRANCH   4  25
HETATM   25  C   UNL     1     -11.658  12.562  68.269  1.00  0.00    -0.328 C  
HETATM   26  O   UNL     1     -12.627  11.793  68.393  1.00  0.00     0.023 OA 
BRANCH  25  27
HETATM   27  C   UNL     1     -11.944  13.992  68.719  1.00  0.00    -0.347 C  
BRANCH  27  28
HETATM   28  O   UNL     1     -11.976  14.095  70.154  1.00  0.00    -0.292 OA 
BRANCH  28  29
HETATM   29  C   UNL     1     -11.817  15.359  70.626  1.00  0.00    -0.351 C  
HETATM   30  C   UNL     1     -13.044  15.838  71.348  1.00  0.00    -0.446 C  
HETATM   31  O   UNL     1     -10.806  16.017  70.468  1.00  0.00    -0.302 OA 
ENDBRANCH  28  29
ENDBRANCH  27  28
ENDBRANCH  25  27
ENDBRANCH   4  25
BRANCH   4  32
HETATM   32  O   UNL     1      -9.507  13.287  68.433  1.00  0.00    -0.214 OA 
BRANCH  32  33
HETATM   33  C   UNL     1      -8.153  13.475  68.403  1.00  0.00    -0.145 C  
HETATM   34  O   UNL     1      -7.535  13.940  67.458  1.00  0.00    -0.164 OA 
BRANCH  33  35
HETATM   35  C   UNL     1      -7.502  13.036  69.686  1.00  0.00     0.763 C  
BRANCH  35  36
HETATM   36  C   UNL     1      -6.307  13.925  69.989  1.00  0.00    -0.099 C  
HETATM   37  C   UNL     1      -6.655  15.405  69.899  1.00  0.00    -0.144 C  
ENDBRANCH  35  36
ENDBRANCH  33  35
ENDBRANCH  32  33
ENDBRANCH   4  32
TORSDOF 8
ENDMDL
MODEL      124
REMARK 921   NORMALIZED FREE ENERGY PREDICTED BY IDOCK:    3.41 KCAL/MOL
REMARK 922        TOTAL FREE ENERGY PREDICTED BY IDOCK:    5.26 KCAL/MOL
REMARK 923 INTER-LIGAND FREE ENERGY PREDICTED BY IDOCK:    2.74 KCAL/MOL
REMARK 924 INTRA-LIGAND FREE ENERGY PREDICTED BY IDOCK:    2.52 KCAL/MOL
REMARK 927      BINDING AFFINITY PREDICTED BY RF-SCORE:    0.00 PKD
ROOT
HETATM    1  C   UNL     1      -6.922  13.730  68.909  1.00  0.00    -0.111 C  
HETATM    2  C   UNL     1      -7.056  14.473  70.110  1.00  0.00     0.131 C  
HETATM    3  C   UNL     1      -7.943  13.309  69.880  1.00  0.00     1.850 C  
HETATM    4  C   UNL     1      -7.459  12.063  68.291  1.00  0.00    -0.106 C  
HETATM    5  C   UNL     1      -7.532  11.992  69.639  1.00  0.00     0.612 C  
HETATM    6  C   UNL     1     -10.921  17.583  65.201  1.00  0.00     0.314 C  
HETATM    7  C   UNL     1     -10.297  17.870  66.542  1.00  0.00    -0.362 C  
HETATM    8  C   UNL     1      -9.645  16.745  66.901  1.00  0.00    -0.253 C  
HETATM    9  F   UNL     1      -7.686  17.630  65.897  1.00  0.00    -0.301 F  
HETATM   10  C   UNL     1      -9.408  11.788  69.435  1.00  0.00     0.770 C  
HETATM   11  C   UNL     1      -8.300  16.469  66.262  1.00  0.00    -0.329 C  
HETATM   12  C   UNL     1      -6.546  11.284  70.610  1.00  0.00     0.653 C  
HETATM   13  C   UNL     1      -7.411  15.773  67.265  1.00  0.00    -0.257 C  
HETATM   14  O   UNL     1     -11.044  18.455  64.354  1.00  0.00     0.473 OA 
HETATM   15  C   UNL     1     -10.122  12.904  68.292  1.00  0.00    -0.242 C  
HETATM   16  C   UNL     1     -11.443  16.180  64.996  1.00  0.00     0.013 C  
HETATM   17  O   UNL     1     -10.311  12.224  67.049  1.00  0.00    -0.217 OA 
HETATM   18  C   UNL     1      -9.545  14.455  68.033  1.00  0.00    -0.216 C  
HETATM   19  C   UNL     1     -11.652  15.831  68.203  1.00  0.00    -0.259 C  
HETATM   20  C   UNL     1     -10.482  15.473  67.207  1.00  0.00    -0.279 C  
HETATM   21  H   UNL     1     -10.698  12.831  66.428  1.00  0.00     0.000 HD 
HETATM   22  C   UNL     1      -7.988  14.411  67.662  1.00  0.00    -0.191 C  
HETATM   23  F   UNL     1      -9.580  15.150  69.248  1.00  0.00    -0.199 F  
HETATM   24  C   UNL     1     -11.213  15.186  65.893  1.00  0.00    -0.280 C  
ENDROOT
BRANCH   4  25
HETATM   25  C   UNL     1      -7.644  10.383  68.110  1.00  0.00    -0.091 C  
HETATM   26  O   UNL     1      -6.959   9.510  68.671  1.00  0.00    -0.063 OA 
BRANCH  25  27
HETATM   27  C   UNL     1      -8.649   9.827  67.105  1.00  0.00    -0.128 C  
BRANCH  27  28
HETATM   28  O   UNL     1      -9.778   9.229  67.766  1.00  0.00    -0.142 OA 
BRANCH  28  29
HETATM   29  C   UNL     1      -9.841   7.878  67.648  1.00  0.00    -0.165 C  
HETATM   30  C   UNL     1     -10.960   7.303  68.469  1.00  0.00    -0.029 C  
HETATM   31  O   UNL     1      -9.076   7.222  66.968  1.00  0.00    -0.127 OA 
ENDBRANCH  28  29
ENDBRANCH  27  28
ENDBRANCH  25  27
ENDBRANCH   4  25
BRANCH   4  32
HETATM   32  O   UNL     1      -5.938  11.884  67.987  1.00  0.00    -0.050 OA 
BRANCH  32  33
HETATM   33  C   UNL     1      -5.476  11.996  66.706  1.00  0.00     0.010 C  
HETATM   34  O   UNL     1      -5.345  13.049  66.101  1.00  0.00     1.832 OA 
BRANCH  33  35
HETATM   35  C   UNL     1      -5.142  10.652  66.116  1.00  0.00    -0.079 C  
BRANCH  35  36
HETATM   36  C   UNL     1      -6.087  10.345  64.966  1.00  0.00    -0.117 C  
HETATM   37  C   UNL     1      -7.349  11.197  65.017  1.00  0.00     0.678 C  
ENDBRANCH  35  36
ENDBRANCH  33  35
ENDBRANCH  32  33
ENDBRANCH   4  32
TORSDOF 8
ENDMDL
MODEL      125
REMARK 921   NORMALIZED FREE ENERGY PREDICTED BY IDOCK:    3.47 KCAL/MOL
REMARK 922        TOTAL FREE ENERGY PREDICTED BY IDOCK:    5.36 KCAL/MOL
REMARK 923 INTER-LIGAND FREE ENERGY PREDICTED BY IDOCK:   -0.78 KCAL/MOL
REMARK 924 INTRA-LIGAND FREE ENERGY PREDICTED BY IDOCK:    6.14 KCAL/MOL
REMARK 927      BINDING AFFINITY PREDICTED BY RF-SCORE:    0.00 PKD
ROOT
HETATM    1  C   UNL     1      -8.889  10.821  69.042  1.00  0.00    -0.135 C  
HETATM    2  C   UNL     1      -8.878  11.806  70.063  1.00  0.00     2.761 C  
HETATM    3  C   UNL     1      -7.590  11.320  69.516  1.00  0.00     0.126 C  
HETATM    4  C   UNL     1      -7.682  10.160  67.796  1.00  0.00    -0.090 C  
HETATM    5  C   UNL     1      -7.194  11.363  68.173  1.00  0.00    -0.082 C  
HETATM    6  C   UNL     1      -9.223   5.539  73.114  1.00  0.00    -0.132 C  
HETATM    7  C   UNL     1      -9.473   6.993  73.418  1.00  0.00    -0.210 C  
HETATM    8  C   UNL     1      -9.197   7.667  72.281  1.00  0.00    -0.189 C  
HETATM    9  F   UNL     1     -11.487   7.486  71.688  1.00  0.00    -0.250 F  
HETATM   10  C   UNL     1      -5.718  10.428  68.916  1.00  0.00    -0.041 C  
HETATM   11  C   UNL     1     -10.234   7.652  71.178  1.00  0.00    -0.195 C  
HETATM   12  C   UNL     1      -7.238  12.700  67.381  1.00  0.00    -0.138 C  
HETATM   13  C   UNL     1     -10.203   8.978  70.455  1.00  0.00    -0.250 C  
HETATM   14  O   UNL     1      -9.891   4.654  73.629  1.00  0.00    -0.136 OA 
HETATM   15  C   UNL     1      -6.170   9.016  69.846  1.00  0.00    -0.034 C  
HETATM   16  C   UNL     1      -8.062   5.240  72.193  1.00  0.00    -0.114 C  
HETATM   17  O   UNL     1      -5.988   7.856  69.031  1.00  0.00    -0.036 OA 
HETATM   18  C   UNL     1      -7.594   8.903  70.721  1.00  0.00    -0.103 C  
HETATM   19  C   UNL     1      -6.768   8.101  72.964  1.00  0.00    -0.109 C  
HETATM   20  C   UNL     1      -7.728   7.696  71.780  1.00  0.00    -0.089 C  
HETATM   21  H   UNL     1      -6.234   7.090  69.536  1.00  0.00     0.000 HD 
HETATM   22  C   UNL     1      -8.850   9.202  69.774  1.00  0.00    -0.165 C  
HETATM   23  F   UNL     1      -7.625   9.945  71.655  1.00  0.00     0.461 F  
HETATM   24  C   UNL     1      -7.389   6.223  71.539  1.00  0.00    -0.088 C  
ENDROOT
BRANCH   4  25
HETATM   25  C   UNL     1      -6.605  10.041  66.487  1.00  0.00    -0.074 C  
HETATM   26  O   UNL     1      -6.397  10.920  65.633  1.00  0.00    -0.100 OA 
BRANCH  25  27
HETATM   27  C   UNL     1      -5.876   8.729  66.212  1.00  0.00    -0.051 C  
BRANCH  27  28
HETATM   28  O   UNL     1      -6.367   8.096  65.016  1.00  0.00    -0.048 OA 
BRANCH  28  29
HETATM   29  C   UNL     1      -6.913   8.953  64.116  1.00  0.00    -0.089 C  
HETATM   30  C   UNL     1      -5.910   9.385  63.085  1.00  0.00    -0.089 C  
HETATM   31  O   UNL     1      -8.070   9.328  64.154  1.00  0.00    -0.128 OA 
ENDBRANCH  28  29
ENDBRANCH  27  28
ENDBRANCH  25  27
ENDBRANCH   4  25
BRANCH   4  32
HETATM   32  O   UNL     1      -8.812  10.516  66.779  1.00  0.00    -0.130 OA 
BRANCH  32  33
HETATM   33  C   UNL     1      -9.979   9.804  66.772  1.00  0.00    -0.218 C  
HETATM   34  O   UNL     1     -10.958  10.079  66.096  1.00  0.00     0.134 OA 
BRANCH  33  35
HETATM   35  C   UNL     1      -9.919   8.627  67.707  1.00  0.00    -0.240 C  
BRANCH  35  36
HETATM   36  C   UNL     1     -10.270   7.354  66.957  1.00  0.00    -0.357 C  
HETATM   37  C   UNL     1      -9.030   6.575  66.536  1.00  0.00    -0.152 C  
ENDBRANCH  35  36
ENDBRANCH  33  35
ENDBRANCH  32  33
ENDBRANCH   4  32
TORSDOF 8
ENDMDL
MODEL      126
REMARK 921   NORMALIZED FREE ENERGY PREDICTED BY IDOCK:    3.77 KCAL/MOL
REMARK 922        TOTAL FREE ENERGY PREDICTED BY IDOCK:    5.80 KCAL/MOL
REMARK 923 INTER-LIGAND FREE ENERGY PREDICTED BY IDOCK:    3.63 KCAL/MOL
REMARK 924 INTRA-LIGAND FREE ENERGY PREDICTED BY IDOCK:    2.17 KCAL/MOL
REMARK 927      BINDING AFFINITY PREDICTED BY RF-SCORE:    0.00 PKD
ROOT
HETATM    1  C   UNL     1      -7.935  13.968  69.846  1.00  0.00     1.007 C  
HETATM    2  C   UNL     1      -6.741  13.881  70.607  1.00  0.00     0.452 C  
HETATM    3  C   UNL     1      -6.654  14.215  69.167  1.00  0.00    -0.115 C  
HETATM    4  C   UNL     1      -8.436  14.677  68.204  1.00  0.00    -0.156 C  
HETATM    5  C   UNL     1      -7.278  15.295  68.529  1.00  0.00    -0.114 C  
HETATM    6  C   UNL     1      -8.352   7.467  68.378  1.00  0.00    -0.125 C  
HETATM    7  C   UNL     1      -7.508   8.157  69.418  1.00  0.00    -0.091 C  
HETATM    8  C   UNL     1      -7.724   9.480  69.261  1.00  0.00    -0.086 C  
HETATM    9  F   UNL     1      -9.449   9.332  70.883  1.00  0.00    -0.259 F  
HETATM   10  C   UNL     1      -6.503  14.436  67.025  1.00  0.00     0.966 C  
HETATM   11  C   UNL     1      -9.005  10.062  69.821  1.00  0.00    -0.185 C  
HETATM   12  C   UNL     1      -7.089  16.742  69.066  1.00  0.00    -0.221 C  
HETATM   13  C   UNL     1      -8.737  11.466  70.307  1.00  0.00     3.046 C  
HETATM   14  O   UNL     1      -8.862   6.377  68.589  1.00  0.00    -0.121 OA 
HETATM   15  C   UNL     1      -6.914  12.740  66.888  1.00  0.00     0.375 C  
HETATM   16  C   UNL     1      -8.473   8.170  67.045  1.00  0.00    -0.120 C  
HETATM   17  O   UNL     1      -7.964  12.602  65.929  1.00  0.00     0.524 OA 
HETATM   18  C   UNL     1      -7.187  11.747  68.209  1.00  0.00    -0.084 C  
HETATM   19  C   UNL     1      -5.730   9.758  67.679  1.00  0.00    -0.039 C  
HETATM   20  C   UNL     1      -7.231  10.157  67.953  1.00  0.00    -0.086 C  
HETATM   21  H   UNL     1      -8.187  11.681  65.856  1.00  0.00     0.000 HD 
HETATM   22  C   UNL     1      -8.317  12.379  69.151  1.00  0.00     0.556 C  
HETATM   23  F   UNL     1      -6.041  11.752  69.013  1.00  0.00    -0.053 F  
HETATM   24  C   UNL     1      -7.998   9.427  66.847  1.00  0.00    -0.109 C  
ENDROOT
BRANCH   4  25
HETATM   25  C   UNL     1      -8.755  15.762  66.936  1.00  0.00    -0.244 C  
HETATM   26  O   UNL     1      -9.168  16.928  67.061  1.00  0.00    -0.223 OA 
BRANCH  25  27
HETATM   27  C   UNL     1      -8.650  15.298  65.486  1.00  0.00     1.696 C  
BRANCH  27  28
HETATM   28  O   UNL     1      -9.902  15.448  64.794  1.00  0.00    -0.153 OA 
BRANCH  28  29
HETATM   29  C   UNL     1     -10.566  14.283  64.583  1.00  0.00    -0.340 C  
HETATM   30  C   UNL     1     -11.837  14.219  65.380  1.00  0.00    -0.363 C  
HETATM   31  O   UNL     1     -10.167  13.401  63.846  1.00  0.00    -0.252 OA 
ENDBRANCH  28  29
ENDBRANCH  27  28
ENDBRANCH  25  27
ENDBRANCH   4  25
BRANCH   4  32
HETATM   32  O   UNL     1      -9.512  15.422  69.055  1.00  0.00    -0.206 OA 
BRANCH  32  33
HETATM   33  C   UNL     1     -10.841  15.190  68.837  1.00  0.00    -0.241 C  
HETATM   34  O   UNL     1     -11.420  15.397  67.782  1.00  0.00    -0.334 OA 
BRANCH  33  35
HETATM   35  C   UNL     1     -11.519  14.645  70.065  1.00  0.00    -0.313 C  
BRANCH  35  36
HETATM   36  C   UNL     1     -11.527  13.126  70.018  1.00  0.00    -0.095 C  
HETATM   37  C   UNL     1     -11.936  12.597  68.649  1.00  0.00    -0.264 C  
ENDBRANCH  35  36
ENDBRANCH  33  35
ENDBRANCH  32  33
ENDBRANCH   4  32
TORSDOF 8
ENDMDL
MODEL      127
REMARK 921   NORMALIZED FREE ENERGY PREDICTED BY IDOCK:    4.55 KCAL/MOL
REMARK 922        TOTAL FREE ENERGY PREDICTED BY IDOCK:    6.94 KCAL/MOL
REMARK 923 INTER-LIGAND FREE ENERGY PREDICTED BY IDOCK:    0.43 KCAL/MOL
REMARK 924 INTRA-LIGAND FREE ENERGY PREDICTED BY IDOCK:    6.51 KCAL/MOL
REMARK 927      BINDING AFFINITY PREDICTED BY RF-SCORE:    0.00 PKD
ROOT
HETATM    1  C   UNL     1     -11.843  13.713  69.811  1.00  0.00    -0.392 C  
HETATM    2  C   UNL     1     -12.693  14.044  68.724  1.00  0.00     0.761 C  
HETATM    3  C   UNL     1     -11.882  12.806  68.655  1.00  0.00    -0.341 C  
HETATM    4  C   UNL     1     -10.947  12.200  70.407  1.00  0.00     1.394 C  
HETATM    5  C   UNL     1     -11.909  11.747  69.572  1.00  0.00    -0.402 C  
HETATM    6  C   UNL     1      -6.608  17.330  67.785  1.00  0.00    -0.156 C  
HETATM    7  C   UNL     1      -8.040  17.383  67.321  1.00  0.00    -0.218 C  
HETATM    8  C   UNL     1      -8.686  16.398  67.980  1.00  0.00    -0.183 C  
HETATM    9  F   UNL     1      -9.262  17.976  69.655  1.00  0.00     0.211 F  
HETATM   10  C   UNL     1     -10.512  11.153  68.432  1.00  0.00    -0.211 C  
HETATM   11  C   UNL     1      -9.077  16.646  69.422  1.00  0.00     0.070 C  
HETATM   12  C   UNL     1     -13.254  11.066  69.949  1.00  0.00     0.620 C  
HETATM   13  C   UNL     1     -10.383  15.943  69.706  1.00  0.00    -0.290 C  
HETATM   14  O   UNL     1      -5.932  18.343  67.890  1.00  0.00    -0.176 OA 
HETATM   15  C   UNL     1      -9.236  12.329  68.203  1.00  0.00    -0.197 C  
HETATM   16  C   UNL     1      -6.044  15.952  68.048  1.00  0.00    -0.145 C  
HETATM   17  O   UNL     1      -8.145  11.990  69.062  1.00  0.00    -0.352 OA 
HETATM   18  C   UNL     1      -9.494  13.984  68.205  1.00  0.00    -0.215 C  
HETATM   19  C   UNL     1      -8.301  14.700  66.102  1.00  0.00     0.860 C  
HETATM   20  C   UNL     1      -8.305  14.927  67.663  1.00  0.00    -0.178 C  
HETATM   21  H   UNL     1      -7.452  12.628  68.938  1.00  0.00     0.000 HD 
HETATM   22  C   UNL     1     -10.237  14.426  69.552  1.00  0.00     0.083 C  
HETATM   23  F   UNL     1     -10.417  14.289  67.198  1.00  0.00    -0.259 F  
HETATM   24  C   UNL     1      -6.823  14.839  68.036  1.00  0.00    -0.150 C  
ENDROOT
BRANCH   4  25
HETATM   25  C   UNL     1     -10.609  10.641  70.995  1.00  0.00     1.363 C  
HETATM   26  O   UNL     1      -9.536  10.029  70.861  1.00  0.00     0.141 OA 
BRANCH  25  27
HETATM   27  C   UNL     1     -11.709   9.819  71.661  1.00  0.00    -0.318 C  
BRANCH  27  28
HETATM   28  O   UNL     1     -11.160   8.825  72.545  1.00  0.00    -0.266 OA 
BRANCH  28  29
HETATM   29  C   UNL     1     -11.422   7.545  72.176  1.00  0.00    -0.291 C  
HETATM   30  C   UNL     1     -11.471   7.401  70.682  1.00  0.00    -0.307 C  
HETATM   31  O   UNL     1     -11.603   6.637  72.964  1.00  0.00    -0.080 OA 
ENDBRANCH  28  29
ENDBRANCH  27  28
ENDBRANCH  25  27
ENDBRANCH   4  25
BRANCH   4  32
HETATM   32  O   UNL     1     -11.710  12.490  71.737  1.00  0.00     1.565 OA 
BRANCH  32  33
HETATM   33  C   UNL     1     -12.593  13.530  71.810  1.00  0.00    -0.168 C  
HETATM   34  O   UNL     1     -13.766  13.474  71.475  1.00  0.00    -0.259 OA 
BRANCH  33  35
HETATM   35  C   UNL     1     -11.945  14.773  72.357  1.00  0.00    -0.306 C  
BRANCH  35  36
HETATM   36  C   UNL     1     -12.719  15.270  73.567  1.00  0.00    -0.690 C  
HETATM   37  C   UNL     1     -13.751  16.327  73.193  1.00  0.00    -0.093 C  
ENDBRANCH  35  36
ENDBRANCH  33  35
ENDBRANCH  32  33
ENDBRANCH   4  32
TORSDOF 8
ENDMDL
MODEL      128
REMARK 921   NORMALIZED FREE ENERGY PREDICTED BY IDOCK:    4.67 KCAL/MOL
REMARK 922        TOTAL FREE ENERGY PREDICTED BY IDOCK:    7.12 KCAL/MOL
REMARK 923 INTER-LIGAND FREE ENERGY PREDICTED BY IDOCK:    2.26 KCAL/MOL
REMARK 924 INTRA-LIGAND FREE ENERGY PREDICTED BY IDOCK:    4.86 KCAL/MOL
REMARK 927      BINDING AFFINITY PREDICTED BY RF-SCORE:    0.00 PKD
ROOT
HETATM    1  C   UNL     1      -7.176  12.310  66.988  1.00  0.00    -0.039 C  
HETATM    2  C   UNL     1      -6.883  11.397  65.941  1.00  0.00     0.344 C  
HETATM    3  C   UNL     1      -8.282  11.844  66.138  1.00  0.00     0.231 C  
HETATM    4  C   UNL     1      -8.581  13.437  67.437  1.00  0.00    -0.204 C  
HETATM    5  C   UNL     1      -8.735  13.170  66.120  1.00  0.00     0.468 C  
HETATM    6  C   UNL     1      -7.906   7.725  71.788  1.00  0.00    -0.090 C  
HETATM    7  C   UNL     1      -7.288   7.583  70.421  1.00  0.00    -0.072 C  
HETATM    8  C   UNL     1      -7.458   8.773  69.807  1.00  0.00    -0.056 C  
HETATM    9  F   UNL     1      -5.322   9.425  70.609  1.00  0.00    -0.031 F  
HETATM   10  C   UNL     1     -10.348  12.282  66.583  1.00  0.00    -0.237 C  
HETATM   11  C   UNL     1      -6.525   9.905  70.182  1.00  0.00    -0.093 C  
HETATM   12  C   UNL     1      -8.412  14.097  64.916  1.00  0.00     5.411 C  
HETATM   13  C   UNL     1      -6.272  10.761  68.963  1.00  0.00    -0.042 C  
HETATM   14  O   UNL     1      -7.446   7.145  72.760  1.00  0.00    -0.079 OA 
HETATM   15  C   UNL     1     -10.202  11.226  67.972  1.00  0.00    -0.183 C  
HETATM   16  C   UNL     1      -9.158   8.568  71.869  1.00  0.00    -0.314 C  
HETATM   17  O   UNL     1     -10.712  11.910  69.119  1.00  0.00    -0.347 OA 
HETATM   18  C   UNL     1      -8.799  10.396  68.357  1.00  0.00    -0.136 C  
HETATM   19  C   UNL     1      -9.661   8.054  68.718  1.00  0.00    -0.149 C  
HETATM   20  C   UNL     1      -8.902   9.223  69.456  1.00  0.00    -0.151 C  
HETATM   21  H   UNL     1     -10.632  11.337  69.873  1.00  0.00     0.000 HD 
HETATM   22  C   UNL     1      -7.568  11.413  68.470  1.00  0.00    -0.129 C  
HETATM   23  F   UNL     1      -8.457   9.577  67.275  1.00  0.00    -0.123 F  
HETATM   24  C   UNL     1      -9.606   9.297  70.814  1.00  0.00    -0.341 C  
ENDROOT
BRANCH   4  25
HETATM   25  C   UNL     1      -9.732  14.688  67.401  1.00  0.00    -0.218 C  
HETATM   26  O   UNL     1      -9.488  15.897  67.250  1.00  0.00    -0.210 OA 
BRANCH  25  27
HETATM   27  C   UNL     1     -11.201  14.385  67.682  1.00  0.00    -0.313 C  
BRANCH  27  28
HETATM   28  O   UNL     1     -11.826  13.732  66.563  1.00  0.00    -0.362 OA 
BRANCH  28  29
HETATM   29  C   UNL     1     -12.017  14.536  65.485  1.00  0.00    -0.312 C  
HETATM   30  C   UNL     1     -12.766  13.827  64.393  1.00  0.00    -0.079 C  
HETATM   31  O   UNL     1     -11.616  15.682  65.417  1.00  0.00    -0.053 OA 
ENDBRANCH  28  29
ENDBRANCH  27  28
ENDBRANCH  25  27
ENDBRANCH   4  25
BRANCH   4  32
HETATM   32  O   UNL     1      -7.462  14.525  67.470  1.00  0.00    -0.171 OA 
BRANCH  32  33
HETATM   33  C   UNL     1      -6.613  14.605  68.538  1.00  0.00    -0.095 C  
HETATM   34  O   UNL     1      -5.415  14.371  68.495  1.00  0.00    -0.086 OA 
BRANCH  33  35
HETATM   35  C   UNL     1      -7.334  15.017  69.793  1.00  0.00    -0.132 C  
BRANCH  35  36
HETATM   36  C   UNL     1      -6.351  15.101  70.949  1.00  0.00     0.304 C  
HETATM   37  C   UNL     1      -6.095  13.739  71.583  1.00  0.00     0.347 C  
ENDBRANCH  35  36
ENDBRANCH  33  35
ENDBRANCH  32  33
ENDBRANCH   4  32
TORSDOF 8
ENDMDL
MODEL      129
REMARK 921   NORMALIZED FREE ENERGY PREDICTED BY IDOCK:    4.73 KCAL/MOL
REMARK 922        TOTAL FREE ENERGY PREDICTED BY IDOCK:    7.20 KCAL/MOL
REMARK 923 INTER-LIGAND FREE ENERGY PREDICTED BY IDOCK:   -1.27 KCAL/MOL
REMARK 924 INTRA-LIGAND FREE ENERGY PREDICTED BY IDOCK:    8.46 KCAL/MOL
REMARK 927      BINDING AFFINITY PREDICTED BY RF-SCORE:    0.00 PKD
ROOT
HETATM    1  C   UNL     1      -8.494  15.414  67.309  1.00  0.00    -0.214 C  
HETATM    2  C   UNL     1      -7.868  15.408  66.036  1.00  0.00     1.570 C  
HETATM    3  C   UNL     1      -9.315  15.110  66.128  1.00  0.00    -0.346 C  
HETATM    4  C   UNL     1     -10.233  15.485  67.953  1.00  0.00    -0.238 C  
HETATM    5  C   UNL     1     -10.297  15.942  66.682  1.00  0.00    -0.302 C  
HETATM    6  C   UNL     1      -7.028   9.092  68.881  1.00  0.00    -0.065 C  
HETATM    7  C   UNL     1      -6.451   9.961  67.794  1.00  0.00    -0.063 C  
HETATM    8  C   UNL     1      -7.136  11.123  67.840  1.00  0.00    -0.081 C  
HETATM    9  F   UNL     1      -5.468  11.982  69.293  1.00  0.00    -0.060 F  
HETATM   10  C   UNL     1     -11.353  14.416  66.284  1.00  0.00    -0.350 C  
HETATM   11  C   UNL     1      -6.772  12.120  68.921  1.00  0.00    -0.094 C  
HETATM   12  C   UNL     1     -10.442  17.414  66.206  1.00  0.00    -0.276 C  
HETATM   13  C   UNL     1      -6.951  13.519  68.380  1.00  0.00    -0.105 C  
HETATM   14  O   UNL     1      -6.333   8.301  69.503  1.00  0.00    -0.033 OA 
HETATM   15  C   UNL     1     -10.724  12.925  66.950  1.00  0.00    -0.257 C  
HETATM   16  C   UNL     1      -8.518   9.207  69.107  1.00  0.00    -0.132 C  
HETATM   17  O   UNL     1     -11.444  12.621  68.147  1.00  0.00    -0.269 OA 
HETATM   18  C   UNL     1      -9.090  12.622  67.154  1.00  0.00    -0.210 C  
HETATM   19  C   UNL     1      -8.844  10.345  66.099  1.00  0.00    -0.172 C  
HETATM   20  C   UNL     1      -8.643  11.106  67.466  1.00  0.00    -0.129 C  
HETATM   21  H   UNL     1     -11.102  11.812  68.509  1.00  0.00     0.000 HD 
HETATM   22  C   UNL     1      -8.415  13.788  68.020  1.00  0.00    -0.176 C  
HETATM   23  F   UNL     1      -8.461  12.725  65.908  1.00  0.00     0.286 F  
HETATM   24  C   UNL     1      -9.269  10.158  68.493  1.00  0.00    -0.144 C  
ENDROOT
BRANCH   4  25
HETATM   25  C   UNL     1     -11.812  16.008  68.307  1.00  0.00     0.005 C  
HETATM   26  O   UNL     1     -12.759  16.058  67.504  1.00  0.00     1.787 OA 
BRANCH  25  27
HETATM   27  C   UNL     1     -12.137  16.582  69.683  1.00  0.00     0.774 C  
BRANCH  27  28
HETATM   28  O   UNL     1     -11.604  15.760  70.736  1.00  0.00    -0.330 OA 
BRANCH  28  29
HETATM   29  C   UNL     1     -12.325  14.637  70.986  1.00  0.00    -0.333 C  
HETATM   30  C   UNL     1     -13.625  14.636  70.233  1.00  0.00     0.544 C  
HETATM   31  O   UNL     1     -11.961  13.752  71.737  1.00  0.00     0.063 OA 
ENDBRANCH  28  29
ENDBRANCH  27  28
ENDBRANCH  25  27
ENDBRANCH   4  25
BRANCH   4  32
HETATM   32  O   UNL     1      -9.693  16.704  68.764  1.00  0.00    -0.236 OA 
BRANCH  32  33
HETATM   33  C   UNL     1      -9.874  17.975  68.296  1.00  0.00    -0.355 C  
HETATM   34  O   UNL     1     -10.866  18.363  67.698  1.00  0.00    -0.406 OA 
BRANCH  33  35
HETATM   35  C   UNL     1      -8.693  18.855  68.604  1.00  0.00    -0.374 C  
BRANCH  35  36
HETATM   36  C   UNL     1      -7.402  18.100  68.332  1.00  0.00    -0.276 C  
HETATM   37  C   UNL     1      -6.302  18.470  69.319  1.00  0.00    -0.272 C  
ENDBRANCH  35  36
ENDBRANCH  33  35
ENDBRANCH  32  33
ENDBRANCH   4  32
TORSDOF 8
ENDMDL
MODEL      130
REMARK 921   NORMALIZED FREE ENERGY PREDICTED BY IDOCK:    4.73 KCAL/MOL
REMARK 922        TOTAL FREE ENERGY PREDICTED BY IDOCK:    7.20 KCAL/MOL
REMARK 923 INTER-LIGAND FREE ENERGY PREDICTED BY IDOCK:    5.06 KCAL/MOL
REMARK 924 INTRA-LIGAND FREE ENERGY PREDICTED BY IDOCK:    2.14 KCAL/MOL
REMARK 927      BINDING AFFINITY PREDICTED BY RF-SCORE:    0.00 PKD
ROOT
HETATM    1  C   UNL     1      -7.715   8.809  67.994  1.00  0.00    -0.101 C  
HETATM    2  C   UNL     1      -6.301   8.773  68.103  1.00  0.00    -0.056 C  
HETATM    3  C   UNL     1      -7.122   8.632  69.328  1.00  0.00    -0.062 C  
HETATM    4  C   UNL     1      -9.159   8.333  69.060  1.00  0.00    -0.147 C  
HETATM    5  C   UNL     1      -8.101   7.657  69.559  1.00  0.00    -0.127 C  
HETATM    6  C   UNL     1      -8.312  15.453  68.285  1.00  0.00    -0.150 C  
HETATM    7  C   UNL     1      -7.084  14.617  68.036  1.00  0.00    -0.146 C  
HETATM    8  C   UNL     1      -7.475  13.331  68.156  1.00  0.00    -0.128 C  
HETATM    9  F   UNL     1      -7.869  13.292  65.817  1.00  0.00     1.608 F  
HETATM   10  C   UNL     1      -8.298   8.695  71.136  1.00  0.00    -0.201 C  
HETATM   11  C   UNL     1      -8.217  12.702  66.995  1.00  0.00    -0.108 C  
HETATM   12  C   UNL     1      -7.766   6.149  69.387  1.00  0.00    -0.099 C  
HETATM   13  C   UNL     1      -7.845  11.241  66.906  1.00  0.00    -0.156 C  
HETATM   14  O   UNL     1      -8.490  16.515  67.706  1.00  0.00    -0.172 OA 
HETATM   15  C   UNL     1      -8.548  10.401  70.835  1.00  0.00     2.285 C  
HETATM   16  C   UNL     1      -9.269  14.936  69.334  1.00  0.00    -0.046 C  
HETATM   17  O   UNL     1      -9.944  10.683  70.948  1.00  0.00     0.570 OA 
HETATM   18  C   UNL     1      -7.886  11.214  69.529  1.00  0.00     0.173 C  
HETATM   19  C   UNL     1      -6.853  13.230  70.638  1.00  0.00     1.364 C  
HETATM   20  C   UNL     1      -7.924  12.825  69.554  1.00  0.00     1.093 C  
HETATM   21  H   UNL     1     -10.080  11.609  70.784  1.00  0.00     0.000 HD 
HETATM   22  C   UNL     1      -8.285  10.483  68.162  1.00  0.00    -0.114 C  
HETATM   23  F   UNL     1      -6.493  11.083  69.584  1.00  0.00    -0.068 F  
HETATM   24  C   UNL     1      -9.126  13.708  69.898  1.00  0.00     2.164 C  
ENDROOT
BRANCH   4  25
HETATM   25  C   UNL     1     -10.271   7.431  69.976  1.00  0.00    -0.209 C  
HETATM   26  O   UNL     1     -10.066   6.310  70.473  1.00  0.00    -0.182 OA 
BRANCH  25  27
HETATM   27  C   UNL     1     -11.702   7.932  70.152  1.00  0.00     0.166 C  
BRANCH  27  28
HETATM   28  O   UNL     1     -11.739   9.353  70.373  1.00  0.00    -0.239 OA 
BRANCH  28  29
HETATM   29  C   UNL     1     -12.806   9.778  71.098  1.00  0.00    -0.345 C  
HETATM   30  C   UNL     1     -13.578   8.624  71.670  1.00  0.00    -0.408 C  
HETATM   31  O   UNL     1     -13.098  10.948  71.250  1.00  0.00    -0.374 OA 
ENDBRANCH  28  29
ENDBRANCH  27  28
ENDBRANCH  25  27
ENDBRANCH   4  25
BRANCH   4  32
HETATM   32  O   UNL     1      -9.580   7.501  67.808  1.00  0.00    -0.139 OA 
BRANCH  32  33
HETATM   33  C   UNL     1      -9.859   8.129  66.627  1.00  0.00    -0.261 C  
HETATM   34  O   UNL     1     -10.661   9.041  66.496  1.00  0.00    -0.178 OA 
BRANCH  33  35
HETATM   35  C   UNL     1      -9.055   7.559  65.490  1.00  0.00     0.146 C  
BRANCH  35  36
HETATM   36  C   UNL     1      -8.156   8.635  64.904  1.00  0.00    -0.146 C  
HETATM   37  C   UNL     1      -8.603   9.061  63.511  1.00  0.00    -0.146 C  
ENDBRANCH  35  36
ENDBRANCH  33  35
ENDBRANCH  32  33
ENDBRANCH   4  32
TORSDOF 8
ENDMDL
MODEL      131
REMARK 921   NORMALIZED FREE ENERGY PREDICTED BY IDOCK:    5.17 KCAL/MOL
REMARK 922        TOTAL FREE ENERGY PREDICTED BY IDOCK:    7.85 KCAL/MOL
REMARK 923 INTER-LIGAND FREE ENERGY PREDICTED BY IDOCK:   -3.28 KCAL/MOL
REMARK 924 INTRA-LIGAND FREE ENERGY PREDICTED BY IDOCK:   11.13 KCAL/MOL
REMARK 927      BINDING AFFINITY PREDICTED BY RF-SCORE:    0.00 PKD
ROOT
HETATM    1  C   UNL     1     -11.168  11.803  67.142  1.00  0.00    -0.375 C  
HETATM    2  C   UNL     1     -12.080  11.093  67.965  1.00  0.00     0.125 C  
HETATM    3  C   UNL     1     -11.292  12.201  68.552  1.00  0.00    -0.324 C  
HETATM    4  C   UNL     1     -10.257  13.418  67.225  1.00  0.00    -0.241 C  
HETATM    5  C   UNL     1     -11.275  13.529  68.107  1.00  0.00    -0.302 C  
HETATM    6  C   UNL     1      -6.023   7.627  67.964  1.00  0.00    -0.040 C  
HETATM    7  C   UNL     1      -7.480   7.417  68.282  1.00  0.00    -0.109 C  
HETATM    8  C   UNL     1      -8.097   8.586  68.008  1.00  0.00    -0.115 C  
HETATM    9  F   UNL     1      -8.544   7.772  65.826  1.00  0.00    -0.127 F  
HETATM   10  C   UNL     1      -9.961  13.629  69.473  1.00  0.00     0.689 C  
HETATM   11  C   UNL     1      -8.393   8.910  66.559  1.00  0.00    -0.115 C  
HETATM   12  C   UNL     1     -12.603  14.318  67.934  1.00  0.00     0.497 C  
HETATM   13  C   UNL     1      -9.688   9.684  66.482  1.00  0.00    -0.272 C  
HETATM   14  O   UNL     1      -5.328   6.723  67.525  1.00  0.00    -0.008 OA 
HETATM   15  C   UNL     1      -8.686  12.440  69.317  1.00  0.00     0.929 C  
HETATM   16  C   UNL     1      -5.462   8.994  68.282  1.00  0.00    -0.038 C  
HETATM   17  O   UNL     1      -7.548  13.068  68.723  1.00  0.00    -0.220 OA 
HETATM   18  C   UNL     1      -8.921  10.913  68.669  1.00  0.00    -0.162 C  
HETATM   19  C   UNL     1      -7.853   9.436  70.411  1.00  0.00    -0.179 C  
HETATM   20  C   UNL     1      -7.756   9.821  68.885  1.00  0.00    -0.082 C  
HETATM   21  H   UNL     1      -6.856  12.422  68.637  1.00  0.00     0.000 HD 
HETATM   22  C   UNL     1      -9.572  11.026  67.211  1.00  0.00    -0.183 C  
HETATM   23  F   UNL     1      -9.902  10.258  69.423  1.00  0.00    -0.194 F  
HETATM   24  C   UNL     1      -6.255  10.027  68.668  1.00  0.00    -0.044 C  
ENDROOT
BRANCH   4  25
HETATM   25  C   UNL     1      -9.904  15.079  67.298  1.00  0.00    -0.228 C  
HETATM   26  O   UNL     1      -9.687  15.821  66.324  1.00  0.00    -0.258 OA 
BRANCH  25  27
HETATM   27  C   UNL     1      -9.714  15.763  68.649  1.00  0.00    -0.205 C  
BRANCH  27  28
HETATM   28  O   UNL     1      -8.760  16.838  68.564  1.00  0.00    -0.226 OA 
BRANCH  28  29
HETATM   29  C   UNL     1      -7.577  16.489  67.996  1.00  0.00    -0.161 C  
HETATM   30  C   UNL     1      -6.736  17.694  67.688  1.00  0.00    -0.182 C  
HETATM   31  O   UNL     1      -7.252  15.341  67.761  1.00  0.00    -0.132 OA 
ENDBRANCH  28  29
ENDBRANCH  27  28
ENDBRANCH  25  27
ENDBRANCH   4  25
BRANCH   4  32
HETATM   32  O   UNL     1     -10.931  13.665  65.839  1.00  0.00    -0.282 OA 
BRANCH  32  33
HETATM   33  C   UNL     1     -12.207  14.150  65.773  1.00  0.00    -0.442 C  
HETATM   34  O   UNL     1     -12.782  14.727  66.683  1.00  0.00     0.212 OA 
BRANCH  33  35
HETATM   35  C   UNL     1     -12.833  13.888  64.430  1.00  0.00     0.130 C  
BRANCH  35  36
HETATM   36  C   UNL     1     -11.761  13.485  63.431  1.00  0.00    -0.091 C  
HETATM   37  C   UNL     1     -11.410  12.006  63.531  1.00  0.00    -0.528 C  
ENDBRANCH  35  36
ENDBRANCH  33  35
ENDBRANCH  32  33
ENDBRANCH   4  32
TORSDOF 8
ENDMDL
MODEL      132
REMARK 921   NORMALIZED FREE ENERGY PREDICTED BY IDOCK:    8.27 KCAL/MOL
REMARK 922        TOTAL FREE ENERGY PREDICTED BY IDOCK:   12.40 KCAL/MOL
REMARK 923 INTER-LIGAND FREE ENERGY PREDICTED BY IDOCK:    1.10 KCAL/MOL
REMARK 924 INTRA-LIGAND FREE ENERGY PREDICTED BY IDOCK:   11.30 KCAL/MOL
REMARK 927      BINDING AFFINITY PREDICTED BY RF-SCORE:    0.00 PKD
ROOT
HETATM    1  C   UNL     1      -9.673  14.300  66.762  1.00  0.00    -0.282 C  
HETATM    2  C   UNL     1     -10.653  13.816  67.667  1.00  0.00    -0.244 C  
HETATM    3  C   UNL     1      -9.443  14.481  68.203  1.00  0.00    -0.208 C  
HETATM    4  C   UNL     1      -8.238  15.476  66.835  1.00  0.00    -0.252 C  
HETATM    5  C   UNL     1      -9.012  15.780  67.901  1.00  0.00    -0.180 C  
HETATM    6  C   UNL     1      -6.320   8.557  66.157  1.00  0.00    -0.053 C  
HETATM    7  C   UNL     1      -7.694   8.803  66.724  1.00  0.00    -0.094 C  
HETATM    8  C   UNL     1      -7.879  10.139  66.693  1.00  0.00    -0.110 C  
HETATM    9  F   UNL     1      -8.896   9.892  64.564  1.00  0.00    -0.158 F  
HETATM   10  C   UNL     1      -7.570  15.205  68.994  1.00  0.00    -0.162 C  
HETATM   11  C   UNL     1      -8.241  10.776  65.368  1.00  0.00    -0.077 C  
HETATM   12  C   UNL     1      -9.976  16.988  68.066  1.00  0.00    -0.283 C  
HETATM   13  C   UNL     1      -9.167  11.943  65.619  1.00  0.00    -0.060 C  
HETATM   14  O   UNL     1      -6.068   7.556  65.503  1.00  0.00    -0.037 OA 
HETATM   15  C   UNL     1      -6.846  13.698  68.477  1.00  0.00    -0.098 C  
HETATM   16  C   UNL     1      -5.264   9.583  66.500  1.00  0.00    -0.044 C  
HETATM   17  O   UNL     1      -5.655  13.993  67.744  1.00  0.00    -0.237 OA 
HETATM   18  C   UNL     1      -7.706  12.468  67.734  1.00  0.00    -0.142 C  
HETATM   19  C   UNL     1      -7.006  10.454  69.080  1.00  0.00    -0.071 C  
HETATM   20  C   UNL     1      -6.995  11.027  67.611  1.00  0.00    -0.083 C  
HETATM   21  H   UNL     1      -5.262  13.174  67.463  1.00  0.00     0.000 HD 
HETATM   22  C   UNL     1      -8.472  13.030  66.446  1.00  0.00     0.365 C  
HETATM   23  F   UNL     1      -8.739  12.069  68.590  1.00  0.00    -0.161 F  
HETATM   24  C   UNL     1      -5.568  10.746  67.134  1.00  0.00    -0.045 C  
ENDROOT
BRANCH   4  25
HETATM   25  C   UNL     1      -7.304  16.885  67.008  1.00  0.00    -0.193 C  
HETATM   26  O   UNL     1      -6.151  17.053  66.573  1.00  0.00    -0.201 OA 
BRANCH  25  27
HETATM   27  C   UNL     1      -7.819  18.046  67.854  1.00  0.00    -0.235 C  
BRANCH  27  28
HETATM   28  O   UNL     1      -7.850  17.705  69.252  1.00  0.00    -0.065 OA 
BRANCH  28  29
HETATM   29  C   UNL     1      -6.976  18.409  70.017  1.00  0.00     0.592 C  
HETATM   30  C   UNL     1      -7.686  19.389  70.907  1.00  0.00     2.206 C  
HETATM   31  O   UNL     1      -5.769  18.265  69.971  1.00  0.00    -0.231 OA 
ENDBRANCH  28  29
ENDBRANCH  27  28
ENDBRANCH  25  27
ENDBRANCH   4  25
BRANCH   4  32
HETATM   32  O   UNL     1      -8.968  16.159  65.635  1.00  0.00    -0.370 OA 
BRANCH  32  33
HETATM   33  C   UNL     1     -10.221  16.679  65.799  1.00  0.00    -0.307 C  
HETATM   34  O   UNL     1     -10.460  17.822  66.159  1.00  0.00    -0.366 OA 
BRANCH  33  35
HETATM   35  C   UNL     1     -11.289  15.667  65.484  1.00  0.00    -0.037 C  
BRANCH  35  36
HETATM   36  C   UNL     1     -12.167  16.180  64.354  1.00  0.00     0.520 C  
HETATM   37  C   UNL     1     -13.440  15.356  64.197  1.00  0.00     2.509 C  
ENDBRANCH  35  36
ENDBRANCH  33  35
ENDBRANCH  32  33
ENDBRANCH   4  32
TORSDOF 8
ENDMDL
MODEL      133
REMARK 921   NORMALIZED FREE ENERGY PREDICTED BY IDOCK:    8.57 KCAL/MOL
REMARK 922        TOTAL FREE ENERGY PREDICTED BY IDOCK:   12.83 KCAL/MOL
REMARK 923 INTER-LIGAND FREE ENERGY PREDICTED BY IDOCK:    9.89 KCAL/MOL
REMARK 924 INTRA-LIGAND FREE ENERGY PREDICTED BY IDOCK:    2.94 KCAL/MOL
REMARK 927      BINDING AFFINITY PREDICTED BY RF-SCORE:    0.00 PKD
ROOT
HETATM    1  C   UNL     1      -7.720  14.020  69.795  1.00  0.00     0.601 C  
HETATM    2  C   UNL     1      -6.675  13.105  70.085  1.00  0.00     0.417 C  
HETATM    3  C   UNL     1      -6.394  14.266  69.209  1.00  0.00    -0.110 C  
HETATM    4  C   UNL     1      -7.851  15.744  69.118  1.00  0.00    -0.227 C  
HETATM    5  C   UNL     1      -6.573  15.615  69.542  1.00  0.00    -0.179 C  
HETATM    6  C   UNL     1     -10.239  10.644  64.613  1.00  0.00    -0.334 C  
HETATM    7  C   UNL     1      -9.273  10.181  65.673  1.00  0.00    -0.232 C  
HETATM    8  C   UNL     1      -9.017  11.259  66.444  1.00  0.00    -0.194 C  
HETATM    9  F   UNL     1     -10.782  10.582  67.877  1.00  0.00    -0.219 F  
HETATM   10  C   UNL     1      -6.049  15.797  67.727  1.00  0.00    -0.171 C  
HETATM   11  C   UNL     1     -10.054  11.661  67.471  1.00  0.00    -0.191 C  
HETATM   12  C   UNL     1      -5.935  16.199  70.834  1.00  0.00     0.448 C  
HETATM   13  C   UNL     1      -9.353  12.226  68.684  1.00  0.00    -0.016 C  
HETATM   14  O   UNL     1     -11.101   9.902  64.166  1.00  0.00     2.546 OA 
HETATM   15  C   UNL     1      -7.004  14.840  66.615  1.00  0.00     1.608 C  
HETATM   16  C   UNL     1     -10.033  12.048  64.092  1.00  0.00    -0.289 C  
HETATM   17  O   UNL     1      -7.979  15.689  66.006  1.00  0.00    -0.035 OA 
HETATM   18  C   UNL     1      -7.677  13.360  67.013  1.00  0.00     0.156 C  
HETATM   19  C   UNL     1      -6.956  11.918  65.074  1.00  0.00     3.175 C  
HETATM   20  C   UNL     1      -8.245  12.449  65.812  1.00  0.00     1.190 C  
HETATM   21  H   UNL     1      -8.498  15.170  65.403  1.00  0.00     0.000 HD 
HETATM   22  C   UNL     1      -8.579  13.499  68.329  1.00  0.00    -0.168 C  
HETATM   23  F   UNL     1      -6.649  12.495  67.403  1.00  0.00    -0.109 F  
HETATM   24  C   UNL     1      -9.147  12.905  64.662  1.00  0.00     1.355 C  
ENDROOT
BRANCH   4  25
HETATM   25  C   UNL     1      -7.704  17.427  68.928  1.00  0.00    -0.209 C  
HETATM   26  O   UNL     1      -7.734  18.268  69.842  1.00  0.00     0.684 OA 
BRANCH  25  27
HETATM   27  C   UNL     1      -7.637  18.036  67.530  1.00  0.00    -0.208 C  
BRANCH  27  28
HETATM   28  O   UNL     1      -8.669  19.019  67.335  1.00  0.00    -0.274 OA 
BRANCH  28  29
HETATM   29  C   UNL     1      -9.697  18.600  66.552  1.00  0.00    -0.351 C  
HETATM   30  C   UNL     1     -10.932  18.326  67.361  1.00  0.00    -0.132 C  
HETATM   31  O   UNL     1      -9.614  18.457  65.347  1.00  0.00     0.091 OA 
ENDBRANCH  28  29
ENDBRANCH  27  28
ENDBRANCH  25  27
ENDBRANCH   4  25
BRANCH   4  32
HETATM   32  O   UNL     1      -8.657  16.005  70.429  1.00  0.00     1.139 OA 
BRANCH  32  33
HETATM   33  C   UNL     1      -9.950  16.443  70.364  1.00  0.00     0.945 C  
HETATM   34  O   UNL     1     -10.297  17.529  69.924  1.00  0.00     0.095 OA 
BRANCH  33  35
HETATM   35  C   UNL     1     -10.912  15.421  70.906  1.00  0.00    -0.330 C  
BRANCH  35  36
HETATM   36  C   UNL     1     -11.251  14.407  69.825  1.00  0.00    -0.251 C  
HETATM   37  C   UNL     1     -11.484  15.068  68.472  1.00  0.00    -0.335 C  
ENDBRANCH  35  36
ENDBRANCH  33  35
ENDBRANCH  32  33
ENDBRANCH   4  32
TORSDOF 8
ENDMDL
MODEL      134
REMARK 921   NORMALIZED FREE ENERGY PREDICTED BY IDOCK:    9.41 KCAL/MOL
REMARK 922        TOTAL FREE ENERGY PREDICTED BY IDOCK:   14.07 KCAL/MOL
REMARK 923 INTER-LIGAND FREE ENERGY PREDICTED BY IDOCK:    6.18 KCAL/MOL
REMARK 924 INTRA-LIGAND FREE ENERGY PREDICTED BY IDOCK:    7.89 KCAL/MOL
REMARK 927      BINDING AFFINITY PREDICTED BY RF-SCORE:    0.00 PKD
ROOT
HETATM    1  C   UNL     1      -8.135  16.450  68.072  1.00  0.00    -0.159 C  
HETATM    2  C   UNL     1      -7.945  16.428  66.667  1.00  0.00    -0.323 C  
HETATM    3  C   UNL     1      -9.320  16.540  67.206  1.00  0.00    -0.227 C  
HETATM    4  C   UNL     1      -9.499  16.927  69.238  1.00  0.00    -0.051 C  
HETATM    5  C   UNL     1      -9.790  17.539  68.069  1.00  0.00    -0.299 C  
HETATM    6  C   UNL     1      -8.286   9.825  68.902  1.00  0.00    -0.120 C  
HETATM    7  C   UNL     1      -7.817  10.627  67.715  1.00  0.00    -0.108 C  
HETATM    8  C   UNL     1      -8.067  11.919  68.012  1.00  0.00    -0.151 C  
HETATM    9  F   UNL     1      -5.867  12.084  68.884  1.00  0.00    -0.050 F  
HETATM   10  C   UNL     1     -11.332  16.435  67.980  1.00  0.00    -0.157 C  
HETATM   11  C   UNL     1      -7.114  12.629  68.951  1.00  0.00    -0.069 C  
HETATM   12  C   UNL     1      -9.609  19.040  67.708  1.00  0.00    -0.365 C  
HETATM   13  C   UNL     1      -7.005  14.078  68.539  1.00  0.00    -0.103 C  
HETATM   14  O   UNL     1      -7.717   8.800  69.246  1.00  0.00    -0.090 OA 
HETATM   15  C   UNL     1     -11.024  14.756  68.366  1.00  0.00    -0.252 C  
HETATM   16  C   UNL     1      -9.533  10.327  69.593  1.00  0.00    -0.180 C  
HETATM   17  O   UNL     1     -11.417  14.520  69.719  1.00  0.00    -0.259 OA 
HETATM   18  C   UNL     1      -9.577  13.981  68.029  1.00  0.00    -0.217 C  
HETATM   19  C   UNL     1     -10.364  11.879  66.882  1.00  0.00    -0.238 C  
HETATM   20  C   UNL     1      -9.546  12.374  68.136  1.00  0.00    -0.218 C  
HETATM   21  H   UNL     1     -11.249  13.608  69.929  1.00  0.00     0.000 HD 
HETATM   22  C   UNL     1      -8.354  14.792  68.671  1.00  0.00    -0.165 C  
HETATM   23  F   UNL     1      -9.343  14.059  66.652  1.00  0.00    -0.250 F  
HETATM   24  C   UNL     1     -10.102  11.520  69.279  1.00  0.00     0.100 C  
ENDROOT
BRANCH   4  25
HETATM   25  C   UNL     1     -10.663  17.824  70.092  1.00  0.00     1.270 C  
HETATM   26  O   UNL     1     -11.349  18.752  69.630  1.00  0.00     2.772 OA 
BRANCH  25  27
HETATM   27  C   UNL     1     -10.858  17.598  71.589  1.00  0.00     2.499 C  
BRANCH  27  28
HETATM   28  O   UNL     1     -11.709  16.466  71.842  1.00  0.00    -0.493 OA 
BRANCH  28  29
HETATM   29  C   UNL     1     -11.237  15.615  72.789  1.00  0.00     0.275 C  
HETATM   30  C   UNL     1     -12.346  15.058  73.635  1.00  0.00    -0.639 C  
HETATM   31  O   UNL     1     -10.058  15.351  72.934  1.00  0.00     3.094 OA 
ENDBRANCH  28  29
ENDBRANCH  27  28
ENDBRANCH  25  27
ENDBRANCH   4  25
BRANCH   4  32
HETATM   32  O   UNL     1      -8.397  17.833  69.873  1.00  0.00     1.091 OA 
BRANCH  32  33
HETATM   33  C   UNL     1      -8.488  19.193  69.778  1.00  0.00     0.725 C  
HETATM   34  O   UNL     1      -9.487  19.845  70.043  1.00  0.00     0.265 OA 
BRANCH  33  35
HETATM   35  C   UNL     1      -7.199  19.805  69.302  1.00  0.00    -0.293 C  
BRANCH  35  36
HETATM   36  C   UNL     1      -6.667  19.025  68.111  1.00  0.00    -0.256 C  
HETATM   37  C   UNL     1      -5.144  18.977  68.092  1.00  0.00    -0.177 C  
ENDBRANCH  35  36
ENDBRANCH  33  35
ENDBRANCH  32  33
ENDBRANCH   4  32
TORSDOF 8
ENDMDL
MODEL      135
REMARK 921   NORMALIZED FREE ENERGY PREDICTED BY IDOCK:    9.49 KCAL/MOL
REMARK 922        TOTAL FREE ENERGY PREDICTED BY IDOCK:   14.18 KCAL/MOL
REMARK 923 INTER-LIGAND FREE ENERGY PREDICTED BY IDOCK:    7.47 KCAL/MOL
REMARK 924 INTRA-LIGAND FREE ENERGY PREDICTED BY IDOCK:    6.71 KCAL/MOL
REMARK 927      BINDING AFFINITY PREDICTED BY RF-SCORE:    0.00 PKD
ROOT
HETATM    1  C   UNL     1      -8.155  15.809  69.438  1.00  0.00    -0.209 C  
HETATM    2  C   UNL     1      -8.347  16.666  70.552  1.00  0.00     3.356 C  
HETATM    3  C   UNL     1      -9.529  16.185  69.801  1.00  0.00     0.126 C  
HETATM    4  C   UNL     1      -9.207  14.664  68.423  1.00  0.00    -0.197 C  
HETATM    5  C   UNL     1      -9.880  14.846  69.581  1.00  0.00    -0.010 C  
HETATM    6  C   UNL     1      -7.190  20.648  64.939  1.00  0.00     0.226 C  
HETATM    7  C   UNL     1      -7.168  20.728  66.443  1.00  0.00    -0.154 C  
HETATM    8  C   UNL     1      -7.499  19.498  66.889  1.00  0.00    -0.251 C  
HETATM    9  F   UNL     1      -5.188  18.967  66.970  1.00  0.00    -0.146 F  
HETATM   10  C   UNL     1     -11.227  15.706  68.557  1.00  0.00    -0.342 C  
HETATM   11  C   UNL     1      -6.433  18.422  66.866  1.00  0.00    -0.183 C  
HETATM   12  C   UNL     1     -10.006  13.859  70.775  1.00  0.00     3.605 C  
HETATM   13  C   UNL     1      -6.634  17.504  68.048  1.00  0.00    -0.173 C  
HETATM   14  O   UNL     1      -6.417  21.301  64.253  1.00  0.00    -0.212 OA 
HETATM   15  C   UNL     1     -10.605  16.848  67.385  1.00  0.00    -0.294 C  
HETATM   16  C   UNL     1      -8.261  19.770  64.334  1.00  0.00     3.590 C  
HETATM   17  O   UNL     1     -10.585  16.218  66.102  1.00  0.00    -0.312 OA 
HETATM   18  C   UNL     1      -9.211  17.747  67.621  1.00  0.00    -0.249 C  
HETATM   19  C   UNL     1      -9.989  20.076  67.049  1.00  0.00    -0.582 C  
HETATM   20  C   UNL     1      -8.938  18.980  66.621  1.00  0.00    -0.337 C  
HETATM   21  H   UNL     1     -10.247  16.838  65.466  1.00  0.00     0.000 HD 
HETATM   22  C   UNL     1      -7.981  16.780  67.961  1.00  0.00    -0.179 C  
HETATM   23  F   UNL     1      -9.368  18.510  68.784  1.00  0.00    -0.329 F  
HETATM   24  C   UNL     1      -9.047  18.964  65.094  1.00  0.00     2.301 C  
ENDROOT
BRANCH   4  25
HETATM   25  C   UNL     1     -10.208  13.376  67.948  1.00  0.00    -0.241 C  
HETATM   26  O   UNL     1     -11.058  12.814  68.659  1.00  0.00    -0.240 OA 
BRANCH  25  27
HETATM   27  C   UNL     1     -10.027  12.731  66.576  1.00  0.00    -0.253 C  
BRANCH  27  28
HETATM   28  O   UNL     1     -10.564  11.396  66.548  1.00  0.00    -0.243 OA 
BRANCH  28  29
HETATM   29  C   UNL     1     -10.826  10.927  65.301  1.00  0.00    -0.052 C  
HETATM   30  C   UNL     1      -9.661  10.161  64.743  1.00  0.00    -0.378 C  
HETATM   31  O   UNL     1     -11.873  11.118  64.713  1.00  0.00     0.293 OA 
ENDBRANCH  28  29
ENDBRANCH  27  28
ENDBRANCH  25  27
ENDBRANCH   4  25
BRANCH   4  32
HETATM   32  O   UNL     1      -8.107  13.619  68.788  1.00  0.00    -0.106 OA 
BRANCH  32  33
HETATM   33  C   UNL     1      -8.213  12.329  68.350  1.00  0.00    -0.146 C  
HETATM   34  O   UNL     1      -7.702  11.895  67.329  1.00  0.00    -0.147 OA 
BRANCH  33  35
HETATM   35  C   UNL     1      -9.046  11.491  69.282  1.00  0.00     0.412 C  
BRANCH  35  36
HETATM   36  C   UNL     1      -8.507  10.070  69.319  1.00  0.00    -0.165 C  
HETATM   37  C   UNL     1      -9.095   9.264  70.471  1.00  0.00    -0.307 C  
ENDBRANCH  35  36
ENDBRANCH  33  35
ENDBRANCH  32  33
ENDBRANCH   4  32
TORSDOF 8
ENDMDL
MODEL      136
REMARK 921   NORMALIZED FREE ENERGY PREDICTED BY IDOCK:   10.65 KCAL/MOL
REMARK 922        TOTAL FREE ENERGY PREDICTED BY IDOCK:   15.90 KCAL/MOL
REMARK 923 INTER-LIGAND FREE ENERGY PREDICTED BY IDOCK:    4.06 KCAL/MOL
REMARK 924 INTRA-LIGAND FREE ENERGY PREDICTED BY IDOCK:   11.83 KCAL/MOL
REMARK 927      BINDING AFFINITY PREDICTED BY RF-SCORE:    0.00 PKD
ROOT
HETATM    1  C   UNL     1      -7.819   8.032  67.898  1.00  0.00    -0.126 C  
HETATM    2  C   UNL     1      -6.825   7.941  66.890  1.00  0.00    -0.072 C  
HETATM    3  C   UNL     1      -8.202   7.483  66.589  1.00  0.00    -0.125 C  
HETATM    4  C   UNL     1      -9.674   7.973  67.969  1.00  0.00    -0.160 C  
HETATM    5  C   UNL     1      -9.368   8.254  66.683  1.00  0.00    -0.246 C  
HETATM    6  C   UNL     1      -6.451   2.183  70.817  1.00  0.00    -0.024 C  
HETATM    7  C   UNL     1      -5.629   2.972  69.830  1.00  0.00    -0.017 C  
HETATM    8  C   UNL     1      -6.379   4.039  69.484  1.00  0.00    -0.028 C  
HETATM    9  F   UNL     1      -5.324   5.269  71.216  1.00  0.00    -0.004 F  
HETATM   10  C   UNL     1     -10.126   6.574  66.231  1.00  0.00     0.040 C  
HETATM   11  C   UNL     1      -6.451   5.201  70.452  1.00  0.00    -0.034 C  
HETATM   12  C   UNL     1      -9.466   9.626  65.958  1.00  0.00    -0.284 C  
HETATM   13  C   UNL     1      -6.555   6.488  69.669  1.00  0.00    -0.048 C  
HETATM   14  O   UNL     1      -5.931   1.568  71.735  1.00  0.00    -0.008 OA 
HETATM   15  C   UNL     1      -9.628   5.266  67.283  1.00  0.00    -0.137 C  
HETATM   16  C   UNL     1      -7.941   2.146  70.562  1.00  0.00    -0.050 C  
HETATM   17  O   UNL     1     -10.664   5.032  68.239  1.00  0.00     0.055 OA 
HETATM   18  C   UNL     1      -8.124   5.191  68.014  1.00  0.00    -0.098 C  
HETATM   19  C   UNL     1      -7.387   2.845  67.455  1.00  0.00    -0.054 C  
HETATM   20  C   UNL     1      -7.685   3.792  68.681  1.00  0.00    -0.056 C  
HETATM   21  H   UNL     1     -10.394   4.323  68.811  1.00  0.00     0.000 HD 
HETATM   22  C   UNL     1      -7.847   6.530  68.847  1.00  0.00    -0.110 C  
HETATM   23  F   UNL     1      -7.144   5.211  67.015  1.00  0.00    -0.063 F  
HETATM   24  C   UNL     1      -8.529   2.913  69.608  1.00  0.00    -0.101 C  
ENDROOT
BRANCH   4  25
HETATM   25  C   UNL     1     -11.318   8.342  67.745  1.00  0.00     1.026 C  
HETATM   26  O   UNL     1     -12.173   7.585  67.254  1.00  0.00     3.070 OA 
BRANCH  25  27
HETATM   27  C   UNL     1     -11.836   9.745  68.049  1.00  0.00     1.621 C  
BRANCH  27  28
HETATM   28  O   UNL     1     -11.072  10.749  67.358  1.00  0.00    -0.302 OA 
BRANCH  28  29
HETATM   29  C   UNL     1     -11.819  11.607  66.617  1.00  0.00     0.176 C  
HETATM   30  C   UNL     1     -12.024  11.095  65.220  1.00  0.00     1.179 C  
HETATM   31  O   UNL     1     -12.256  12.661  67.037  1.00  0.00    -0.466 OA 
ENDBRANCH  28  29
ENDBRANCH  27  28
ENDBRANCH  25  27
ENDBRANCH   4  25
BRANCH   4  32
HETATM   32  O   UNL     1      -9.511   9.342  68.702  1.00  0.00    -0.145 OA 
BRANCH  32  33
HETATM   33  C   UNL     1      -8.377  10.084  68.526  1.00  0.00    -0.113 C  
HETATM   34  O   UNL     1      -7.912  10.400  67.442  1.00  0.00    -0.106 OA 
BRANCH  33  35
HETATM   35  C   UNL     1      -7.757  10.474  69.841  1.00  0.00    -0.017 C  
BRANCH  35  36
HETATM   36  C   UNL     1      -6.298  10.052  69.868  1.00  0.00    -0.066 C  
HETATM   37  C   UNL     1      -5.545  10.510  68.625  1.00  0.00    -0.041 C  
ENDBRANCH  35  36
ENDBRANCH  33  35
ENDBRANCH  32  33
ENDBRANCH   4  32
TORSDOF 8
ENDMDL
MODEL      137
REMARK 921   NORMALIZED FREE ENERGY PREDICTED BY IDOCK:   10.69 KCAL/MOL
REMARK 922        TOTAL FREE ENERGY PREDICTED BY IDOCK:   15.95 KCAL/MOL
REMARK 923 INTER-LIGAND FREE ENERGY PREDICTED BY IDOCK:    7.42 KCAL/MOL
REMARK 924 INTRA-LIGAND FREE ENERGY PREDICTED BY IDOCK:    8.53 KCAL/MOL
REMARK 927      BINDING AFFINITY PREDICTED BY RF-SCORE:    0.00 PKD
ROOT
HETATM    1  C   UNL     1     -10.621  10.077  67.252  1.00  0.00    -0.319 C  
HETATM    2  C   UNL     1     -10.859   9.874  65.868  1.00  0.00     0.426 C  
HETATM    3  C   UNL     1      -9.470  10.084  66.338  1.00  0.00    -0.235 C  
HETATM    4  C   UNL     1      -9.155  10.013  68.389  1.00  0.00    -0.121 C  
HETATM    5  C   UNL     1      -8.795   9.311  67.292  1.00  0.00    -0.132 C  
HETATM    6  C   UNL     1     -11.669  16.672  67.225  1.00  0.00     0.895 C  
HETATM    7  C   UNL     1     -12.021  15.647  66.178  1.00  0.00     0.777 C  
HETATM    8  C   UNL     1     -11.527  14.472  66.622  1.00  0.00    -0.373 C  
HETATM    9  F   UNL     1     -13.629  14.036  67.632  1.00  0.00     2.607 F  
HETATM   10  C   UNL     1      -7.487  10.650  66.976  1.00  0.00    -0.106 C  
HETATM   11  C   UNL     1     -12.301  13.736  67.696  1.00  0.00    -0.025 C  
HETATM   12  C   UNL     1      -8.707   7.767  67.135  1.00  0.00    -0.125 C  
HETATM   13  C   UNL     1     -12.154  12.249  67.477  1.00  0.00    -0.022 C  
HETATM   14  O   UNL     1     -12.406  17.616  67.468  1.00  0.00     2.630 OA 
HETATM   15  C   UNL     1      -8.087  12.284  67.163  1.00  0.00    -0.173 C  
HETATM   16  C   UNL     1     -10.329  16.500  67.902  1.00  0.00    -0.294 C  
HETATM   17  O   UNL     1      -7.700  12.767  68.451  1.00  0.00    -0.126 OA 
HETATM   18  C   UNL     1      -9.662  12.735  66.814  1.00  0.00    -0.243 C  
HETATM   19  C   UNL     1      -9.316  14.770  65.366  1.00  0.00     0.335 C  
HETATM   20  C   UNL     1      -9.986  14.310  66.718  1.00  0.00    -0.266 C  
HETATM   21  H   UNL     1      -8.026  13.654  68.552  1.00  0.00     0.000 HD 
HETATM   22  C   UNL     1     -10.693  11.813  67.622  1.00  0.00    -0.254 C  
HETATM   23  F   UNL     1      -9.924  12.431  65.473  1.00  0.00    -0.254 F  
HETATM   24  C   UNL     1      -9.560  15.396  67.709  1.00  0.00    -0.210 C  
ENDROOT
BRANCH   4  25
HETATM   25  C   UNL     1      -7.818   9.462  69.282  1.00  0.00    -0.085 C  
HETATM   26  O   UNL     1      -7.705   8.341  69.806  1.00  0.00    -0.093 OA 
BRANCH  25  27
HETATM   27  C   UNL     1      -6.665  10.411  69.599  1.00  0.00    -0.095 C  
BRANCH  27  28
HETATM   28  O   UNL     1      -7.144  11.660  70.131  1.00  0.00     0.182 OA 
BRANCH  28  29
HETATM   29  C   UNL     1      -6.463  12.099  71.220  1.00  0.00     2.334 C  
HETATM   30  C   UNL     1      -5.537  11.045  71.755  1.00  0.00     0.417 C  
HETATM   31  O   UNL     1      -6.600  13.208  71.702  1.00  0.00     1.304 OA 
ENDBRANCH  28  29
ENDBRANCH  27  28
ENDBRANCH  25  27
ENDBRANCH   4  25
BRANCH   4  32
HETATM   32  O   UNL     1     -10.049   9.019  69.195  1.00  0.00    -0.184 OA 
BRANCH  32  33
HETATM   33  C   UNL     1      -9.548   8.383  70.296  1.00  0.00    -0.165 C  
HETATM   34  O   UNL     1      -9.172   7.221  70.318  1.00  0.00    -0.155 OA 
BRANCH  33  35
HETATM   35  C   UNL     1      -9.515   9.290  71.496  1.00  0.00    -0.101 C  
BRANCH  35  36
HETATM   36  C   UNL     1      -9.011   8.524  72.708  1.00  0.00    -0.205 C  
HETATM   37  C   UNL     1     -10.146   7.873  73.488  1.00  0.00    -0.127 C  
ENDBRANCH  35  36
ENDBRANCH  33  35
ENDBRANCH  32  33
ENDBRANCH   4  32
TORSDOF 8
ENDMDL
MODEL      138
REMARK 921   NORMALIZED FREE ENERGY PREDICTED BY IDOCK:   10.96 KCAL/MOL
REMARK 922        TOTAL FREE ENERGY PREDICTED BY IDOCK:   16.35 KCAL/MOL
REMARK 923 INTER-LIGAND FREE ENERGY PREDICTED BY IDOCK:    7.01 KCAL/MOL
REMARK 924 INTRA-LIGAND FREE ENERGY PREDICTED BY IDOCK:    9.33 KCAL/MOL
REMARK 927      BINDING AFFINITY PREDICTED BY RF-SCORE:    0.00 PKD
ROOT
HETATM    1  C   UNL     1     -10.837  10.004  68.941  1.00  0.00    -0.250 C  
HETATM    2  C   UNL     1     -11.919  10.293  69.813  1.00  0.00    -0.176 C  
HETATM    3  C   UNL     1     -10.582  10.857  70.111  1.00  0.00     0.177 C  
HETATM    4  C   UNL     1      -9.145  10.697  68.621  1.00  0.00    -0.170 C  
HETATM    5  C   UNL     1      -9.822  11.674  69.264  1.00  0.00     0.281 C  
HETATM    6  C   UNL     1      -9.103   4.225  71.802  1.00  0.00    -0.123 C  
HETATM    7  C   UNL     1     -10.370   5.025  71.961  1.00  0.00    -0.276 C  
HETATM    8  C   UNL     1     -10.198   6.150  71.236  1.00  0.00    -0.252 C  
HETATM    9  F   UNL     1     -11.222   5.053  69.399  1.00  0.00     0.111 F  
HETATM   10  C   UNL     1      -8.594  11.459  70.695  1.00  0.00     4.893 C  
HETATM   11  C   UNL     1     -10.366   6.060  69.734  1.00  0.00    -0.228 C  
HETATM   12  C   UNL     1     -10.437  12.966  68.657  1.00  0.00    -0.231 C  
HETATM   13  C   UNL     1     -10.956   7.354  69.226  1.00  0.00    -0.091 C  
HETATM   14  O   UNL     1      -9.116   3.003  71.786  1.00  0.00    -0.089 OA 
HETATM   15  C   UNL     1      -8.285   9.788  71.118  1.00  0.00     0.847 C  
HETATM   16  C   UNL     1      -7.819   5.019  71.733  1.00  0.00    -0.108 C  
HETATM   17  O   UNL     1      -7.051   9.387  70.519  1.00  0.00    -0.084 OA 
HETATM   18  C   UNL     1      -9.430   8.574  70.978  1.00  0.00    -0.186 C  
HETATM   19  C   UNL     1      -9.298   7.467  73.239  1.00  0.00    -0.271 C  
HETATM   20  C   UNL     1      -9.121   7.168  71.701  1.00  0.00    -0.141 C  
HETATM   21  H   UNL     1      -6.884   8.480  70.748  1.00  0.00     0.000 HD 
HETATM   22  C   UNL     1     -10.009   8.530  69.485  1.00  0.00    -0.193 C  
HETATM   23  F   UNL     1     -10.540   8.919  71.757  1.00  0.00    -0.328 F  
HETATM   24  C   UNL     1      -7.813   6.375  71.644  1.00  0.00    -0.101 C  
ENDROOT
BRANCH   4  25
HETATM   25  C   UNL     1      -7.875  11.744  68.197  1.00  0.00    -0.135 C  
HETATM   26  O   UNL     1      -6.823  11.417  67.622  1.00  0.00    -0.071 OA 
BRANCH  25  27
HETATM   27  C   UNL     1      -7.914  13.209  68.625  1.00  0.00    -0.033 C  
BRANCH  27  28
HETATM   28  O   UNL     1      -6.951  13.994  67.901  1.00  0.00    -0.124 OA 
BRANCH  28  29
HETATM   29  C   UNL     1      -7.449  15.145  67.380  1.00  0.00    -0.210 C  
HETATM   30  C   UNL     1      -8.878  15.362  67.787  1.00  0.00    -0.170 C  
HETATM   31  O   UNL     1      -6.812  15.895  66.664  1.00  0.00    -0.204 OA 
ENDBRANCH  28  29
ENDBRANCH  27  28
ENDBRANCH  25  27
ENDBRANCH   4  25
BRANCH   4  32
HETATM   32  O   UNL     1      -9.657  10.791  67.149  1.00  0.00    -0.159 OA 
BRANCH  32  33
HETATM   33  C   UNL     1     -10.930  10.404  66.839  1.00  0.00    -0.097 C  
HETATM   34  O   UNL     1     -11.914  10.624  67.530  1.00  0.00    -0.172 OA 
BRANCH  33  35
HETATM   35  C   UNL     1     -10.983   9.663  65.531  1.00  0.00     1.717 C  
BRANCH  35  36
HETATM   36  C   UNL     1     -10.210   8.360  65.645  1.00  0.00     1.193 C  
HETATM   37  C   UNL     1     -11.109   7.190  66.026  1.00  0.00     2.467 C  
ENDBRANCH  35  36
ENDBRANCH  33  35
ENDBRANCH  32  33
ENDBRANCH   4  32
TORSDOF 8
ENDMDL
MODEL      139
REMARK 921   NORMALIZED FREE ENERGY PREDICTED BY IDOCK:   11.00 KCAL/MOL
REMARK 922        TOTAL FREE ENERGY PREDICTED BY IDOCK:   16.40 KCAL/MOL
REMARK 923 INTER-LIGAND FREE ENERGY PREDICTED BY IDOCK:   12.92 KCAL/MOL
REMARK 924 INTRA-LIGAND FREE ENERGY PREDICTED BY IDOCK:    3.48 KCAL/MOL
REMARK 927      BINDING AFFINITY PREDICTED BY RF-SCORE:    0.00 PKD
ROOT
HETATM    1  C   UNL     1      -7.864   9.356  68.376  1.00  0.00    -0.090 C  
HETATM    2  C   UNL     1      -6.538   8.971  68.049  1.00  0.00    -0.061 C  
HETATM    3  C   UNL     1      -7.016   8.799  69.440  1.00  0.00    -0.053 C  
HETATM    4  C   UNL     1      -9.052   9.039  69.767  1.00  0.00    -0.159 C  
HETATM    5  C   UNL     1      -8.131   8.053  69.845  1.00  0.00    -0.117 C  
HETATM    6  C   UNL     1      -6.495  15.780  69.580  1.00  0.00    -0.177 C  
HETATM    7  C   UNL     1      -5.657  14.742  68.880  1.00  0.00    -0.087 C  
HETATM    8  C   UNL     1      -6.343  13.584  68.966  1.00  0.00    -0.099 C  
HETATM    9  F   UNL     1      -7.330  14.078  66.866  1.00  0.00    -0.064 F  
HETATM   10  C   UNL     1      -7.613   8.793  71.514  1.00  0.00    -0.130 C  
HETATM   11  C   UNL     1      -7.507  13.375  68.020  1.00  0.00    -0.139 C  
HETATM   12  C   UNL     1      -8.285   6.569  69.410  1.00  0.00    -0.119 C  
HETATM   13  C   UNL     1      -7.593  11.911  67.659  1.00  0.00    -0.136 C  
HETATM   14  O   UNL     1      -6.516  16.943  69.205  1.00  0.00    -0.188 OA 
HETATM   15  C   UNL     1      -7.449  10.536  71.496  1.00  0.00     3.372 C  
HETATM   16  C   UNL     1      -7.249  15.313  70.803  1.00  0.00     1.059 C  
HETATM   17  O   UNL     1      -8.632  11.110  72.055  1.00  0.00     9.009 OA 
HETATM   18  C   UNL     1      -6.952  11.403  70.152  1.00  0.00     0.467 C  
HETATM   19  C   UNL     1      -5.148  12.876  71.118  1.00  0.00    -0.161 C  
HETATM   20  C   UNL     1      -6.534  12.944  70.368  1.00  0.00     0.397 C  
HETATM   21  H   UNL     1      -8.544  12.056  72.045  1.00  0.00     0.000 HD 
HETATM   22  C   UNL     1      -7.882  11.055  68.896  1.00  0.00    -0.138 C  
HETATM   23  F   UNL     1      -5.687  10.942  69.770  1.00  0.00    -0.043 F  
HETATM   24  C   UNL     1      -7.310  14.002  71.156  1.00  0.00     2.737 C  
ENDROOT
BRANCH   4  25
HETATM   25  C   UNL     1     -10.092   8.267  70.868  1.00  0.00    -0.190 C  
HETATM   26  O   UNL     1     -10.763   8.827  71.751  1.00  0.00    -0.290 OA 
BRANCH  25  27
HETATM   27  C   UNL     1     -10.174   6.743  70.903  1.00  0.00    -0.195 C  
BRANCH  27  28
HETATM   28  O   UNL     1     -11.034   6.288  71.963  1.00  0.00    -0.234 OA 
BRANCH  28  29
HETATM   29  C   UNL     1     -10.790   5.016  72.371  1.00  0.00    -0.169 C  
HETATM   30  C   UNL     1     -10.513   4.952  73.846  1.00  0.00    -0.317 C  
HETATM   31  O   UNL     1     -10.787   4.055  71.625  1.00  0.00     0.345 OA 
ENDBRANCH  28  29
ENDBRANCH  27  28
ENDBRANCH  25  27
ENDBRANCH   4  25
BRANCH   4  32
HETATM   32  O   UNL     1     -10.000   8.579  68.615  1.00  0.00    -0.173 OA 
BRANCH  32  33
HETATM   33  C   UNL     1     -10.116   9.330  67.479  1.00  0.00    -0.218 C  
HETATM   34  O   UNL     1     -10.626  10.438  67.426  1.00  0.00    -0.231 OA 
BRANCH  33  35
HETATM   35  C   UNL     1      -9.537   8.624  66.283  1.00  0.00    -0.322 C  
BRANCH  35  36
HETATM   36  C   UNL     1      -8.934   9.640  65.327  1.00  0.00    -0.246 C  
HETATM   37  C   UNL     1      -9.836   9.906  64.128  1.00  0.00     0.079 C  
ENDBRANCH  35  36
ENDBRANCH  33  35
ENDBRANCH  32  33
ENDBRANCH   4  32
TORSDOF 8
ENDMDL
MODEL      140
REMARK 921   NORMALIZED FREE ENERGY PREDICTED BY IDOCK:   13.59 KCAL/MOL
REMARK 922        TOTAL FREE ENERGY PREDICTED BY IDOCK:   20.20 KCAL/MOL
REMARK 923 INTER-LIGAND FREE ENERGY PREDICTED BY IDOCK:    9.55 KCAL/MOL
REMARK 924 INTRA-LIGAND FREE ENERGY PREDICTED BY IDOCK:   10.65 KCAL/MOL
REMARK 927      BINDING AFFINITY PREDICTED BY RF-SCORE:    0.00 PKD
ROOT
HETATM    1  C   UNL     1      -7.617   9.878  68.661  1.00  0.00    -0.080 C  
HETATM    2  C   UNL     1      -6.407  10.054  69.381  1.00  0.00    -0.046 C  
HETATM    3  C   UNL     1      -7.690  10.024  70.122  1.00  0.00    -0.158 C  
HETATM    4  C   UNL     1      -9.367   9.408  69.064  1.00  0.00    -0.153 C  
HETATM    5  C   UNL     1      -8.626   8.981  70.111  1.00  0.00    -0.169 C  
HETATM    6  C   UNL     1      -8.552  16.325  67.192  1.00  0.00    -0.183 C  
HETATM    7  C   UNL     1      -7.312  15.632  67.696  1.00  0.00    -0.190 C  
HETATM    8  C   UNL     1      -7.662  14.347  67.913  1.00  0.00    -0.152 C  
HETATM    9  F   UNL     1      -6.945  13.840  65.709  1.00  0.00     3.781 F  
HETATM   10  C   UNL     1      -9.562  10.246  71.172  1.00  0.00     2.016 C  
HETATM   11  C   UNL     1      -7.767  13.427  66.714  1.00  0.00     0.549 C  
HETATM   12  C   UNL     1      -8.188   7.526  70.438  1.00  0.00    -0.123 C  
HETATM   13  C   UNL     1      -7.336  12.038  67.120  1.00  0.00    -0.134 C  
HETATM   14  O   UNL     1      -8.490  17.232  66.376  1.00  0.00    -0.252 OA 
HETATM   15  C   UNL     1      -9.716  11.822  70.425  1.00  0.00     3.930 C  
HETATM   16  C   UNL     1      -9.860  15.877  67.804  1.00  0.00    -0.222 C  
HETATM   17  O   UNL     1     -11.021  11.927  69.852  1.00  0.00    -0.458 OA 
HETATM   18  C   UNL     1      -8.566  12.472  69.397  1.00  0.00     1.222 C  
HETATM   19  C   UNL     1      -8.235  14.774  70.372  1.00  0.00     1.214 C  
HETATM   20  C   UNL     1      -8.677  14.041  69.047  1.00  0.00     0.166 C  
HETATM   21  H   UNL     1     -11.105  12.782  69.446  1.00  0.00     0.000 HD 
HETATM   22  C   UNL     1      -8.269  11.462  68.190  1.00  0.00    -0.143 C  
HETATM   23  F   UNL     1      -7.348  12.543  70.081  1.00  0.00     0.581 F  
HETATM   24  C   UNL     1      -9.939  14.800  68.628  1.00  0.00    -0.232 C  
ENDROOT
BRANCH   4  25
HETATM   25  C   UNL     1     -10.737   8.541  69.576  1.00  0.00    -0.174 C  
HETATM   26  O   UNL     1     -11.713   8.239  68.868  1.00  0.00     1.000 OA 
BRANCH  25  27
HETATM   27  C   UNL     1     -10.899   8.162  71.045  1.00  0.00    -0.235 C  
BRANCH  27  28
HETATM   28  O   UNL     1     -11.962   8.907  71.666  1.00  0.00    -0.301 OA 
BRANCH  28  29
HETATM   29  C   UNL     1     -13.155   8.258  71.691  1.00  0.00    -0.334 C  
HETATM   30  C   UNL     1     -14.123   8.918  72.631  1.00  0.00    -0.343 C  
HETATM   31  O   UNL     1     -13.397   7.261  71.037  1.00  0.00    -0.268 OA 
ENDBRANCH  28  29
ENDBRANCH  27  28
ENDBRANCH  25  27
ENDBRANCH   4  25
BRANCH   4  32
HETATM   32  O   UNL     1      -9.137   8.317  67.971  1.00  0.00    -0.137 OA 
BRANCH  32  33
HETATM   33  C   UNL     1      -8.499   7.151  68.288  1.00  0.00    -0.124 C  
HETATM   34  O   UNL     1      -9.057   6.129  68.657  1.00  0.00    -0.125 OA 
BRANCH  33  35
HETATM   35  C   UNL     1      -7.008   7.272  68.130  1.00  0.00    -0.076 C  
BRANCH  35  36
HETATM   36  C   UNL     1      -6.369   5.895  68.196  1.00  0.00    -0.044 C  
HETATM   37  C   UNL     1      -6.933   5.055  69.336  1.00  0.00    -0.055 C  
ENDBRANCH  35  36
ENDBRANCH  33  35
ENDBRANCH  32  33
ENDBRANCH   4  32
TORSDOF 8
ENDMDL
MODEL      141
REMARK 921   NORMALIZED FREE ENERGY PREDICTED BY IDOCK:   17.59 KCAL/MOL
REMARK 922        TOTAL FREE ENERGY PREDICTED BY IDOCK:   26.08 KCAL/MOL
REMARK 923 INTER-LIGAND FREE ENERGY PREDICTED BY IDOCK:    9.40 KCAL/MOL
REMARK 924 INTRA-LIGAND FREE ENERGY PREDICTED BY IDOCK:   16.68 KCAL/MOL
REMARK 927      BINDING AFFINITY PREDICTED BY RF-SCORE:    0.00 PKD
ROOT
HETATM    1  C   UNL     1      -7.403  12.311  68.368  1.00  0.00    -0.109 C  
HETATM    2  C   UNL     1      -6.797  13.369  69.093  1.00  0.00    -0.076 C  
HETATM    3  C   UNL     1      -7.947  12.653  69.691  1.00  0.00     1.392 C  
HETATM    4  C   UNL     1      -8.551  10.902  68.751  1.00  0.00    -0.159 C  
HETATM    5  C   UNL     1      -8.026  11.277  69.939  1.00  0.00     0.983 C  
HETATM    6  C   UNL     1     -11.558  16.138  64.807  1.00  0.00    -0.056 C  
HETATM    7  C   UNL     1     -10.350  16.538  65.613  1.00  0.00    -0.342 C  
HETATM    8  C   UNL     1      -9.904  15.410  66.206  1.00  0.00    -0.320 C  
HETATM    9  F   UNL     1      -8.455  15.080  64.357  1.00  0.00     4.342 F  
HETATM   10  C   UNL     1      -9.779  11.797  70.447  1.00  0.00     3.864 C  
HETATM   11  C   UNL     1      -9.103  14.436  65.368  1.00  0.00     1.034 C  
HETATM   12  C   UNL     1      -6.916  10.560  70.758  1.00  0.00     0.579 C  
HETATM   13  C   UNL     1      -8.059  13.778  66.239  1.00  0.00     1.309 C  
HETATM   14  O   UNL     1     -11.830  16.685  63.749  1.00  0.00    -0.933 OA 
HETATM   15  C   UNL     1     -10.632  12.706  69.217  1.00  0.00     0.158 C  
HETATM   16  C   UNL     1     -12.443  15.075  65.416  1.00  0.00     0.231 C  
HETATM   17  O   UNL     1     -11.519  11.820  68.530  1.00  0.00    -0.245 OA 
HETATM   18  C   UNL     1      -9.872  13.734  68.135  1.00  0.00    -0.239 C  
HETATM   19  C   UNL     1     -11.268  15.825  68.333  1.00  0.00    -0.362 C  
HETATM   20  C   UNL     1     -10.798  14.743  67.286  1.00  0.00    -0.309 C  
HETATM   21  H   UNL     1     -11.982  12.313  67.863  1.00  0.00     0.000 HD 
HETATM   22  C   UNL     1      -8.712  12.955  67.354  1.00  0.00    -0.197 C  
HETATM   23  F   UNL     1      -9.186  14.714  68.862  1.00  0.00    -0.186 F  
HETATM   24  C   UNL     1     -12.086  14.394  66.536  1.00  0.00    -0.395 C  
ENDROOT
BRANCH   4  25
HETATM   25  C   UNL     1      -9.203   9.472  69.397  1.00  0.00    -0.176 C  
HETATM   26  O   UNL     1      -8.594   8.401  69.558  1.00  0.00    -0.126 OA 
BRANCH  25  27
HETATM   27  C   UNL     1     -10.691   9.391  69.730  1.00  0.00    -0.234 C  
BRANCH  27  28
HETATM   28  O   UNL     1     -10.934   9.666  71.122  1.00  0.00    -0.336 OA 
BRANCH  28  29
HETATM   29  C   UNL     1     -11.961  10.525  71.349  1.00  0.00    -0.230 C  
HETATM   30  C   UNL     1     -13.271   9.954  70.886  1.00  0.00    -0.309 C  
HETATM   31  O   UNL     1     -11.825  11.622  71.855  1.00  0.00     1.122 OA 
ENDBRANCH  28  29
ENDBRANCH  27  28
ENDBRANCH  25  27
ENDBRANCH   4  25
BRANCH   4  32
HETATM   32  O   UNL     1      -7.424  10.042  68.097  1.00  0.00    -0.082 OA 
BRANCH  32  33
HETATM   33  C   UNL     1      -6.116  10.417  68.218  1.00  0.00    -0.043 C  
HETATM   34  O   UNL     1      -5.715  11.570  68.188  1.00  0.00    -0.046 OA 
BRANCH  33  35
HETATM   35  C   UNL     1      -5.210   9.227  68.392  1.00  0.00    -0.034 C  
BRANCH  35  36
HETATM   36  C   UNL     1      -5.968   8.098  69.070  1.00  0.00    -0.039 C  
HETATM   37  C   UNL     1      -6.183   8.361  70.556  1.00  0.00    -0.035 C  
ENDBRANCH  35  36
ENDBRANCH  33  35
ENDBRANCH  32  33
ENDBRANCH   4  32
TORSDOF 8
ENDMDL
MODEL      142
REMARK 921   NORMALIZED FREE ENERGY PREDICTED BY IDOCK:   18.34 KCAL/MOL
REMARK 922        TOTAL FREE ENERGY PREDICTED BY IDOCK:   27.18 KCAL/MOL
REMARK 923 INTER-LIGAND FREE ENERGY PREDICTED BY IDOCK:   14.59 KCAL/MOL
REMARK 924 INTRA-LIGAND FREE ENERGY PREDICTED BY IDOCK:   12.59 KCAL/MOL
REMARK 927      BINDING AFFINITY PREDICTED BY RF-SCORE:    0.00 PKD
ROOT
HETATM    1  C   UNL     1     -10.130   9.141  68.726  1.00  0.00    -0.212 C  
HETATM    2  C   UNL     1     -11.261   8.415  69.183  1.00  0.00     0.328 C  
HETATM    3  C   UNL     1     -10.169   8.724  70.135  1.00  0.00    -0.207 C  
HETATM    4  C   UNL     1      -8.732  10.084  69.503  1.00  0.00    -0.192 C  
HETATM    5  C   UNL     1      -9.688  10.001  70.455  1.00  0.00     0.070 C  
HETATM    6  C   UNL     1      -6.731   3.864  66.449  1.00  0.00    -0.053 C  
HETATM    7  C   UNL     1      -8.185   3.970  66.827  1.00  0.00    -0.100 C  
HETATM    8  C   UNL     1      -8.360   5.220  67.303  1.00  0.00    -0.107 C  
HETATM    9  F   UNL     1      -8.968   5.906  65.114  1.00  0.00    -0.144 F  
HETATM   10  C   UNL     1      -8.473   8.937  71.453  1.00  0.00    -0.216 C  
HETATM   11  C   UNL     1      -8.471   6.352  66.302  1.00  0.00    -0.131 C  
HETATM   12  C   UNL     1     -10.664  11.115  70.925  1.00  0.00     1.955 C  
HETATM   13  C   UNL     1      -9.425   7.392  66.839  1.00  0.00    -0.208 C  
HETATM   14  O   UNL     1      -6.364   3.184  65.502  1.00  0.00    -0.030 OA 
HETATM   15  C   UNL     1      -7.668   7.704  70.507  1.00  0.00    -0.089 C  
HETATM   16  C   UNL     1      -5.755   4.591  67.346  1.00  0.00    -0.022 C  
HETATM   17  O   UNL     1      -6.362   8.173  70.165  1.00  0.00    -0.032 OA 
HETATM   18  C   UNL     1      -8.378   6.933  69.200  1.00  0.00    -0.125 C  
HETATM   19  C   UNL     1      -7.942   4.506  69.725  1.00  0.00    -0.061 C  
HETATM   20  C   UNL     1      -7.659   5.607  68.633  1.00  0.00    -0.088 C  
HETATM   21  H   UNL     1      -5.925   7.504  69.650  1.00  0.00     0.000 HD 
HETATM   22  C   UNL     1      -8.894   8.012  68.135  1.00  0.00    -0.132 C  
HETATM   23  F   UNL     1      -9.552   6.308  69.638  1.00  0.00    -0.143 F  
HETATM   24  C   UNL     1      -6.169   5.430  68.331  1.00  0.00    -0.030 C  
ENDROOT
BRANCH   4  25
HETATM   25  C   UNL     1      -7.843  11.237  70.380  1.00  0.00     2.411 C  
HETATM   26  O   UNL     1      -6.768  11.033  70.970  1.00  0.00     0.156 OA 
BRANCH  25  27
HETATM   27  C   UNL     1      -8.409  12.638  70.595  1.00  0.00     6.923 C  
BRANCH  27  28
HETATM   28  O   UNL     1      -7.463  13.489  71.268  1.00  0.00     2.973 OA 
BRANCH  28  29
HETATM   29  C   UNL     1      -6.394  13.843  70.509  1.00  0.00    -0.011 C  
HETATM   30  C   UNL     1      -5.284  14.409  71.348  1.00  0.00    -0.155 C  
HETATM   31  O   UNL     1      -6.354  13.722  69.299  1.00  0.00    -0.098 OA 
ENDBRANCH  28  29
ENDBRANCH  27  28
ENDBRANCH  25  27
ENDBRANCH   4  25
BRANCH   4  32
HETATM   32  O   UNL     1      -9.227  11.235  68.573  1.00  0.00    -0.175 OA 
BRANCH  32  33
HETATM   33  C   UNL     1     -10.084  12.185  69.053  1.00  0.00     0.116 C  
HETATM   34  O   UNL     1     -10.561  12.190  70.177  1.00  0.00     0.929 OA 
BRANCH  33  35
HETATM   35  C   UNL     1     -10.380  13.240  68.021  1.00  0.00    -0.243 C  
BRANCH  35  36
HETATM   36  C   UNL     1     -11.402  12.716  67.026  1.00  0.00    -0.377 C  
HETATM   37  C   UNL     1     -12.701  12.299  67.704  1.00  0.00     2.113 C  
ENDBRANCH  35  36
ENDBRANCH  33  35
ENDBRANCH  32  33
ENDBRANCH   4  32
TORSDOF 8
ENDMDL
MODEL      143
REMARK 921   NORMALIZED FREE ENERGY PREDICTED BY IDOCK:   21.72 KCAL/MOL
REMARK 922        TOTAL FREE ENERGY PREDICTED BY IDOCK:   32.14 KCAL/MOL
REMARK 923 INTER-LIGAND FREE ENERGY PREDICTED BY IDOCK:   22.20 KCAL/MOL
REMARK 924 INTRA-LIGAND FREE ENERGY PREDICTED BY IDOCK:    9.95 KCAL/MOL
REMARK 927      BINDING AFFINITY PREDICTED BY RF-SCORE:    0.00 PKD
ROOT
HETATM    1  C   UNL     1     -10.919  12.160  67.519  1.00  0.00    -0.304 C  
HETATM    2  C   UNL     1     -12.260  12.092  67.061  1.00  0.00     0.438 C  
HETATM    3  C   UNL     1     -11.837  13.248  67.886  1.00  0.00    -0.388 C  
HETATM    4  C   UNL     1      -9.799  13.467  68.214  1.00  0.00    -0.233 C  
HETATM    5  C   UNL     1     -10.795  14.136  67.591  1.00  0.00    -0.266 C  
HETATM    6  C   UNL     1     -11.827   8.490  73.023  1.00  0.00     0.440 C  
HETATM    7  C   UNL     1     -12.722   8.641  71.820  1.00  0.00    -0.401 C  
HETATM    8  C   UNL     1     -12.128   9.554  71.023  1.00  0.00    -0.398 C  
HETATM    9  F   UNL     1     -11.047   7.774  69.887  1.00  0.00    -0.253 F  
HETATM   10  C   UNL     1     -11.303  14.788  69.299  1.00  0.00    -0.317 C  
HETATM   11  C   UNL     1     -10.957   9.103  70.176  1.00  0.00    -0.239 C  
HETATM   12  C   UNL     1     -10.742  14.860  66.216  1.00  0.00    -0.320 C  
HETATM   13  C   UNL     1     -10.973   9.860  68.869  1.00  0.00    -0.214 C  
HETATM   14  O   UNL     1     -11.706   7.418  73.599  1.00  0.00     0.417 OA 
HETATM   15  C   UNL     1     -11.333  13.560  70.546  1.00  0.00     0.472 C  
HETATM   16  C   UNL     1     -11.147   9.749  73.509  1.00  0.00     7.754 C  
HETATM   17  O   UNL     1     -10.126  13.653  71.306  1.00  0.00     4.213 OA 
HETATM   18  C   UNL     1     -11.722  11.958  70.255  1.00  0.00    -0.205 C  
HETATM   19  C   UNL     1     -13.436  11.502  72.048  1.00  0.00    -0.298 C  
HETATM   20  C   UNL     1     -12.028  11.018  71.528  1.00  0.00     0.146 C  
HETATM   21  H   UNL     1     -10.142  12.987  71.983  1.00  0.00     0.000 HD 
HETATM   22  C   UNL     1     -10.786  11.362  69.100  1.00  0.00    -0.260 C  
HETATM   23  F   UNL     1     -13.007  11.907  69.702  1.00  0.00     0.161 F  
HETATM   24  C   UNL     1     -11.196  10.912  72.809  1.00  0.00     7.766 C  
ENDROOT
BRANCH   4  25
HETATM   25  C   UNL     1      -8.854  14.870  68.386  1.00  0.00    -0.178 C  
HETATM   26  O   UNL     1      -9.235  15.950  68.869  1.00  0.00    -0.203 OA 
BRANCH  25  27
HETATM   27  C   UNL     1      -7.437  14.913  67.820  1.00  0.00    -0.163 C  
BRANCH  27  28
HETATM   28  O   UNL     1      -7.149  16.189  67.221  1.00  0.00    -0.158 OA 
BRANCH  28  29
HETATM   29  C   UNL     1      -8.130  16.657  66.407  1.00  0.00    -0.324 C  
HETATM   30  C   UNL     1      -7.797  16.439  64.958  1.00  0.00     4.994 C  
HETATM   31  O   UNL     1      -9.144  17.193  66.809  1.00  0.00    -0.229 OA 
ENDBRANCH  28  29
ENDBRANCH  27  28
ENDBRANCH  25  27
ENDBRANCH   4  25
BRANCH   4  32
HETATM   32  O   UNL     1      -8.856  13.026  67.050  1.00  0.00    -0.213 OA 
BRANCH  32  33
HETATM   33  C   UNL     1      -8.873  11.734  66.605  1.00  0.00    -0.189 C  
HETATM   34  O   UNL     1      -8.611  10.758  67.290  1.00  0.00    -0.129 OA 
BRANCH  33  35
HETATM   35  C   UNL     1      -9.255  11.652  65.152  1.00  0.00    -0.001 C  
BRANCH  35  36
HETATM   36  C   UNL     1     -10.766  11.558  65.020  1.00  0.00    -0.350 C  
HETATM   37  C   UNL     1     -11.278  10.146  65.275  1.00  0.00     1.627 C  
ENDBRANCH  35  36
ENDBRANCH  33  35
ENDBRANCH  32  33
ENDBRANCH   4  32
TORSDOF 8
ENDMDL
MODEL      144
REMARK 921   NORMALIZED FREE ENERGY PREDICTED BY IDOCK:   23.65 KCAL/MOL
REMARK 922        TOTAL FREE ENERGY PREDICTED BY IDOCK:   34.97 KCAL/MOL
REMARK 923 INTER-LIGAND FREE ENERGY PREDICTED BY IDOCK:   26.72 KCAL/MOL
REMARK 924 INTRA-LIGAND FREE ENERGY PREDICTED BY IDOCK:    8.25 KCAL/MOL
REMARK 927      BINDING AFFINITY PREDICTED BY RF-SCORE:    0.00 PKD
ROOT
HETATM    1  C   UNL     1      -7.822  13.159  70.598  1.00  0.00     4.653 C  
HETATM    2  C   UNL     1      -6.580  12.724  71.129  1.00  0.00     2.230 C  
HETATM    3  C   UNL     1      -6.631  13.986  70.356  1.00  0.00     0.090 C  
HETATM    4  C   UNL     1      -8.516  14.743  69.922  1.00  0.00     0.446 C  
HETATM    5  C   UNL     1      -7.431  15.100  70.644  1.00  0.00     1.022 C  
HETATM    6  C   UNL     1      -7.482   9.634  64.937  1.00  0.00    -0.118 C  
HETATM    7  C   UNL     1      -6.670   9.493  66.198  1.00  0.00    -0.082 C  
HETATM    8  C   UNL     1      -7.067  10.491  67.015  1.00  0.00    -0.094 C  
HETATM    9  F   UNL     1      -8.648   9.003  67.970  1.00  0.00    -0.124 F  
HETATM   10  C   UNL     1      -6.649  15.676  69.013  1.00  0.00    -0.130 C  
HETATM   11  C   UNL     1      -8.373  10.321  67.761  1.00  0.00    -0.110 C  
HETATM   12  C   UNL     1      -7.398  15.750  72.056  1.00  0.00     5.792 C  
HETATM   13  C   UNL     1      -8.260  10.988  69.111  1.00  0.00    -0.052 C  
HETATM   14  O   UNL     1      -7.831   8.659  64.289  1.00  0.00    -0.124 OA 
HETATM   15  C   UNL     1      -6.843  14.540  67.695  1.00  0.00    -0.182 C  
HETATM   16  C   UNL     1      -7.780  11.048  64.491  1.00  0.00     0.570 C  
HETATM   17  O   UNL     1      -7.926  14.979  66.872  1.00  0.00    -0.281 OA 
HETATM   18  C   UNL     1      -6.899  12.880  67.907  1.00  0.00    -0.120 C  
HETATM   19  C   UNL     1      -5.232  12.077  66.194  1.00  0.00     0.758 C  
HETATM   20  C   UNL     1      -6.751  11.953  66.598  1.00  0.00     0.084 C  
HETATM   21  H   UNL     1      -8.032  14.362  66.157  1.00  0.00     0.000 HD 
HETATM   22  C   UNL     1      -8.038  12.496  68.965  1.00  0.00     0.329 C  
HETATM   23  F   UNL     1      -5.714  12.472  68.531  1.00  0.00    -0.053 F  
HETATM   24  C   UNL     1      -7.486  12.125  65.265  1.00  0.00     2.940 C  
ENDROOT
BRANCH   4  25
HETATM   25  C   UNL     1      -9.055  16.349  69.784  1.00  0.00     0.507 C  
HETATM   26  O   UNL     1      -9.410  17.081  70.723  1.00  0.00     3.147 OA 
BRANCH  25  27
HETATM   27  C   UNL     1      -9.249  16.975  68.406  1.00  0.00    -0.259 C  
BRANCH  27  28
HETATM   28  O   UNL     1     -10.632  16.951  68.008  1.00  0.00    -0.339 OA 
BRANCH  28  29
HETATM   29  C   UNL     1     -11.072  15.735  67.594  1.00  0.00    -0.283 C  
HETATM   30  C   UNL     1     -11.611  14.924  68.738  1.00  0.00    -0.348 C  
HETATM   31  O   UNL     1     -11.021  15.354  66.440  1.00  0.00    -0.322 OA 
ENDBRANCH  28  29
ENDBRANCH  27  28
ENDBRANCH  25  27
ENDBRANCH   4  25
BRANCH   4  32
HETATM   32  O   UNL     1      -9.623  14.509  70.998  1.00  0.00     2.028 OA 
BRANCH  32  33
HETATM   33  C   UNL     1     -10.841  14.010  70.632  1.00  0.00     1.052 C  
HETATM   34  O   UNL     1     -11.772  14.681  70.214  1.00  0.00    -0.270 OA 
BRANCH  33  35
HETATM   35  C   UNL     1     -10.907  12.517  70.809  1.00  0.00     3.036 C  
BRANCH  35  36
HETATM   36  C   UNL     1     -12.099  12.153  71.679  1.00  0.00     0.768 C  
HETATM   37  C   UNL     1     -12.432  13.249  72.684  1.00  0.00     0.558 C  
ENDBRANCH  35  36
ENDBRANCH  33  35
ENDBRANCH  32  33
ENDBRANCH   4  32
TORSDOF 8
ENDMDL
MODEL      145
REMARK 921   NORMALIZED FREE ENERGY PREDICTED BY IDOCK:   29.00 KCAL/MOL
REMARK 922        TOTAL FREE ENERGY PREDICTED BY IDOCK:   42.82 KCAL/MOL
REMARK 923 INTER-LIGAND FREE ENERGY PREDICTED BY IDOCK:   31.15 KCAL/MOL
REMARK 924 INTRA-LIGAND FREE ENERGY PREDICTED BY IDOCK:   11.67 KCAL/MOL
REMARK 927      BINDING AFFINITY PREDICTED BY RF-SCORE:    0.00 PKD
ROOT
HETATM    1  C   UNL     1     -10.165  12.333  68.073  1.00  0.00    -0.206 C  
HETATM    2  C   UNL     1     -11.459  12.106  67.538  1.00  0.00    -0.410 C  
HETATM    3  C   UNL     1     -11.271  13.181  68.540  1.00  0.00    -0.307 C  
HETATM    4  C   UNL     1      -9.314  13.693  69.007  1.00  0.00     0.288 C  
HETATM    5  C   UNL     1     -10.394  14.268  68.431  1.00  0.00    -0.247 C  
HETATM    6  C   UNL     1     -10.568   7.782  72.943  1.00  0.00    -0.366 C  
HETATM    7  C   UNL     1     -11.441   7.956  71.727  1.00  0.00    -0.313 C  
HETATM    8  C   UNL     1     -10.995   9.065  71.101  1.00  0.00    -0.371 C  
HETATM    9  F   UNL     1      -9.584   7.685  69.784  1.00  0.00    -0.162 F  
HETATM   10  C   UNL     1     -11.058  14.561  70.185  1.00  0.00    -0.129 C  
HETATM   11  C   UNL     1      -9.738   8.952  70.263  1.00  0.00    -0.185 C  
HETATM   12  C   UNL     1     -10.430  15.187  67.178  1.00  0.00    -0.280 C  
HETATM   13  C   UNL     1      -9.851   9.881  69.078  1.00  0.00    -0.193 C  
HETATM   14  O   UNL     1     -10.277   6.673  73.367  1.00  0.00    -0.206 OA 
HETATM   15  C   UNL     1     -10.906  13.174  71.242  1.00  0.00     4.478 C  
HETATM   16  C   UNL     1     -10.136   9.051  73.639  1.00  0.00     3.577 C  
HETATM   17  O   UNL     1      -9.757  13.357  72.072  1.00  0.00     9.293 OA 
HETATM   18  C   UNL     1     -10.998  11.590  70.705  1.00  0.00     1.431 C  
HETATM   19  C   UNL     1     -12.655  10.587  72.319  1.00  0.00     0.205 C  
HETATM   20  C   UNL     1     -11.169  10.434  71.813  1.00  0.00     1.284 C  
HETATM   21  H   UNL     1      -9.675  12.604  72.645  1.00  0.00     0.000 HD 
HETATM   22  C   UNL     1      -9.939  11.342  69.530  1.00  0.00     0.371 C  
HETATM   23  F   UNL     1     -12.238  11.405  70.082  1.00  0.00    -0.340 F  
HETATM   24  C   UNL     1     -10.369  10.280  73.110  1.00  0.00     9.644 C  
ENDROOT
BRANCH   4  25
HETATM   25  C   UNL     1      -8.637  15.195  69.426  1.00  0.00    -0.172 C  
HETATM   26  O   UNL     1      -7.512  15.372  69.924  1.00  0.00    -0.154 OA 
BRANCH  25  27
HETATM   27  C   UNL     1      -9.469  16.469  69.311  1.00  0.00    -0.152 C  
BRANCH  27  28
HETATM   28  O   UNL     1      -8.657  17.593  68.925  1.00  0.00    -0.230 OA 
BRANCH  28  29
HETATM   29  C   UNL     1      -7.755  17.977  69.866  1.00  0.00     1.254 C  
HETATM   30  C   UNL     1      -7.886  19.438  70.192  1.00  0.00     0.919 C  
HETATM   31  O   UNL     1      -6.940  17.228  70.367  1.00  0.00     1.060 OA 
ENDBRANCH  28  29
ENDBRANCH  27  28
ENDBRANCH  25  27
ENDBRANCH   4  25
BRANCH   4  32
HETATM   32  O   UNL     1      -8.275  13.598  67.845  1.00  0.00    -0.144 OA 
BRANCH  32  33
HETATM   33  C   UNL     1      -7.896  12.378  67.361  1.00  0.00    -0.174 C  
HETATM   34  O   UNL     1      -8.540  11.713  66.563  1.00  0.00    -0.179 OA 
BRANCH  33  35
HETATM   35  C   UNL     1      -6.575  11.938  67.932  1.00  0.00    -0.075 C  
BRANCH  35  36
HETATM   36  C   UNL     1      -6.760  11.492  69.373  1.00  0.00    -0.116 C  
HETATM   37  C   UNL     1      -7.500  12.532  70.206  1.00  0.00     2.458 C  
ENDBRANCH  35  36
ENDBRANCH  33  35
ENDBRANCH  32  33
ENDBRANCH   4  32
TORSDOF 8
ENDMDL
MODEL      146
REMARK 921   NORMALIZED FREE ENERGY PREDICTED BY IDOCK:   30.54 KCAL/MOL
REMARK 922        TOTAL FREE ENERGY PREDICTED BY IDOCK:   45.08 KCAL/MOL
REMARK 923 INTER-LIGAND FREE ENERGY PREDICTED BY IDOCK:   31.09 KCAL/MOL
REMARK 924 INTRA-LIGAND FREE ENERGY PREDICTED BY IDOCK:   13.99 KCAL/MOL
REMARK 927      BINDING AFFINITY PREDICTED BY RF-SCORE:    0.00 PKD
ROOT
HETATM    1  C   UNL     1      -8.628  10.744  67.358  1.00  0.00    -0.126 C  
HETATM    2  C   UNL     1      -7.929  10.766  66.124  1.00  0.00    -0.157 C  
HETATM    3  C   UNL     1      -7.274  11.315  67.335  1.00  0.00    -0.110 C  
HETATM    4  C   UNL     1      -8.196  10.927  69.155  1.00  0.00    -0.084 C  
HETATM    5  C   UNL     1      -7.035  10.625  68.530  1.00  0.00    -0.067 C  
HETATM    6  C   UNL     1     -11.910  16.489  66.456  1.00  0.00     1.596 C  
HETATM    7  C   UNL     1     -11.169  15.646  65.450  1.00  0.00    -0.185 C  
HETATM    8  C   UNL     1     -10.614  14.632  66.146  1.00  0.00    -0.314 C  
HETATM    9  F   UNL     1     -12.546  13.334  65.683  1.00  0.00    -0.472 F  
HETATM   10  C   UNL     1      -6.424  12.352  69.026  1.00  0.00    -0.097 C  
HETATM   11  C   UNL     1     -11.506  13.478  66.553  1.00  0.00    -0.339 C  
HETATM   12  C   UNL     1      -6.288   9.262  68.517  1.00  0.00    -0.053 C  
HETATM   13  C   UNL     1     -10.703  12.199  66.524  1.00  0.00    -0.290 C  
HETATM   14  O   UNL     1     -12.946  17.068  66.165  1.00  0.00     6.234 OA 
HETATM   15  C   UNL     1      -7.594  13.624  68.749  1.00  0.00    -0.079 C  
HETATM   16  C   UNL     1     -11.262  16.627  67.815  1.00  0.00    -0.064 C  
HETATM   17  O   UNL     1      -8.239  13.928  69.987  1.00  0.00     0.586 OA 
HETATM   18  C   UNL     1      -8.707  13.598  67.497  1.00  0.00    -0.198 C  
HETATM   19  C   UNL     1      -8.410  15.888  66.485  1.00  0.00    -0.330 C  
HETATM   20  C   UNL     1      -9.492  14.965  67.166  1.00  0.00    -0.231 C  
HETATM   21  H   UNL     1      -8.874  14.618  69.837  1.00  0.00     0.000 HD 
HETATM   22  C   UNL     1      -9.560  12.244  67.544  1.00  0.00    -0.184 C  
HETATM   23  F   UNL     1      -8.010  13.511  66.286  1.00  0.00     0.455 F  
HETATM   24  C   UNL     1     -10.171  15.899  68.171  1.00  0.00    -0.232 C  
ENDROOT
BRANCH   4  25
HETATM   25  C   UNL     1      -7.528  10.669  70.696  1.00  0.00     1.260 C  
HETATM   26  O   UNL     1      -6.928   9.646  71.068  1.00  0.00    -0.277 OA 
BRANCH  25  27
HETATM   27  C   UNL     1      -7.741  11.697  71.804  1.00  0.00    10.309 C  
BRANCH  27  28
HETATM   28  O   UNL     1      -7.598  11.103  73.107  1.00  0.00     9.759 OA 
BRANCH  28  29
HETATM   29  C   UNL     1      -7.932   9.787  73.159  1.00  0.00     3.896 C  
HETATM   30  C   UNL     1      -9.099   9.478  72.266  1.00  0.00     1.990 C  
HETATM   31  O   UNL     1      -7.358   8.971  73.853  1.00  0.00    -0.381 OA 
ENDBRANCH  28  29
ENDBRANCH  27  28
ENDBRANCH  25  27
ENDBRANCH   4  25
BRANCH   4  32
HETATM   32  O   UNL     1      -8.921   9.551  69.286  1.00  0.00    -0.144 OA 
BRANCH  32  33
HETATM   33  C   UNL     1      -9.718   9.095  68.274  1.00  0.00    -0.154 C  
HETATM   34  O   UNL     1     -10.939   9.100  68.292  1.00  0.00    -0.103 OA 
BRANCH  33  35
HETATM   35  C   UNL     1      -8.907   8.576  67.117  1.00  0.00    -0.139 C  
BRANCH  35  36
HETATM   36  C   UNL     1      -8.149   7.328  67.538  1.00  0.00    -0.114 C  
HETATM   37  C   UNL     1      -6.695   7.359  67.083  1.00  0.00    -0.069 C  
ENDBRANCH  35  36
ENDBRANCH  33  35
ENDBRANCH  32  33
ENDBRANCH   4  32
TORSDOF 8
ENDMDL
MODEL      147
REMARK 921   NORMALIZED FREE ENERGY PREDICTED BY IDOCK:   31.64 KCAL/MOL
REMARK 922        TOTAL FREE ENERGY PREDICTED BY IDOCK:   46.70 KCAL/MOL
REMARK 923 INTER-LIGAND FREE ENERGY PREDICTED BY IDOCK:   34.36 KCAL/MOL
REMARK 924 INTRA-LIGAND FREE ENERGY PREDICTED BY IDOCK:   12.34 KCAL/MOL
REMARK 927      BINDING AFFINITY PREDICTED BY RF-SCORE:    0.00 PKD
ROOT
HETATM    1  C   UNL     1      -8.315  16.541  68.459  1.00  0.00    -0.210 C  
HETATM    2  C   UNL     1      -8.291  16.497  67.041  1.00  0.00    -0.220 C  
HETATM    3  C   UNL     1      -9.323  17.314  67.719  1.00  0.00    -0.250 C  
HETATM    4  C   UNL     1      -9.083  17.621  69.759  1.00  0.00     1.186 C  
HETATM    5  C   UNL     1      -9.088  18.357  68.625  1.00  0.00    -0.317 C  
HETATM    6  C   UNL     1     -12.022  11.051  69.306  1.00  0.00    -0.339 C  
HETATM    7  C   UNL     1     -11.293  11.528  68.076  1.00  0.00    -0.368 C  
HETATM    8  C   UNL     1     -10.762  12.727  68.396  1.00  0.00    -0.269 C  
HETATM    9  F   UNL     1      -8.770  11.609  69.037  1.00  0.00    -0.099 F  
HETATM   10  C   UNL     1     -10.984  18.287  68.696  1.00  0.00     0.596 C  
HETATM   11  C   UNL     1      -9.498  12.744  69.231  1.00  0.00     0.876 C  
HETATM   12  C   UNL     1      -8.142  19.531  68.246  1.00  0.00    -0.369 C  
HETATM   13  C   UNL     1      -8.645  13.916  68.809  1.00  0.00     0.001 C  
HETATM   14  O   UNL     1     -12.085   9.864  69.590  1.00  0.00     0.068 OA 
HETATM   15  C   UNL     1     -11.621  16.695  69.050  1.00  0.00     0.130 C  
HETATM   16  C   UNL     1     -12.720  12.114  70.121  1.00  0.00     0.170 C  
HETATM   17  O   UNL     1     -11.960  16.639  70.437  1.00  0.00    -0.167 OA 
HETATM   18  C   UNL     1     -10.876  15.275  68.567  1.00  0.00    -0.253 C  
HETATM   19  C   UNL     1     -12.788  14.017  67.508  1.00  0.00     1.160 C  
HETATM   20  C   UNL     1     -11.728  13.911  68.671  1.00  0.00    -0.396 C  
HETATM   21  H   UNL     1     -12.306  15.774  70.629  1.00  0.00     0.000 HD 
HETATM   22  C   UNL     1      -9.360  15.244  69.079  1.00  0.00    -0.231 C  
HETATM   23  F   UNL     1     -10.758  15.288  67.172  1.00  0.00    -0.287 F  
HETATM   24  C   UNL     1     -12.561  13.439  69.866  1.00  0.00    -0.034 C  
ENDROOT
BRANCH   4  25
HETATM   25  C   UNL     1      -9.480  18.961  70.727  1.00  0.00     3.017 C  
HETATM   26  O   UNL     1      -9.374  20.155  70.397  1.00  0.00     0.705 OA 
BRANCH  25  27
HETATM   27  C   UNL     1      -9.908  18.757  72.178  1.00  0.00     5.767 C  
BRANCH  27  28
HETATM   28  O   UNL     1     -10.771  17.615  72.316  1.00  0.00     2.240 OA 
BRANCH  28  29
HETATM   29  C   UNL     1     -10.496  16.835  73.393  1.00  0.00     6.221 C  
HETATM   30  C   UNL     1     -11.745  16.246  73.983  1.00  0.00     0.173 C  
HETATM   31  O   UNL     1      -9.374  16.651  73.825  1.00  0.00    13.140 OA 
ENDBRANCH  28  29
ENDBRANCH  27  28
ENDBRANCH  25  27
ENDBRANCH   4  25
BRANCH   4  32
HETATM   32  O   UNL     1      -7.615  17.738  70.275  1.00  0.00     1.641 OA 
BRANCH  32  33
HETATM   33  C   UNL     1      -7.017  18.962  70.377  1.00  0.00     0.903 C  
HETATM   34  O   UNL     1      -7.320  19.820  71.191  1.00  0.00     0.831 OA 
BRANCH  33  35
HETATM   35  C   UNL     1      -5.927  19.136  69.354  1.00  0.00    -0.281 C  
BRANCH  35  36
HETATM   36  C   UNL     1      -6.437  18.725  67.982  1.00  0.00    -0.227 C  
HETATM   37  C   UNL     1      -5.351  18.067  67.140  1.00  0.00    -0.144 C  
ENDBRANCH  35  36
ENDBRANCH  33  35
ENDBRANCH  32  33
ENDBRANCH   4  32
TORSDOF 8
ENDMDL
MODEL      148
REMARK 921   NORMALIZED FREE ENERGY PREDICTED BY IDOCK:   31.80 KCAL/MOL
REMARK 922        TOTAL FREE ENERGY PREDICTED BY IDOCK:   46.93 KCAL/MOL
REMARK 923 INTER-LIGAND FREE ENERGY PREDICTED BY IDOCK:   17.76 KCAL/MOL
REMARK 924 INTRA-LIGAND FREE ENERGY PREDICTED BY IDOCK:   29.17 KCAL/MOL
REMARK 927      BINDING AFFINITY PREDICTED BY RF-SCORE:    0.00 PKD
ROOT
HETATM    1  C   UNL     1     -10.902  14.131  66.039  1.00  0.00    -0.297 C  
HETATM    2  C   UNL     1     -12.179  14.146  65.420  1.00  0.00    -0.441 C  
HETATM    3  C   UNL     1     -11.784  15.282  66.285  1.00  0.00     0.102 C  
HETATM    4  C   UNL     1      -9.790  15.371  66.861  1.00  0.00    -0.244 C  
HETATM    5  C   UNL     1     -10.655  16.096  66.117  1.00  0.00    -0.288 C  
HETATM    6  C   UNL     1     -12.721  10.601  71.408  1.00  0.00    -0.440 C  
HETATM    7  C   UNL     1     -13.450  10.795  70.103  1.00  0.00     0.761 C  
HETATM    8  C   UNL     1     -12.703  11.657  69.381  1.00  0.00     0.513 C  
HETATM    9  F   UNL     1     -11.613   9.794  68.395  1.00  0.00    -0.122 F  
HETATM   10  C   UNL     1     -11.323  16.802  67.746  1.00  0.00     0.109 C  
HETATM   11  C   UNL     1     -11.470  11.118  68.686  1.00  0.00    -0.298 C  
HETATM   12  C   UNL     1     -10.386  16.796  64.755  1.00  0.00     0.758 C  
HETATM   13  C   UNL     1     -11.275  11.857  67.384  1.00  0.00    -0.366 C  
HETATM   14  O   UNL     1     -12.744   9.532  71.999  1.00  0.00    -0.380 OA 
HETATM   15  C   UNL     1     -11.588  15.595  68.986  1.00  0.00    -0.386 C  
HETATM   16  C   UNL     1     -12.023  11.819  71.968  1.00  0.00     1.979 C  
HETATM   17  O   UNL     1     -10.480  15.619  69.888  1.00  0.00    -0.284 OA 
HETATM   18  C   UNL     1     -12.046  14.018  68.657  1.00  0.00    -0.297 C  
HETATM   19  C   UNL     1     -13.993  13.700  70.227  1.00  0.00     2.295 C  
HETATM   20  C   UNL     1     -12.567  13.118  69.887  1.00  0.00     0.056 C  
HETATM   21  H   UNL     1     -10.623  14.963  70.561  1.00  0.00     0.000 HD 
HETATM   22  C   UNL     1     -11.018  13.348  67.629  1.00  0.00    -0.277 C  
HETATM   23  F   UNL     1     -13.254  14.046  67.951  1.00  0.00     1.040 F  
HETATM   24  C   UNL     1     -11.908  12.974  71.261  1.00  0.00     0.762 C  
ENDROOT
BRANCH   4  25
HETATM   25  C   UNL     1      -8.781  16.710  67.140  1.00  0.00    -0.195 C  
HETATM   26  O   UNL     1      -7.656  16.676  67.667  1.00  0.00    -0.146 OA 
BRANCH  25  27
HETATM   27  C   UNL     1      -9.282  18.121  66.843  1.00  0.00    -0.278 C  
BRANCH  27  28
HETATM   28  O   UNL     1      -9.753  18.237  65.489  1.00  0.00    -0.254 OA 
BRANCH  28  29
HETATM   29  C   UNL     1     -11.101  18.358  65.376  1.00  0.00     0.723 C  
HETATM   30  C   UNL     1     -11.777  17.017  65.375  1.00  0.00     1.658 C  
HETATM   31  O   UNL     1     -11.679  19.423  65.278  1.00  0.00     1.002 OA 
ENDBRANCH  28  29
ENDBRANCH  27  28
ENDBRANCH  25  27
ENDBRANCH   4  25
BRANCH   4  32
HETATM   32  O   UNL     1      -8.744  14.853  65.824  1.00  0.00     0.328 OA 
BRANCH  32  33
HETATM   33  C   UNL     1      -8.135  13.644  66.008  1.00  0.00     2.055 C  
HETATM   34  O   UNL     1      -8.713  12.569  66.032  1.00  0.00     0.138 OA 
BRANCH  33  35
HETATM   35  C   UNL     1      -6.647  13.792  66.183  1.00  0.00     4.971 C  
BRANCH  35  36
HETATM   36  C   UNL     1      -5.967  12.450  65.971  1.00  0.00     2.437 C  
HETATM   37  C   UNL     1      -6.889  11.439  65.300  1.00  0.00     1.061 C  
ENDBRANCH  35  36
ENDBRANCH  33  35
ENDBRANCH  32  33
ENDBRANCH   4  32
TORSDOF 8
ENDMDL
MODEL      149
REMARK 921   NORMALIZED FREE ENERGY PREDICTED BY IDOCK:   36.25 KCAL/MOL
REMARK 922        TOTAL FREE ENERGY PREDICTED BY IDOCK:   53.47 KCAL/MOL
REMARK 923 INTER-LIGAND FREE ENERGY PREDICTED BY IDOCK:   45.94 KCAL/MOL
REMARK 924 INTRA-LIGAND FREE ENERGY PREDICTED BY IDOCK:    7.53 KCAL/MOL
REMARK 927      BINDING AFFINITY PREDICTED BY RF-SCORE:    0.00 PKD
ROOT
HETATM    1  C   UNL     1      -6.639  14.363  71.057  1.00  0.00     0.385 C  
HETATM    2  C   UNL     1      -6.660  15.071  72.286  1.00  0.00     1.789 C  
HETATM    3  C   UNL     1      -7.628  13.971  72.071  1.00  0.00     5.756 C  
HETATM    4  C   UNL     1      -7.310  12.753  70.419  1.00  0.00     2.536 C  
HETATM    5  C   UNL     1      -7.313  12.640  71.766  1.00  0.00     8.423 C  
HETATM    6  C   UNL     1     -10.591  18.575  67.706  1.00  0.00    -0.385 C  
HETATM    7  C   UNL     1      -9.877  18.777  69.018  1.00  0.00    -0.351 C  
HETATM    8  C   UNL     1      -9.276  17.603  69.303  1.00  0.00     0.204 C  
HETATM    9  F   UNL     1      -7.325  18.404  68.217  1.00  0.00    -0.238 F  
HETATM   10  C   UNL     1      -9.206  12.556  71.664  1.00  0.00    17.797 C  
HETATM   11  C   UNL     1      -7.988  17.270  68.580  1.00  0.00    -0.261 C  
HETATM   12  C   UNL     1      -6.320  11.842  72.657  1.00  0.00     4.443 C  
HETATM   13  C   UNL     1      -7.090  16.488  69.508  1.00  0.00    -0.091 C  
HETATM   14  O   UNL     1     -10.705  19.481  66.894  1.00  0.00    -0.461 OA 
HETATM   15  C   UNL     1      -9.912  13.752  70.598  1.00  0.00     3.595 C  
HETATM   16  C   UNL     1     -11.209  17.213  67.487  1.00  0.00     0.172 C  
HETATM   17  O   UNL     1     -10.211  13.128  69.348  1.00  0.00    -0.319 OA 
HETATM   18  C   UNL     1      -9.256  15.274  70.356  1.00  0.00     0.891 C  
HETATM   19  C   UNL     1     -11.261  16.766  70.688  1.00  0.00     0.249 C  
HETATM   20  C   UNL     1     -10.172  16.374  69.617  1.00  0.00    -0.198 C  
HETATM   21  H   UNL     1     -10.593  13.777  68.769  1.00  0.00     0.000 HD 
HETATM   22  C   UNL     1      -7.728  15.150  69.895  1.00  0.00     0.041 C  
HETATM   23  F   UNL     1      -9.181  15.927  71.591  1.00  0.00     2.821 F  
HETATM   24  C   UNL     1     -10.991  16.177  68.338  1.00  0.00    -0.341 C  
ENDROOT
BRANCH   4  25
HETATM   25  C   UNL     1      -7.608  11.095  70.197  1.00  0.00     1.047 C  
HETATM   26  O   UNL     1      -6.901  10.165  70.621  1.00  0.00    -0.277 OA 
BRANCH  25  27
HETATM   27  C   UNL     1      -8.769  10.637  69.319  1.00  0.00    -0.077 C  
BRANCH  27  28
HETATM   28  O   UNL     1      -9.229   9.327  69.697  1.00  0.00    -0.156 OA 
BRANCH  28  29
HETATM   29  C   UNL     1     -10.426   8.979  69.157  1.00  0.00    -0.225 C  
HETATM   30  C   UNL     1     -11.323  10.172  68.988  1.00  0.00    -0.188 C  
HETATM   31  O   UNL     1     -10.728   7.839  68.860  1.00  0.00    -0.185 OA 
ENDBRANCH  28  29
ENDBRANCH  27  28
ENDBRANCH  25  27
ENDBRANCH   4  25
BRANCH   4  32
HETATM   32  O   UNL     1      -5.822  12.495  70.023  1.00  0.00    -0.123 OA 
BRANCH  32  33
HETATM   33  C   UNL     1      -5.504  12.138  68.743  1.00  0.00    -0.050 C  
HETATM   34  O   UNL     1      -5.357  12.921  67.817  1.00  0.00    -0.101 OA 
BRANCH  33  35
HETATM   35  C   UNL     1      -5.354  10.647  68.602  1.00  0.00    -0.041 C  
BRANCH  35  36
HETATM   36  C   UNL     1      -6.700  10.023  68.273  1.00  0.00    -0.055 C  
HETATM   37  C   UNL     1      -6.953   9.963  66.772  1.00  0.00    -0.089 C  
ENDBRANCH  35  36
ENDBRANCH  33  35
ENDBRANCH  32  33
ENDBRANCH   4  32
TORSDOF 8
ENDMDL
MODEL      150
REMARK 921   NORMALIZED FREE ENERGY PREDICTED BY IDOCK:   44.56 KCAL/MOL
REMARK 922        TOTAL FREE ENERGY PREDICTED BY IDOCK:   65.66 KCAL/MOL
REMARK 923 INTER-LIGAND FREE ENERGY PREDICTED BY IDOCK:   47.48 KCAL/MOL
REMARK 924 INTRA-LIGAND FREE ENERGY PREDICTED BY IDOCK:   18.18 KCAL/MOL
REMARK 927      BINDING AFFINITY PREDICTED BY RF-SCORE:    0.00 PKD
ROOT
HETATM    1  C   UNL     1      -7.150   9.023  69.317  1.00  0.00    -0.058 C  
HETATM    2  C   UNL     1      -5.752   8.947  69.084  1.00  0.00    -0.036 C  
HETATM    3  C   UNL     1      -6.294   8.470  70.378  1.00  0.00    -0.035 C  
HETATM    4  C   UNL     1      -8.357   8.275  70.512  1.00  0.00    -0.124 C  
HETATM    5  C   UNL     1      -7.267   7.477  70.550  1.00  0.00    -0.064 C  
HETATM    6  C   UNL     1      -7.187  15.315  71.553  1.00  0.00     2.657 C  
HETATM    7  C   UNL     1      -6.106  14.575  70.809  1.00  0.00    -0.148 C  
HETATM    8  C   UNL     1      -6.553  13.310  70.657  1.00  0.00     0.774 C  
HETATM    9  F   UNL     1      -7.449  13.942  68.553  1.00  0.00    -0.097 F  
HETATM   10  C   UNL     1      -7.041   8.025  72.353  1.00  0.00    -0.101 C  
HETATM   11  C   UNL     1      -7.574  13.043  69.570  1.00  0.00     0.703 C  
HETATM   12  C   UNL     1      -7.088   6.077  69.897  1.00  0.00    -0.072 C  
HETATM   13  C   UNL     1      -7.337  11.665  69.000  1.00  0.00    -0.074 C  
HETATM   14  O   UNL     1      -7.410  16.499  71.345  1.00  0.00     4.373 OA 
HETATM   15  C   UNL     1      -7.226   9.748  72.598  1.00  0.00     2.167 C  
HETATM   16  C   UNL     1      -7.927  14.528  72.610  1.00  0.00     6.901 C  
HETATM   17  O   UNL     1      -8.540   9.997  73.101  1.00  0.00     4.222 OA 
HETATM   18  C   UNL     1      -6.807  10.894  71.451  1.00  0.00     2.460 C  
HETATM   19  C   UNL     1      -5.415  12.503  72.804  1.00  0.00     0.852 C  
HETATM   20  C   UNL     1      -6.723  12.431  71.926  1.00  0.00     5.137 C  
HETATM   21  H   UNL     1      -8.641  10.933  73.234  1.00  0.00     0.000 HD 
HETATM   22  C   UNL     1      -7.546  10.584  70.065  1.00  0.00     0.044 C  
HETATM   23  F   UNL     1      -5.450  10.742  71.147  1.00  0.00    -0.093 F  
HETATM   24  C   UNL     1      -7.754  13.190  72.766  1.00  0.00    11.839 C  
ENDROOT
BRANCH   4  25
HETATM   25  C   UNL     1      -9.306   7.159  71.374  1.00  0.00    -0.154 C  
HETATM   26  O   UNL     1      -9.456   5.958  71.090  1.00  0.00    -0.159 OA 
BRANCH  25  27
HETATM   27  C   UNL     1     -10.162   7.626  72.548  1.00  0.00    -0.243 C  
BRANCH  27  28
HETATM   28  O   UNL     1     -11.024   6.575  73.022  1.00  0.00    -0.254 OA 
BRANCH  28  29
HETATM   29  C   UNL     1     -12.256   6.996  73.406  1.00  0.00     1.763 C  
HETATM   30  C   UNL     1     -13.230   5.855  73.483  1.00  0.00     4.185 C  
HETATM   31  O   UNL     1     -12.531   8.156  73.644  1.00  0.00     1.178 OA 
ENDBRANCH  28  29
ENDBRANCH  27  28
ENDBRANCH  25  27
ENDBRANCH   4  25
BRANCH   4  32
HETATM   32  O   UNL     1      -9.100   7.836  69.211  1.00  0.00    -0.145 OA 
BRANCH  32  33
HETATM   33  C   UNL     1      -9.098   8.648  68.112  1.00  0.00    -0.141 C  
HETATM   34  O   UNL     1      -8.421   8.467  67.112  1.00  0.00    -0.120 OA 
BRANCH  33  35
HETATM   35  C   UNL     1     -10.039   9.811  68.278  1.00  0.00    -0.189 C  
BRANCH  35  36
HETATM   36  C   UNL     1      -9.701  10.570  69.551  1.00  0.00    -0.147 C  
HETATM   37  C   UNL     1      -9.004  11.894  69.262  1.00  0.00     0.680 C  
ENDBRANCH  35  36
ENDBRANCH  33  35
ENDBRANCH  32  33
ENDBRANCH   4  32
TORSDOF 8
ENDMDL
MODEL      151
REMARK 921   NORMALIZED FREE ENERGY PREDICTED BY IDOCK:   48.68 KCAL/MOL
REMARK 922        TOTAL FREE ENERGY PREDICTED BY IDOCK:   71.70 KCAL/MOL
REMARK 923 INTER-LIGAND FREE ENERGY PREDICTED BY IDOCK:   49.27 KCAL/MOL
REMARK 924 INTRA-LIGAND FREE ENERGY PREDICTED BY IDOCK:   22.43 KCAL/MOL
REMARK 927      BINDING AFFINITY PREDICTED BY RF-SCORE:    0.00 PKD
ROOT
HETATM    1  C   UNL     1      -7.582  11.842  69.471  1.00  0.00     0.414 C  
HETATM    2  C   UNL     1      -6.823  11.750  70.666  1.00  0.00     1.640 C  
HETATM    3  C   UNL     1      -8.172  11.140  70.620  1.00  0.00     3.618 C  
HETATM    4  C   UNL     1      -9.070  10.996  68.753  1.00  0.00    -0.157 C  
HETATM    5  C   UNL     1      -8.608  10.165  69.713  1.00  0.00    -0.148 C  
HETATM    6  C   UNL     1     -10.263  17.822  70.754  1.00  0.00     2.487 C  
HETATM    7  C   UNL     1      -9.092  17.141  71.414  1.00  0.00     8.221 C  
HETATM    8  C   UNL     1      -9.001  15.918  70.850  1.00  0.00     2.951 C  
HETATM    9  F   UNL     1      -7.476  16.823  69.274  1.00  0.00    -0.233 F  
HETATM   10  C   UNL     1     -10.229  10.487  70.646  1.00  0.00     0.756 C  
HETATM   11  C   UNL     1      -8.370  15.815  69.477  1.00  0.00    -0.135 C  
HETATM   12  C   UNL     1      -7.803   8.848  69.526  1.00  0.00    -0.094 C  
HETATM   13  C   UNL     1      -7.621  14.508  69.376  1.00  0.00    -0.033 C  
HETATM   14  O   UNL     1     -10.273  19.028  70.558  1.00  0.00     1.014 OA 
HETATM   15  C   UNL     1     -10.694  12.174  70.697  1.00  0.00     2.910 C  
HETATM   16  C   UNL     1     -11.441  16.938  70.413  1.00  0.00     0.664 C  
HETATM   17  O   UNL     1     -11.686  12.403  69.694  1.00  0.00    -0.300 OA 
HETATM   18  C   UNL     1      -9.592  13.434  70.735  1.00  0.00     6.298 C  
HETATM   19  C   UNL     1     -10.455  14.826  72.652  1.00  0.00     3.048 C  
HETATM   20  C   UNL     1     -10.145  14.901  71.107  1.00  0.00     1.407 C  
HETATM   21  H   UNL     1     -11.937  13.319  69.721  1.00  0.00     0.000 HD 
HETATM   22  C   UNL     1      -8.573  13.315  69.505  1.00  0.00     1.383 C  
HETATM   23  F   UNL     1      -8.775  13.276  71.861  1.00  0.00    10.344 F  
HETATM   24  C   UNL     1     -11.387  15.586  70.531  1.00  0.00    -0.372 C  
ENDROOT
BRANCH   4  25
HETATM   25  C   UNL     1     -10.118   9.816  68.121  1.00  0.00    -0.165 C  
HETATM   26  O   UNL     1      -9.774   8.737  67.607  1.00  0.00    -0.156 OA 
BRANCH  25  27
HETATM   27  C   UNL     1     -11.618  10.084  68.046  1.00  0.00     0.446 C  
BRANCH  27  28
HETATM   28  O   UNL     1     -12.302   9.573  69.204  1.00  0.00     1.061 OA 
BRANCH  28  29
HETATM   29  C   UNL     1     -13.183  10.444  69.761  1.00  0.00     0.843 C  
HETATM   30  C   UNL     1     -14.396   9.738  70.294  1.00  0.00     1.741 C  
HETATM   31  O   UNL     1     -13.007  11.647  69.807  1.00  0.00     0.323 OA 
ENDBRANCH  28  29
ENDBRANCH  27  28
ENDBRANCH  25  27
ENDBRANCH   4  25
BRANCH   4  32
HETATM   32  O   UNL     1      -8.119  10.739  67.543  1.00  0.00    -0.110 OA 
BRANCH  32  33
HETATM   33  C   UNL     1      -6.786  10.518  67.751  1.00  0.00    -0.073 C  
HETATM   34  O   UNL     1      -6.068  11.210  68.456  1.00  0.00    -0.043 OA 
BRANCH  33  35
HETATM   35  C   UNL     1      -6.298   9.309  67.000  1.00  0.00    -0.066 C  
BRANCH  35  36
HETATM   36  C   UNL     1      -7.443   8.329  66.800  1.00  0.00    -0.087 C  
HETATM   37  C   UNL     1      -7.913   7.720  68.116  1.00  0.00    -0.122 C  
ENDBRANCH  35  36
ENDBRANCH  33  35
ENDBRANCH  32  33
ENDBRANCH   4  32
TORSDOF 8
ENDMDL
MODEL      152
REMARK 921   NORMALIZED FREE ENERGY PREDICTED BY IDOCK:   54.41 KCAL/MOL
REMARK 922        TOTAL FREE ENERGY PREDICTED BY IDOCK:   80.12 KCAL/MOL
REMARK 923 INTER-LIGAND FREE ENERGY PREDICTED BY IDOCK:   36.51 KCAL/MOL
REMARK 924 INTRA-LIGAND FREE ENERGY PREDICTED BY IDOCK:   43.60 KCAL/MOL
REMARK 927      BINDING AFFINITY PREDICTED BY RF-SCORE:    0.00 PKD
ROOT
HETATM    1  C   UNL     1      -7.804  16.023  69.563  1.00  0.00    -0.065 C  
HETATM    2  C   UNL     1      -7.735  15.421  68.280  1.00  0.00    -0.115 C  
HETATM    3  C   UNL     1      -8.552  16.643  68.460  1.00  0.00    -0.234 C  
HETATM    4  C   UNL     1      -8.323  17.666  70.253  1.00  0.00     3.126 C  
HETATM    5  C   UNL     1      -8.096  17.879  68.938  1.00  0.00    -0.161 C  
HETATM    6  C   UNL     1     -12.812  12.261  71.877  1.00  0.00    -0.213 C  
HETATM    7  C   UNL     1     -11.939  12.046  70.669  1.00  0.00    -0.257 C  
HETATM    8  C   UNL     1     -11.134  13.126  70.590  1.00  0.00     1.534 C  
HETATM    9  F   UNL     1      -9.518  11.943  71.862  1.00  0.00    11.075 F  
HETATM   10  C   UNL     1      -9.949  18.259  68.774  1.00  0.00    -0.391 C  
HETATM   11  C   UNL     1      -9.941  13.193  71.521  1.00  0.00    10.483 C  
HETATM   12  C   UNL     1      -6.869  18.572  68.282  1.00  0.00    -0.245 C  
HETATM   13  C   UNL     1      -8.802  13.887  70.813  1.00  0.00     4.864 C  
HETATM   14  O   UNL     1     -13.186  11.326  72.570  1.00  0.00    -0.062 OA 
HETATM   15  C   UNL     1     -10.982  17.115  69.603  1.00  0.00     0.292 C  
HETATM   16  C   UNL     1     -13.250  13.684  72.138  1.00  0.00    -0.541 C  
HETATM   17  O   UNL     1     -11.379  17.683  70.853  1.00  0.00     0.887 OA 
HETATM   18  C   UNL     1     -10.605  15.494  69.786  1.00  0.00    -0.295 C  
HETATM   19  C   UNL     1     -12.730  14.372  69.023  1.00  0.00     0.500 C  
HETATM   20  C   UNL     1     -11.778  14.503  70.273  1.00  0.00    -0.356 C  
HETATM   21  H   UNL     1     -11.940  17.062  71.303  1.00  0.00     0.000 HD 
HETATM   22  C   UNL     1      -9.166  15.336  70.472  1.00  0.00     1.117 C  
HETATM   23  F   UNL     1     -10.432  14.932  68.516  1.00  0.00    -0.222 F  
HETATM   24  C   UNL     1     -12.749  14.733  71.434  1.00  0.00    -0.401 C  
ENDROOT
BRANCH   4  25
HETATM   25  C   UNL     1      -8.405  19.330  70.592  1.00  0.00     2.525 C  
HETATM   26  O   UNL     1      -8.895  19.841  71.614  1.00  0.00     2.412 OA 
BRANCH  25  27
HETATM   27  C   UNL     1      -7.955  20.347  69.548  1.00  0.00     0.899 C  
BRANCH  27  28
HETATM   28  O   UNL     1      -6.659  20.016  69.015  1.00  0.00    -0.307 OA 
BRANCH  28  29
HETATM   29  C   UNL     1      -6.565  20.135  67.666  1.00  0.00    -0.236 C  
HETATM   30  C   UNL     1      -5.256  20.747  67.256  1.00  0.00    -0.220 C  
HETATM   31  O   UNL     1      -7.441  19.796  66.894  1.00  0.00    -0.227 OA 
ENDBRANCH  28  29
ENDBRANCH  27  28
ENDBRANCH  25  27
ENDBRANCH   4  25
BRANCH   4  32
HETATM   32  O   UNL     1      -6.894  17.652  70.883  1.00  0.00     2.040 OA 
BRANCH  32  33
HETATM   33  C   UNL     1      -6.014  18.661  70.611  1.00  0.00     0.086 C  
HETATM   34  O   UNL     1      -5.907  19.687  71.264  1.00  0.00    -0.232 OA 
BRANCH  33  35
HETATM   35  C   UNL     1      -5.179  18.359  69.396  1.00  0.00    -0.197 C  
BRANCH  35  36
HETATM   36  C   UNL     1      -6.077  17.939  68.244  1.00  0.00    -0.177 C  
HETATM   37  C   UNL     1      -5.451  16.837  67.400  1.00  0.00    -0.174 C  
ENDBRANCH  35  36
ENDBRANCH  33  35
ENDBRANCH  32  33
ENDBRANCH   4  32
TORSDOF 8
ENDMDL
