MODEL        1
REMARK 921   NORMALIZED FREE ENERGY PREDICTED BY IDOCK:   -8.48 KCAL/MOL
REMARK 922        TOTAL FREE ENERGY PREDICTED BY IDOCK:   -8.76 KCAL/MOL
REMARK 923 INTER-LIGAND FREE ENERGY PREDICTED BY IDOCK:   -9.47 KCAL/MOL
REMARK 924 INTRA-LIGAND FREE ENERGY PREDICTED BY IDOCK:    0.71 KCAL/MOL
REMARK 927      BINDING AFFINITY PREDICTED BY RF-SCORE:    0.00 PKD
ROOT
HETATM    1  C   UNL     1     -11.086  12.992  67.709  1.00  0.00    -0.291 C  
HETATM    2  C   UNL     1      -9.994  13.530  68.424  1.00  0.00    -0.232 C  
HETATM    3  C   UNL     1      -9.525  12.629  67.300  1.00  0.00    -0.199 C  
HETATM    4  C   UNL     1     -10.973  12.032  65.957  1.00  0.00    -0.304 C  
HETATM    5  C   UNL     1      -7.931  13.175  67.224  1.00  0.00    -0.140 C  
HETATM    6  O   UNL     1     -12.358  12.562  66.009  1.00  0.00    -0.615 OA 
HETATM    7  C   UNL     1      -8.631   8.890  69.788  1.00  0.00    -0.134 C  
HETATM    8  C   UNL     1     -10.066  13.026  66.055  1.00  0.00    -0.286 C  
HETATM    9  C   UNL     1      -9.174  11.337  65.663  1.00  0.00    -0.231 C  
HETATM   10  C   UNL     1     -10.062  14.400  65.374  1.00  0.00    -0.388 C  
HETATM   11  C   UNL     1     -10.168   9.106  69.454  1.00  0.00    -0.212 C  
HETATM   12  C   UNL     1     -10.660   7.697  69.169  1.00  0.00    -0.195 C  
HETATM   13  H   UNL     1     -13.024  12.287  65.391  1.00  0.00     0.000 HD 
HETATM   14  C   UNL     1      -9.576  10.025  66.848  1.00  0.00    -0.175 C  
HETATM   15  C   UNL     1     -11.151   6.924  70.168  1.00  0.00    -0.344 C  
HETATM   16  O   UNL     1     -11.869   6.794  72.450  1.00  0.00    -0.259 OA 
HETATM   17  O   UNL     1     -10.435   9.089  66.181  1.00  0.00    -0.237 OA 
HETATM   18  C   UNL     1     -10.191  10.334  68.440  1.00  0.00    -0.167 C  
HETATM   19  H   UNL     1     -10.646   8.401  66.801  1.00  0.00     0.000 HD 
HETATM   20  C   UNL     1     -11.448  11.361  68.374  1.00  0.00    -0.367 C  
HETATM   21  F   UNL     1      -9.257  11.088  69.194  1.00  0.00    -0.180 F  
HETATM   22  C   UNL     1     -12.078  11.549  69.763  1.00  0.00    -0.374 C  
HETATM   23  C   UNL     1     -12.261  10.229  70.485  1.00  0.00    -0.301 C  
HETATM   24  F   UNL     1     -12.899  10.472  71.655  1.00  0.00    -0.436 F  
HETATM   25  C   UNL     1     -10.923   9.554  70.737  1.00  0.00    -0.389 C  
HETATM   26  C   UNL     1     -10.756   8.819  71.853  1.00  0.00    -0.429 C  
HETATM   27  C   UNL     1     -11.333   7.455  71.568  1.00  0.00    -0.256 C  
ENDROOT
BRANCH   4  28
HETATM   28  C   UNL     1     -11.066  12.089  64.233  1.00  0.00    -0.351 C  
HETATM   29  O   UNL     1     -10.132  11.901  63.436  1.00  0.00    -0.410 OA 
BRANCH  28  30
HETATM   30  C   UNL     1     -12.436  12.331  63.590  1.00  0.00    -0.541 C  
HETATM   31  O   UNL     1     -12.518  13.692  63.165  1.00  0.00    -1.033 OA 
HETATM   32  H   UNL     1     -13.368  13.842  62.766  1.00  0.00     0.000 HD 
ENDBRANCH  28  30
ENDBRANCH   4  28
TORSDOF 2
ENDMDL
MODEL        2
REMARK 921   NORMALIZED FREE ENERGY PREDICTED BY IDOCK:   -7.95 KCAL/MOL
REMARK 922        TOTAL FREE ENERGY PREDICTED BY IDOCK:   -8.17 KCAL/MOL
REMARK 923 INTER-LIGAND FREE ENERGY PREDICTED BY IDOCK:   -9.07 KCAL/MOL
REMARK 924 INTRA-LIGAND FREE ENERGY PREDICTED BY IDOCK:    0.90 KCAL/MOL
REMARK 927      BINDING AFFINITY PREDICTED BY RF-SCORE:    0.00 PKD
ROOT
HETATM    1  C   UNL     1      -9.294  13.562  67.067  1.00  0.00    -0.247 C  
HETATM    2  C   UNL     1      -9.654  13.519  68.432  1.00  0.00    -0.196 C  
HETATM    3  C   UNL     1     -10.774  14.088  67.586  1.00  0.00    -0.261 C  
HETATM    4  C   UNL     1     -10.542  13.912  65.543  1.00  0.00    -0.311 C  
HETATM    5  C   UNL     1     -12.023  13.887  68.700  1.00  0.00    -0.401 C  
HETATM    6  O   UNL     1      -9.417  13.154  64.943  1.00  0.00    -0.385 OA 
HETATM    7  C   UNL     1     -10.064  18.527  68.460  1.00  0.00    -0.414 C  
HETATM    8  C   UNL     1     -11.130  13.211  66.535  1.00  0.00    -0.317 C  
HETATM    9  C   UNL     1     -12.149  14.831  66.160  1.00  0.00    -0.100 C  
HETATM   10  C   UNL     1     -11.499  11.723  66.577  1.00  0.00    -0.325 C  
HETATM   11  C   UNL     1      -9.082  17.904  67.379  1.00  0.00    -0.245 C  
HETATM   12  C   UNL     1      -8.954  19.015  66.350  1.00  0.00    -0.331 C  
HETATM   13  H   UNL     1      -9.310  13.073  64.003  1.00  0.00     0.000 HD 
HETATM   14  C   UNL     1     -11.150  16.341  66.253  1.00  0.00     0.137 C  
HETATM   15  C   UNL     1      -7.978  19.948  66.463  1.00  0.00    -0.346 C  
HETATM   16  O   UNL     1      -5.980  20.652  67.584  1.00  0.00    -0.214 OA 
HETATM   17  O   UNL     1     -10.958  16.816  64.914  1.00  0.00    -0.659 OA 
HETATM   18  C   UNL     1      -9.649  16.438  67.118  1.00  0.00    -0.235 C  
HETATM   19  H   UNL     1     -10.435  17.607  64.962  1.00  0.00     0.000 HD 
HETATM   20  C   UNL     1      -8.672  15.209  66.700  1.00  0.00    -0.308 C  
HETATM   21  F   UNL     1      -9.851  16.176  68.495  1.00  0.00    -0.208 F  
HETATM   22  C   UNL     1      -7.294  15.351  67.365  1.00  0.00    -0.244 C  
HETATM   23  C   UNL     1      -6.760  16.765  67.264  1.00  0.00    -0.175 C  
HETATM   24  F   UNL     1      -5.512  16.785  67.792  1.00  0.00    -0.101 F  
HETATM   25  C   UNL     1      -7.662  17.745  67.994  1.00  0.00    -0.238 C  
HETATM   26  C   UNL     1      -7.118  18.817  68.601  1.00  0.00    -0.321 C  
HETATM   27  C   UNL     1      -6.922  19.868  67.537  1.00  0.00    -0.238 C  
ENDROOT
BRANCH   4  28
HETATM   28  C   UNL     1     -11.564  13.288  64.297  1.00  0.00    -0.400 C  
HETATM   29  O   UNL     1     -12.731  13.638  64.055  1.00  0.00    -0.666 OA 
BRANCH  28  30
HETATM   30  C   UNL     1     -10.982  12.242  63.340  1.00  0.00    -0.405 C  
HETATM   31  O   UNL     1     -12.040  11.421  62.846  1.00  0.00    -0.919 OA 
HETATM   32  H   UNL     1     -11.679  10.773  62.252  1.00  0.00     0.000 HD 
ENDBRANCH  28  30
ENDBRANCH   4  28
TORSDOF 2
ENDMDL
MODEL        3
REMARK 921   NORMALIZED FREE ENERGY PREDICTED BY IDOCK:   -7.77 KCAL/MOL
REMARK 922        TOTAL FREE ENERGY PREDICTED BY IDOCK:   -7.97 KCAL/MOL
REMARK 923 INTER-LIGAND FREE ENERGY PREDICTED BY IDOCK:   -8.58 KCAL/MOL
REMARK 924 INTRA-LIGAND FREE ENERGY PREDICTED BY IDOCK:    0.61 KCAL/MOL
REMARK 927      BINDING AFFINITY PREDICTED BY RF-SCORE:    0.00 PKD
ROOT
HETATM    1  C   UNL     1     -11.304  14.784  66.314  1.00  0.00    -0.334 C  
HETATM    2  C   UNL     1     -10.599  14.373  65.162  1.00  0.00    -0.429 C  
HETATM    3  C   UNL     1      -9.985  13.791  66.420  1.00  0.00    -0.301 C  
HETATM    4  C   UNL     1     -11.085  14.020  68.150  1.00  0.00    -0.260 C  
HETATM    5  C   UNL     1      -9.090  12.564  65.688  1.00  0.00     0.309 C  
HETATM    6  O   UNL     1     -12.453  14.594  68.141  1.00  0.00    -0.587 OA 
HETATM    7  C   UNL     1      -6.497  16.726  66.862  1.00  0.00    -0.243 C  
HETATM    8  C   UNL     1     -10.941  13.086  67.187  1.00  0.00    -0.293 C  
HETATM    9  C   UNL     1      -9.360  13.127  68.328  1.00  0.00    -0.201 C  
HETATM   10  C   UNL     1     -11.908  11.972  66.771  1.00  0.00    -0.244 C  
HETATM   11  C   UNL     1      -7.894  17.282  67.372  1.00  0.00    -0.198 C  
HETATM   12  C   UNL     1      -7.520  18.053  68.627  1.00  0.00    -0.291 C  
HETATM   13  H   UNL     1     -12.959  14.699  68.938  1.00  0.00     0.000 HD 
HETATM   14  C   UNL     1      -8.613  14.774  68.456  1.00  0.00    -0.168 C  
HETATM   15  C   UNL     1      -7.203  19.369  68.557  1.00  0.00    -0.356 C  
HETATM   16  O   UNL     1      -7.121  21.356  67.221  1.00  0.00    -0.565 OA 
HETATM   17  O   UNL     1      -8.893  15.275  69.770  1.00  0.00    -0.403 OA 
HETATM   18  C   UNL     1      -8.878  16.033  67.292  1.00  0.00    -0.190 C  
HETATM   19  H   UNL     1      -8.502  16.137  69.837  1.00  0.00     0.000 HD 
HETATM   20  C   UNL     1     -10.467  16.217  67.007  1.00  0.00    -0.306 C  
HETATM   21  F   UNL     1      -8.412  15.635  66.015  1.00  0.00    -0.325 F  
HETATM   22  C   UNL     1     -10.723  17.409  66.072  1.00  0.00    -0.122 C  
HETATM   23  C   UNL     1      -9.916  18.627  66.473  1.00  0.00    -0.380 C  
HETATM   24  F   UNL     1     -10.264  19.652  65.658  1.00  0.00    -0.462 F  
HETATM   25  C   UNL     1      -8.425  18.351  66.375  1.00  0.00    -0.264 C  
HETATM   26  C   UNL     1      -7.591  19.348  66.020  1.00  0.00    -0.308 C  
HETATM   27  C   UNL     1      -7.310  20.146  67.269  1.00  0.00    -0.276 C  
ENDROOT
BRANCH   4  28
HETATM   28  C   UNL     1     -11.614  12.903  69.359  1.00  0.00    -0.302 C  
HETATM   29  O   UNL     1     -11.541  11.665  69.301  1.00  0.00    -0.265 OA 
BRANCH  28  30
HETATM   30  C   UNL     1     -12.175  13.466  70.669  1.00  0.00    -0.350 C  
HETATM   31  O   UNL     1     -11.462  14.656  71.008  1.00  0.00    -0.469 OA 
HETATM   32  H   UNL     1     -11.810  15.006  71.820  1.00  0.00     0.000 HD 
ENDBRANCH  28  30
ENDBRANCH   4  28
TORSDOF 2
ENDMDL
MODEL        4
REMARK 921   NORMALIZED FREE ENERGY PREDICTED BY IDOCK:   -7.52 KCAL/MOL
REMARK 922        TOTAL FREE ENERGY PREDICTED BY IDOCK:   -7.69 KCAL/MOL
REMARK 923 INTER-LIGAND FREE ENERGY PREDICTED BY IDOCK:   -8.38 KCAL/MOL
REMARK 924 INTRA-LIGAND FREE ENERGY PREDICTED BY IDOCK:    0.69 KCAL/MOL
REMARK 927      BINDING AFFINITY PREDICTED BY RF-SCORE:    0.00 PKD
ROOT
HETATM    1  C   UNL     1      -9.109  13.275  67.024  1.00  0.00    -0.232 C  
HETATM    2  C   UNL     1      -9.249  13.159  68.424  1.00  0.00    -0.141 C  
HETATM    3  C   UNL     1     -10.552  13.579  67.774  1.00  0.00    -0.252 C  
HETATM    4  C   UNL     1     -10.610  13.469  65.715  1.00  0.00    -0.283 C  
HETATM    5  C   UNL     1     -11.578  13.187  69.053  1.00  0.00    -0.360 C  
HETATM    6  O   UNL     1      -9.495  12.886  64.928  1.00  0.00    -0.418 OA 
HETATM    7  C   UNL     1     -10.330  18.059  68.696  1.00  0.00    -0.328 C  
HETATM    8  C   UNL     1     -10.939  12.677  66.756  1.00  0.00    -0.296 C  
HETATM    9  C   UNL     1     -12.215  14.143  66.596  1.00  0.00    -0.450 C  
HETATM   10  C   UNL     1     -11.091  11.152  66.798  1.00  0.00    -0.280 C  
HETATM   11  C   UNL     1      -9.448  17.597  67.460  1.00  0.00    -0.256 C  
HETATM   12  C   UNL     1      -9.630  18.731  66.464  1.00  0.00    -0.369 C  
HETATM   13  H   UNL     1      -9.522  12.836  63.980  1.00  0.00     0.000 HD 
HETATM   14  C   UNL     1     -11.429  15.777  66.596  1.00  0.00     0.225 C  
HETATM   15  C   UNL     1      -8.785  19.790  66.466  1.00  0.00    -0.408 C  
HETATM   16  O   UNL     1      -6.756  20.751  67.304  1.00  0.00    -0.278 OA 
HETATM   17  O   UNL     1     -11.509  16.295  65.261  1.00  0.00     0.056 OA 
HETATM   18  C   UNL     1      -9.842  16.071  67.231  1.00  0.00    -0.236 C  
HETATM   19  H   UNL     1     -11.098  17.151  65.260  1.00  0.00     0.000 HD 
HETATM   20  C   UNL     1      -8.781  14.998  66.629  1.00  0.00    -0.289 C  
HETATM   21  F   UNL     1      -9.795  15.761  68.613  1.00  0.00    -0.194 F  
HETATM   22  C   UNL     1      -7.351  15.322  67.088  1.00  0.00    -0.178 C  
HETATM   23  C   UNL     1      -7.036  16.798  66.961  1.00  0.00    -0.203 C  
HETATM   24  F   UNL     1      -5.737  16.985  67.299  1.00  0.00    -0.120 F  
HETATM   25  C   UNL     1      -7.943  17.631  67.851  1.00  0.00    -0.231 C  
HETATM   26  C   UNL     1      -7.465  18.759  68.410  1.00  0.00    -0.325 C  
HETATM   27  C   UNL     1      -7.578  19.843  67.369  1.00  0.00    -0.273 C  
ENDROOT
BRANCH   4  28
HETATM   28  C   UNL     1     -11.714  12.727  64.612  1.00  0.00    -0.355 C  
HETATM   29  O   UNL     1     -12.916  12.495  64.816  1.00  0.00    -0.827 OA 
BRANCH  28  30
HETATM   30  C   UNL     1     -11.204  12.365  63.212  1.00  0.00    -0.309 C  
HETATM   31  O   UNL     1     -10.823  10.989  63.196  1.00  0.00    -0.772 OA 
HETATM   32  H   UNL     1     -10.508  10.764  62.328  1.00  0.00     0.000 HD 
ENDBRANCH  28  30
ENDBRANCH   4  28
TORSDOF 2
ENDMDL
MODEL        5
REMARK 921   NORMALIZED FREE ENERGY PREDICTED BY IDOCK:   -7.49 KCAL/MOL
REMARK 922        TOTAL FREE ENERGY PREDICTED BY IDOCK:   -7.66 KCAL/MOL
REMARK 923 INTER-LIGAND FREE ENERGY PREDICTED BY IDOCK:   -8.69 KCAL/MOL
REMARK 924 INTRA-LIGAND FREE ENERGY PREDICTED BY IDOCK:    1.04 KCAL/MOL
REMARK 927      BINDING AFFINITY PREDICTED BY RF-SCORE:    0.00 PKD
ROOT
HETATM    1  C   UNL     1     -11.386  14.174  68.030  1.00  0.00    -0.324 C  
HETATM    2  C   UNL     1     -10.233  14.655  68.687  1.00  0.00    -0.244 C  
HETATM    3  C   UNL     1      -9.896  14.113  67.313  1.00  0.00    -0.238 C  
HETATM    4  C   UNL     1     -11.504  13.680  66.095  1.00  0.00    -0.325 C  
HETATM    5  C   UNL     1      -8.391  14.851  67.141  1.00  0.00    -0.247 C  
HETATM    6  O   UNL     1     -12.897  14.008  66.487  1.00  0.00    -0.456 OA 
HETATM    7  C   UNL     1      -8.278  10.027  68.601  1.00  0.00    -0.111 C  
HETATM    8  C   UNL     1     -10.678  14.725  66.306  1.00  0.00    -0.313 C  
HETATM    9  C   UNL     1      -9.734  13.300  65.367  1.00  0.00    -0.030 C  
HETATM   10  C   UNL     1     -10.906  16.211  66.005  1.00  0.00    -0.155 C  
HETATM   11  C   UNL     1      -9.862  10.126  68.567  1.00  0.00    -0.165 C  
HETATM   12  C   UNL     1     -10.280   8.776  68.009  1.00  0.00    -0.264 C  
HETATM   13  H   UNL     1     -13.637  13.808  65.926  1.00  0.00     0.000 HD 
HETATM   14  C   UNL     1      -9.814  11.704  66.224  1.00  0.00    -0.219 C  
HETATM   15  C   UNL     1     -10.524   7.734  68.840  1.00  0.00    -0.208 C  
HETATM   16  O   UNL     1     -10.816   6.977  71.094  1.00  0.00    -0.232 OA 
HETATM   17  O   UNL     1     -10.698  10.856  65.477  1.00  0.00    -0.211 OA 
HETATM   18  C   UNL     1     -10.163  11.548  67.916  1.00  0.00    -0.184 C  
HETATM   19  H   UNL     1     -10.740  10.020  65.926  1.00  0.00     0.000 HD 
HETATM   20  C   UNL     1     -11.491  12.399  68.304  1.00  0.00    -0.360 C  
HETATM   21  F   UNL     1      -9.176  12.209  68.689  1.00  0.00    -0.185 F  
HETATM   22  C   UNL     1     -11.881  12.172  69.772  1.00  0.00    -0.397 C  
HETATM   23  C   UNL     1     -11.826  10.707  70.152  1.00  0.00    -0.337 C  
HETATM   24  F   UNL     1     -12.266  10.583  71.428  1.00  0.00    -0.406 F  
HETATM   25  C   UNL     1     -10.415  10.159  70.021  1.00  0.00    -0.325 C  
HETATM   26  C   UNL     1      -9.994   9.206  70.874  1.00  0.00    -0.357 C  
HETATM   27  C   UNL     1     -10.499   7.890  70.340  1.00  0.00    -0.218 C  
ENDROOT
BRANCH   4  28
HETATM   28  C   UNL     1     -11.903  14.134  64.476  1.00  0.00    -0.436 C  
HETATM   29  O   UNL     1     -12.002  15.291  64.037  1.00  0.00    -0.484 OA 
BRANCH  28  30
HETATM   30  C   UNL     1     -12.099  13.021  63.440  1.00  0.00    -0.515 C  
HETATM   31  O   UNL     1     -13.071  12.096  63.927  1.00  0.00    -0.749 OA 
HETATM   32  H   UNL     1     -13.193  11.406  63.284  1.00  0.00     0.000 HD 
ENDBRANCH  28  30
ENDBRANCH   4  28
TORSDOF 2
ENDMDL
MODEL        6
REMARK 921   NORMALIZED FREE ENERGY PREDICTED BY IDOCK:   -7.35 KCAL/MOL
REMARK 922        TOTAL FREE ENERGY PREDICTED BY IDOCK:   -7.50 KCAL/MOL
REMARK 923 INTER-LIGAND FREE ENERGY PREDICTED BY IDOCK:   -8.21 KCAL/MOL
REMARK 924 INTRA-LIGAND FREE ENERGY PREDICTED BY IDOCK:    0.71 KCAL/MOL
REMARK 927      BINDING AFFINITY PREDICTED BY RF-SCORE:    0.00 PKD
ROOT
HETATM    1  C   UNL     1      -9.502  18.536  66.171  1.00  0.00    -0.175 C  
HETATM    2  C   UNL     1     -10.632  19.059  66.835  1.00  0.00    -0.518 C  
HETATM    3  C   UNL     1      -9.485  18.831  67.798  1.00  0.00    -0.333 C  
HETATM    4  C   UNL     1      -7.661  18.388  66.941  1.00  0.00    -0.224 C  
HETATM    5  C   UNL     1     -10.046  19.807  69.053  1.00  0.00    -0.427 C  
HETATM    6  O   UNL     1      -7.454  18.426  65.472  1.00  0.00    -0.528 OA 
HETATM    7  C   UNL     1     -10.917  14.871  69.598  1.00  0.00    -0.294 C  
HETATM    8  C   UNL     1      -8.309  19.490  67.371  1.00  0.00    -0.330 C  
HETATM    9  C   UNL     1      -7.721  18.418  68.891  1.00  0.00    -0.233 C  
HETATM   10  C   UNL     1      -8.092  20.955  66.972  1.00  0.00    -0.121 C  
HETATM   11  C   UNL     1     -10.223  14.735  68.177  1.00  0.00    -0.228 C  
HETATM   12  C   UNL     1      -9.406  13.461  68.314  1.00  0.00    -0.205 C  
HETATM   13  H   UNL     1      -6.614  18.222  65.078  1.00  0.00     0.000 HD 
HETATM   14  C   UNL     1      -8.296  16.700  68.818  1.00  0.00    -0.252 C  
HETATM   15  C   UNL     1      -9.943  12.261  67.987  1.00  0.00    -0.202 C  
HETATM   16  O   UNL     1     -11.769  11.072  66.989  1.00  0.00    -0.399 OA 
HETATM   17  O   UNL     1      -7.162  15.878  68.507  1.00  0.00    -0.121 OA 
HETATM   18  C   UNL     1      -9.654  16.189  67.865  1.00  0.00    -0.223 C  
HETATM   19  H   UNL     1      -7.463  14.978  68.469  1.00  0.00     0.000 HD 
HETATM   20  C   UNL     1      -9.523  16.746  66.345  1.00  0.00    -0.307 C  
HETATM   21  F   UNL     1     -10.835  16.840  68.298  1.00  0.00    -0.318 F  
HETATM   22  C   UNL     1     -10.654  16.200  65.460  1.00  0.00    -0.394 C  
HETATM   23  C   UNL     1     -10.871  14.716  65.670  1.00  0.00    -0.331 C  
HETATM   24  F   UNL     1     -11.818  14.298  64.795  1.00  0.00    -0.351 F  
HETATM   25  C   UNL     1     -11.298  14.421  67.098  1.00  0.00    -0.356 C  
HETATM   26  C   UNL     1     -12.147  13.403  67.336  1.00  0.00    -0.338 C  
HETATM   27  C   UNL     1     -11.318  12.144  67.378  1.00  0.00    -0.326 C  
ENDROOT
BRANCH   4  28
HETATM   28  C   UNL     1      -6.081  19.063  67.133  1.00  0.00    -0.174 C  
HETATM   29  O   UNL     1      -5.574  19.463  68.193  1.00  0.00    -0.196 OA 
BRANCH  28  30
HETATM   30  C   UNL     1      -5.168  19.128  65.904  1.00  0.00    -0.147 C  
HETATM   31  O   UNL     1      -5.148  20.468  65.409  1.00  0.00    -0.163 OA 
HETATM   32  H   UNL     1      -4.582  20.509  64.647  1.00  0.00     0.000 HD 
ENDBRANCH  28  30
ENDBRANCH   4  28
TORSDOF 2
ENDMDL
MODEL        7
REMARK 921   NORMALIZED FREE ENERGY PREDICTED BY IDOCK:   -7.33 KCAL/MOL
REMARK 922        TOTAL FREE ENERGY PREDICTED BY IDOCK:   -7.48 KCAL/MOL
REMARK 923 INTER-LIGAND FREE ENERGY PREDICTED BY IDOCK:   -8.42 KCAL/MOL
REMARK 924 INTRA-LIGAND FREE ENERGY PREDICTED BY IDOCK:    0.95 KCAL/MOL
REMARK 927      BINDING AFFINITY PREDICTED BY RF-SCORE:    0.00 PKD
ROOT
HETATM    1  C   UNL     1      -9.078   8.834  67.214  1.00  0.00    -0.151 C  
HETATM    2  C   UNL     1      -7.832   9.490  67.318  1.00  0.00    -0.098 C  
HETATM    3  C   UNL     1      -8.687   9.737  68.544  1.00  0.00    -0.120 C  
HETATM    4  C   UNL     1     -10.393   8.587  68.702  1.00  0.00    -0.198 C  
HETATM    5  C   UNL     1      -7.459  10.258  69.574  1.00  0.00    -0.142 C  
HETATM    6  O   UNL     1     -10.692   7.492  67.748  1.00  0.00    -0.374 OA 
HETATM    7  C   UNL     1     -10.200  13.920  67.453  1.00  0.00    -0.252 C  
HETATM    8  C   UNL     1      -9.116   8.525  69.132  1.00  0.00    -0.146 C  
HETATM    9  C   UNL     1     -10.091   9.896  70.117  1.00  0.00    -0.309 C  
HETATM   10  C   UNL     1      -8.302   7.299  69.564  1.00  0.00    -0.133 C  
HETATM   11  C   UNL     1     -10.960  12.734  66.722  1.00  0.00    -0.301 C  
HETATM   12  C   UNL     1     -12.408  13.197  66.728  1.00  0.00    -0.173 C  
HETATM   13  H   UNL     1     -11.478   6.962  67.821  1.00  0.00     0.000 HD 
HETATM   14  C   UNL     1     -10.885  11.120  69.041  1.00  0.00    -0.231 C  
HETATM   15  C   UNL     1     -12.899  13.931  65.701  1.00  0.00    -0.467 C  
HETATM   16  O   UNL     1     -12.550  14.804  63.497  1.00  0.00    -0.654 OA 
HETATM   17  O   UNL     1     -12.298  10.875  69.075  1.00  0.00    -0.705 OA 
HETATM   18  C   UNL     1     -10.393  11.411  67.403  1.00  0.00    -0.202 C  
HETATM   19  H   UNL     1     -12.714  11.516  68.512  1.00  0.00     0.000 HD 
HETATM   20  C   UNL     1     -10.284  10.011  66.586  1.00  0.00    -0.288 C  
HETATM   21  F   UNL     1      -9.050  11.860  67.361  1.00  0.00    -0.164 F  
HETATM   22  C   UNL     1      -9.968  10.263  65.103  1.00  0.00    -0.395 C  
HETATM   23  C   UNL     1     -10.819  11.373  64.524  1.00  0.00    -0.309 C  
HETATM   24  F   UNL     1     -10.544  11.472  63.200  1.00  0.00    -0.372 F  
HETATM   25  C   UNL     1     -10.547  12.694  65.223  1.00  0.00    -0.317 C  
HETATM   26  C   UNL     1     -10.622  13.841  64.521  1.00  0.00    -0.405 C  
HETATM   27  C   UNL     1     -12.079  14.227  64.470  1.00  0.00    -0.480 C  
ENDROOT
BRANCH   4  28
HETATM   28  C   UNL     1     -11.022   7.593  69.968  1.00  0.00    -0.228 C  
HETATM   29  O   UNL     1     -11.160   7.915  71.159  1.00  0.00    -0.247 OA 
BRANCH  28  30
HETATM   30  C   UNL     1     -11.526   6.192  69.604  1.00  0.00    -0.262 C  
HETATM   31  O   UNL     1     -10.558   5.226  70.016  1.00  0.00    -0.302 OA 
HETATM   32  H   UNL     1     -10.870   4.358  69.791  1.00  0.00     0.000 HD 
ENDBRANCH  28  30
ENDBRANCH   4  28
TORSDOF 2
ENDMDL
MODEL        8
REMARK 921   NORMALIZED FREE ENERGY PREDICTED BY IDOCK:   -7.15 KCAL/MOL
REMARK 922        TOTAL FREE ENERGY PREDICTED BY IDOCK:   -7.27 KCAL/MOL
REMARK 923 INTER-LIGAND FREE ENERGY PREDICTED BY IDOCK:   -8.72 KCAL/MOL
REMARK 924 INTRA-LIGAND FREE ENERGY PREDICTED BY IDOCK:    1.44 KCAL/MOL
REMARK 927      BINDING AFFINITY PREDICTED BY RF-SCORE:    0.00 PKD
ROOT
HETATM    1  C   UNL     1      -9.232   8.643  66.989  1.00  0.00    -0.186 C  
HETATM    2  C   UNL     1      -7.942   9.211  67.080  1.00  0.00    -0.102 C  
HETATM    3  C   UNL     1      -8.732   9.436  68.352  1.00  0.00    -0.124 C  
HETATM    4  C   UNL     1     -10.503   8.390  68.512  1.00  0.00    -0.164 C  
HETATM    5  C   UNL     1      -7.435   9.814  69.360  1.00  0.00    -0.099 C  
HETATM    6  O   UNL     1     -10.910   7.376  67.509  1.00  0.00    -0.432 OA 
HETATM    7  C   UNL     1     -10.005  13.766  67.572  1.00  0.00    -0.233 C  
HETATM    8  C   UNL     1      -9.218   8.220  68.885  1.00  0.00    -0.147 C  
HETATM    9  C   UNL     1     -10.064   9.588  69.988  1.00  0.00    -0.279 C  
HETATM   10  C   UNL     1      -8.472   6.921  69.211  1.00  0.00    -0.129 C  
HETATM   11  C   UNL     1     -10.869  12.678  66.804  1.00  0.00    -0.279 C  
HETATM   12  C   UNL     1     -12.281  13.231  66.897  1.00  0.00    -0.315 C  
HETATM   13  H   UNL     1     -11.725   6.894  67.583  1.00  0.00     0.000 HD 
HETATM   14  C   UNL     1     -10.814  10.924  69.020  1.00  0.00    -0.230 C  
HETATM   15  C   UNL     1     -12.761  14.057  65.935  1.00  0.00    -0.436 C  
HETATM   16  O   UNL     1     -12.437  15.039  63.774  1.00  0.00    -0.745 OA 
HETATM   17  O   UNL     1     -12.238  10.767  69.097  1.00  0.00    -0.633 OA 
HETATM   18  C   UNL     1     -10.365  11.282  67.382  1.00  0.00    -0.200 C  
HETATM   19  H   UNL     1     -12.631  11.467  68.590  1.00  0.00     0.000 HD 
HETATM   20  C   UNL     1     -10.380   9.931  66.481  1.00  0.00    -0.259 C  
HETATM   21  F   UNL     1      -8.998  11.647  67.312  1.00  0.00    -0.155 F  
HETATM   22  C   UNL     1     -10.103  10.252  65.004  1.00  0.00    -0.353 C  
HETATM   23  C   UNL     1     -10.900  11.448  64.526  1.00  0.00    -0.309 C  
HETATM   24  F   UNL     1     -10.668  11.610  63.200  1.00  0.00    -0.380 F  
HETATM   25  C   UNL     1     -10.515  12.704  65.290  1.00  0.00    -0.312 C  
HETATM   26  C   UNL     1     -10.540  13.894  64.660  1.00  0.00    -0.432 C  
HETATM   27  C   UNL     1     -11.969  14.374  64.692  1.00  0.00    -0.464 C  
ENDROOT
BRANCH   4  28
HETATM   28  C   UNL     1     -11.150   7.362  69.742  1.00  0.00    -0.152 C  
HETATM   29  O   UNL     1     -11.230   6.124  69.702  1.00  0.00    -0.384 OA 
BRANCH  28  30
HETATM   30  C   UNL     1     -11.621   8.008  71.051  1.00  0.00    -0.283 C  
HETATM   31  O   UNL     1     -12.958   8.480  70.883  1.00  0.00    -0.501 OA 
HETATM   32  H   UNL     1     -13.250   8.879  71.694  1.00  0.00     0.000 HD 
ENDBRANCH  28  30
ENDBRANCH   4  28
TORSDOF 2
ENDMDL
MODEL        9
REMARK 921   NORMALIZED FREE ENERGY PREDICTED BY IDOCK:   -7.13 KCAL/MOL
REMARK 922        TOTAL FREE ENERGY PREDICTED BY IDOCK:   -7.25 KCAL/MOL
REMARK 923 INTER-LIGAND FREE ENERGY PREDICTED BY IDOCK:   -7.87 KCAL/MOL
REMARK 924 INTRA-LIGAND FREE ENERGY PREDICTED BY IDOCK:    0.62 KCAL/MOL
REMARK 927      BINDING AFFINITY PREDICTED BY RF-SCORE:    0.00 PKD
ROOT
HETATM    1  C   UNL     1     -10.674  11.136  68.199  1.00  0.00    -0.244 C  
HETATM    2  C   UNL     1     -11.625  11.412  67.192  1.00  0.00    -0.182 C  
HETATM    3  C   UNL     1     -10.409  12.307  67.060  1.00  0.00    -0.237 C  
HETATM    4  C   UNL     1      -8.791  11.811  68.241  1.00  0.00    -0.172 C  
HETATM    5  C   UNL     1     -10.661  12.797  65.467  1.00  0.00    -0.303 C  
HETATM    6  O   UNL     1      -8.768  10.577  69.063  1.00  0.00    -0.146 OA 
HETATM    7  C   UNL     1     -12.156  16.070  68.999  1.00  0.00    -0.027 C  
HETATM    8  C   UNL     1      -9.214  11.554  66.986  1.00  0.00    -0.180 C  
HETATM    9  C   UNL     1      -8.600  13.400  67.124  1.00  0.00    -0.201 C  
HETATM   10  C   UNL     1      -8.842  10.389  66.062  1.00  0.00    -0.175 C  
HETATM   11  C   UNL     1     -11.673  14.963  70.029  1.00  0.00    -0.338 C  
HETATM   12  C   UNL     1     -11.037  15.781  71.141  1.00  0.00    -0.300 C  
HETATM   13  H   UNL     1      -8.023  10.349  69.607  1.00  0.00     0.000 HD 
HETATM   14  C   UNL     1      -9.419  14.329  68.447  1.00  0.00    -0.213 C  
HETATM   15  C   UNL     1     -11.778  16.206  72.192  1.00  0.00    -0.569 C  
HETATM   16  O   UNL     1     -13.867  16.103  73.362  1.00  0.00    -0.558 OA 
HETATM   17  O   UNL     1      -8.463  14.515  69.501  1.00  0.00    -0.381 OA 
HETATM   18  C   UNL     1     -10.945  13.867  69.131  1.00  0.00    -0.218 C  
HETATM   19  H   UNL     1      -8.892  15.002  70.194  1.00  0.00     0.000 HD 
HETATM   20  C   UNL     1     -10.929  12.297  69.548  1.00  0.00    -0.007 C  
HETATM   21  F   UNL     1     -11.957  13.880  68.140  1.00  0.00    -0.351 F  
HETATM   22  C   UNL     1     -12.230  11.906  70.266  1.00  0.00    -0.353 C  
HETATM   23  C   UNL     1     -12.629  12.927  71.311  1.00  0.00    -0.256 C  
HETATM   24  F   UNL     1     -13.729  12.466  71.955  1.00  0.00    -0.450 F  
HETATM   25  C   UNL     1     -12.910  14.279  70.678  1.00  0.00    -0.378 C  
HETATM   26  C   UNL     1     -13.859  15.073  71.209  1.00  0.00    -0.528 C  
HETATM   27  C   UNL     1     -13.221  15.803  72.363  1.00  0.00    -0.462 C  
ENDROOT
BRANCH   4  28
HETATM   28  C   UNL     1      -7.120  11.550  67.887  1.00  0.00    -0.076 C  
HETATM   29  O   UNL     1      -6.619  11.391  66.762  1.00  0.00    -0.127 OA 
BRANCH  28  30
HETATM   30  C   UNL     1      -6.122  11.575  69.051  1.00  0.00    -0.055 C  
HETATM   31  O   UNL     1      -6.702  12.281  70.148  1.00  0.00    -0.381 OA 
HETATM   32  H   UNL     1      -6.084  12.295  70.870  1.00  0.00     0.000 HD 
ENDBRANCH  28  30
ENDBRANCH   4  28
TORSDOF 2
ENDMDL
MODEL       10
REMARK 921   NORMALIZED FREE ENERGY PREDICTED BY IDOCK:   -7.10 KCAL/MOL
REMARK 922        TOTAL FREE ENERGY PREDICTED BY IDOCK:   -7.22 KCAL/MOL
REMARK 923 INTER-LIGAND FREE ENERGY PREDICTED BY IDOCK:   -7.89 KCAL/MOL
REMARK 924 INTRA-LIGAND FREE ENERGY PREDICTED BY IDOCK:    0.68 KCAL/MOL
REMARK 927      BINDING AFFINITY PREDICTED BY RF-SCORE:    0.00 PKD
ROOT
HETATM    1  C   UNL     1      -9.402  14.433  68.824  1.00  0.00    -0.150 C  
HETATM    2  C   UNL     1     -10.023  14.902  70.001  1.00  0.00     0.146 C  
HETATM    3  C   UNL     1     -10.945  15.028  68.806  1.00  0.00    -0.259 C  
HETATM    4  C   UNL     1     -10.319  14.086  67.080  1.00  0.00    -0.267 C  
HETATM    5  C   UNL     1     -12.392  15.201  69.653  1.00  0.00    -0.242 C  
HETATM    6  O   UNL     1      -9.112  13.225  67.049  1.00  0.00    -0.218 OA 
HETATM    7  C   UNL     1     -10.340  19.492  67.981  1.00  0.00    -0.564 C  
HETATM    8  C   UNL     1     -11.103  13.792  68.138  1.00  0.00    -0.282 C  
HETATM    9  C   UNL     1     -11.999  15.073  66.973  1.00  0.00    -0.017 C  
HETATM   10  C   UNL     1     -11.500  12.418  68.691  1.00  0.00    -0.348 C  
HETATM   11  C   UNL     1      -9.177  18.559  67.437  1.00  0.00    -0.286 C  
HETATM   12  C   UNL     1      -8.828  19.188  66.098  1.00  0.00    -0.224 C  
HETATM   13  H   UNL     1      -8.824  12.791  66.254  1.00  0.00     0.000 HD 
HETATM   14  C   UNL     1     -11.011  16.558  66.650  1.00  0.00     0.060 C  
HETATM   15  C   UNL     1      -7.877  20.149  66.016  1.00  0.00    -0.251 C  
HETATM   16  O   UNL     1      -6.126  21.354  67.123  1.00  0.00    -0.344 OA 
HETATM   17  O   UNL     1     -10.551  16.486  65.293  1.00  0.00    -0.575 OA 
HETATM   18  C   UNL     1      -9.707  17.076  67.672  1.00  0.00    -0.257 C  
HETATM   19  H   UNL     1     -10.033  17.264  65.124  1.00  0.00     0.000 HD 
HETATM   20  C   UNL     1      -8.690  15.843  67.962  1.00  0.00    -0.169 C  
HETATM   21  F   UNL     1     -10.181  17.357  68.977  1.00  0.00    -0.293 F  
HETATM   22  C   UNL     1      -7.467  16.316  68.764  1.00  0.00    -0.195 C  
HETATM   23  C   UNL     1      -6.898  17.608  68.217  1.00  0.00    -0.213 C  
HETATM   24  F   UNL     1      -5.778  17.908  68.919  1.00  0.00    -0.172 F  
HETATM   25  C   UNL     1      -7.908  18.739  68.319  1.00  0.00    -0.333 C  
HETATM   26  C   UNL     1      -7.474  19.993  68.546  1.00  0.00    -0.237 C  
HETATM   27  C   UNL     1      -7.054  20.557  67.213  1.00  0.00    -0.314 C  
ENDROOT
BRANCH   4  28
HETATM   28  C   UNL     1     -11.088  12.966  66.012  1.00  0.00    -0.281 C  
HETATM   29  O   UNL     1     -12.077  12.260  66.270  1.00  0.00    -0.626 OA 
BRANCH  28  30
HETATM   30  C   UNL     1     -10.560  12.855  64.577  1.00  0.00    -0.382 C  
HETATM   31  O   UNL     1      -9.876  14.062  64.238  1.00  0.00    -0.598 OA 
HETATM   32  H   UNL     1      -9.548  13.993  63.348  1.00  0.00     0.000 HD 
ENDBRANCH  28  30
ENDBRANCH   4  28
TORSDOF 2
ENDMDL
MODEL       11
REMARK 921   NORMALIZED FREE ENERGY PREDICTED BY IDOCK:   -7.07 KCAL/MOL
REMARK 922        TOTAL FREE ENERGY PREDICTED BY IDOCK:   -7.19 KCAL/MOL
REMARK 923 INTER-LIGAND FREE ENERGY PREDICTED BY IDOCK:   -7.93 KCAL/MOL
REMARK 924 INTRA-LIGAND FREE ENERGY PREDICTED BY IDOCK:    0.75 KCAL/MOL
REMARK 927      BINDING AFFINITY PREDICTED BY RF-SCORE:    0.00 PKD
ROOT
HETATM    1  C   UNL     1      -8.929   8.624  66.928  1.00  0.00    -0.161 C  
HETATM    2  C   UNL     1      -7.636   9.161  66.741  1.00  0.00    -0.087 C  
HETATM    3  C   UNL     1      -8.185   9.511  68.110  1.00  0.00    -0.114 C  
HETATM    4  C   UNL     1      -9.912   8.530  68.668  1.00  0.00    -0.184 C  
HETATM    5  C   UNL     1      -6.723   9.933  68.837  1.00  0.00    -0.053 C  
HETATM    6  O   UNL     1     -10.504   7.450  67.841  1.00  0.00    -0.196 OA 
HETATM    7  C   UNL     1      -9.520  13.796  67.203  1.00  0.00    -0.244 C  
HETATM    8  C   UNL     1      -8.583   8.356  68.821  1.00  0.00    -0.135 C  
HETATM    9  C   UNL     1      -9.201   9.831  69.936  1.00  0.00    -0.263 C  
HETATM   10  C   UNL     1      -7.807   7.067  69.119  1.00  0.00    -0.114 C  
HETATM   11  C   UNL     1     -10.521  12.674  66.694  1.00  0.00    -0.261 C  
HETATM   12  C   UNL     1     -11.887  13.272  66.987  1.00  0.00    -0.442 C  
HETATM   13  H   UNL     1     -11.299   6.998  68.099  1.00  0.00     0.000 HD 
HETATM   14  C   UNL     1     -10.095  11.104  69.006  1.00  0.00    -0.155 C  
HETATM   15  C   UNL     1     -12.520  14.029  66.059  1.00  0.00    -0.489 C  
HETATM   16  O   UNL     1     -12.573  14.824  63.799  1.00  0.00    -0.806 OA 
HETATM   17  O   UNL     1     -11.484  10.994  69.346  1.00  0.00    -0.240 OA 
HETATM   18  C   UNL     1      -9.940  11.316  67.290  1.00  0.00    -0.183 C  
HETATM   19  H   UNL     1     -11.953  11.661  68.859  1.00  0.00     0.000 HD 
HETATM   20  C   UNL     1     -10.133   9.897  66.523  1.00  0.00    -0.298 C  
HETATM   21  F   UNL     1      -8.603  11.636  66.949  1.00  0.00    -0.149 F  
HETATM   22  C   UNL     1     -10.119  10.090  64.999  1.00  0.00    -0.228 C  
HETATM   23  C   UNL     1     -10.973  11.265  64.569  1.00  0.00    -0.231 C  
HETATM   24  F   UNL     1     -10.979  11.312  63.215  1.00  0.00    -0.438 F  
HETATM   25  C   UNL     1     -10.442  12.567  65.145  1.00  0.00    -0.320 C  
HETATM   26  C   UNL     1     -10.564  13.702  64.431  1.00  0.00    -0.360 C  
HETATM   27  C   UNL     1     -11.958  14.223  64.673  1.00  0.00    -0.455 C  
ENDROOT
BRANCH   4  28
HETATM   28  C   UNL     1     -10.341   7.624  70.076  1.00  0.00    -0.223 C  
HETATM   29  O   UNL     1     -10.016   7.880  71.246  1.00  0.00    -0.174 OA 
BRANCH  28  30
HETATM   30  C   UNL     1     -11.268   6.415  69.902  1.00  0.00    -0.420 C  
HETATM   31  O   UNL     1     -12.614   6.818  70.157  1.00  0.00    -0.511 OA 
HETATM   32  H   UNL     1     -13.188   6.069  70.049  1.00  0.00     0.000 HD 
ENDBRANCH  28  30
ENDBRANCH   4  28
TORSDOF 2
ENDMDL
MODEL       12
REMARK 921   NORMALIZED FREE ENERGY PREDICTED BY IDOCK:   -7.00 KCAL/MOL
REMARK 922        TOTAL FREE ENERGY PREDICTED BY IDOCK:   -7.11 KCAL/MOL
REMARK 923 INTER-LIGAND FREE ENERGY PREDICTED BY IDOCK:   -7.81 KCAL/MOL
REMARK 924 INTRA-LIGAND FREE ENERGY PREDICTED BY IDOCK:    0.69 KCAL/MOL
REMARK 927      BINDING AFFINITY PREDICTED BY RF-SCORE:    0.00 PKD
ROOT
HETATM    1  C   UNL     1     -11.464  14.756  67.205  1.00  0.00    -0.378 C  
HETATM    2  C   UNL     1     -11.399  15.145  65.850  1.00  0.00    -0.225 C  
HETATM    3  C   UNL     1     -10.374  14.075  66.164  1.00  0.00    -0.301 C  
HETATM    4  C   UNL     1     -10.557  13.162  68.005  1.00  0.00    -0.236 C  
HETATM    5  C   UNL     1     -10.060  13.591  64.580  1.00  0.00    -0.179 C  
HETATM    6  O   UNL     1     -11.702  13.437  68.907  1.00  0.00    -0.285 OA 
HETATM    7  C   UNL     1      -6.704  16.784  66.570  1.00  0.00    -0.173 C  
HETATM    8  C   UNL     1     -10.975  12.933  66.742  1.00  0.00    -0.300 C  
HETATM    9  C   UNL     1      -9.062  12.585  66.893  1.00  0.00    -0.213 C  
HETATM   10  C   UNL     1     -12.160  12.092  66.255  1.00  0.00    -0.037 C  
HETATM   11  C   UNL     1      -7.648  16.759  67.846  1.00  0.00    -0.177 C  
HETATM   12  C   UNL     1      -6.663  16.773  69.003  1.00  0.00    -0.209 C  
HETATM   13  H   UNL     1     -11.787  13.016  69.755  1.00  0.00     0.000 HD 
HETATM   14  C   UNL     1      -8.130  13.990  67.561  1.00  0.00    -0.186 C  
HETATM   15  C   UNL     1      -6.243  17.946  69.536  1.00  0.00    -0.237 C  
HETATM   16  O   UNL     1      -6.505  20.326  69.632  1.00  0.00    -0.313 OA 
HETATM   17  O   UNL     1      -7.735  13.650  68.897  1.00  0.00    -0.258 OA 
HETATM   18  C   UNL     1      -8.718  15.622  67.534  1.00  0.00    -0.177 C  
HETATM   19  H   UNL     1      -7.247  14.385  69.247  1.00  0.00     0.000 HD 
HETATM   20  C   UNL     1     -10.231  15.691  68.121  1.00  0.00    -0.228 C  
HETATM   21  F   UNL     1      -8.919  16.055  66.200  1.00  0.00    -0.288 F  
HETATM   22  C   UNL     1     -10.718  17.145  68.216  1.00  0.00    -0.363 C  
HETATM   23  C   UNL     1      -9.668  18.056  68.818  1.00  0.00    -0.328 C  
HETATM   24  F   UNL     1     -10.204  19.293  68.948  1.00  0.00    -0.442 F  
HETATM   25  C   UNL     1      -8.422  18.104  67.949  1.00  0.00    -0.259 C  
HETATM   26  C   UNL     1      -7.710  19.245  67.879  1.00  0.00    -0.318 C  
HETATM   27  C   UNL     1      -6.807  19.270  69.086  1.00  0.00    -0.336 C  
ENDROOT
BRANCH   4  28
HETATM   28  C   UNL     1     -10.637  11.504  68.487  1.00  0.00    -0.210 C  
HETATM   29  O   UNL     1     -10.026  10.555  67.970  1.00  0.00    -0.151 OA 
BRANCH  28  30
HETATM   30  C   UNL     1     -11.489  11.147  69.710  1.00  0.00    -0.312 C  
HETATM   31  O   UNL     1     -12.739  10.616  69.269  1.00  0.00    -0.689 OA 
HETATM   32  H   UNL     1     -13.267  10.394  70.027  1.00  0.00     0.000 HD 
ENDBRANCH  28  30
ENDBRANCH   4  28
TORSDOF 2
ENDMDL
MODEL       13
REMARK 921   NORMALIZED FREE ENERGY PREDICTED BY IDOCK:   -6.97 KCAL/MOL
REMARK 922        TOTAL FREE ENERGY PREDICTED BY IDOCK:   -7.08 KCAL/MOL
REMARK 923 INTER-LIGAND FREE ENERGY PREDICTED BY IDOCK:   -7.94 KCAL/MOL
REMARK 924 INTRA-LIGAND FREE ENERGY PREDICTED BY IDOCK:    0.86 KCAL/MOL
REMARK 927      BINDING AFFINITY PREDICTED BY RF-SCORE:    0.00 PKD
ROOT
HETATM    1  C   UNL     1      -9.604   7.709  68.706  1.00  0.00    -0.153 C  
HETATM    2  C   UNL     1      -8.261   8.114  68.874  1.00  0.00    -0.124 C  
HETATM    3  C   UNL     1      -9.149   8.689  69.960  1.00  0.00    -0.157 C  
HETATM    4  C   UNL     1     -11.065   7.930  70.055  1.00  0.00    -0.162 C  
HETATM    5  C   UNL     1      -7.933   9.091  71.056  1.00  0.00    -0.186 C  
HETATM    6  O   UNL     1     -11.504   6.796  69.204  1.00  0.00    -0.561 OA 
HETATM    7  C   UNL     1      -9.648  12.901  68.234  1.00  0.00    -0.212 C  
HETATM    8  C   UNL     1      -9.872   7.676  70.631  1.00  0.00    -0.182 C  
HETATM    9  C   UNL     1     -10.620   9.333  71.335  1.00  0.00    -0.417 C  
HETATM   10  C   UNL     1      -9.375   6.384  71.290  1.00  0.00    -0.162 C  
HETATM   11  C   UNL     1     -10.574  11.801  67.562  1.00  0.00    -0.247 C  
HETATM   12  C   UNL     1     -11.887  12.537  67.351  1.00  0.00    -0.381 C  
HETATM   13  H   UNL     1     -12.386   6.447  69.248  1.00  0.00     0.000 HD 
HETATM   14  C   UNL     1     -11.042  10.533  70.044  1.00  0.00    -0.308 C  
HETATM   15  C   UNL     1     -12.121  13.208  66.198  1.00  0.00    -0.479 C  
HETATM   16  O   UNL     1     -11.406  13.689  63.962  1.00  0.00    -0.342 OA 
HETATM   17  O   UNL     1     -12.472  10.578  69.946  1.00  0.00    -0.500 OA 
HETATM   18  C   UNL     1     -10.358  10.496  68.449  1.00  0.00    -0.176 C  
HETATM   19  H   UNL     1     -12.694  11.207  69.269  1.00  0.00     0.000 HD 
HETATM   20  C   UNL     1     -10.476   9.005  67.815  1.00  0.00    -0.305 C  
HETATM   21  F   UNL     1      -8.953  10.662  68.508  1.00  0.00    -0.129 F  
HETATM   22  C   UNL     1      -9.986   8.987  66.359  1.00  0.00    -0.370 C  
HETATM   23  C   UNL     1     -10.531  10.155  65.563  1.00  0.00    -0.006 C  
HETATM   24  F   UNL     1     -10.127  10.017  64.277  1.00  0.00    -0.371 F  
HETATM   25  C   UNL     1     -10.049  11.478  66.134  1.00  0.00    -0.266 C  
HETATM   26  C   UNL     1      -9.820  12.511  65.301  1.00  0.00    -0.157 C  
HETATM   27  C   UNL     1     -11.153  13.167  65.042  1.00  0.00    -0.301 C  
ENDROOT
BRANCH   4  28
HETATM   28  C   UNL     1     -11.997   7.260  71.347  1.00  0.00    -0.320 C  
HETATM   29  O   UNL     1     -11.563   6.858  72.438  1.00  0.00    -0.270 OA 
BRANCH  28  30
HETATM   30  C   UNL     1     -13.520   7.201  71.185  1.00  0.00    -0.126 C  
HETATM   31  O   UNL     1     -14.010   8.510  70.892  1.00  0.00    -0.565 OA 
HETATM   32  H   UNL     1     -14.954   8.473  70.791  1.00  0.00     0.000 HD 
ENDBRANCH  28  30
ENDBRANCH   4  28
TORSDOF 2
ENDMDL
MODEL       14
REMARK 921   NORMALIZED FREE ENERGY PREDICTED BY IDOCK:   -6.96 KCAL/MOL
REMARK 922        TOTAL FREE ENERGY PREDICTED BY IDOCK:   -7.07 KCAL/MOL
REMARK 923 INTER-LIGAND FREE ENERGY PREDICTED BY IDOCK:   -7.68 KCAL/MOL
REMARK 924 INTRA-LIGAND FREE ENERGY PREDICTED BY IDOCK:    0.61 KCAL/MOL
REMARK 927      BINDING AFFINITY PREDICTED BY RF-SCORE:    0.00 PKD
ROOT
HETATM    1  C   UNL     1      -8.948  14.699  67.630  1.00  0.00    -0.187 C  
HETATM    2  C   UNL     1      -8.769  15.233  66.335  1.00  0.00    -0.265 C  
HETATM    3  C   UNL     1     -10.223  14.895  66.594  1.00  0.00    -0.264 C  
HETATM    4  C   UNL     1     -10.706  14.421  68.543  1.00  0.00    -0.253 C  
HETATM    5  C   UNL     1     -10.894  15.818  65.353  1.00  0.00    -0.376 C  
HETATM    6  O   UNL     1      -9.722  14.538  69.647  1.00  0.00    -0.403 OA 
HETATM    7  C   UNL     1     -10.375  10.903  64.354  1.00  0.00    -0.430 C  
HETATM    8  C   UNL     1     -10.702  15.524  67.766  1.00  0.00    -0.297 C  
HETATM    9  C   UNL     1     -12.157  14.336  67.241  1.00  0.00    -0.390 C  
HETATM   10  C   UNL     1     -10.648  16.998  68.184  1.00  0.00    -0.369 C  
HETATM   11  C   UNL     1      -9.727  10.822  65.800  1.00  0.00    -0.278 C  
HETATM   12  C   UNL     1     -10.259   9.505  66.342  1.00  0.00    -0.302 C  
HETATM   13  H   UNL     1      -9.945  14.319  70.544  1.00  0.00     0.000 HD 
HETATM   14  C   UNL     1     -11.602  12.654  66.855  1.00  0.00    -0.373 C  
HETATM   15  C   UNL     1      -9.574   8.353  66.145  1.00  0.00    -0.246 C  
HETATM   16  O   UNL     1      -7.550   7.313  65.395  1.00  0.00    -0.088 OA 
HETATM   17  O   UNL     1     -12.031  11.800  67.925  1.00  0.00    -0.575 OA 
HETATM   18  C   UNL     1      -9.965  12.264  66.431  1.00  0.00    -0.228 C  
HETATM   19  H   UNL     1     -11.740  10.919  67.723  1.00  0.00     0.000 HD 
HETATM   20  C   UNL     1      -8.931  12.905  67.508  1.00  0.00    -0.193 C  
HETATM   21  F   UNL     1      -9.585  12.942  65.246  1.00  0.00    -0.186 F  
HETATM   22  C   UNL     1      -7.489  12.466  67.213  1.00  0.00    -0.135 C  
HETATM   23  C   UNL     1      -7.397  10.984  66.918  1.00  0.00    -0.133 C  
HETATM   24  F   UNL     1      -6.090  10.664  66.758  1.00  0.00    -0.055 F  
HETATM   25  C   UNL     1      -8.189  10.623  65.673  1.00  0.00    -0.154 C  
HETATM   26  C   UNL     1      -7.749   9.633  64.874  1.00  0.00    -0.120 C  
HETATM   27  C   UNL     1      -8.218   8.337  65.485  1.00  0.00    -0.138 C  
ENDROOT
BRANCH   4  28
HETATM   28  C   UNL     1     -11.918  15.009  69.625  1.00  0.00    -0.321 C  
HETATM   29  O   UNL     1     -12.632  16.011  69.460  1.00  0.00    -0.048 OA 
BRANCH  28  30
HETATM   30  C   UNL     1     -12.209  14.199  70.894  1.00  0.00    -0.363 C  
HETATM   31  O   UNL     1     -11.948  12.819  70.638  1.00  0.00    -0.510 OA 
HETATM   32  H   UNL     1     -12.127  12.318  71.424  1.00  0.00     0.000 HD 
ENDBRANCH  28  30
ENDBRANCH   4  28
TORSDOF 2
ENDMDL
MODEL       15
REMARK 921   NORMALIZED FREE ENERGY PREDICTED BY IDOCK:   -6.86 KCAL/MOL
REMARK 922        TOTAL FREE ENERGY PREDICTED BY IDOCK:   -6.95 KCAL/MOL
REMARK 923 INTER-LIGAND FREE ENERGY PREDICTED BY IDOCK:   -7.69 KCAL/MOL
REMARK 924 INTRA-LIGAND FREE ENERGY PREDICTED BY IDOCK:    0.74 KCAL/MOL
REMARK 927      BINDING AFFINITY PREDICTED BY RF-SCORE:    0.00 PKD
ROOT
HETATM    1  C   UNL     1     -10.849  15.181  66.501  1.00  0.00    -0.317 C  
HETATM    2  C   UNL     1     -11.773  14.655  67.430  1.00  0.00    -0.413 C  
HETATM    3  C   UNL     1     -10.435  14.931  68.083  1.00  0.00    -0.242 C  
HETATM    4  C   UNL     1      -9.084  16.007  66.954  1.00  0.00    -0.228 C  
HETATM    5  C   UNL     1     -10.959  14.918  69.685  1.00  0.00    -0.294 C  
HETATM    6  O   UNL     1      -9.448  16.592  65.640  1.00  0.00    -0.497 OA 
HETATM    7  C   UNL     1      -8.808  10.650  68.077  1.00  0.00    -0.130 C  
HETATM    8  C   UNL     1     -10.025  16.270  67.884  1.00  0.00    -0.241 C  
HETATM    9  C   UNL     1      -8.477  15.423  68.714  1.00  0.00    -0.188 C  
HETATM   10  C   UNL     1     -10.777  17.579  68.153  1.00  0.00    -0.330 C  
HETATM   11  C   UNL     1      -8.687  11.402  66.685  1.00  0.00    -0.178 C  
HETATM   12  C   UNL     1      -7.328  10.956  66.170  1.00  0.00    -0.103 C  
HETATM   13  H   UNL     1      -8.826  17.087  65.121  1.00  0.00     0.000 HD 
HETATM   14  C   UNL     1      -8.028  13.844  67.945  1.00  0.00    -0.160 C  
HETATM   15  C   UNL     1      -7.215   9.848  65.399  1.00  0.00    -0.125 C  
HETATM   16  O   UNL     1      -8.333   8.134  64.153  1.00  0.00    -0.125 OA 
HETATM   17  O   UNL     1      -6.820  14.053  67.201  1.00  0.00    -0.407 OA 
HETATM   18  C   UNL     1      -9.131  12.899  66.995  1.00  0.00    -0.228 C  
HETATM   19  H   UNL     1      -6.585  13.226  66.798  1.00  0.00     0.000 HD 
HETATM   20  C   UNL     1      -9.849  13.826  65.870  1.00  0.00    -0.279 C  
HETATM   21  F   UNL     1     -10.243  12.501  67.777  1.00  0.00    -0.201 F  
HETATM   22  C   UNL     1     -10.736  12.979  64.944  1.00  0.00    -0.349 C  
HETATM   23  C   UNL     1     -10.038  11.711  64.497  1.00  0.00    -0.278 C  
HETATM   24  F   UNL     1     -10.847  11.069  63.620  1.00  0.00    -0.425 F  
HETATM   25  C   UNL     1      -9.720  10.814  65.682  1.00  0.00    -0.287 C  
HETATM   26  C   UNL     1      -9.751   9.477  65.525  1.00  0.00    -0.344 C  
HETATM   27  C   UNL     1      -8.424   9.077  64.931  1.00  0.00    -0.178 C  
ENDROOT
BRANCH   4  28
HETATM   28  C   UNL     1      -8.157  17.430  67.278  1.00  0.00    -0.201 C  
HETATM   29  O   UNL     1      -7.876  17.888  68.396  1.00  0.00    -0.267 OA 
BRANCH  28  30
HETATM   30  C   UNL     1      -7.557  18.188  66.088  1.00  0.00    -0.243 C  
HETATM   31  O   UNL     1      -8.347  19.349  65.829  1.00  0.00    -0.430 OA 
HETATM   32  H   UNL     1      -7.975  19.820  65.092  1.00  0.00     0.000 HD 
ENDBRANCH  28  30
ENDBRANCH   4  28
TORSDOF 2
ENDMDL
MODEL       16
REMARK 921   NORMALIZED FREE ENERGY PREDICTED BY IDOCK:   -6.83 KCAL/MOL
REMARK 922        TOTAL FREE ENERGY PREDICTED BY IDOCK:   -6.92 KCAL/MOL
REMARK 923 INTER-LIGAND FREE ENERGY PREDICTED BY IDOCK:   -7.93 KCAL/MOL
REMARK 924 INTRA-LIGAND FREE ENERGY PREDICTED BY IDOCK:    1.00 KCAL/MOL
REMARK 927      BINDING AFFINITY PREDICTED BY RF-SCORE:    0.00 PKD
ROOT
HETATM    1  C   UNL     1      -8.426   8.579  65.823  1.00  0.00    -0.167 C  
HETATM    2  C   UNL     1      -7.198   9.273  65.870  1.00  0.00    -0.091 C  
HETATM    3  C   UNL     1      -7.844   9.205  67.239  1.00  0.00    -0.099 C  
HETATM    4  C   UNL     1      -9.469   7.946  67.409  1.00  0.00    -0.144 C  
HETATM    5  C   UNL     1      -6.475   9.572  68.153  1.00  0.00    -0.057 C  
HETATM    6  O   UNL     1      -9.894   7.058  66.299  1.00  0.00    -0.399 OA 
HETATM    7  C   UNL     1      -9.624  13.423  67.332  1.00  0.00    -0.223 C  
HETATM    8  C   UNL     1      -8.137   7.872  67.610  1.00  0.00    -0.124 C  
HETATM    9  C   UNL     1      -8.971   8.945  69.009  1.00  0.00    -0.137 C  
HETATM   10  C   UNL     1      -7.231   6.636  67.634  1.00  0.00    -0.090 C  
HETATM   11  C   UNL     1     -10.464  12.373  66.489  1.00  0.00    -0.254 C  
HETATM   12  C   UNL     1     -11.902  12.736  66.822  1.00  0.00    -0.452 C  
HETATM   13  H   UNL     1     -10.643   6.479  66.377  1.00  0.00     0.000 HD 
HETATM   14  C   UNL     1      -9.964  10.317  68.362  1.00  0.00    -0.157 C  
HETATM   15  C   UNL     1     -12.576  13.638  66.068  1.00  0.00    -0.441 C  
HETATM   16  O   UNL     1     -12.620  14.973  64.079  1.00  0.00    -0.817 OA 
HETATM   17  O   UNL     1     -11.345   9.984  68.563  1.00  0.00    -0.477 OA 
HETATM   18  C   UNL     1      -9.758  10.974  66.769  1.00  0.00    -0.193 C  
HETATM   19  H   UNL     1     -11.865  10.703  68.224  1.00  0.00     0.000 HD 
HETATM   20  C   UNL     1      -9.750   9.785  65.661  1.00  0.00    -0.357 C  
HETATM   21  F   UNL     1      -8.452  11.503  66.617  1.00  0.00    -0.154 F  
HETATM   22  C   UNL     1      -9.691  10.362  64.238  1.00  0.00    -0.389 C  
HETATM   23  C   UNL     1     -10.655  11.515  64.054  1.00  0.00    -0.379 C  
HETATM   24  F   UNL     1     -10.605  11.905  62.757  1.00  0.00    -0.274 F  
HETATM   25  C   UNL     1     -10.304  12.674  64.972  1.00  0.00    -0.320 C  
HETATM   26  C   UNL     1     -10.524  13.936  64.556  1.00  0.00    -0.334 C  
HETATM   27  C   UNL     1     -11.979  14.234  64.818  1.00  0.00    -0.440 C  
ENDROOT
BRANCH   4  28
HETATM   28  C   UNL     1      -9.854   6.672  68.512  1.00  0.00    -0.139 C  
HETATM   29  O   UNL     1      -9.061   6.083  69.264  1.00  0.00    -0.124 OA 
BRANCH  28  30
HETATM   30  C   UNL     1     -11.321   6.247  68.642  1.00  0.00    -0.085 C  
HETATM   31  O   UNL     1     -11.910   6.937  69.745  1.00  0.00    -0.613 OA 
HETATM   32  H   UNL     1     -12.819   6.674  69.826  1.00  0.00     0.000 HD 
ENDBRANCH  28  30
ENDBRANCH   4  28
TORSDOF 2
ENDMDL
MODEL       17
REMARK 921   NORMALIZED FREE ENERGY PREDICTED BY IDOCK:   -6.62 KCAL/MOL
REMARK 922        TOTAL FREE ENERGY PREDICTED BY IDOCK:   -6.69 KCAL/MOL
REMARK 923 INTER-LIGAND FREE ENERGY PREDICTED BY IDOCK:   -7.30 KCAL/MOL
REMARK 924 INTRA-LIGAND FREE ENERGY PREDICTED BY IDOCK:    0.62 KCAL/MOL
REMARK 927      BINDING AFFINITY PREDICTED BY RF-SCORE:    0.00 PKD
ROOT
HETATM    1  C   UNL     1     -11.115  11.495  68.317  1.00  0.00    -0.295 C  
HETATM    2  C   UNL     1     -11.777  11.595  67.074  1.00  0.00    -0.176 C  
HETATM    3  C   UNL     1     -10.286  11.399  66.889  1.00  0.00    -0.262 C  
HETATM    4  C   UNL     1      -9.223  10.902  68.586  1.00  0.00    -0.187 C  
HETATM    5  C   UNL     1     -10.322  10.909  65.276  1.00  0.00    -0.334 C  
HETATM    6  O   UNL     1      -9.894  10.620  69.878  1.00  0.00    -0.423 OA 
HETATM    7  C   UNL     1      -9.155  15.754  66.038  1.00  0.00    -0.361 C  
HETATM    8  C   UNL     1      -9.824  10.249  67.570  1.00  0.00    -0.204 C  
HETATM    9  C   UNL     1      -8.192  11.112  66.943  1.00  0.00    -0.149 C  
HETATM   10  C   UNL     1     -10.335   8.804  67.520  1.00  0.00    -0.334 C  
HETATM   11  C   UNL     1      -9.370  15.418  67.575  1.00  0.00    -0.204 C  
HETATM   12  C   UNL     1      -8.269  16.212  68.258  1.00  0.00    -0.162 C  
HETATM   13  H   UNL     1      -9.404  10.391  70.659  1.00  0.00     0.000 HD 
HETATM   14  C   UNL     1      -8.141  12.889  67.298  1.00  0.00    -0.163 C  
HETATM   15  C   UNL     1      -8.492  17.483  68.670  1.00  0.00    -0.258 C  
HETATM   16  O   UNL     1     -10.085  19.237  69.033  1.00  0.00    -0.415 OA 
HETATM   17  O   UNL     1      -7.186  13.093  68.349  1.00  0.00    -0.091 OA 
HETATM   18  C   UNL     1      -9.558  13.837  67.619  1.00  0.00    -0.219 C  
HETATM   19  H   UNL     1      -7.159  14.023  68.535  1.00  0.00     0.000 HD 
HETATM   20  C   UNL     1     -10.478  13.120  68.749  1.00  0.00    -0.187 C  
HETATM   21  F   UNL     1     -10.429  13.821  66.502  1.00  0.00    -0.270 F  
HETATM   22  C   UNL     1     -11.673  14.008  69.131  1.00  0.00    -0.375 C  
HETATM   23  C   UNL     1     -11.261  15.450  69.343  1.00  0.00    -0.296 C  
HETATM   24  F   UNL     1     -12.348  16.143  69.761  1.00  0.00    -0.271 F  
HETATM   25  C   UNL     1     -10.702  16.054  68.066  1.00  0.00    -0.309 C  
HETATM   26  C   UNL     1     -10.907  17.360  67.809  1.00  0.00    -0.257 C  
HETATM   27  C   UNL     1      -9.854  18.124  68.571  1.00  0.00    -0.382 C  
ENDROOT
BRANCH   4  28
HETATM   28  C   UNL     1      -8.109   9.629  68.940  1.00  0.00    -0.098 C  
HETATM   29  O   UNL     1      -7.922   8.603  68.266  1.00  0.00    -0.107 OA 
BRANCH  28  30
HETATM   30  C   UNL     1      -7.203   9.781  70.167  1.00  0.00    -0.145 C  
HETATM   31  O   UNL     1      -7.100  11.166  70.502  1.00  0.00    -0.371 OA 
HETATM   32  H   UNL     1      -6.539  11.260  71.263  1.00  0.00     0.000 HD 
ENDBRANCH  28  30
ENDBRANCH   4  28
TORSDOF 2
ENDMDL
MODEL       18
REMARK 921   NORMALIZED FREE ENERGY PREDICTED BY IDOCK:   -6.47 KCAL/MOL
REMARK 922        TOTAL FREE ENERGY PREDICTED BY IDOCK:   -6.52 KCAL/MOL
REMARK 923 INTER-LIGAND FREE ENERGY PREDICTED BY IDOCK:   -7.33 KCAL/MOL
REMARK 924 INTRA-LIGAND FREE ENERGY PREDICTED BY IDOCK:    0.81 KCAL/MOL
REMARK 927      BINDING AFFINITY PREDICTED BY RF-SCORE:    0.00 PKD
ROOT
HETATM    1  C   UNL     1     -10.424  15.835  66.817  1.00  0.00    -0.305 C  
HETATM    2  C   UNL     1     -11.376  15.430  67.779  1.00  0.00    -0.308 C  
HETATM    3  C   UNL     1      -9.998  15.573  68.394  1.00  0.00    -0.214 C  
HETATM    4  C   UNL     1      -8.569  16.474  67.209  1.00  0.00    -0.184 C  
HETATM    5  C   UNL     1     -10.479  15.648  70.008  1.00  0.00    -0.333 C  
HETATM    6  O   UNL     1      -8.903  17.069  65.892  1.00  0.00    -0.518 OA 
HETATM    7  C   UNL     1      -8.842  11.142  68.445  1.00  0.00    -0.157 C  
HETATM    8  C   UNL     1      -9.452  16.855  68.155  1.00  0.00    -0.251 C  
HETATM    9  C   UNL     1      -7.983  15.863  68.967  1.00  0.00    -0.222 C  
HETATM   10  C   UNL     1     -10.052  18.243  68.412  1.00  0.00    -0.412 C  
HETATM   11  C   UNL     1      -8.677  11.849  67.033  1.00  0.00    -0.181 C  
HETATM   12  C   UNL     1      -7.388  11.248  66.496  1.00  0.00    -0.101 C  
HETATM   13  H   UNL     1      -8.245  17.484  65.346  1.00  0.00     0.000 HD 
HETATM   14  C   UNL     1      -7.727  14.230  68.223  1.00  0.00    -0.136 C  
HETATM   15  C   UNL     1      -7.415  10.119  65.748  1.00  0.00    -0.131 C  
HETATM   16  O   UNL     1      -8.743   8.512  64.568  1.00  0.00    -0.094 OA 
HETATM   17  O   UNL     1      -6.523  14.292  67.445  1.00  0.00    -0.307 OA 
HETATM   18  C   UNL     1      -8.950  13.391  67.321  1.00  0.00    -0.221 C  
HETATM   19  H   UNL     1      -6.389  13.437  67.056  1.00  0.00     0.000 HD 
HETATM   20  C   UNL     1      -9.593  14.368  66.193  1.00  0.00    -0.309 C  
HETATM   21  F   UNL     1     -10.077  13.130  68.137  1.00  0.00    -0.210 F  
HETATM   22  C   UNL     1     -10.589  13.603  65.307  1.00  0.00    -0.354 C  
HETATM   23  C   UNL     1     -10.044  12.258  64.873  1.00  0.00    -0.250 C  
HETATM   24  F   UNL     1     -10.940  11.691  64.029  1.00  0.00    -0.343 F  
HETATM   25  C   UNL     1      -9.794  11.356  66.069  1.00  0.00    -0.256 C  
HETATM   26  C   UNL     1      -9.972  10.027  65.943  1.00  0.00    -0.339 C  
HETATM   27  C   UNL     1      -8.711   9.475  65.327  1.00  0.00    -0.166 C  
ENDROOT
BRANCH   4  28
HETATM   28  C   UNL     1      -7.487  17.794  67.478  1.00  0.00    -0.203 C  
HETATM   29  O   UNL     1      -7.527  18.601  68.421  1.00  0.00    -0.277 OA 
BRANCH  28  30
HETATM   30  C   UNL     1      -6.314  17.977  66.509  1.00  0.00    -0.204 C  
HETATM   31  O   UNL     1      -5.505  16.801  66.528  1.00  0.00    -0.346 OA 
HETATM   32  H   UNL     1      -4.778  16.914  65.927  1.00  0.00     0.000 HD 
ENDBRANCH  28  30
ENDBRANCH   4  28
TORSDOF 2
ENDMDL
MODEL       19
REMARK 921   NORMALIZED FREE ENERGY PREDICTED BY IDOCK:   -6.44 KCAL/MOL
REMARK 922        TOTAL FREE ENERGY PREDICTED BY IDOCK:   -6.48 KCAL/MOL
REMARK 923 INTER-LIGAND FREE ENERGY PREDICTED BY IDOCK:   -7.17 KCAL/MOL
REMARK 924 INTRA-LIGAND FREE ENERGY PREDICTED BY IDOCK:    0.69 KCAL/MOL
REMARK 927      BINDING AFFINITY PREDICTED BY RF-SCORE:    0.00 PKD
ROOT
HETATM    1  C   UNL     1      -8.119  11.383  67.647  1.00  0.00    -0.124 C  
HETATM    2  C   UNL     1      -9.048  11.022  68.647  1.00  0.00    -0.174 C  
HETATM    3  C   UNL     1      -9.653  10.899  67.264  1.00  0.00    -0.184 C  
HETATM    4  C   UNL     1      -8.337  11.065  65.684  1.00  0.00    -0.060 C  
HETATM    5  C   UNL     1     -10.957   9.913  67.676  1.00  0.00    -0.263 C  
HETATM    6  O   UNL     1      -6.871  11.162  65.890  1.00  0.00    -0.346 OA 
HETATM    7  C   UNL     1     -12.014  14.823  67.230  1.00  0.00    -0.236 C  
HETATM    8  C   UNL     1      -8.870  10.072  66.425  1.00  0.00    -0.158 C  
HETATM    9  C   UNL     1     -10.217  10.816  65.228  1.00  0.00    -0.351 C  
HETATM   10  C   UNL     1      -8.341   8.652  66.660  1.00  0.00    -0.108 C  
HETATM   11  C   UNL     1     -10.464  14.985  66.928  1.00  0.00    -0.279 C  
HETATM   12  C   UNL     1     -10.435  16.043  65.838  1.00  0.00    -0.373 C  
HETATM   13  H   UNL     1      -6.265  11.238  65.163  1.00  0.00     0.000 HD 
HETATM   14  C   UNL     1     -10.412  12.610  65.396  1.00  0.00    -0.283 C  
HETATM   15  C   UNL     1     -10.346  17.357  66.157  1.00  0.00    -0.329 C  
HETATM   16  O   UNL     1      -9.983  18.998  67.865  1.00  0.00    -0.324 OA 
HETATM   17  O   UNL     1      -9.838  13.219  64.231  1.00  0.00    -0.676 OA 
HETATM   18  C   UNL     1      -9.919  13.493  66.807  1.00  0.00    -0.269 C  
HETATM   19  H   UNL     1      -9.940  14.159  64.319  1.00  0.00     0.000 HD 
HETATM   20  C   UNL     1      -8.395  13.107  67.216  1.00  0.00    -0.182 C  
HETATM   21  F   UNL     1     -10.633  13.046  67.946  1.00  0.00    -0.214 F  
HETATM   22  C   UNL     1      -7.905  13.971  68.388  1.00  0.00    -0.144 C  
HETATM   23  C   UNL     1      -8.253  15.432  68.199  1.00  0.00    -0.144 C  
HETATM   24  F   UNL     1      -7.712  16.133  69.225  1.00  0.00    -0.204 F  
HETATM   25  C   UNL     1      -9.759  15.635  68.152  1.00  0.00    -0.204 C  
HETATM   26  C   UNL     1     -10.288  16.767  68.654  1.00  0.00    -0.318 C  
HETATM   27  C   UNL     1     -10.165  17.819  67.581  1.00  0.00    -0.358 C  
ENDROOT
BRANCH   4  28
HETATM   28  C   UNL     1      -8.030  10.069  64.305  1.00  0.00    -0.152 C  
HETATM   29  O   UNL     1      -8.881   9.510  63.595  1.00  0.00    -0.224 OA 
BRANCH  28  30
HETATM   30  C   UNL     1      -6.576   9.890  63.852  1.00  0.00    -0.126 C  
HETATM   31  O   UNL     1      -6.232  10.949  62.959  1.00  0.00    -0.363 OA 
HETATM   32  H   UNL     1      -5.331  10.838  62.678  1.00  0.00     0.000 HD 
ENDBRANCH  28  30
ENDBRANCH   4  28
TORSDOF 2
ENDMDL
MODEL       20
REMARK 921   NORMALIZED FREE ENERGY PREDICTED BY IDOCK:   -6.35 KCAL/MOL
REMARK 922        TOTAL FREE ENERGY PREDICTED BY IDOCK:   -6.38 KCAL/MOL
REMARK 923 INTER-LIGAND FREE ENERGY PREDICTED BY IDOCK:   -6.99 KCAL/MOL
REMARK 924 INTRA-LIGAND FREE ENERGY PREDICTED BY IDOCK:    0.61 KCAL/MOL
REMARK 927      BINDING AFFINITY PREDICTED BY RF-SCORE:    0.00 PKD
ROOT
HETATM    1  C   UNL     1     -11.260   7.758  71.883  1.00  0.00    -0.310 C  
HETATM    2  C   UNL     1     -12.075   7.071  70.957  1.00  0.00    -0.413 C  
HETATM    3  C   UNL     1     -10.604   6.852  70.664  1.00  0.00    -0.248 C  
HETATM    4  C   UNL     1      -9.288   7.508  72.112  1.00  0.00    -0.140 C  
HETATM    5  C   UNL     1     -10.770   5.492  69.682  1.00  0.00    -0.349 C  
HETATM    6  O   UNL     1      -9.756   8.035  73.417  1.00  0.00    -0.280 OA 
HETATM    7  C   UNL     1     -10.163   9.861  67.241  1.00  0.00    -0.277 C  
HETATM    8  C   UNL     1      -9.917   6.357  71.797  1.00  0.00    -0.195 C  
HETATM    9  C   UNL     1      -8.499   6.724  70.509  1.00  0.00    -0.138 C  
HETATM   10  C   UNL     1     -10.237   5.155  72.693  1.00  0.00    -0.232 C  
HETATM   11  C   UNL     1     -10.145  10.507  68.690  1.00  0.00    -0.190 C  
HETATM   12  C   UNL     1      -9.083  11.588  68.573  1.00  0.00    -0.157 C  
HETATM   13  H   UNL     1      -9.150   8.337  74.084  1.00  0.00     0.000 HD 
HETATM   14  C   UNL     1      -8.638   8.359  69.740  1.00  0.00    -0.132 C  
HETATM   15  C   UNL     1      -9.419  12.844  68.193  1.00  0.00    -0.218 C  
HETATM   16  O   UNL     1     -11.171  14.411  67.730  1.00  0.00    -0.277 OA 
HETATM   17  O   UNL     1      -7.598   9.183  70.285  1.00  0.00    -0.079 OA 
HETATM   18  C   UNL     1     -10.118   9.264  69.685  1.00  0.00    -0.197 C  
HETATM   19  H   UNL     1      -7.671  10.040  69.882  1.00  0.00     0.000 HD 
HETATM   20  C   UNL     1     -10.793   9.338  71.161  1.00  0.00    -0.407 C  
HETATM   21  F   UNL     1     -11.108   8.552  68.963  1.00  0.00    -0.133 F  
HETATM   22  C   UNL     1     -12.039  10.238  71.151  1.00  0.00    -0.494 C  
HETATM   23  C   UNL     1     -11.796  11.531  70.402  1.00  0.00    -0.320 C  
HETATM   24  F   UNL     1     -12.906  12.301  70.515  1.00  0.00    -0.221 F  
HETATM   25  C   UNL     1     -11.479  11.267  68.940  1.00  0.00    -0.363 C  
HETATM   26  C   UNL     1     -11.882  12.150  68.006  1.00  0.00    -0.351 C  
HETATM   27  C   UNL     1     -10.854  13.253  67.977  1.00  0.00    -0.243 C  
ENDROOT
BRANCH   4  28
HETATM   28  C   UNL     1      -7.983   6.738  72.944  1.00  0.00    -0.105 C  
HETATM   29  O   UNL     1      -7.698   5.530  72.912  1.00  0.00    -0.096 OA 
BRANCH  28  30
HETATM   30  C   UNL     1      -7.028   7.617  73.759  1.00  0.00    -0.091 C  
HETATM   31  O   UNL     1      -6.920   8.896  73.134  1.00  0.00    -0.333 OA 
HETATM   32  H   UNL     1      -6.329   9.440  73.639  1.00  0.00     0.000 HD 
ENDBRANCH  28  30
ENDBRANCH   4  28
TORSDOF 2
ENDMDL
MODEL       21
REMARK 921   NORMALIZED FREE ENERGY PREDICTED BY IDOCK:   -6.27 KCAL/MOL
REMARK 922        TOTAL FREE ENERGY PREDICTED BY IDOCK:   -6.29 KCAL/MOL
REMARK 923 INTER-LIGAND FREE ENERGY PREDICTED BY IDOCK:   -7.26 KCAL/MOL
REMARK 924 INTRA-LIGAND FREE ENERGY PREDICTED BY IDOCK:    0.97 KCAL/MOL
REMARK 927      BINDING AFFINITY PREDICTED BY RF-SCORE:    0.00 PKD
ROOT
HETATM    1  C   UNL     1      -8.423  11.759  67.280  1.00  0.00    -0.160 C  
HETATM    2  C   UNL     1      -9.152  11.686  68.487  1.00  0.00    -0.157 C  
HETATM    3  C   UNL     1     -10.061  11.992  67.315  1.00  0.00    -0.208 C  
HETATM    4  C   UNL     1      -9.214  11.805  65.443  1.00  0.00    -0.013 C  
HETATM    5  C   UNL     1     -11.522  11.579  68.047  1.00  0.00    -0.381 C  
HETATM    6  O   UNL     1      -7.843  11.271  65.251  1.00  0.00    -0.331 OA 
HETATM    7  C   UNL     1     -10.464  16.508  67.963  1.00  0.00    -0.313 C  
HETATM    8  C   UNL     1      -9.926  11.030  66.287  1.00  0.00    -0.269 C  
HETATM    9  C   UNL     1     -11.071  12.400  65.502  1.00  0.00    -0.338 C  
HETATM   10  C   UNL     1     -10.012   9.501  66.354  1.00  0.00    -0.339 C  
HETATM   11  C   UNL     1      -9.113  16.062  67.259  1.00  0.00    -0.217 C  
HETATM   12  C   UNL     1      -8.895  17.144  66.214  1.00  0.00    -0.266 C  
HETATM   13  H   UNL     1      -7.453  11.184  64.389  1.00  0.00     0.000 HD 
HETATM   14  C   UNL     1     -10.438  14.082  65.739  1.00  0.00    -0.309 C  
HETATM   15  C   UNL     1      -8.184  18.258  66.515  1.00  0.00    -0.290 C  
HETATM   16  O   UNL     1      -6.765  19.383  68.084  1.00  0.00    -0.246 OA 
HETATM   17  O   UNL     1      -9.954  14.545  64.471  1.00  0.00    -0.583 OA 
HETATM   18  C   UNL     1      -9.299  14.506  66.978  1.00  0.00    -0.238 C  
HETATM   19  H   UNL     1      -9.622  15.427  64.595  1.00  0.00     0.000 HD 
HETATM   20  C   UNL     1      -8.035  13.486  66.960  1.00  0.00     0.031 C  
HETATM   21  F   UNL     1      -9.843  14.250  68.261  1.00  0.00    -0.207 F  
HETATM   22  C   UNL     1      -6.962  13.922  67.970  1.00  0.00    -0.142 C  
HETATM   23  C   UNL     1      -6.690  15.410  67.899  1.00  0.00    -0.160 C  
HETATM   24  F   UNL     1      -5.676  15.697  68.752  1.00  0.00    -0.093 F  
HETATM   25  C   UNL     1      -7.930  16.211  68.258  1.00  0.00    -0.152 C  
HETATM   26  C   UNL     1      -7.793  17.389  68.898  1.00  0.00    -0.196 C  
HETATM   27  C   UNL     1      -7.492  18.424  67.844  1.00  0.00    -0.236 C  
ENDROOT
BRANCH   4  28
HETATM   28  C   UNL     1      -9.695  10.950  64.020  1.00  0.00    -0.301 C  
HETATM   29  O   UNL     1     -10.730  11.138  63.361  1.00  0.00    -0.360 OA 
BRANCH  28  30
HETATM   30  C   UNL     1      -8.740   9.893  63.454  1.00  0.00    -0.224 C  
HETATM   31  O   UNL     1      -9.392   9.198  62.389  1.00  0.00    -0.568 OA 
HETATM   32  H   UNL     1      -8.800   8.543  62.038  1.00  0.00     0.000 HD 
ENDBRANCH  28  30
ENDBRANCH   4  28
TORSDOF 2
ENDMDL
MODEL       22
REMARK 921   NORMALIZED FREE ENERGY PREDICTED BY IDOCK:   -6.25 KCAL/MOL
REMARK 922        TOTAL FREE ENERGY PREDICTED BY IDOCK:   -6.27 KCAL/MOL
REMARK 923 INTER-LIGAND FREE ENERGY PREDICTED BY IDOCK:   -7.10 KCAL/MOL
REMARK 924 INTRA-LIGAND FREE ENERGY PREDICTED BY IDOCK:    0.83 KCAL/MOL
REMARK 927      BINDING AFFINITY PREDICTED BY RF-SCORE:    0.00 PKD
ROOT
HETATM    1  C   UNL     1      -8.548  12.183  67.886  1.00  0.00    -0.167 C  
HETATM    2  C   UNL     1      -7.937  11.532  66.792  1.00  0.00    -0.152 C  
HETATM    3  C   UNL     1      -9.438  11.621  66.611  1.00  0.00    -0.213 C  
HETATM    4  C   UNL     1     -10.440  12.830  67.950  1.00  0.00    -0.220 C  
HETATM    5  C   UNL     1      -9.483  11.329  64.951  1.00  0.00    -0.223 C  
HETATM    6  O   UNL     1      -9.721  13.667  68.941  1.00  0.00    -0.405 OA 
HETATM    7  C   UNL     1     -10.504   7.350  67.875  1.00  0.00    -0.265 C  
HETATM    8  C   UNL     1      -9.898  12.954  66.721  1.00  0.00    -0.241 C  
HETATM    9  C   UNL     1     -11.535  11.898  66.630  1.00  0.00    -0.382 C  
HETATM   10  C   UNL     1      -9.423  14.221  65.999  1.00  0.00    -0.213 C  
HETATM   11  C   UNL     1     -10.231   8.345  69.081  1.00  0.00    -0.217 C  
HETATM   12  C   UNL     1     -11.284   7.945  70.102  1.00  0.00    -0.157 C  
HETATM   13  H   UNL     1     -10.183  14.224  69.557  1.00  0.00     0.000 HD 
HETATM   14  C   UNL     1     -11.530  10.474  67.752  1.00  0.00    -0.061 C  
HETATM   15  C   UNL     1     -11.014   6.998  71.033  1.00  0.00    -0.279 C  
HETATM   16  O   UNL     1      -9.368   5.600  72.071  1.00  0.00    -0.150 OA 
HETATM   17  O   UNL     1     -12.434  10.767  68.827  1.00  0.00    -0.793 OA 
HETATM   18  C   UNL     1     -10.079   9.775  68.398  1.00  0.00    -0.166 C  
HETATM   19  H   UNL     1     -12.432  10.021  69.414  1.00  0.00     0.000 HD 
HETATM   20  C   UNL     1      -9.128  10.928  69.036  1.00  0.00    -0.110 C  
HETATM   21  F   UNL     1      -9.257   9.286  67.353  1.00  0.00    -0.130 F  
HETATM   22  C   UNL     1      -7.898  10.310  69.720  1.00  0.00    -0.151 C  
HETATM   23  C   UNL     1      -8.267   9.120  70.580  1.00  0.00    -0.190 C  
HETATM   24  F   UNL     1      -7.148   8.691  71.213  1.00  0.00    -0.056 F  
HETATM   25  C   UNL     1      -8.866   8.002  69.742  1.00  0.00    -0.144 C  
HETATM   26  C   UNL     1      -8.642   6.722  70.093  1.00  0.00    -0.140 C  
HETATM   27  C   UNL     1      -9.644   6.383  71.168  1.00  0.00    -0.174 C  
ENDROOT
BRANCH   4  28
HETATM   28  C   UNL     1     -11.567  14.124  67.744  1.00  0.00    -0.347 C  
HETATM   29  O   UNL     1     -12.404  14.236  66.833  1.00  0.00    -0.408 OA 
BRANCH  28  30
HETATM   30  C   UNL     1     -11.604  15.226  68.808  1.00  0.00    -0.362 C  
HETATM   31  O   UNL     1     -12.675  14.963  69.715  1.00  0.00    -0.579 OA 
HETATM   32  H   UNL     1     -12.698  15.646  70.375  1.00  0.00     0.000 HD 
ENDBRANCH  28  30
ENDBRANCH   4  28
TORSDOF 2
ENDMDL
MODEL       23
REMARK 921   NORMALIZED FREE ENERGY PREDICTED BY IDOCK:   -6.24 KCAL/MOL
REMARK 922        TOTAL FREE ENERGY PREDICTED BY IDOCK:   -6.26 KCAL/MOL
REMARK 923 INTER-LIGAND FREE ENERGY PREDICTED BY IDOCK:   -6.98 KCAL/MOL
REMARK 924 INTRA-LIGAND FREE ENERGY PREDICTED BY IDOCK:    0.72 KCAL/MOL
REMARK 927      BINDING AFFINITY PREDICTED BY RF-SCORE:    0.00 PKD
ROOT
HETATM    1  C   UNL     1     -10.716  15.033  66.143  1.00  0.00    -0.328 C  
HETATM    2  C   UNL     1     -11.949  14.763  66.776  1.00  0.00    -0.210 C  
HETATM    3  C   UNL     1     -10.848  14.991  67.792  1.00  0.00    -0.284 C  
HETATM    4  C   UNL     1      -9.069  15.722  67.046  1.00  0.00    -0.220 C  
HETATM    5  C   UNL     1     -11.833  15.288  69.128  1.00  0.00    -0.345 C  
HETATM    6  O   UNL     1      -8.920  16.129  65.627  1.00  0.00    -0.370 OA 
HETATM    7  C   UNL     1      -9.976  10.611  68.805  1.00  0.00    -0.201 C  
HETATM    8  C   UNL     1     -10.197  16.229  67.584  1.00  0.00    -0.272 C  
HETATM    9  C   UNL     1      -9.126  15.360  68.962  1.00  0.00    -0.233 C  
HETATM   10  C   UNL     1     -10.785  17.638  67.442  1.00  0.00    -0.262 C  
HETATM   11  C   UNL     1      -9.321  11.116  67.450  1.00  0.00    -0.172 C  
HETATM   12  C   UNL     1      -7.955  10.449  67.458  1.00  0.00    -0.106 C  
HETATM   13  H   UNL     1      -8.100  16.465  65.284  1.00  0.00     0.000 HD 
HETATM   14  C   UNL     1      -8.712  13.640  68.567  1.00  0.00    -0.102 C  
HETATM   15  C   UNL     1      -7.783   9.228  66.899  1.00  0.00    -0.094 C  
HETATM   16  O   UNL     1      -8.716   7.471  65.563  1.00  0.00    -0.127 OA 
HETATM   17  O   UNL     1      -7.317  13.596  68.236  1.00  0.00    -0.097 OA 
HETATM   18  C   UNL     1      -9.603  12.684  67.426  1.00  0.00    -0.194 C  
HETATM   19  H   UNL     1      -7.100  12.695  68.029  1.00  0.00     0.000 HD 
HETATM   20  C   UNL     1      -9.792  13.494  66.030  1.00  0.00    -0.277 C  
HETATM   21  F   UNL     1     -10.948  12.537  67.845  1.00  0.00    -0.213 F  
HETATM   22  C   UNL     1     -10.472  12.613  64.971  1.00  0.00    -0.331 C  
HETATM   23  C   UNL     1      -9.874  11.222  64.923  1.00  0.00    -0.264 C  
HETATM   24  F   UNL     1     -10.464  10.542  63.910  1.00  0.00    -0.394 F  
HETATM   25  C   UNL     1     -10.075  10.494  66.241  1.00  0.00    -0.290 C  
HETATM   26  C   UNL     1     -10.261   9.160  66.237  1.00  0.00    -0.257 C  
HETATM   27  C   UNL     1      -8.894   8.529  66.156  1.00  0.00    -0.167 C  
ENDROOT
BRANCH   4  28
HETATM   28  C   UNL     1      -8.079  17.068  67.487  1.00  0.00    -0.175 C  
HETATM   29  O   UNL     1      -7.948  17.547  68.625  1.00  0.00    -0.266 OA 
BRANCH  28  30
HETATM   30  C   UNL     1      -7.216  17.718  66.399  1.00  0.00    -0.273 C  
HETATM   31  O   UNL     1      -8.004  18.671  65.685  1.00  0.00    -0.454 OA 
HETATM   32  H   UNL     1      -7.468  19.074  65.011  1.00  0.00     0.000 HD 
ENDBRANCH  28  30
ENDBRANCH   4  28
TORSDOF 2
ENDMDL
MODEL       24
REMARK 921   NORMALIZED FREE ENERGY PREDICTED BY IDOCK:   -6.22 KCAL/MOL
REMARK 922        TOTAL FREE ENERGY PREDICTED BY IDOCK:   -6.24 KCAL/MOL
REMARK 923 INTER-LIGAND FREE ENERGY PREDICTED BY IDOCK:   -6.91 KCAL/MOL
REMARK 924 INTRA-LIGAND FREE ENERGY PREDICTED BY IDOCK:    0.67 KCAL/MOL
REMARK 927      BINDING AFFINITY PREDICTED BY RF-SCORE:    0.00 PKD
ROOT
HETATM    1  C   UNL     1      -9.701  18.952  66.541  1.00  0.00    -0.391 C  
HETATM    2  C   UNL     1     -10.789  19.324  67.359  1.00  0.00    -0.554 C  
HETATM    3  C   UNL     1      -9.676  18.701  68.176  1.00  0.00    -0.372 C  
HETATM    4  C   UNL     1      -7.888  18.408  67.189  1.00  0.00    -0.229 C  
HETATM    5  C   UNL     1     -10.165  19.261  69.689  1.00  0.00     0.310 C  
HETATM    6  O   UNL     1      -7.663  18.902  65.809  1.00  0.00    -0.465 OA 
HETATM    7  C   UNL     1     -11.461  14.507  68.621  1.00  0.00    -0.321 C  
HETATM    8  C   UNL     1      -8.443  19.361  67.965  1.00  0.00    -0.355 C  
HETATM    9  C   UNL     1      -7.966  17.809  69.044  1.00  0.00    -0.079 C  
HETATM   10  C   UNL     1      -8.098  20.852  68.058  1.00  0.00     0.254 C  
HETATM   11  C   UNL     1     -10.765  14.781  67.220  1.00  0.00    -0.294 C  
HETATM   12  C   UNL     1     -10.062  13.467  66.923  1.00  0.00    -0.256 C  
HETATM   13  H   UNL     1      -6.839  18.767  65.355  1.00  0.00     0.000 HD 
HETATM   14  C   UNL     1      -8.684  16.263  68.429  1.00  0.00    -0.205 C  
HETATM   15  C   UNL     1     -10.697  12.488  66.234  1.00  0.00    -0.288 C  
HETATM   16  O   UNL     1     -12.607  11.845  64.938  1.00  0.00    -0.305 OA 
HETATM   17  O   UNL     1      -7.622  15.493  67.849  1.00  0.00    -0.119 OA 
HETATM   18  C   UNL     1     -10.071  16.204  67.387  1.00  0.00    -0.257 C  
HETATM   19  H   UNL     1      -7.998  14.683  67.527  1.00  0.00     0.000 HD 
HETATM   20  C   UNL     1      -9.877  17.211  66.126  1.00  0.00    -0.280 C  
HETATM   21  F   UNL     1     -11.197  16.777  68.027  1.00  0.00    -0.353 F  
HETATM   22  C   UNL     1     -11.041  17.078  65.133  1.00  0.00     0.087 C  
HETATM   23  C   UNL     1     -11.386  15.630  64.854  1.00  0.00    -0.315 C  
HETATM   24  F   UNL     1     -12.356  15.600  63.908  1.00  0.00    -0.411 F  
HETATM   25  C   UNL     1     -11.852  14.925  66.117  1.00  0.00    -0.113 C  
HETATM   26  C   UNL     1     -12.788  13.961  66.028  1.00  0.00    -0.302 C  
HETATM   27  C   UNL     1     -12.070  12.691  65.645  1.00  0.00    -0.443 C  
ENDROOT
BRANCH   4  28
HETATM   28  C   UNL     1      -6.258  18.848  67.562  1.00  0.00    -0.184 C  
HETATM   29  O   UNL     1      -5.896  19.770  68.309  1.00  0.00    -0.221 OA 
BRANCH  28  30
HETATM   30  C   UNL     1      -5.127  17.994  66.977  1.00  0.00    -0.122 C  
HETATM   31  O   UNL     1      -5.692  16.868  66.305  1.00  0.00    -0.324 OA 
HETATM   32  H   UNL     1      -4.991  16.339  65.942  1.00  0.00     0.000 HD 
ENDBRANCH  28  30
ENDBRANCH   4  28
TORSDOF 2
ENDMDL
MODEL       25
REMARK 921   NORMALIZED FREE ENERGY PREDICTED BY IDOCK:   -6.06 KCAL/MOL
REMARK 922        TOTAL FREE ENERGY PREDICTED BY IDOCK:   -6.06 KCAL/MOL
REMARK 923 INTER-LIGAND FREE ENERGY PREDICTED BY IDOCK:   -6.66 KCAL/MOL
REMARK 924 INTRA-LIGAND FREE ENERGY PREDICTED BY IDOCK:    0.60 KCAL/MOL
REMARK 927      BINDING AFFINITY PREDICTED BY RF-SCORE:    0.00 PKD
ROOT
HETATM    1  C   UNL     1     -10.905   8.348  71.398  1.00  0.00    -0.304 C  
HETATM    2  C   UNL     1     -11.861   7.605  70.671  1.00  0.00    -0.169 C  
HETATM    3  C   UNL     1     -10.450   7.250  70.248  1.00  0.00    -0.231 C  
HETATM    4  C   UNL     1      -8.936   7.996  71.436  1.00  0.00    -0.141 C  
HETATM    5  C   UNL     1     -10.803   5.789  69.485  1.00  0.00    -0.410 C  
HETATM    6  O   UNL     1      -9.215   8.718  72.701  1.00  0.00    -0.327 OA 
HETATM    7  C   UNL     1     -10.267   9.756  66.419  1.00  0.00    -0.288 C  
HETATM    8  C   UNL     1      -9.658   6.859  71.352  1.00  0.00    -0.167 C  
HETATM    9  C   UNL     1      -8.388   6.960  69.876  1.00  0.00    -0.139 C  
HETATM   10  C   UNL     1      -9.930   5.807  72.434  1.00  0.00    -0.194 C  
HETATM   11  C   UNL     1     -10.041  10.581  67.757  1.00  0.00    -0.205 C  
HETATM   12  C   UNL     1      -8.945  11.563  67.375  1.00  0.00    -0.156 C  
HETATM   13  H   UNL     1      -8.518   9.061  73.248  1.00  0.00     0.000 HD 
HETATM   14  C   UNL     1      -8.533   8.489  68.912  1.00  0.00    -0.123 C  
HETATM   15  C   UNL     1      -9.258  12.779  66.868  1.00  0.00    -0.229 C  
HETATM   16  O   UNL     1     -10.969  14.389  66.397  1.00  0.00    -0.308 OA 
HETATM   17  O   UNL     1      -7.393   9.304  69.219  1.00  0.00    -0.067 OA 
HETATM   18  C   UNL     1      -9.959   9.477  68.902  1.00  0.00    -0.179 C  
HETATM   19  H   UNL     1      -7.469  10.104  68.714  1.00  0.00     0.000 HD 
HETATM   20  C   UNL     1     -10.447   9.786  70.420  1.00  0.00    -0.358 C  
HETATM   21  F   UNL     1     -11.065   8.747  68.399  1.00  0.00    -0.117 F  
HETATM   22  C   UNL     1     -11.636  10.760  70.428  1.00  0.00    -0.431 C  
HETATM   23  C   UNL     1     -11.418  11.927  69.488  1.00  0.00    -0.288 C  
HETATM   24  F   UNL     1     -12.464  12.778  69.620  1.00  0.00    -0.234 F  
HETATM   25  C   UNL     1     -11.294  11.455  68.049  1.00  0.00    -0.372 C  
HETATM   26  C   UNL     1     -11.759  12.236  67.056  1.00  0.00    -0.399 C  
HETATM   27  C   UNL     1     -10.686  13.253  66.761  1.00  0.00    -0.276 C  
ENDROOT
BRANCH   4  28
HETATM   28  C   UNL     1      -7.583   7.253  72.212  1.00  0.00    -0.084 C  
HETATM   29  O   UNL     1      -7.357   6.035  72.296  1.00  0.00    -0.090 OA 
BRANCH  28  30
HETATM   30  C   UNL     1      -6.504   8.163  72.811  1.00  0.00    -0.083 C  
HETATM   31  O   UNL     1      -6.440   9.372  72.054  1.00  0.00    -0.293 OA 
HETATM   32  H   UNL     1      -5.771   9.936  72.426  1.00  0.00     0.000 HD 
ENDBRANCH  28  30
ENDBRANCH   4  28
TORSDOF 2
ENDMDL
MODEL       26
REMARK 921   NORMALIZED FREE ENERGY PREDICTED BY IDOCK:   -6.04 KCAL/MOL
REMARK 922        TOTAL FREE ENERGY PREDICTED BY IDOCK:   -6.04 KCAL/MOL
REMARK 923 INTER-LIGAND FREE ENERGY PREDICTED BY IDOCK:   -6.72 KCAL/MOL
REMARK 924 INTRA-LIGAND FREE ENERGY PREDICTED BY IDOCK:    0.69 KCAL/MOL
REMARK 927      BINDING AFFINITY PREDICTED BY RF-SCORE:    0.00 PKD
ROOT
HETATM    1  C   UNL     1     -11.208  14.074  66.324  1.00  0.00    -0.320 C  
HETATM    2  C   UNL     1     -12.017  13.242  67.128  1.00  0.00    -0.400 C  
HETATM    3  C   UNL     1     -10.793  13.716  67.885  1.00  0.00    -0.264 C  
HETATM    4  C   UNL     1      -9.686  15.198  66.972  1.00  0.00    -0.231 C  
HETATM    5  C   UNL     1     -11.346  13.379  69.441  1.00  0.00    -0.286 C  
HETATM    6  O   UNL     1     -10.134  15.856  65.721  1.00  0.00    -0.314 OA 
HETATM    7  C   UNL     1      -8.252   9.931  67.453  1.00  0.00    -0.118 C  
HETATM    8  C   UNL     1     -10.688  15.126  67.872  1.00  0.00    -0.268 C  
HETATM    9  C   UNL     1      -9.014  14.536  68.680  1.00  0.00    -0.181 C  
HETATM   10  C   UNL     1     -11.720  16.193  68.255  1.00  0.00    -0.074 C  
HETATM   11  C   UNL     1      -8.262  10.866  66.170  1.00  0.00    -0.168 C  
HETATM   12  C   UNL     1      -6.824  10.798  65.683  1.00  0.00    -0.023 C  
HETATM   13  H   UNL     1      -9.624  16.539  65.301  1.00  0.00     0.000 HD 
HETATM   14  C   UNL     1      -8.202  13.207  67.752  1.00  0.00    -0.168 C  
HETATM   15  C   UNL     1      -6.444   9.852  64.791  1.00  0.00    -0.120 C  
HETATM   16  O   UNL     1      -7.116   8.113  63.286  1.00  0.00    -0.083 OA 
HETATM   17  O   UNL     1      -7.050  13.770  67.108  1.00  0.00    -0.362 OA 
HETATM   18  C   UNL     1      -9.038  12.177  66.634  1.00  0.00    -0.206 C  
HETATM   19  H   UNL     1      -6.625  13.074  66.622  1.00  0.00     0.000 HD 
HETATM   20  C   UNL     1      -9.914  13.064  65.591  1.00  0.00    -0.239 C  
HETATM   21  F   UNL     1     -10.055  11.447  67.298  1.00  0.00    -0.197 F  
HETATM   22  C   UNL     1     -10.562  12.171  64.521  1.00  0.00    -0.350 C  
HETATM   23  C   UNL     1      -9.586  11.156  63.964  1.00  0.00    -0.254 C  
HETATM   24  F   UNL     1     -10.206  10.473  62.971  1.00  0.00    -0.330 F  
HETATM   25  C   UNL     1      -9.109  10.203  65.047  1.00  0.00    -0.245 C  
HETATM   26  C   UNL     1      -8.836   8.923  64.728  1.00  0.00    -0.130 C  
HETATM   27  C   UNL     1      -7.437   8.904  64.166  1.00  0.00    -0.111 C  
ENDROOT
BRANCH   4  28
HETATM   28  C   UNL     1      -9.110  16.734  67.517  1.00  0.00    -0.210 C  
HETATM   29  O   UNL     1      -8.599  16.981  68.621  1.00  0.00    -0.254 OA 
BRANCH  28  30
HETATM   30  C   UNL     1      -9.165  17.915  66.541  1.00  0.00    -0.273 C  
HETATM   31  O   UNL     1      -7.995  17.899  65.723  1.00  0.00    -0.540 OA 
HETATM   32  H   UNL     1      -8.029  18.630  65.118  1.00  0.00     0.000 HD 
ENDBRANCH  28  30
ENDBRANCH   4  28
TORSDOF 2
ENDMDL
MODEL       27
REMARK 921   NORMALIZED FREE ENERGY PREDICTED BY IDOCK:   -6.00 KCAL/MOL
REMARK 922        TOTAL FREE ENERGY PREDICTED BY IDOCK:   -5.99 KCAL/MOL
REMARK 923 INTER-LIGAND FREE ENERGY PREDICTED BY IDOCK:   -6.63 KCAL/MOL
REMARK 924 INTRA-LIGAND FREE ENERGY PREDICTED BY IDOCK:    0.64 KCAL/MOL
REMARK 927      BINDING AFFINITY PREDICTED BY RF-SCORE:    0.00 PKD
ROOT
HETATM    1  C   UNL     1      -8.420  12.258  67.581  1.00  0.00    -0.166 C  
HETATM    2  C   UNL     1      -8.429  11.337  66.510  1.00  0.00    -0.171 C  
HETATM    3  C   UNL     1      -9.837  11.679  66.953  1.00  0.00    -0.218 C  
HETATM    4  C   UNL     1     -10.010  13.253  68.276  1.00  0.00    -0.236 C  
HETATM    5  C   UNL     1     -10.644  11.141  65.575  1.00  0.00    -0.289 C  
HETATM    6  O   UNL     1      -8.845  14.086  68.662  1.00  0.00    -0.256 OA 
HETATM    7  C   UNL     1     -10.654   7.945  69.474  1.00  0.00    -0.220 C  
HETATM    8  C   UNL     1     -10.062  13.075  66.940  1.00  0.00    -0.243 C  
HETATM    9  C   UNL     1     -11.666  12.349  67.778  1.00  0.00    -0.413 C  
HETATM   10  C   UNL     1      -9.833  14.098  65.820  1.00  0.00    -0.297 C  
HETATM   11  C   UNL     1      -9.774   9.049  70.200  1.00  0.00    -0.213 C  
HETATM   12  C   UNL     1     -10.297   9.023  71.627  1.00  0.00    -0.420 C  
HETATM   13  H   UNL     1      -8.925  14.811  69.271  1.00  0.00     0.000 HD 
HETATM   14  C   UNL     1     -11.306  11.146  69.086  1.00  0.00    -0.273 C  
HETATM   15  C   UNL     1      -9.739   8.202  72.549  1.00  0.00    -0.357 C  
HETATM   16  O   UNL     1      -7.953   6.701  73.096  1.00  0.00    -0.104 OA 
HETATM   17  O   UNL     1     -11.603  11.772  70.343  1.00  0.00    -0.506 OA 
HETATM   18  C   UNL     1      -9.798  10.297  69.211  1.00  0.00    -0.228 C  
HETATM   19  H   UNL     1     -11.415  11.142  71.028  1.00  0.00     0.000 HD 
HETATM   20  C   UNL     1      -8.552  11.335  69.119  1.00  0.00     0.106 C  
HETATM   21  F   UNL     1      -9.581   9.500  68.060  1.00  0.00    -0.139 F  
HETATM   22  C   UNL     1      -7.216  10.612  69.350  1.00  0.00    -0.126 C  
HETATM   23  C   UNL     1      -7.281   9.665  70.531  1.00  0.00    -0.136 C  
HETATM   24  F   UNL     1      -6.047   9.138  70.720  1.00  0.00    -0.032 F  
HETATM   25  C   UNL     1      -8.300   8.563  70.293  1.00  0.00    -0.125 C  
HETATM   26  C   UNL     1      -8.074   7.335  70.799  1.00  0.00    -0.111 C  
HETATM   27  C   UNL     1      -8.521   7.368  72.238  1.00  0.00    -0.112 C  
ENDROOT
BRANCH   4  28
HETATM   28  C   UNL     1     -10.974  14.688  68.270  1.00  0.00    -0.252 C  
HETATM   29  O   UNL     1     -11.591  15.158  67.301  1.00  0.00    -0.323 OA 
BRANCH  28  30
HETATM   30  C   UNL     1     -11.154  15.444  69.591  1.00  0.00    -0.276 C  
HETATM   31  O   UNL     1     -11.093  14.513  70.673  1.00  0.00    -0.490 OA 
HETATM   32  H   UNL     1     -11.204  14.981  71.492  1.00  0.00     0.000 HD 
ENDBRANCH  28  30
ENDBRANCH   4  28
TORSDOF 2
ENDMDL
MODEL       28
REMARK 921   NORMALIZED FREE ENERGY PREDICTED BY IDOCK:   -5.94 KCAL/MOL
REMARK 922        TOTAL FREE ENERGY PREDICTED BY IDOCK:   -5.92 KCAL/MOL
REMARK 923 INTER-LIGAND FREE ENERGY PREDICTED BY IDOCK:   -6.69 KCAL/MOL
REMARK 924 INTRA-LIGAND FREE ENERGY PREDICTED BY IDOCK:    0.76 KCAL/MOL
REMARK 927      BINDING AFFINITY PREDICTED BY RF-SCORE:    0.00 PKD
ROOT
HETATM    1  C   UNL     1      -9.139   8.063  66.938  1.00  0.00    -0.182 C  
HETATM    2  C   UNL     1      -7.963   8.642  67.462  1.00  0.00    -0.106 C  
HETATM    3  C   UNL     1      -8.257   7.307  68.115  1.00  0.00    -0.124 C  
HETATM    4  C   UNL     1      -9.743   6.179  67.235  1.00  0.00    -0.128 C  
HETATM    5  C   UNL     1      -6.723   7.028  68.758  1.00  0.00    -0.060 C  
HETATM    6  O   UNL     1     -10.389   6.586  65.963  1.00  0.00    -0.341 OA 
HETATM    7  C   UNL     1     -10.124   8.870  71.993  1.00  0.00    -0.351 C  
HETATM    8  C   UNL     1      -8.400   6.279  67.154  1.00  0.00    -0.109 C  
HETATM    9  C   UNL     1      -8.913   5.429  68.833  1.00  0.00    -0.130 C  
HETATM   10  C   UNL     1      -7.468   5.865  66.009  1.00  0.00    -0.085 C  
HETATM   11  C   UNL     1     -11.101   8.878  70.742  1.00  0.00    -0.312 C  
HETATM   12  C   UNL     1     -12.430   8.444  71.341  1.00  0.00    -0.313 C  
HETATM   13  H   UNL     1     -11.073   6.067  65.558  1.00  0.00     0.000 HD 
HETATM   14  C   UNL     1     -10.085   6.414  69.804  1.00  0.00    -0.176 C  
HETATM   15  C   UNL     1     -13.300   9.364  71.823  1.00  0.00    -0.489 C  
HETATM   16  O   UNL     1     -13.874  11.680  72.037  1.00  0.00    -0.042 OA 
HETATM   17  O   UNL     1     -11.362   5.766  69.727  1.00  0.00    -0.287 OA 
HETATM   18  C   UNL     1     -10.294   8.124  69.595  1.00  0.00    -0.221 C  
HETATM   19  H   UNL     1     -11.976   6.282  70.236  1.00  0.00     0.000 HD 
HETATM   20  C   UNL     1     -10.508   8.482  68.025  1.00  0.00    -0.249 C  
HETATM   21  F   UNL     1      -9.086   8.809  69.873  1.00  0.00    -0.142 F  
HETATM   22  C   UNL     1     -10.817   9.976  67.840  1.00  0.00    -0.323 C  
HETATM   23  C   UNL     1     -11.840  10.472  68.840  1.00  0.00    -0.066 C  
HETATM   24  F   UNL     1     -12.120  11.766  68.554  1.00  0.00    -0.368 F  
HETATM   25  C   UNL     1     -11.324  10.341  70.263  1.00  0.00    -0.398 C  
HETATM   26  C   UNL     1     -11.686  11.255  71.183  1.00  0.00     0.329 C  
HETATM   27  C   UNL     1     -13.045  10.845  71.693  1.00  0.00    -0.433 C  
ENDROOT
BRANCH   4  28
HETATM   28  C   UNL     1      -9.801   4.541  66.684  1.00  0.00    -0.225 C  
HETATM   29  O   UNL     1      -9.576   3.526  67.363  1.00  0.00    -0.210 OA 
BRANCH  28  30
HETATM   30  C   UNL     1     -10.231   4.280  65.236  1.00  0.00    -0.217 C  
HETATM   31  O   UNL     1     -11.656   4.298  65.162  1.00  0.00    -0.928 OA 
HETATM   32  H   UNL     1     -11.923   4.136  64.264  1.00  0.00     0.000 HD 
ENDBRANCH  28  30
ENDBRANCH   4  28
TORSDOF 2
ENDMDL
MODEL       29
REMARK 921   NORMALIZED FREE ENERGY PREDICTED BY IDOCK:   -5.90 KCAL/MOL
REMARK 922        TOTAL FREE ENERGY PREDICTED BY IDOCK:   -5.88 KCAL/MOL
REMARK 923 INTER-LIGAND FREE ENERGY PREDICTED BY IDOCK:   -6.65 KCAL/MOL
REMARK 924 INTRA-LIGAND FREE ENERGY PREDICTED BY IDOCK:    0.76 KCAL/MOL
REMARK 927      BINDING AFFINITY PREDICTED BY RF-SCORE:    0.00 PKD
ROOT
HETATM    1  C   UNL     1     -10.003  13.500  65.131  1.00  0.00    -0.201 C  
HETATM    2  C   UNL     1     -11.150  12.941  64.526  1.00  0.00    -0.373 C  
HETATM    3  C   UNL     1     -11.509  13.701  65.786  1.00  0.00    -0.326 C  
HETATM    4  C   UNL     1     -10.006  14.853  66.606  1.00  0.00    -0.258 C  
HETATM    5  C   UNL     1     -13.159  13.872  65.484  1.00  0.00    -0.232 C  
HETATM    6  O   UNL     1      -8.698  15.034  65.929  1.00  0.00    -0.367 OA 
HETATM    7  C   UNL     1     -11.910  10.123  68.616  1.00  0.00     0.288 C  
HETATM    8  C   UNL     1     -11.029  15.031  65.746  1.00  0.00    -0.351 C  
HETATM    9  C   UNL     1     -11.705  14.829  67.564  1.00  0.00    -0.370 C  
HETATM   10  C   UNL     1     -11.211  16.110  64.671  1.00  0.00    -0.307 C  
HETATM   11  C   UNL     1     -10.415  10.579  68.339  1.00  0.00    -0.212 C  
HETATM   12  C   UNL     1      -9.751  10.428  69.698  1.00  0.00    -0.158 C  
HETATM   13  H   UNL     1      -8.006  15.564  66.306  1.00  0.00     0.000 HD 
HETATM   14  C   UNL     1     -11.133  13.312  68.374  1.00  0.00    -0.270 C  
HETATM   15  C   UNL     1      -9.161   9.260  70.049  1.00  0.00    -0.229 C  
HETATM   16  O   UNL     1      -8.418   7.088  69.361  1.00  0.00    -0.131 OA 
HETATM   17  O   UNL     1     -10.168  13.688  69.366  1.00  0.00    -0.413 OA 
HETATM   18  C   UNL     1     -10.552  11.928  67.504  1.00  0.00    -0.219 C  
HETATM   19  H   UNL     1      -9.868  12.893  69.791  1.00  0.00     0.000 HD 
HETATM   20  C   UNL     1      -9.435  12.372  66.411  1.00  0.00    -0.240 C  
HETATM   21  F   UNL     1     -11.568  11.407  66.665  1.00  0.00    -0.356 F  
HETATM   22  C   UNL     1      -8.824  11.143  65.719  1.00  0.00    -0.182 C  
HETATM   23  C   UNL     1      -8.473  10.052  66.709  1.00  0.00    -0.125 C  
HETATM   24  F   UNL     1      -7.863   9.048  66.034  1.00  0.00    -0.096 F  
HETATM   25  C   UNL     1      -9.713   9.538  67.421  1.00  0.00    -0.201 C  
HETATM   26  C   UNL     1      -9.781   8.241  67.777  1.00  0.00    -0.194 C  
HETATM   27  C   UNL     1      -9.039   8.108  69.083  1.00  0.00    -0.148 C  
ENDROOT
BRANCH   4  28
HETATM   28  C   UNL     1      -9.931  16.510  67.090  1.00  0.00    -0.266 C  
HETATM   29  O   UNL     1     -10.517  17.463  66.553  1.00  0.00    -0.321 OA 
BRANCH  28  30
HETATM   30  C   UNL     1      -9.120  16.861  68.343  1.00  0.00    -0.243 C  
HETATM   31  O   UNL     1      -8.160  15.831  68.581  1.00  0.00    -0.143 OA 
HETATM   32  H   UNL     1      -7.657  16.049  69.357  1.00  0.00     0.000 HD 
ENDBRANCH  28  30
ENDBRANCH   4  28
TORSDOF 2
ENDMDL
MODEL       30
REMARK 921   NORMALIZED FREE ENERGY PREDICTED BY IDOCK:   -5.89 KCAL/MOL
REMARK 922        TOTAL FREE ENERGY PREDICTED BY IDOCK:   -5.87 KCAL/MOL
REMARK 923 INTER-LIGAND FREE ENERGY PREDICTED BY IDOCK:   -6.59 KCAL/MOL
REMARK 924 INTRA-LIGAND FREE ENERGY PREDICTED BY IDOCK:    0.72 KCAL/MOL
REMARK 927      BINDING AFFINITY PREDICTED BY RF-SCORE:    0.00 PKD
ROOT
HETATM    1  C   UNL     1     -10.335   9.669  65.926  1.00  0.00    -0.103 C  
HETATM    2  C   UNL     1      -9.455   9.995  64.871  1.00  0.00    -0.355 C  
HETATM    3  C   UNL     1      -8.695   9.687  66.145  1.00  0.00    -0.152 C  
HETATM    4  C   UNL     1      -9.804   8.873  67.683  1.00  0.00    -0.182 C  
HETATM    5  C   UNL     1      -7.184   9.421  65.448  1.00  0.00    -0.092 C  
HETATM    6  O   UNL     1     -11.225   8.485  67.507  1.00  0.00    -0.369 OA 
HETATM    7  C   UNL     1      -7.860  13.993  67.464  1.00  0.00    -0.197 C  
HETATM    8  C   UNL     1      -9.044   8.419  66.665  1.00  0.00    -0.202 C  
HETATM    9  C   UNL     1      -7.916   9.202  68.050  1.00  0.00    -0.101 C  
HETATM   10  C   UNL     1      -9.067   7.048  65.980  1.00  0.00    -0.105 C  
HETATM   11  C   UNL     1      -9.326  13.477  67.789  1.00  0.00    -0.213 C  
HETATM   12  C   UNL     1      -9.601  14.067  69.163  1.00  0.00     0.188 C  
HETATM   13  H   UNL     1     -11.735   8.111  68.215  1.00  0.00     0.000 HD 
HETATM   14  C   UNL     1      -8.379  10.904  68.472  1.00  0.00    -0.142 C  
HETATM   15  C   UNL     1     -10.177  15.288  69.284  1.00  0.00    -0.250 C  
HETATM   16  O   UNL     1     -11.275  17.118  68.195  1.00  0.00    -0.236 OA 
HETATM   17  O   UNL     1      -8.996  10.876  69.766  1.00  0.00    -0.324 OA 
HETATM   18  C   UNL     1      -9.301  11.929  67.418  1.00  0.00    -0.176 C  
HETATM   19  H   UNL     1      -9.238  11.768  69.987  1.00  0.00     0.000 HD 
HETATM   20  C   UNL     1     -10.630  11.156  66.894  1.00  0.00    -0.304 C  
HETATM   21  F   UNL     1      -8.606  12.142  66.201  1.00  0.00    -0.127 F  
HETATM   22  C   UNL     1     -11.517  12.093  66.059  1.00  0.00    -0.427 C  
HETATM   23  C   UNL     1     -11.680  13.449  66.713  1.00  0.00    -0.385 C  
HETATM   24  F   UNL     1     -12.542  14.180  65.963  1.00  0.00    -0.458 F  
HETATM   25  C   UNL     1     -10.345  14.163  66.835  1.00  0.00    -0.269 C  
HETATM   26  C   UNL     1     -10.301  15.505  66.730  1.00  0.00    -0.288 C  
HETATM   27  C   UNL     1     -10.664  16.060  68.084  1.00  0.00    -0.311 C  
ENDROOT
BRANCH   4  28
HETATM   28  C   UNL     1      -9.590   7.466  68.664  1.00  0.00    -0.146 C  
HETATM   29  O   UNL     1      -8.510   6.998  69.058  1.00  0.00    -0.127 OA 
BRANCH  28  30
HETATM   30  C   UNL     1     -10.842   6.738  69.166  1.00  0.00    -0.258 C  
HETATM   31  O   UNL     1     -11.555   7.595  70.057  1.00  0.00    -0.479 OA 
HETATM   32  H   UNL     1     -12.331   7.144  70.368  1.00  0.00     0.000 HD 
ENDBRANCH  28  30
ENDBRANCH   4  28
TORSDOF 2
ENDMDL
MODEL       31
REMARK 921   NORMALIZED FREE ENERGY PREDICTED BY IDOCK:   -5.83 KCAL/MOL
REMARK 922        TOTAL FREE ENERGY PREDICTED BY IDOCK:   -5.80 KCAL/MOL
REMARK 923 INTER-LIGAND FREE ENERGY PREDICTED BY IDOCK:   -6.51 KCAL/MOL
REMARK 924 INTRA-LIGAND FREE ENERGY PREDICTED BY IDOCK:    0.71 KCAL/MOL
REMARK 927      BINDING AFFINITY PREDICTED BY RF-SCORE:    0.00 PKD
ROOT
HETATM    1  C   UNL     1     -11.623  12.035  67.944  1.00  0.00    -0.405 C  
HETATM    2  C   UNL     1     -11.251  12.561  69.200  1.00  0.00    -0.297 C  
HETATM    3  C   UNL     1     -10.306  13.022  68.109  1.00  0.00    -0.244 C  
HETATM    4  C   UNL     1     -10.896  12.618  66.174  1.00  0.00    -0.273 C  
HETATM    5  C   UNL     1      -9.621  14.321  68.937  1.00  0.00    -0.086 C  
HETATM    6  O   UNL     1     -12.226  12.037  65.864  1.00  0.00    -0.531 OA 
HETATM    7  C   UNL     1      -6.888  10.083  68.920  1.00  0.00    -0.054 C  
HETATM    8  C   UNL     1     -11.002  13.641  67.045  1.00  0.00    -0.298 C  
HETATM    9  C   UNL     1      -9.170  13.501  66.390  1.00  0.00    -0.136 C  
HETATM   10  C   UNL     1     -12.024  14.784  67.073  1.00  0.00    -0.225 C  
HETATM   11  C   UNL     1      -8.104   9.470  68.104  1.00  0.00    -0.102 C  
HETATM   12  C   UNL     1      -7.417   8.582  67.079  1.00  0.00    -0.084 C  
HETATM   13  H   UNL     1     -12.497  11.851  64.972  1.00  0.00     0.000 HD 
HETATM   14  C   UNL     1      -8.450  11.855  66.630  1.00  0.00    -0.143 C  
HETATM   15  C   UNL     1      -7.157   7.282  67.358  1.00  0.00    -0.088 C  
HETATM   16  O   UNL     1      -7.482   5.435  68.850  1.00  0.00    -0.072 OA 
HETATM   17  O   UNL     1      -8.371  11.226  65.343  1.00  0.00    -0.373 OA 
HETATM   18  C   UNL     1      -9.048  10.713  67.791  1.00  0.00    -0.143 C  
HETATM   19  H   UNL     1      -7.993  10.364  65.468  1.00  0.00     0.000 HD 
HETATM   20  C   UNL     1     -10.657  10.547  67.648  1.00  0.00    -0.295 C  
HETATM   21  F   UNL     1      -8.940  11.237  69.103  1.00  0.00    -0.136 F  
HETATM   22  C   UNL     1     -11.182   9.449  68.587  1.00  0.00     0.122 C  
HETATM   23  C   UNL     1     -10.320   8.205  68.540  1.00  0.00    -0.198 C  
HETATM   24  F   UNL     1     -10.898   7.261  69.323  1.00  0.00    -0.221 F  
HETATM   25  C   UNL     1      -8.908   8.499  69.016  1.00  0.00    -0.145 C  
HETATM   26  C   UNL     1      -8.222   7.548  69.678  1.00  0.00    -0.129 C  
HETATM   27  C   UNL     1      -7.627   6.634  68.637  1.00  0.00    -0.101 C  
ENDROOT
BRANCH   4  28
HETATM   28  C   UNL     1     -11.053  13.608  64.766  1.00  0.00    -0.370 C  
HETATM   29  O   UNL     1     -10.421  14.648  64.521  1.00  0.00    -0.286 OA 
BRANCH  28  30
HETATM   30  C   UNL     1     -12.013  13.150  63.663  1.00  0.00    -0.514 C  
HETATM   31  O   UNL     1     -11.470  11.996  63.020  1.00  0.00    -0.680 OA 
HETATM   32  H   UNL     1     -12.066  11.711  62.337  1.00  0.00     0.000 HD 
ENDBRANCH  28  30
ENDBRANCH   4  28
TORSDOF 2
ENDMDL
MODEL       32
REMARK 921   NORMALIZED FREE ENERGY PREDICTED BY IDOCK:   -5.69 KCAL/MOL
REMARK 922        TOTAL FREE ENERGY PREDICTED BY IDOCK:   -5.64 KCAL/MOL
REMARK 923 INTER-LIGAND FREE ENERGY PREDICTED BY IDOCK:   -6.39 KCAL/MOL
REMARK 924 INTRA-LIGAND FREE ENERGY PREDICTED BY IDOCK:    0.74 KCAL/MOL
REMARK 927      BINDING AFFINITY PREDICTED BY RF-SCORE:    0.00 PKD
ROOT
HETATM    1  C   UNL     1      -9.639   9.929  69.320  1.00  0.00    -0.215 C  
HETATM    2  C   UNL     1     -10.487   8.886  68.887  1.00  0.00    -0.225 C  
HETATM    3  C   UNL     1      -9.177   8.881  68.126  1.00  0.00    -0.145 C  
HETATM    4  C   UNL     1      -7.702  10.122  68.861  1.00  0.00    -0.093 C  
HETATM    5  C   UNL     1      -9.271   7.309  67.525  1.00  0.00    -0.138 C  
HETATM    6  O   UNL     1      -7.865  10.868  70.133  1.00  0.00    -0.330 OA 
HETATM    7  C   UNL     1     -10.632  10.941  64.303  1.00  0.00    -0.336 C  
HETATM    8  C   UNL     1      -8.068   8.831  69.002  1.00  0.00    -0.116 C  
HETATM    9  C   UNL     1      -7.269   9.117  67.246  1.00  0.00    -0.083 C  
HETATM   10  C   UNL     1      -7.763   7.861  70.149  1.00  0.00    -0.088 C  
HETATM   11  C   UNL     1     -10.339  11.927  65.512  1.00  0.00    -0.303 C  
HETATM   12  C   UNL     1      -9.692  13.122  64.831  1.00  0.00     0.091 C  
HETATM   13  H   UNL     1      -7.185  11.439  70.471  1.00  0.00     0.000 HD 
HETATM   14  C   UNL     1      -8.068  10.445  66.305  1.00  0.00    -0.136 C  
HETATM   15  C   UNL     1     -10.450  14.153  64.384  1.00  0.00    -0.034 C  
HETATM   16  O   UNL     1     -12.610  15.189  64.318  1.00  0.00    -0.638 OA 
HETATM   17  O   UNL     1      -7.169  11.562  66.283  1.00  0.00    -0.356 OA 
HETATM   18  C   UNL     1      -9.676  11.009  66.631  1.00  0.00    -0.195 C  
HETATM   19  H   UNL     1      -7.587  12.257  65.790  1.00  0.00     0.000 HD 
HETATM   20  C   UNL     1      -9.856  11.329  68.213  1.00  0.00    -0.201 C  
HETATM   21  F   UNL     1     -10.614   9.962  66.452  1.00  0.00    -0.288 F  
HETATM   22  C   UNL     1     -11.235  11.944  68.496  1.00  0.00    -0.308 C  
HETATM   23  C   UNL     1     -11.589  13.025  67.496  1.00  0.00    -0.356 C  
HETATM   24  F   UNL     1     -12.772  13.573  67.866  1.00  0.00    -0.069 F  
HETATM   25  C   UNL     1     -11.682  12.459  66.089  1.00  0.00    -0.460 C  
HETATM   26  C   UNL     1     -12.573  12.981  65.225  1.00  0.00    -0.516 C  
HETATM   27  C   UNL     1     -11.937  14.213  64.633  1.00  0.00    -0.445 C  
ENDROOT
BRANCH   4  28
HETATM   28  C   UNL     1      -6.048   9.852  69.286  1.00  0.00    -0.040 C  
HETATM   29  O   UNL     1      -5.320   8.936  68.873  1.00  0.00    -0.036 OA 
BRANCH  28  30
HETATM   30  C   UNL     1      -5.366  10.863  70.215  1.00  0.00    -0.070 C  
HETATM   31  O   UNL     1      -5.575  10.466  71.571  1.00  0.00    -0.257 OA 
HETATM   32  H   UNL     1      -5.151  11.092  72.146  1.00  0.00     0.000 HD 
ENDBRANCH  28  30
ENDBRANCH   4  28
TORSDOF 2
ENDMDL
MODEL       33
REMARK 921   NORMALIZED FREE ENERGY PREDICTED BY IDOCK:   -5.62 KCAL/MOL
REMARK 922        TOTAL FREE ENERGY PREDICTED BY IDOCK:   -5.57 KCAL/MOL
REMARK 923 INTER-LIGAND FREE ENERGY PREDICTED BY IDOCK:   -6.24 KCAL/MOL
REMARK 924 INTRA-LIGAND FREE ENERGY PREDICTED BY IDOCK:    0.67 KCAL/MOL
REMARK 927      BINDING AFFINITY PREDICTED BY RF-SCORE:    0.00 PKD
ROOT
HETATM    1  C   UNL     1      -8.581   8.442  67.218  1.00  0.00    -0.123 C  
HETATM    2  C   UNL     1      -7.560   8.912  68.072  1.00  0.00    -0.093 C  
HETATM    3  C   UNL     1      -7.690   7.404  68.147  1.00  0.00    -0.120 C  
HETATM    4  C   UNL     1      -8.899   6.530  66.723  1.00  0.00    -0.129 C  
HETATM    5  C   UNL     1      -6.190   7.083  68.848  1.00  0.00    -0.027 C  
HETATM    6  O   UNL     1      -9.494   7.312  65.611  1.00  0.00    -0.370 OA 
HETATM    7  C   UNL     1     -10.097   7.147  72.035  1.00  0.00    -0.194 C  
HETATM    8  C   UNL     1      -7.588   6.809  66.869  1.00  0.00    -0.091 C  
HETATM    9  C   UNL     1      -8.095   5.331  68.036  1.00  0.00    -0.099 C  
HETATM   10  C   UNL     1      -6.510   6.973  65.790  1.00  0.00    -0.051 C  
HETATM   11  C   UNL     1     -10.956   7.516  70.752  1.00  0.00    -0.265 C  
HETATM   12  C   UNL     1     -12.243   6.735  70.964  1.00  0.00    -0.405 C  
HETATM   13  H   UNL     1     -10.051   6.909  64.956  1.00  0.00     0.000 HD 
HETATM   14  C   UNL     1      -9.486   5.730  69.129  1.00  0.00    -0.128 C  
HETATM   15  C   UNL     1     -13.285   7.294  71.625  1.00  0.00    -0.421 C  
HETATM   16  O   UNL     1     -14.237   9.271  72.587  1.00  0.00    -0.498 OA 
HETATM   17  O   UNL     1     -10.633   5.016  68.648  1.00  0.00    -0.042 OA 
HETATM   18  C   UNL     1      -9.947   7.354  69.531  1.00  0.00    -0.179 C  
HETATM   19  H   UNL     1     -11.361   5.224  69.221  1.00  0.00     0.000 HD 
HETATM   20  C   UNL     1     -10.085   8.254  68.186  1.00  0.00    -0.238 C  
HETATM   21  F   UNL     1      -8.890   8.018  70.201  1.00  0.00    -0.136 F  
HETATM   22  C   UNL     1     -10.611   9.659  68.517  1.00  0.00    -0.253 C  
HETATM   23  C   UNL     1     -11.780   9.614  69.479  1.00  0.00     0.239 C  
HETATM   24  F   UNL     1     -12.238  10.878  69.648  1.00  0.00    -0.334 F  
HETATM   25  C   UNL     1     -11.369   9.014  70.813  1.00  0.00    -0.329 C  
HETATM   26  C   UNL     1     -11.947   9.461  71.944  1.00  0.00    -0.416 C  
HETATM   27  C   UNL     1     -13.260   8.732  72.079  1.00  0.00    -0.395 C  
ENDROOT
BRANCH   4  28
HETATM   28  C   UNL     1      -8.650   5.230  65.612  1.00  0.00    -0.143 C  
HETATM   29  O   UNL     1      -7.555   4.793  65.221  1.00  0.00    -0.079 OA 
BRANCH  28  30
HETATM   30  C   UNL     1      -9.880   4.479  65.088  1.00  0.00    -0.142 C  
HETATM   31  O   UNL     1     -11.051   5.018  65.702  1.00  0.00    -0.778 OA 
HETATM   32  H   UNL     1     -11.813   4.554  65.377  1.00  0.00     0.000 HD 
ENDBRANCH  28  30
ENDBRANCH   4  28
TORSDOF 2
ENDMDL
MODEL       34
REMARK 921   NORMALIZED FREE ENERGY PREDICTED BY IDOCK:   -5.61 KCAL/MOL
REMARK 922        TOTAL FREE ENERGY PREDICTED BY IDOCK:   -5.55 KCAL/MOL
REMARK 923 INTER-LIGAND FREE ENERGY PREDICTED BY IDOCK:   -6.26 KCAL/MOL
REMARK 924 INTRA-LIGAND FREE ENERGY PREDICTED BY IDOCK:    0.70 KCAL/MOL
REMARK 927      BINDING AFFINITY PREDICTED BY RF-SCORE:    0.00 PKD
ROOT
HETATM    1  C   UNL     1      -8.255  10.672  68.205  1.00  0.00    -0.116 C  
HETATM    2  C   UNL     1      -8.126   9.607  67.286  1.00  0.00    -0.110 C  
HETATM    3  C   UNL     1      -9.566  10.065  67.399  1.00  0.00    -0.182 C  
HETATM    4  C   UNL     1      -9.878  11.819  68.439  1.00  0.00    -0.199 C  
HETATM    5  C   UNL     1     -10.138   9.364  65.976  1.00  0.00    -0.302 C  
HETATM    6  O   UNL     1      -8.752  12.653  68.927  1.00  0.00    -0.362 OA 
HETATM    7  C   UNL     1     -11.082   6.770  70.196  1.00  0.00    -0.365 C  
HETATM    8  C   UNL     1      -9.692  11.452  67.154  1.00  0.00    -0.200 C  
HETATM    9  C   UNL     1     -11.468  10.917  67.758  1.00  0.00    -0.323 C  
HETATM   10  C   UNL     1      -9.193  12.291  65.973  1.00  0.00    -0.086 C  
HETATM   11  C   UNL     1     -10.281   7.932  70.922  1.00  0.00    -0.213 C  
HETATM   12  C   UNL     1     -11.060   8.134  72.211  1.00  0.00    -0.410 C  
HETATM   13  H   UNL     1      -8.895  13.461  69.405  1.00  0.00     0.000 HD 
HETATM   14  C   UNL     1     -11.437   9.905  69.261  1.00  0.00     0.007 C  
HETATM   15  C   UNL     1     -10.737   7.434  73.326  1.00  0.00    -0.441 C  
HETATM   16  O   UNL     1      -9.187   5.960  74.405  1.00  0.00    -0.126 OA 
HETATM   17  O   UNL     1     -11.920  10.717  70.340  1.00  0.00    -0.286 OA 
HETATM   18  C   UNL     1     -10.038   9.024  69.788  1.00  0.00    -0.200 C  
HETATM   19  H   UNL     1     -11.905  10.186  71.128  1.00  0.00     0.000 HD 
HETATM   20  C   UNL     1      -8.731   9.988  69.798  1.00  0.00    -0.198 C  
HETATM   21  F   UNL     1      -9.664   8.061  68.818  1.00  0.00    -0.149 F  
HETATM   22  C   UNL     1      -7.511   9.254  70.378  1.00  0.00    -0.124 C  
HETATM   23  C   UNL     1      -7.857   8.492  71.641  1.00  0.00    -0.124 C  
HETATM   24  F   UNL     1      -6.717   7.950  72.134  1.00  0.00    -0.051 F  
HETATM   25  C   UNL     1      -8.884   7.408  71.362  1.00  0.00    -0.129 C  
HETATM   26  C   UNL     1      -8.838   6.259  72.063  1.00  0.00    -0.138 C  
HETATM   27  C   UNL     1      -9.541   6.517  73.371  1.00  0.00    -0.155 C  
ENDROOT
BRANCH   4  28
HETATM   28  C   UNL     1     -10.726  13.274  68.054  1.00  0.00    -0.240 C  
HETATM   29  O   UNL     1     -11.717  13.377  67.313  1.00  0.00    -0.337 OA 
BRANCH  28  30
HETATM   30  C   UNL     1     -10.274  14.575  68.726  1.00  0.00    -0.244 C  
HETATM   31  O   UNL     1     -10.544  14.495  70.126  1.00  0.00    -0.452 OA 
HETATM   32  H   UNL     1     -10.263  15.301  70.544  1.00  0.00     0.000 HD 
ENDBRANCH  28  30
ENDBRANCH   4  28
TORSDOF 2
ENDMDL
MODEL       35
REMARK 921   NORMALIZED FREE ENERGY PREDICTED BY IDOCK:   -5.60 KCAL/MOL
REMARK 922        TOTAL FREE ENERGY PREDICTED BY IDOCK:   -5.55 KCAL/MOL
REMARK 923 INTER-LIGAND FREE ENERGY PREDICTED BY IDOCK:   -6.39 KCAL/MOL
REMARK 924 INTRA-LIGAND FREE ENERGY PREDICTED BY IDOCK:    0.84 KCAL/MOL
REMARK 927      BINDING AFFINITY PREDICTED BY RF-SCORE:    0.00 PKD
ROOT
HETATM    1  C   UNL     1     -10.343  10.328  68.834  1.00  0.00    -0.221 C  
HETATM    2  C   UNL     1      -9.217  10.339  69.685  1.00  0.00    -0.155 C  
HETATM    3  C   UNL     1      -8.826  10.642  68.253  1.00  0.00    -0.139 C  
HETATM    4  C   UNL     1     -10.385  10.993  66.948  1.00  0.00    -0.235 C  
HETATM    5  C   UNL     1      -7.314  11.317  68.569  1.00  0.00    -0.106 C  
HETATM    6  O   UNL     1     -11.792  11.080  67.410  1.00  0.00    -0.523 OA 
HETATM    7  C   UNL     1      -7.264   6.491  67.110  1.00  0.00    -0.081 C  
HETATM    8  C   UNL     1      -9.567  11.727  67.730  1.00  0.00    -0.184 C  
HETATM    9  C   UNL     1      -8.587  11.041  66.190  1.00  0.00    -0.175 C  
HETATM   10  C   UNL     1      -9.781  13.135  68.297  1.00  0.00    -0.223 C  
HETATM   11  C   UNL     1      -8.845   6.629  67.085  1.00  0.00    -0.115 C  
HETATM   12  C   UNL     1      -9.241   5.825  65.857  1.00  0.00    -0.128 C  
HETATM   13  H   UNL     1     -12.509  11.242  66.808  1.00  0.00     0.000 HD 
HETATM   14  C   UNL     1      -8.702   9.240  66.014  1.00  0.00    -0.153 C  
HETATM   15  C   UNL     1      -9.518   4.503  65.962  1.00  0.00    -0.173 C  
HETATM   16  O   UNL     1      -9.901   2.629  67.406  1.00  0.00     0.146 OA 
HETATM   17  O   UNL     1      -9.556   8.969  64.894  1.00  0.00    -0.407 OA 
HETATM   18  C   UNL     1      -9.118   8.180  67.323  1.00  0.00    -0.138 C  
HETATM   19  H   UNL     1      -9.616   8.026  64.801  1.00  0.00     0.000 HD 
HETATM   20  C   UNL     1     -10.461   8.703  68.073  1.00  0.00    -0.254 C  
HETATM   21  F   UNL     1      -8.163   8.278  68.364  1.00  0.00    -0.122 F  
HETATM   22  C   UNL     1     -10.909   7.708  69.155  1.00  0.00    -0.082 C  
HETATM   23  C   UNL     1     -10.870   6.277  68.659  1.00  0.00    -0.333 C  
HETATM   24  F   UNL     1     -11.361   5.477  69.637  1.00  0.00    -0.355 F  
HETATM   25  C   UNL     1      -9.455   5.863  68.293  1.00  0.00    -0.123 C  
HETATM   26  C   UNL     1      -9.069   4.587  68.487  1.00  0.00    -0.161 C  
HETATM   27  C   UNL     1      -9.553   3.800  67.296  1.00  0.00    -0.169 C  
ENDROOT
BRANCH   4  28
HETATM   28  C   UNL     1     -10.718  12.278  65.841  1.00  0.00    -0.258 C  
HETATM   29  O   UNL     1     -10.052  12.579  64.837  1.00  0.00    -0.275 OA 
BRANCH  28  30
HETATM   30  C   UNL     1     -11.990  13.106  66.055  1.00  0.00    -0.433 C  
HETATM   31  O   UNL     1     -12.929  12.795  65.025  1.00  0.00    -0.811 OA 
HETATM   32  H   UNL     1     -13.718  13.308  65.158  1.00  0.00     0.000 HD 
ENDBRANCH  28  30
ENDBRANCH   4  28
TORSDOF 2
ENDMDL
MODEL       36
REMARK 921   NORMALIZED FREE ENERGY PREDICTED BY IDOCK:   -5.57 KCAL/MOL
REMARK 922        TOTAL FREE ENERGY PREDICTED BY IDOCK:   -5.51 KCAL/MOL
REMARK 923 INTER-LIGAND FREE ENERGY PREDICTED BY IDOCK:   -6.15 KCAL/MOL
REMARK 924 INTRA-LIGAND FREE ENERGY PREDICTED BY IDOCK:    0.63 KCAL/MOL
REMARK 927      BINDING AFFINITY PREDICTED BY RF-SCORE:    0.00 PKD
ROOT
HETATM    1  C   UNL     1      -9.167   7.938  67.275  1.00  0.00    -0.167 C  
HETATM    2  C   UNL     1     -10.515   8.198  66.946  1.00  0.00    -0.379 C  
HETATM    3  C   UNL     1      -9.869   9.397  67.609  1.00  0.00    -0.217 C  
HETATM    4  C   UNL     1      -7.821   9.303  67.848  1.00  0.00    -0.092 C  
HETATM    5  C   UNL     1     -10.996  10.556  67.129  1.00  0.00    -0.294 C  
HETATM    6  O   UNL     1      -7.015   8.193  67.283  1.00  0.00    -0.072 OA 
HETATM    7  C   UNL     1     -11.561   8.805  71.823  1.00  0.00    -0.416 C  
HETATM    8  C   UNL     1      -8.688   9.790  66.937  1.00  0.00    -0.143 C  
HETATM    9  C   UNL     1      -8.706  10.898  68.542  1.00  0.00    -0.153 C  
HETATM   10  C   UNL     1      -8.457  10.096  65.452  1.00  0.00    -0.162 C  
HETATM   11  C   UNL     1     -10.320   7.878  71.476  1.00  0.00    -0.243 C  
HETATM   12  C   UNL     1      -9.526   7.867  72.772  1.00  0.00    -0.304 C  
HETATM   13  H   UNL     1      -6.073   8.150  67.393  1.00  0.00     0.000 HD 
HETATM   14  C   UNL     1      -9.035   9.956  70.056  1.00  0.00    -0.169 C  
HETATM   15  C   UNL     1      -9.762   6.924  73.716  1.00  0.00    -0.286 C  
HETATM   16  O   UNL     1     -10.875   4.882  74.293  1.00  0.00    -0.320 OA 
HETATM   17  O   UNL     1      -7.807   9.878  70.793  1.00  0.00    -0.391 OA 
HETATM   18  C   UNL     1      -9.808   8.402  70.063  1.00  0.00    -0.182 C  
HETATM   19  H   UNL     1      -7.980   9.386  71.586  1.00  0.00     0.000 HD 
HETATM   20  C   UNL     1      -9.096   7.409  68.992  1.00  0.00    -0.133 C  
HETATM   21  F   UNL     1     -11.116   8.497  69.525  1.00  0.00    -0.208 F  
HETATM   22  C   UNL     1      -9.690   5.995  69.075  1.00  0.00    -0.161 C  
HETATM   23  C   UNL     1      -9.839   5.526  70.507  1.00  0.00    -0.193 C  
HETATM   24  F   UNL     1     -10.283   4.246  70.490  1.00  0.00    -0.276 F  
HETATM   25  C   UNL     1     -10.802   6.413  71.277  1.00  0.00    -0.306 C  
HETATM   26  C   UNL     1     -11.576   5.871  72.237  1.00  0.00    -0.338 C  
HETATM   27  C   UNL     1     -10.732   5.793  73.484  1.00  0.00    -0.269 C  
ENDROOT
BRANCH   4  28
HETATM   28  C   UNL     1      -6.542  10.385  67.426  1.00  0.00    -0.067 C  
HETATM   29  O   UNL     1      -6.627  11.374  66.680  1.00  0.00    -0.136 OA 
BRANCH  28  30
HETATM   30  C   UNL     1      -5.167  10.166  68.069  1.00  0.00    -0.035 C  
HETATM   31  O   UNL     1      -5.347   9.681  69.400  1.00  0.00    -0.035 OA 
HETATM   32  H   UNL     1      -4.496   9.545  69.799  1.00  0.00     0.000 HD 
ENDBRANCH  28  30
ENDBRANCH   4  28
TORSDOF 2
ENDMDL
MODEL       37
REMARK 921   NORMALIZED FREE ENERGY PREDICTED BY IDOCK:   -5.51 KCAL/MOL
REMARK 922        TOTAL FREE ENERGY PREDICTED BY IDOCK:   -5.45 KCAL/MOL
REMARK 923 INTER-LIGAND FREE ENERGY PREDICTED BY IDOCK:   -6.39 KCAL/MOL
REMARK 924 INTRA-LIGAND FREE ENERGY PREDICTED BY IDOCK:    0.94 KCAL/MOL
REMARK 927      BINDING AFFINITY PREDICTED BY RF-SCORE:    0.00 PKD
ROOT
HETATM    1  C   UNL     1      -9.175  13.075  67.105  1.00  0.00    -0.226 C  
HETATM    2  C   UNL     1      -9.524  12.715  65.785  1.00  0.00    -0.043 C  
HETATM    3  C   UNL     1     -10.703  12.567  66.725  1.00  0.00    -0.261 C  
HETATM    4  C   UNL     1     -10.459  13.366  68.611  1.00  0.00    -0.225 C  
HETATM    5  C   UNL     1     -11.918  12.527  65.557  1.00  0.00    -0.500 C  
HETATM    6  O   UNL     1      -9.259  14.156  68.980  1.00  0.00    -0.385 OA 
HETATM    7  C   UNL     1     -10.484   8.035  67.342  1.00  0.00    -0.357 C  
HETATM    8  C   UNL     1     -10.962  13.767  67.426  1.00  0.00    -0.296 C  
HETATM    9  C   UNL     1     -12.155  12.469  68.259  1.00  0.00    -0.123 C  
HETATM   10  C   UNL     1     -11.165  15.192  66.896  1.00  0.00    -0.292 C  
HETATM   11  C   UNL     1      -9.443   8.867  68.204  1.00  0.00    -0.155 C  
HETATM   12  C   UNL     1      -9.441   8.140  69.539  1.00  0.00    -0.156 C  
HETATM   13  H   UNL     1      -9.147  14.523  69.849  1.00  0.00     0.000 HD 
HETATM   14  C   UNL     1     -11.329  10.914  68.691  1.00  0.00    -0.295 C  
HETATM   15  C   UNL     1      -8.574   7.124  69.767  1.00  0.00    -0.141 C  
HETATM   16  O   UNL     1      -6.663   5.894  69.008  1.00  0.00    -0.055 OA 
HETATM   17  O   UNL     1     -11.195  10.878  70.119  1.00  0.00    -0.363 OA 
HETATM   18  C   UNL     1      -9.845  10.389  67.962  1.00  0.00    -0.150 C  
HETATM   19  H   UNL     1     -10.763  10.064  70.346  1.00  0.00     0.000 HD 
HETATM   20  C   UNL     1      -8.740  11.579  68.002  1.00  0.00    -0.151 C  
HETATM   21  F   UNL     1     -10.013  10.214  66.566  1.00  0.00    -0.230 F  
HETATM   22  C   UNL     1      -7.384  11.089  67.471  1.00  0.00    -0.101 C  
HETATM   23  C   UNL     1      -7.009   9.736  68.039  1.00  0.00    -0.077 C  
HETATM   24  F   UNL     1      -5.770   9.418  67.593  1.00  0.00    -0.040 F  
HETATM   25  C   UNL     1      -8.012   8.671  67.627  1.00  0.00    -0.107 C  
HETATM   26  C   UNL     1      -7.588   7.411  67.415  1.00  0.00    -0.112 C  
HETATM   27  C   UNL     1      -7.512   6.744  68.765  1.00  0.00    -0.096 C  
ENDROOT
BRANCH   4  28
HETATM   28  C   UNL     1     -11.410  14.460  69.552  1.00  0.00    -0.276 C  
HETATM   29  O   UNL     1     -12.603  14.318  69.867  1.00  0.00    -0.312 OA 
BRANCH  28  30
HETATM   30  C   UNL     1     -10.725  15.708  70.122  1.00  0.00    -0.342 C  
HETATM   31  O   UNL     1     -11.584  16.309  71.092  1.00  0.00    -0.524 OA 
HETATM   32  H   UNL     1     -11.159  17.082  71.446  1.00  0.00     0.000 HD 
ENDBRANCH  28  30
ENDBRANCH   4  28
TORSDOF 2
ENDMDL
MODEL       38
REMARK 921   NORMALIZED FREE ENERGY PREDICTED BY IDOCK:   -5.49 KCAL/MOL
REMARK 922        TOTAL FREE ENERGY PREDICTED BY IDOCK:   -5.43 KCAL/MOL
REMARK 923 INTER-LIGAND FREE ENERGY PREDICTED BY IDOCK:   -6.17 KCAL/MOL
REMARK 924 INTRA-LIGAND FREE ENERGY PREDICTED BY IDOCK:    0.75 KCAL/MOL
REMARK 927      BINDING AFFINITY PREDICTED BY RF-SCORE:    0.00 PKD
ROOT
HETATM    1  C   UNL     1     -10.692  10.364  67.141  1.00  0.00    -0.316 C  
HETATM    2  C   UNL     1     -10.166  10.343  65.831  1.00  0.00    -0.302 C  
HETATM    3  C   UNL     1      -9.204   9.715  66.819  1.00  0.00    -0.181 C  
HETATM    4  C   UNL     1      -9.954   9.366  68.710  1.00  0.00    -0.179 C  
HETATM    5  C   UNL     1      -8.245   8.887  65.707  1.00  0.00    -0.116 C  
HETATM    6  O   UNL     1     -11.383   9.587  69.041  1.00  0.00    -0.455 OA 
HETATM    7  C   UNL     1      -6.373  13.279  67.331  1.00  0.00    -0.027 C  
HETATM    8  C   UNL     1      -9.821   8.678  67.557  1.00  0.00    -0.234 C  
HETATM    9  C   UNL     1      -8.083   8.897  68.415  1.00  0.00    -0.109 C  
HETATM   10  C   UNL     1     -10.604   7.454  67.067  1.00  0.00    -0.414 C  
HETATM   11  C   UNL     1      -7.721  13.384  68.163  1.00  0.00    -0.143 C  
HETATM   12  C   UNL     1      -7.266  13.991  69.480  1.00  0.00     0.095 C  
HETATM   13  H   UNL     1     -11.728   9.425  69.911  1.00  0.00     0.000 HD 
HETATM   14  C   UNL     1      -7.678  10.627  68.777  1.00  0.00    -0.117 C  
HETATM   15  C   UNL     1      -7.246  15.335  69.648  1.00  0.00    -0.187 C  
HETATM   16  O   UNL     1      -7.844  17.486  68.778  1.00  0.00    -0.267 OA 
HETATM   17  O   UNL     1      -7.783  10.807  70.196  1.00  0.00    -0.399 OA 
HETATM   18  C   UNL     1      -8.426  11.969  67.971  1.00  0.00    -0.168 C  
HETATM   19  H   UNL     1      -7.570  11.713  70.386  1.00  0.00     0.000 HD 
HETATM   20  C   UNL     1     -10.042  11.812  67.986  1.00  0.00    -0.198 C  
HETATM   21  F   UNL     1      -8.156  11.925  66.581  1.00  0.00    -0.169 F  
HETATM   22  C   UNL     1     -10.721  13.053  67.384  1.00  0.00    -0.256 C  
HETATM   23  C   UNL     1     -10.115  14.339  67.906  1.00  0.00    -0.233 C  
HETATM   24  F   UNL     1     -10.822  15.377  67.399  1.00  0.00    -0.282 F  
HETATM   25  C   UNL     1      -8.650  14.452  67.517  1.00  0.00    -0.199 C  
HETATM   26  C   UNL     1      -8.127  15.666  67.260  1.00  0.00    -0.224 C  
HETATM   27  C   UNL     1      -7.768  16.277  68.591  1.00  0.00    -0.192 C  
ENDROOT
BRANCH   4  28
HETATM   28  C   UNL     1      -9.987   7.960  69.715  1.00  0.00    -0.186 C  
HETATM   29  O   UNL     1      -9.273   6.952  69.598  1.00  0.00    -0.146 OA 
BRANCH  28  30
HETATM   30  C   UNL     1     -10.938   7.954  70.917  1.00  0.00    -0.243 C  
HETATM   31  O   UNL     1     -10.494   8.922  71.869  1.00  0.00    -0.326 OA 
HETATM   32  H   UNL     1     -11.084   8.918  72.614  1.00  0.00     0.000 HD 
ENDBRANCH  28  30
ENDBRANCH   4  28
TORSDOF 2
ENDMDL
MODEL       39
REMARK 921   NORMALIZED FREE ENERGY PREDICTED BY IDOCK:   -5.49 KCAL/MOL
REMARK 922        TOTAL FREE ENERGY PREDICTED BY IDOCK:   -5.42 KCAL/MOL
REMARK 923 INTER-LIGAND FREE ENERGY PREDICTED BY IDOCK:   -6.47 KCAL/MOL
REMARK 924 INTRA-LIGAND FREE ENERGY PREDICTED BY IDOCK:    1.05 KCAL/MOL
REMARK 927      BINDING AFFINITY PREDICTED BY RF-SCORE:    0.00 PKD
ROOT
HETATM    1  C   UNL     1      -9.681  13.302  65.115  1.00  0.00     0.038 C  
HETATM    2  C   UNL     1     -10.601  12.544  64.358  1.00  0.00    -0.376 C  
HETATM    3  C   UNL     1     -11.270  13.184  65.557  1.00  0.00    -0.305 C  
HETATM    4  C   UNL     1     -10.151  14.587  66.575  1.00  0.00    -0.274 C  
HETATM    5  C   UNL     1     -12.865  13.033  65.032  1.00  0.00    -0.365 C  
HETATM    6  O   UNL     1      -8.827  15.041  66.084  1.00  0.00    -0.466 OA 
HETATM    7  C   UNL     1     -11.325   9.521  68.306  1.00  0.00     0.211 C  
HETATM    8  C   UNL     1     -11.065  14.583  65.583  1.00  0.00    -0.327 C  
HETATM    9  C   UNL     1     -11.924  14.201  67.292  1.00  0.00    -0.449 C  
HETATM   10  C   UNL     1     -11.312  15.633  64.494  1.00  0.00    -0.327 C  
HETATM   11  C   UNL     1      -9.928  10.271  68.236  1.00  0.00    -0.166 C  
HETATM   12  C   UNL     1      -9.436  10.216  69.673  1.00  0.00    -0.226 C  
HETATM   13  H   UNL     1      -8.312  15.688  66.553  1.00  0.00     0.000 HD 
HETATM   14  C   UNL     1     -11.176  12.805  68.173  1.00  0.00    -0.272 C  
HETATM   15  C   UNL     1      -8.676   9.179  70.101  1.00  0.00    -0.196 C  
HETATM   16  O   UNL     1      -7.430   7.217  69.521  1.00  0.00    -0.090 OA 
HETATM   17  O   UNL     1     -10.447  13.338  69.287  1.00  0.00    -0.433 OA 
HETATM   18  C   UNL     1     -10.218  11.588  67.390  1.00  0.00    -0.203 C  
HETATM   19  H   UNL     1     -10.054  12.606  69.749  1.00  0.00     0.000 HD 
HETATM   20  C   UNL     1      -9.076  12.274  66.461  1.00  0.00    -0.188 C  
HETATM   21  F   UNL     1     -10.988  10.900  66.419  1.00  0.00    -0.308 F  
HETATM   22  C   UNL     1      -8.145  11.210  65.859  1.00  0.00    -0.017 C  
HETATM   23  C   UNL     1      -7.719  10.183  66.887  1.00  0.00    -0.103 C  
HETATM   24  F   UNL     1      -6.836   9.338  66.302  1.00  0.00    -0.076 F  
HETATM   25  C   UNL     1      -8.916   9.414  67.422  1.00  0.00    -0.134 C  
HETATM   26  C   UNL     1      -8.770   8.121  67.766  1.00  0.00    -0.130 C  
HETATM   27  C   UNL     1      -8.198   8.102  69.161  1.00  0.00    -0.123 C  
ENDROOT
BRANCH   4  28
HETATM   28  C   UNL     1     -10.475  16.212  67.066  1.00  0.00    -0.306 C  
HETATM   29  O   UNL     1     -11.159  16.566  68.040  1.00  0.00    -0.345 OA 
BRANCH  28  30
HETATM   30  C   UNL     1      -9.816  17.350  66.278  1.00  0.00    -0.279 C  
HETATM   31  O   UNL     1      -8.514  17.593  66.811  1.00  0.00    -0.232 OA 
HETATM   32  H   UNL     1      -8.105  18.298  66.323  1.00  0.00     0.000 HD 
ENDBRANCH  28  30
ENDBRANCH   4  28
TORSDOF 2
ENDMDL
MODEL       40
REMARK 921   NORMALIZED FREE ENERGY PREDICTED BY IDOCK:   -5.48 KCAL/MOL
REMARK 922        TOTAL FREE ENERGY PREDICTED BY IDOCK:   -5.42 KCAL/MOL
REMARK 923 INTER-LIGAND FREE ENERGY PREDICTED BY IDOCK:   -6.41 KCAL/MOL
REMARK 924 INTRA-LIGAND FREE ENERGY PREDICTED BY IDOCK:    0.99 KCAL/MOL
REMARK 927      BINDING AFFINITY PREDICTED BY RF-SCORE:    0.00 PKD
ROOT
HETATM    1  C   UNL     1     -10.698   6.071  70.340  1.00  0.00    -0.358 C  
HETATM    2  C   UNL     1      -9.480   5.480  70.739  1.00  0.00    -0.209 C  
HETATM    3  C   UNL     1      -9.506   6.959  71.064  1.00  0.00    -0.163 C  
HETATM    4  C   UNL     1     -11.330   7.898  70.853  1.00  0.00    -0.277 C  
HETATM    5  C   UNL     1      -8.244   6.967  72.182  1.00  0.00    -0.105 C  
HETATM    6  O   UNL     1     -12.569   7.146  70.536  1.00  0.00    -0.614 OA 
HETATM    7  C   UNL     1      -7.013   8.451  67.523  1.00  0.00    -0.075 C  
HETATM    8  C   UNL     1     -10.635   7.301  71.843  1.00  0.00    -0.238 C  
HETATM    9  C   UNL     1      -9.832   9.022  71.399  1.00  0.00    -0.381 C  
HETATM   10  C   UNL     1     -11.151   6.688  73.150  1.00  0.00    -0.204 C  
HETATM   11  C   UNL     1      -8.529   8.136  67.174  1.00  0.00    -0.124 C  
HETATM   12  C   UNL     1      -8.903   9.258  66.220  1.00  0.00    -0.172 C  
HETATM   13  H   UNL     1     -13.409   7.578  70.439  1.00  0.00     0.000 HD 
HETATM   14  C   UNL     1      -9.421   9.187  69.641  1.00  0.00    -0.172 C  
HETATM   15  C   UNL     1      -8.732   9.110  64.884  1.00  0.00    -0.215 C  
HETATM   16  O   UNL     1      -8.213   7.636  63.067  1.00  0.00    -0.105 OA 
HETATM   17  O   UNL     1     -10.361  10.102  69.061  1.00  0.00    -0.188 OA 
HETATM   18  C   UNL     1      -9.211   7.830  68.580  1.00  0.00    -0.138 C  
HETATM   19  H   UNL     1     -10.146  10.188  68.140  1.00  0.00     0.000 HD 
HETATM   20  C   UNL     1     -10.464   6.805  68.715  1.00  0.00    -0.231 C  
HETATM   21  F   UNL     1      -8.139   7.016  69.022  1.00  0.00    -0.113 F  
HETATM   22  C   UNL     1     -10.352   5.662  67.694  1.00  0.00    -0.266 C  
HETATM   23  C   UNL     1      -9.977   6.168  66.316  1.00  0.00    -0.002 C  
HETATM   24  F   UNL     1      -9.985   5.117  65.462  1.00  0.00    -0.163 F  
HETATM   25  C   UNL     1      -8.611   6.833  66.330  1.00  0.00    -0.141 C  
HETATM   26  C   UNL     1      -7.820   6.738  65.244  1.00  0.00    -0.121 C  
HETATM   27  C   UNL     1      -8.273   7.806  64.280  1.00  0.00    -0.026 C  
ENDROOT
BRANCH   4  28
HETATM   28  C   UNL     1     -12.264   8.896  71.911  1.00  0.00    -0.374 C  
HETATM   29  O   UNL     1     -12.649   8.602  73.054  1.00  0.00    -0.232 OA 
BRANCH  28  30
HETATM   30  C   UNL     1     -12.614  10.314  71.447  1.00  0.00    -0.434 C  
HETATM   31  O   UNL     1     -12.988  10.275  70.069  1.00  0.00    -0.568 OA 
HETATM   32  H   UNL     1     -13.205  11.154  69.782  1.00  0.00     0.000 HD 
ENDBRANCH  28  30
ENDBRANCH   4  28
TORSDOF 2
ENDMDL
MODEL       41
REMARK 921   NORMALIZED FREE ENERGY PREDICTED BY IDOCK:   -5.47 KCAL/MOL
REMARK 922        TOTAL FREE ENERGY PREDICTED BY IDOCK:   -5.40 KCAL/MOL
REMARK 923 INTER-LIGAND FREE ENERGY PREDICTED BY IDOCK:   -6.63 KCAL/MOL
REMARK 924 INTRA-LIGAND FREE ENERGY PREDICTED BY IDOCK:    1.23 KCAL/MOL
REMARK 927      BINDING AFFINITY PREDICTED BY RF-SCORE:    0.00 PKD
ROOT
HETATM    1  C   UNL     1      -6.141  16.981  67.643  1.00  0.00    -0.158 C  
HETATM    2  C   UNL     1      -5.879  17.059  66.257  1.00  0.00     0.059 C  
HETATM    3  C   UNL     1      -6.924  18.073  66.678  1.00  0.00    -0.245 C  
HETATM    4  C   UNL     1      -7.178  18.317  68.711  1.00  0.00    -0.279 C  
HETATM    5  C   UNL     1      -6.826  19.073  65.325  1.00  0.00    -0.138 C  
HETATM    6  O   UNL     1      -6.298  17.645  69.698  1.00  0.00    -0.244 OA 
HETATM    7  C   UNL     1     -10.645  15.782  65.307  1.00  0.00    -0.446 C  
HETATM    8  C   UNL     1      -6.457  18.896  67.729  1.00  0.00    -0.220 C  
HETATM    9  C   UNL     1      -8.339  19.377  67.555  1.00  0.00    -0.326 C  
HETATM   10  C   UNL     1      -5.168  19.719  67.835  1.00  0.00    -0.184 C  
HETATM   11  C   UNL     1     -10.045  15.293  66.693  1.00  0.00    -0.268 C  
HETATM   12  C   UNL     1     -11.285  15.010  67.525  1.00  0.00    -0.333 C  
HETATM   13  H   UNL     1      -6.415  17.758  70.634  1.00  0.00     0.000 HD 
HETATM   14  C   UNL     1      -9.440  17.938  67.481  1.00  0.00    -0.258 C  
HETATM   15  C   UNL     1     -11.851  13.779  67.519  1.00  0.00    -0.422 C  
HETATM   16  O   UNL     1     -11.679  11.482  66.858  1.00  0.00    -0.533 OA 
HETATM   17  O   UNL     1     -10.145  17.868  68.728  1.00  0.00    -0.367 OA 
HETATM   18  C   UNL     1      -8.904  16.350  67.033  1.00  0.00    -0.199 C  
HETATM   19  H   UNL     1     -10.722  17.114  68.689  1.00  0.00     0.000 HD 
HETATM   20  C   UNL     1      -7.584  15.935  67.886  1.00  0.00    -0.145 C  
HETATM   21  F   UNL     1      -8.391  16.353  65.713  1.00  0.00    -0.329 F  
HETATM   22  C   UNL     1      -7.171  14.485  67.588  1.00  0.00    -0.206 C  
HETATM   23  C   UNL     1      -8.359  13.546  67.593  1.00  0.00    -0.179 C  
HETATM   24  F   UNL     1      -7.901  12.283  67.413  1.00  0.00    -0.133 F  
HETATM   25  C   UNL     1      -9.352  13.913  66.504  1.00  0.00    -0.264 C  
HETATM   26  C   UNL     1     -10.052  12.938  65.893  1.00  0.00    -0.295 C  
HETATM   27  C   UNL     1     -11.226  12.619  66.785  1.00  0.00    -0.300 C  
ENDROOT
BRANCH   4  28
HETATM   28  C   UNL     1      -7.180  19.711  69.732  1.00  0.00    -0.012 C  
HETATM   29  O   UNL     1      -8.127  20.494  69.910  1.00  0.00     0.920 OA 
BRANCH  28  30
HETATM   30  C   UNL     1      -5.924  20.002  70.562  1.00  0.00    -0.341 C  
HETATM   31  O   UNL     1      -6.306  20.653  71.774  1.00  0.00    -0.778 OA 
HETATM   32  H   UNL     1      -5.528  20.832  72.289  1.00  0.00     0.000 HD 
ENDBRANCH  28  30
ENDBRANCH   4  28
TORSDOF 2
ENDMDL
MODEL       42
REMARK 921   NORMALIZED FREE ENERGY PREDICTED BY IDOCK:   -5.40 KCAL/MOL
REMARK 922        TOTAL FREE ENERGY PREDICTED BY IDOCK:   -5.32 KCAL/MOL
REMARK 923 INTER-LIGAND FREE ENERGY PREDICTED BY IDOCK:   -5.96 KCAL/MOL
REMARK 924 INTRA-LIGAND FREE ENERGY PREDICTED BY IDOCK:    0.65 KCAL/MOL
REMARK 927      BINDING AFFINITY PREDICTED BY RF-SCORE:    0.00 PKD
ROOT
HETATM    1  C   UNL     1      -7.626  10.799  68.402  1.00  0.00    -0.102 C  
HETATM    2  C   UNL     1      -8.033  11.089  69.723  1.00  0.00     0.430 C  
HETATM    3  C   UNL     1      -9.107  10.330  68.971  1.00  0.00    -0.187 C  
HETATM    4  C   UNL     1      -8.548   9.541  67.149  1.00  0.00    -0.132 C  
HETATM    5  C   UNL     1      -9.999   9.819  70.308  1.00  0.00    -0.309 C  
HETATM    6  O   UNL     1      -7.145   9.594  66.667  1.00  0.00    -0.084 OA 
HETATM    7  C   UNL     1     -11.805  13.879  67.924  1.00  0.00    -0.413 C  
HETATM    8  C   UNL     1      -8.608   9.122  68.430  1.00  0.00    -0.129 C  
HETATM    9  C   UNL     1     -10.404   9.266  67.683  1.00  0.00    -0.311 C  
HETATM   10  C   UNL     1      -7.842   7.982  69.110  1.00  0.00    -0.108 C  
HETATM   11  C   UNL     1     -10.534  13.719  66.987  1.00  0.00    -0.274 C  
HETATM   12  C   UNL     1     -11.077  14.061  65.609  1.00  0.00    -0.302 C  
HETATM   13  H   UNL     1      -6.888   9.231  65.828  1.00  0.00     0.000 HD 
HETATM   14  C   UNL     1     -10.760  10.902  66.988  1.00  0.00    -0.271 C  
HETATM   15  C   UNL     1     -11.051  15.338  65.157  1.00  0.00    -0.412 C  
HETATM   16  O   UNL     1     -10.278  17.581  65.491  1.00  0.00    -0.608 OA 
HETATM   17  O   UNL     1     -10.775  10.772  65.560  1.00  0.00    -0.189 OA 
HETATM   18  C   UNL     1      -9.882  12.334  67.424  1.00  0.00    -0.198 C  
HETATM   19  H   UNL     1     -10.962  11.629  65.196  1.00  0.00     0.000 HD 
HETATM   20  C   UNL     1      -8.282  12.074  67.317  1.00  0.00    -0.173 C  
HETATM   21  F   UNL     1     -10.026  12.603  68.808  1.00  0.00    -0.210 F  
HETATM   22  C   UNL     1      -7.495  13.368  67.582  1.00  0.00    -0.182 C  
HETATM   23  C   UNL     1      -8.086  14.550  66.843  1.00  0.00     0.020 C  
HETATM   24  F   UNL     1      -7.288  15.625  67.057  1.00  0.00    -0.212 F  
HETATM   25  C   UNL     1      -9.503  14.837  67.311  1.00  0.00    -0.217 C  
HETATM   26  C   UNL     1      -9.944  16.109  67.340  1.00  0.00    -0.247 C  
HETATM   27  C   UNL     1     -10.393  16.446  65.940  1.00  0.00    -0.362 C  
ENDROOT
BRANCH   4  28
HETATM   28  C   UNL     1      -8.670   7.955  66.472  1.00  0.00    -0.147 C  
HETATM   29  O   UNL     1      -9.155   6.953  67.022  1.00  0.00    -0.128 OA 
BRANCH  28  30
HETATM   30  C   UNL     1      -8.199   7.747  65.028  1.00  0.00    -0.120 C  
HETATM   31  O   UNL     1      -8.772   8.760  64.200  1.00  0.00    -0.388 OA 
HETATM   32  H   UNL     1      -8.480   8.632  63.305  1.00  0.00     0.000 HD 
ENDBRANCH  28  30
ENDBRANCH   4  28
TORSDOF 2
ENDMDL
MODEL       43
REMARK 921   NORMALIZED FREE ENERGY PREDICTED BY IDOCK:   -5.39 KCAL/MOL
REMARK 922        TOTAL FREE ENERGY PREDICTED BY IDOCK:   -5.31 KCAL/MOL
REMARK 923 INTER-LIGAND FREE ENERGY PREDICTED BY IDOCK:   -6.00 KCAL/MOL
REMARK 924 INTRA-LIGAND FREE ENERGY PREDICTED BY IDOCK:    0.69 KCAL/MOL
REMARK 927      BINDING AFFINITY PREDICTED BY RF-SCORE:    0.00 PKD
ROOT
HETATM    1  C   UNL     1      -9.570  12.687  64.856  1.00  0.00     0.161 C  
HETATM    2  C   UNL     1     -10.346  12.008  63.892  1.00  0.00    -0.433 C  
HETATM    3  C   UNL     1     -11.129  12.231  65.169  1.00  0.00    -0.361 C  
HETATM    4  C   UNL     1     -10.262  13.495  66.550  1.00  0.00    -0.283 C  
HETATM    5  C   UNL     1     -12.671  11.976  64.537  1.00  0.00    -0.118 C  
HETATM    6  O   UNL     1      -9.018  14.247  66.254  1.00  0.00    -0.478 OA 
HETATM    7  C   UNL     1     -10.654   8.045  66.966  1.00  0.00    -0.364 C  
HETATM    8  C   UNL     1     -11.147  13.596  65.537  1.00  0.00    -0.301 C  
HETATM    9  C   UNL     1     -11.965  12.689  67.057  1.00  0.00    -0.330 C  
HETATM   10  C   UNL     1     -11.537  14.831  64.716  1.00  0.00    -0.418 C  
HETATM   11  C   UNL     1      -9.391   8.988  67.152  1.00  0.00    -0.184 C  
HETATM   12  C   UNL     1      -8.923   8.661  68.561  1.00  0.00    -0.139 C  
HETATM   13  H   UNL     1      -8.619  14.829  66.890  1.00  0.00     0.000 HD 
HETATM   14  C   UNL     1     -11.021  11.248  67.622  1.00  0.00    -0.259 C  
HETATM   15  C   UNL     1      -8.017   7.675  68.772  1.00  0.00    -0.126 C  
HETATM   16  O   UNL     1      -6.467   6.119  67.814  1.00  0.00    -0.042 OA 
HETATM   17  O   UNL     1     -10.405  11.597  68.870  1.00  0.00    -0.275 OA 
HETATM   18  C   UNL     1      -9.871  10.413  66.627  1.00  0.00    -0.202 C  
HETATM   19  H   UNL     1      -9.911  10.842  69.166  1.00  0.00     0.000 HD 
HETATM   20  C   UNL     1      -8.834  11.465  65.951  1.00  0.00    -0.149 C  
HETATM   21  F   UNL     1     -10.506   9.874  65.481  1.00  0.00    -0.322 F  
HETATM   22  C   UNL     1      -7.737  10.729  65.166  1.00  0.00     0.100 C  
HETATM   23  C   UNL     1      -7.173   9.559  65.945  1.00  0.00    -0.096 C  
HETATM   24  F   UNL     1      -6.158   9.022  65.225  1.00  0.00    -0.056 F  
HETATM   25  C   UNL     1      -8.243   8.515  66.216  1.00  0.00    -0.109 C  
HETATM   26  C   UNL     1      -7.902   7.212  66.251  1.00  0.00    -0.107 C  
HETATM   27  C   UNL     1      -7.359   6.941  67.631  1.00  0.00    -0.096 C  
ENDROOT
BRANCH   4  28
HETATM   28  C   UNL     1     -10.846  14.886  67.393  1.00  0.00    -0.304 C  
HETATM   29  O   UNL     1     -11.995  15.054  67.834  1.00  0.00    -0.291 OA 
BRANCH  28  30
HETATM   30  C   UNL     1      -9.856  16.017  67.697  1.00  0.00    -0.235 C  
HETATM   31  O   UNL     1      -9.133  15.696  68.886  1.00  0.00    -0.186 OA 
HETATM   32  H   UNL     1      -8.519  16.396  69.074  1.00  0.00     0.000 HD 
ENDBRANCH  28  30
ENDBRANCH   4  28
TORSDOF 2
ENDMDL
MODEL       44
REMARK 921   NORMALIZED FREE ENERGY PREDICTED BY IDOCK:   -5.37 KCAL/MOL
REMARK 922        TOTAL FREE ENERGY PREDICTED BY IDOCK:   -5.29 KCAL/MOL
REMARK 923 INTER-LIGAND FREE ENERGY PREDICTED BY IDOCK:   -5.99 KCAL/MOL
REMARK 924 INTRA-LIGAND FREE ENERGY PREDICTED BY IDOCK:    0.70 KCAL/MOL
REMARK 927      BINDING AFFINITY PREDICTED BY RF-SCORE:    0.00 PKD
ROOT
HETATM    1  C   UNL     1      -8.416   7.708  71.260  1.00  0.00    -0.118 C  
HETATM    2  C   UNL     1      -8.910   8.418  72.375  1.00  0.00    -0.294 C  
HETATM    3  C   UNL     1      -9.997   7.583  71.730  1.00  0.00    -0.200 C  
HETATM    4  C   UNL     1      -9.370   6.234  70.300  1.00  0.00    -0.161 C  
HETATM    5  C   UNL     1     -11.082   7.587  73.020  1.00  0.00    -0.413 C  
HETATM    6  O   UNL     1      -7.932   5.999  70.020  1.00  0.00    -0.105 OA 
HETATM    7  C   UNL     1     -12.062  10.914  69.361  1.00  0.00    -0.362 C  
HETATM    8  C   UNL     1      -9.617   6.225  71.626  1.00  0.00    -0.167 C  
HETATM    9  C   UNL     1     -11.291   6.322  70.630  1.00  0.00    -0.409 C  
HETATM   10  C   UNL     1      -9.087   5.267  72.699  1.00  0.00    -0.141 C  
HETATM   11  C   UNL     1     -10.736  10.355  68.690  1.00  0.00    -0.250 C  
HETATM   12  C   UNL     1     -11.085  10.324  67.211  1.00  0.00    -0.215 C  
HETATM   13  H   UNL     1      -7.643   5.378  69.361  1.00  0.00     0.000 HD 
HETATM   14  C   UNL     1     -11.346   7.704  69.458  1.00  0.00     0.195 C  
HETATM   15  C   UNL     1     -10.838  11.399  66.424  1.00  0.00    -0.323 C  
HETATM   16  O   UNL     1      -9.802  13.549  66.213  1.00  0.00    -0.288 OA 
HETATM   17  O   UNL     1     -11.234   7.157  68.137  1.00  0.00    -0.485 OA 
HETATM   18  C   UNL     1     -10.328   9.104  69.587  1.00  0.00    -0.219 C  
HETATM   19  H   UNL     1     -11.263   7.881  67.523  1.00  0.00     0.000 HD 
HETATM   20  C   UNL     1      -8.776   8.662  69.778  1.00  0.00    -0.132 C  
HETATM   21  F   UNL     1     -10.574   9.785  70.805  1.00  0.00    -0.321 F  
HETATM   22  C   UNL     1      -7.851   9.889  69.771  1.00  0.00    -0.169 C  
HETATM   23  C   UNL     1      -8.195  10.851  68.654  1.00  0.00    -0.146 C  
HETATM   24  F   UNL     1      -7.284  11.854  68.663  1.00  0.00    -0.084 F  
HETATM   25  C   UNL     1      -9.599  11.407  68.824  1.00  0.00    -0.139 C  
HETATM   26  C   UNL     1      -9.862  12.668  68.430  1.00  0.00    -0.200 C  
HETATM   27  C   UNL     1     -10.117  12.617  66.945  1.00  0.00    -0.230 C  
ENDROOT
BRANCH   4  28
HETATM   28  C   UNL     1      -9.640   4.540  70.089  1.00  0.00    -0.194 C  
HETATM   29  O   UNL     1     -10.154   3.767  70.913  1.00  0.00    -0.105 OA 
BRANCH  28  30
HETATM   30  C   UNL     1      -9.276   3.913  68.738  1.00  0.00    -0.152 C  
HETATM   31  O   UNL     1      -9.825   4.711  67.690  1.00  0.00    -0.168 OA 
HETATM   32  H   UNL     1      -9.600   4.323  66.853  1.00  0.00     0.000 HD 
ENDBRANCH  28  30
ENDBRANCH   4  28
TORSDOF 2
ENDMDL
MODEL       45
REMARK 921   NORMALIZED FREE ENERGY PREDICTED BY IDOCK:   -5.28 KCAL/MOL
REMARK 922        TOTAL FREE ENERGY PREDICTED BY IDOCK:   -5.19 KCAL/MOL
REMARK 923 INTER-LIGAND FREE ENERGY PREDICTED BY IDOCK:   -6.18 KCAL/MOL
REMARK 924 INTRA-LIGAND FREE ENERGY PREDICTED BY IDOCK:    1.00 KCAL/MOL
REMARK 927      BINDING AFFINITY PREDICTED BY RF-SCORE:    0.00 PKD
ROOT
HETATM    1  C   UNL     1      -8.866  10.878  67.656  1.00  0.00    -0.133 C  
HETATM    2  C   UNL     1      -7.920  11.202  68.653  1.00  0.00    -0.145 C  
HETATM    3  C   UNL     1      -7.761   9.768  68.189  1.00  0.00    -0.082 C  
HETATM    4  C   UNL     1      -8.838   9.239  66.510  1.00  0.00    -0.133 C  
HETATM    5  C   UNL     1      -6.203   9.511  68.779  1.00  0.00    -0.043 C  
HETATM    6  O   UNL     1      -9.610  10.234  65.727  1.00  0.00    -0.193 OA 
HETATM    7  C   UNL     1      -9.930   7.712  71.659  1.00  0.00    -0.207 C  
HETATM    8  C   UNL     1      -7.597   9.691  66.786  1.00  0.00    -0.098 C  
HETATM    9  C   UNL     1      -7.774   7.830  67.342  1.00  0.00    -0.113 C  
HETATM   10  C   UNL     1      -6.611  10.425  65.869  1.00  0.00    -0.123 C  
HETATM   11  C   UNL     1     -10.890   8.338  70.561  1.00  0.00    -0.245 C  
HETATM   12  C   UNL     1     -11.999   7.305  70.444  1.00  0.00    -0.124 C  
HETATM   13  H   UNL     1     -10.106   9.989  64.954  1.00  0.00     0.000 HD 
HETATM   14  C   UNL     1      -9.172   7.549  68.461  1.00  0.00    -0.143 C  
HETATM   15  C   UNL     1     -13.102   7.388  71.226  1.00  0.00    -0.349 C  
HETATM   16  O   UNL     1     -14.372   8.683  72.792  1.00  0.00    -0.520 OA 
HETATM   17  O   UNL     1     -10.182   6.846  67.723  1.00  0.00    -0.156 OA 
HETATM   18  C   UNL     1      -9.915   8.809  69.394  1.00  0.00    -0.196 C  
HETATM   19  H   UNL     1     -10.914   6.698  68.309  1.00  0.00     0.000 HD 
HETATM   20  C   UNL     1     -10.270  10.081  68.448  1.00  0.00    -0.196 C  
HETATM   21  F   UNL     1      -8.978   9.382  70.288  1.00  0.00    -0.174 F  
HETATM   22  C   UNL     1     -11.038  11.154  69.235  1.00  0.00    -0.318 C  
HETATM   23  C   UNL     1     -12.141  10.554  70.082  1.00  0.00    -0.300 C  
HETATM   24  F   UNL     1     -12.822  11.567  70.671  1.00  0.00    -0.336 F  
HETATM   25  C   UNL     1     -11.575   9.613  71.132  1.00  0.00    -0.456 C  
HETATM   26  C   UNL     1     -12.184   9.515  72.329  1.00  0.00    -0.161 C  
HETATM   27  C   UNL     1     -13.331   8.552  72.158  1.00  0.00    -0.351 C  
ENDROOT
BRANCH   4  28
HETATM   28  C   UNL     1      -8.390   8.484  65.021  1.00  0.00    -0.165 C  
HETATM   29  O   UNL     1      -7.943   7.334  64.882  1.00  0.00    -0.120 OA 
BRANCH  28  30
HETATM   30  C   UNL     1      -8.612   9.263  63.720  1.00  0.00    -0.192 C  
HETATM   31  O   UNL     1      -8.949   8.346  62.679  1.00  0.00    -0.411 OA 
HETATM   32  H   UNL     1      -9.088   8.829  61.872  1.00  0.00     0.000 HD 
ENDBRANCH  28  30
ENDBRANCH   4  28
TORSDOF 2
ENDMDL
MODEL       46
REMARK 921   NORMALIZED FREE ENERGY PREDICTED BY IDOCK:   -5.19 KCAL/MOL
REMARK 922        TOTAL FREE ENERGY PREDICTED BY IDOCK:   -5.09 KCAL/MOL
REMARK 923 INTER-LIGAND FREE ENERGY PREDICTED BY IDOCK:   -6.04 KCAL/MOL
REMARK 924 INTRA-LIGAND FREE ENERGY PREDICTED BY IDOCK:    0.94 KCAL/MOL
REMARK 927      BINDING AFFINITY PREDICTED BY RF-SCORE:    0.00 PKD
ROOT
HETATM    1  C   UNL     1     -11.011  11.079  67.851  1.00  0.00    -0.317 C  
HETATM    2  C   UNL     1     -10.201  11.166  69.004  1.00  0.00    -0.194 C  
HETATM    3  C   UNL     1      -9.510  11.772  67.799  1.00  0.00    -0.181 C  
HETATM    4  C   UNL     1     -10.680  12.027  66.120  1.00  0.00    -0.275 C  
HETATM    5  C   UNL     1      -8.347  12.665  68.632  1.00  0.00     0.028 C  
HETATM    6  O   UNL     1     -12.140  11.763  66.133  1.00  0.00    -0.422 OA 
HETATM    7  C   UNL     1      -6.766   8.249  66.781  1.00  0.00    -0.064 C  
HETATM    8  C   UNL     1     -10.308  12.764  67.186  1.00  0.00    -0.237 C  
HETATM    9  C   UNL     1      -8.806  12.546  65.961  1.00  0.00     0.255 C  
HETATM   10  C   UNL     1     -10.995  13.991  67.798  1.00  0.00    -0.271 C  
HETATM   11  C   UNL     1      -8.264   8.081  66.285  1.00  0.00    -0.116 C  
HETATM   12  C   UNL     1      -8.103   7.430  64.921  1.00  0.00    -0.114 C  
HETATM   13  H   UNL     1     -12.679  11.880  65.359  1.00  0.00     0.000 HD 
HETATM   14  C   UNL     1      -8.444  10.811  65.578  1.00  0.00    -0.153 C  
HETATM   15  C   UNL     1      -8.082   6.081  64.801  1.00  0.00    -0.132 C  
HETATM   16  O   UNL     1      -8.402   3.956  65.861  1.00  0.00    -0.107 OA 
HETATM   17  O   UNL     1      -8.864  10.570  64.228  1.00  0.00    -0.187 OA 
HETATM   18  C   UNL     1      -8.947   9.488  66.582  1.00  0.00    -0.146 C  
HETATM   19  H   UNL     1      -8.673   9.661  64.027  1.00  0.00     0.000 HD 
HETATM   20  C   UNL     1     -10.529   9.611  66.931  1.00  0.00    -0.282 C  
HETATM   21  F   UNL     1      -8.370   9.596  67.871  1.00  0.00    -0.113 F  
HETATM   22  C   UNL     1     -11.015   8.383  67.717  1.00  0.00     0.095 C  
HETATM   23  C   UNL     1     -10.506   7.089  67.116  1.00  0.00    -0.312 C  
HETATM   24  F   UNL     1     -11.048   6.058  67.809  1.00  0.00    -0.338 F  
HETATM   25  C   UNL     1      -8.989   7.022  67.163  1.00  0.00    -0.123 C  
HETATM   26  C   UNL     1      -8.386   5.831  67.337  1.00  0.00    -0.104 C  
HETATM   27  C   UNL     1      -8.321   5.173  65.981  1.00  0.00    -0.116 C  
ENDROOT
BRANCH   4  28
HETATM   28  C   UNL     1     -10.984  13.388  65.099  1.00  0.00    -0.303 C  
HETATM   29  O   UNL     1     -10.216  14.341  64.893  1.00  0.00    -0.413 OA 
BRANCH  28  30
HETATM   30  C   UNL     1     -12.296  13.420  64.307  1.00  0.00    -0.335 C  
HETATM   31  O   UNL     1     -12.394  14.666  63.616  1.00  0.00    -1.060 OA 
HETATM   32  H   UNL     1     -13.206  14.686  63.125  1.00  0.00     0.000 HD 
ENDBRANCH  28  30
ENDBRANCH   4  28
TORSDOF 2
ENDMDL
MODEL       47
REMARK 921   NORMALIZED FREE ENERGY PREDICTED BY IDOCK:   -5.17 KCAL/MOL
REMARK 922        TOTAL FREE ENERGY PREDICTED BY IDOCK:   -5.07 KCAL/MOL
REMARK 923 INTER-LIGAND FREE ENERGY PREDICTED BY IDOCK:   -5.67 KCAL/MOL
REMARK 924 INTRA-LIGAND FREE ENERGY PREDICTED BY IDOCK:    0.60 KCAL/MOL
REMARK 927      BINDING AFFINITY PREDICTED BY RF-SCORE:    0.00 PKD
ROOT
HETATM    1  C   UNL     1     -10.148   8.894  71.772  1.00  0.00    -0.407 C  
HETATM    2  C   UNL     1     -11.520   8.633  71.566  1.00  0.00    -0.363 C  
HETATM    3  C   UNL     1     -10.693   7.371  71.428  1.00  0.00    -0.239 C  
HETATM    4  C   UNL     1      -8.723   7.513  72.026  1.00  0.00    -0.111 C  
HETATM    5  C   UNL     1     -11.949   6.258  71.596  1.00  0.00    -0.272 C  
HETATM    6  O   UNL     1      -8.186   8.733  72.677  1.00  0.00    -0.403 OA 
HETATM    7  C   UNL     1     -10.513   7.201  66.855  1.00  0.00    -0.364 C  
HETATM    8  C   UNL     1      -9.898   7.143  72.575  1.00  0.00    -0.183 C  
HETATM    9  C   UNL     1      -9.292   5.791  71.307  1.00  0.00    -0.166 C  
HETATM   10  C   UNL     1     -10.298   7.091  74.055  1.00  0.00    -0.310 C  
HETATM   11  C   UNL     1      -9.495   8.224  67.516  1.00  0.00    -0.182 C  
HETATM   12  C   UNL     1      -8.244   8.060  66.670  1.00  0.00    -0.108 C  
HETATM   13  H   UNL     1      -7.279   8.798  72.952  1.00  0.00     0.000 HD 
HETATM   14  C   UNL     1      -8.954   6.460  69.657  1.00  0.00    -0.137 C  
HETATM   15  C   UNL     1      -8.051   8.827  65.570  1.00  0.00    -0.115 C  
HETATM   16  O   UNL     1      -8.779  10.699  64.264  1.00  0.00    -0.179 OA 
HETATM   17  O   UNL     1      -7.531   6.470  69.477  1.00  0.00    -0.088 OA 
HETATM   18  C   UNL     1      -9.616   7.958  69.082  1.00  0.00    -0.153 C  
HETATM   19  H   UNL     1      -7.353   6.821  68.613  1.00  0.00     0.000 HD 
HETATM   20  C   UNL     1      -9.373   9.140  70.169  1.00  0.00    -0.235 C  
HETATM   21  F   UNL     1     -11.031   7.896  69.052  1.00  0.00    -0.188 F  
HETATM   22  C   UNL     1      -9.844  10.496  69.621  1.00  0.00    -0.117 C  
HETATM   23  C   UNL     1      -9.386  10.721  68.195  1.00  0.00    -0.155 C  
HETATM   24  F   UNL     1      -9.764  11.967  67.819  1.00  0.00    -0.174 F  
HETATM   25  C   UNL     1      -9.978   9.680  67.259  1.00  0.00    -0.250 C  
HETATM   26  C   UNL     1     -10.280  10.026  65.993  1.00  0.00    -0.277 C  
HETATM   27  C   UNL     1      -9.001   9.938  65.199  1.00  0.00    -0.198 C  
ENDROOT
BRANCH   4  28
HETATM   28  C   UNL     1      -7.754   6.570  73.102  1.00  0.00    -0.096 C  
HETATM   29  O   UNL     1      -8.151   5.654  73.841  1.00  0.00    -0.107 OA 
BRANCH  28  30
HETATM   30  C   UNL     1      -6.242   6.821  73.122  1.00  0.00    -0.058 C  
HETATM   31  O   UNL     1      -5.816   7.212  71.817  1.00  0.00    -0.037 OA 
HETATM   32  H   UNL     1      -4.879   7.369  71.830  1.00  0.00     0.000 HD 
ENDBRANCH  28  30
ENDBRANCH   4  28
TORSDOF 2
ENDMDL
MODEL       48
REMARK 921   NORMALIZED FREE ENERGY PREDICTED BY IDOCK:   -5.16 KCAL/MOL
REMARK 922        TOTAL FREE ENERGY PREDICTED BY IDOCK:   -5.06 KCAL/MOL
REMARK 923 INTER-LIGAND FREE ENERGY PREDICTED BY IDOCK:   -5.77 KCAL/MOL
REMARK 924 INTRA-LIGAND FREE ENERGY PREDICTED BY IDOCK:    0.71 KCAL/MOL
REMARK 927      BINDING AFFINITY PREDICTED BY RF-SCORE:    0.00 PKD
ROOT
HETATM    1  C   UNL     1      -8.272   8.058  66.154  1.00  0.00    -0.116 C  
HETATM    2  C   UNL     1      -6.974   8.592  66.006  1.00  0.00    -0.079 C  
HETATM    3  C   UNL     1      -7.343   8.443  67.467  1.00  0.00    -0.093 C  
HETATM    4  C   UNL     1      -9.062   7.373  67.859  1.00  0.00    -0.129 C  
HETATM    5  C   UNL     1      -5.785   8.539  68.105  1.00  0.00    -0.035 C  
HETATM    6  O   UNL     1      -9.815   6.675  66.788  1.00  0.00    -0.166 OA 
HETATM    7  C   UNL     1      -8.470  12.802  68.305  1.00  0.00    -0.161 C  
HETATM    8  C   UNL     1      -7.740   7.120  67.771  1.00  0.00    -0.112 C  
HETATM    9  C   UNL     1      -8.129   8.115  69.403  1.00  0.00    -0.116 C  
HETATM   10  C   UNL     1      -7.028   5.791  67.495  1.00  0.00    -0.069 C  
HETATM   11  C   UNL     1      -9.595  11.962  67.566  1.00  0.00    -0.175 C  
HETATM   12  C   UNL     1     -10.876  12.451  68.222  1.00  0.00    -0.264 C  
HETATM   13  H   UNL     1     -10.607   6.182  66.968  1.00  0.00     0.000 HD 
HETATM   14  C   UNL     1      -9.029   9.659  69.102  1.00  0.00    -0.154 C  
HETATM   15  C   UNL     1     -11.553  13.507  67.708  1.00  0.00    -0.374 C  
HETATM   16  O   UNL     1     -11.798  15.058  65.899  1.00  0.00    -0.193 OA 
HETATM   17  O   UNL     1     -10.376   9.470  69.556  1.00  0.00    -0.195 OA 
HETATM   18  C   UNL     1      -9.048  10.467  67.566  1.00  0.00    -0.134 C  
HETATM   19  H   UNL     1     -10.848  10.279  69.398  1.00  0.00     0.000 HD 
HETATM   20  C   UNL     1      -9.422   9.422  66.380  1.00  0.00    -0.259 C  
HETATM   21  F   UNL     1      -7.737  10.853  67.193  1.00  0.00    -0.107 F  
HETATM   22  C   UNL     1      -9.562  10.147  65.033  1.00  0.00    -0.362 C  
HETATM   23  C   UNL     1     -10.374  11.420  65.157  1.00  0.00    -0.290 C  
HETATM   24  F   UNL     1     -10.525  11.948  63.918  1.00  0.00    -0.295 F  
HETATM   25  C   UNL     1      -9.694  12.416  66.081  1.00  0.00    -0.254 C  
HETATM   26  C   UNL     1      -9.814  13.734  65.834  1.00  0.00    -0.279 C  
HETATM   27  C   UNL     1     -11.134  14.169  66.420  1.00  0.00    -0.320 C  
ENDROOT
BRANCH   4  28
HETATM   28  C   UNL     1      -9.397   6.034  68.900  1.00  0.00    -0.123 C  
HETATM   29  O   UNL     1      -8.602   5.139  69.230  1.00  0.00    -0.095 OA 
BRANCH  28  30
HETATM   30  C   UNL     1     -10.785   5.948  69.545  1.00  0.00    -0.343 C  
HETATM   31  O   UNL     1     -11.598   7.011  69.045  1.00  0.00    -0.481 OA 
HETATM   32  H   UNL     1     -12.459   6.958  69.444  1.00  0.00     0.000 HD 
ENDBRANCH  28  30
ENDBRANCH   4  28
TORSDOF 2
ENDMDL
MODEL       49
REMARK 921   NORMALIZED FREE ENERGY PREDICTED BY IDOCK:   -4.94 KCAL/MOL
REMARK 922        TOTAL FREE ENERGY PREDICTED BY IDOCK:   -4.81 KCAL/MOL
REMARK 923 INTER-LIGAND FREE ENERGY PREDICTED BY IDOCK:   -5.49 KCAL/MOL
REMARK 924 INTRA-LIGAND FREE ENERGY PREDICTED BY IDOCK:    0.68 KCAL/MOL
REMARK 927      BINDING AFFINITY PREDICTED BY RF-SCORE:    0.00 PKD
ROOT
HETATM    1  C   UNL     1      -8.120   9.513  69.042  1.00  0.00    -0.101 C  
HETATM    2  C   UNL     1      -7.042   9.725  68.156  1.00  0.00    -0.078 C  
HETATM    3  C   UNL     1      -8.365   9.703  67.418  1.00  0.00    -0.114 C  
HETATM    4  C   UNL     1     -10.057   9.737  68.598  1.00  0.00    -0.169 C  
HETATM    5  C   UNL     1      -7.845  10.448  65.998  1.00  0.00    -0.142 C  
HETATM    6  O   UNL     1      -9.985   9.911  70.069  1.00  0.00    -0.242 OA 
HETATM    7  C   UNL     1      -8.148   5.419  65.815  1.00  0.00    -0.110 C  
HETATM    8  C   UNL     1      -9.279  10.636  67.961  1.00  0.00    -0.148 C  
HETATM    9  C   UNL     1     -10.342   9.632  66.670  1.00  0.00    -0.279 C  
HETATM   10  C   UNL     1      -9.107  12.133  68.241  1.00  0.00    -0.191 C  
HETATM   11  C   UNL     1      -8.590   5.531  67.335  1.00  0.00    -0.108 C  
HETATM   12  C   UNL     1      -9.669   4.467  67.460  1.00  0.00    -0.213 C  
HETATM   13  H   UNL     1     -10.765   9.926  70.612  1.00  0.00     0.000 HD 
HETATM   14  C   UNL     1     -10.141   7.836  66.821  1.00  0.00    -0.270 C  
HETATM   15  C   UNL     1      -9.347   3.200  67.814  1.00  0.00    -0.252 C  
HETATM   16  O   UNL     1      -7.665   1.694  68.618  1.00  0.00    -0.046 OA 
HETATM   17  O   UNL     1     -11.348   7.312  67.390  1.00  0.00    -0.537 OA 
HETATM   18  C   UNL     1      -8.773   7.092  67.588  1.00  0.00    -0.121 C  
HETATM   19  H   UNL     1     -11.242   6.371  67.469  1.00  0.00     0.000 HD 
HETATM   20  C   UNL     1      -8.509   7.757  69.047  1.00  0.00    -0.132 C  
HETATM   21  F   UNL     1      -7.578   7.432  66.908  1.00  0.00    -0.091 F  
HETATM   22  C   UNL     1      -7.379   7.026  69.787  1.00  0.00    -0.088 C  
HETATM   23  C   UNL     1      -7.522   5.521  69.694  1.00  0.00    -0.070 C  
HETATM   24  F   UNL     1      -6.544   4.955  70.442  1.00  0.00    -0.030 F  
HETATM   25  C   UNL     1      -7.430   5.049  68.253  1.00  0.00    -0.075 C  
HETATM   26  C   UNL     1      -6.872   3.854  67.984  1.00  0.00    -0.047 C  
HETATM   27  C   UNL     1      -7.942   2.814  68.201  1.00  0.00    -0.058 C  
ENDROOT
BRANCH   4  28
HETATM   28  C   UNL     1     -11.467  10.736  68.596  1.00  0.00    -0.295 C  
HETATM   29  O   UNL     1     -11.997  11.264  67.604  1.00  0.00    -0.634 OA 
BRANCH  28  30
HETATM   30  C   UNL     1     -12.196  10.962  69.926  1.00  0.00    -0.336 C  
HETATM   31  O   UNL     1     -11.779  12.210  70.480  1.00  0.00    -0.513 OA 
HETATM   32  H   UNL     1     -12.231  12.350  71.304  1.00  0.00     0.000 HD 
ENDBRANCH  28  30
ENDBRANCH   4  28
TORSDOF 2
ENDMDL
MODEL       50
REMARK 921   NORMALIZED FREE ENERGY PREDICTED BY IDOCK:   -4.93 KCAL/MOL
REMARK 922        TOTAL FREE ENERGY PREDICTED BY IDOCK:   -4.80 KCAL/MOL
REMARK 923 INTER-LIGAND FREE ENERGY PREDICTED BY IDOCK:   -5.59 KCAL/MOL
REMARK 924 INTRA-LIGAND FREE ENERGY PREDICTED BY IDOCK:    0.79 KCAL/MOL
REMARK 927      BINDING AFFINITY PREDICTED BY RF-SCORE:    0.00 PKD
ROOT
HETATM    1  C   UNL     1     -10.526   8.945  67.782  1.00  0.00    -0.300 C  
HETATM    2  C   UNL     1     -10.651  10.210  68.397  1.00  0.00    -0.249 C  
HETATM    3  C   UNL     1      -9.196   9.834  68.203  1.00  0.00    -0.132 C  
HETATM    4  C   UNL     1      -8.840   8.179  67.024  1.00  0.00    -0.132 C  
HETATM    5  C   UNL     1      -8.539  11.376  68.383  1.00  0.00    -0.156 C  
HETATM    6  O   UNL     1      -9.931   7.482  66.299  1.00  0.00    -0.445 OA 
HETATM    7  C   UNL     1      -8.307   8.435  72.472  1.00  0.00    -0.213 C  
HETATM    8  C   UNL     1      -8.917   9.515  66.854  1.00  0.00    -0.148 C  
HETATM    9  C   UNL     1      -7.275   9.049  67.797  1.00  0.00    -0.083 C  
HETATM   10  C   UNL     1      -9.204  10.311  65.575  1.00  0.00    -0.232 C  
HETATM   11  C   UNL     1      -9.073   7.371  71.577  1.00  0.00    -0.148 C  
HETATM   12  C   UNL     1      -8.424   6.055  71.976  1.00  0.00    -0.121 C  
HETATM   13  H   UNL     1      -9.767   6.720  65.756  1.00  0.00     0.000 HD 
HETATM   14  C   UNL     1      -7.564   8.060  69.289  1.00  0.00    -0.096 C  
HETATM   15  C   UNL     1      -8.930   5.321  72.997  1.00  0.00    -0.119 C  
HETATM   16  O   UNL     1     -10.719   5.001  74.559  1.00  0.00    -0.355 OA 
HETATM   17  O   UNL     1      -7.129   6.722  69.011  1.00  0.00    -0.082 OA 
HETATM   18  C   UNL     1      -9.088   8.008  70.117  1.00  0.00    -0.151 C  
HETATM   19  H   UNL     1      -7.280   6.203  69.792  1.00  0.00     0.000 HD 
HETATM   20  C   UNL     1     -10.294   7.712  69.070  1.00  0.00    -0.220 C  
HETATM   21  F   UNL     1      -9.440   9.297  70.588  1.00  0.00    -0.226 F  
HETATM   22  C   UNL     1     -11.632   7.542  69.807  1.00  0.00     0.189 C  
HETATM   23  C   UNL     1     -11.498   6.653  71.025  1.00  0.00    -0.330 C  
HETATM   24  F   UNL     1     -12.731   6.483  71.563  1.00  0.00    -0.371 F  
HETATM   25  C   UNL     1     -10.551   7.260  72.046  1.00  0.00    -0.236 C  
HETATM   26  C   UNL     1     -10.780   7.063  73.358  1.00  0.00    -0.379 C  
HETATM   27  C   UNL     1     -10.204   5.713  73.703  1.00  0.00    -0.218 C  
ENDROOT
BRANCH   4  28
HETATM   28  C   UNL     1      -7.824   7.915  65.651  1.00  0.00    -0.109 C  
HETATM   29  O   UNL     1      -6.804   8.558  65.354  1.00  0.00    -0.069 OA 
BRANCH  28  30
HETATM   30  C   UNL     1      -8.151   6.739  64.724  1.00  0.00    -0.098 C  
HETATM   31  O   UNL     1      -8.489   7.244  63.432  1.00  0.00    -0.361 OA 
HETATM   32  H   UNL     1      -8.691   6.515  62.857  1.00  0.00     0.000 HD 
ENDBRANCH  28  30
ENDBRANCH   4  28
TORSDOF 2
ENDMDL
MODEL       51
REMARK 921   NORMALIZED FREE ENERGY PREDICTED BY IDOCK:   -4.91 KCAL/MOL
REMARK 922        TOTAL FREE ENERGY PREDICTED BY IDOCK:   -4.77 KCAL/MOL
REMARK 923 INTER-LIGAND FREE ENERGY PREDICTED BY IDOCK:   -6.96 KCAL/MOL
REMARK 924 INTRA-LIGAND FREE ENERGY PREDICTED BY IDOCK:    2.19 KCAL/MOL
REMARK 927      BINDING AFFINITY PREDICTED BY RF-SCORE:    0.00 PKD
ROOT
HETATM    1  C   UNL     1     -10.507  15.524  69.094  1.00  0.00    -0.232 C  
HETATM    2  C   UNL     1      -9.469  15.294  70.022  1.00  0.00     0.106 C  
HETATM    3  C   UNL     1      -8.918  15.697  68.670  1.00  0.00    -0.202 C  
HETATM    4  C   UNL     1     -10.298  16.391  67.303  1.00  0.00    -0.287 C  
HETATM    5  C   UNL     1      -7.369  16.130  69.178  1.00  0.00    -0.215 C  
HETATM    6  O   UNL     1     -11.720  16.611  67.665  1.00  0.00     0.266 OA 
HETATM    7  C   UNL     1      -7.776  11.528  67.159  1.00  0.00    -0.160 C  
HETATM    8  C   UNL     1      -9.471  16.921  68.227  1.00  0.00    -0.250 C  
HETATM    9  C   UNL     1      -8.448  16.284  66.694  1.00  0.00    -0.306 C  
HETATM   10  C   UNL     1      -9.562  18.275  68.941  1.00  0.00    -0.268 C  
HETATM   11  C   UNL     1      -9.320  11.874  67.032  1.00  0.00    -0.188 C  
HETATM   12  C   UNL     1      -9.699  11.267  65.691  1.00  0.00    -0.267 C  
HETATM   13  H   UNL     1     -12.355  16.930  67.035  1.00  0.00     0.000 HD 
HETATM   14  C   UNL     1      -8.765  14.545  66.295  1.00  0.00     0.209 C  
HETATM   15  C   UNL     1     -10.144   9.989  65.615  1.00  0.00    -0.321 C  
HETATM   16  O   UNL     1     -10.879   8.036  66.792  1.00  0.00    -0.214 OA 
HETATM   17  O   UNL     1      -9.541  14.512  65.089  1.00  0.00    -0.481 OA 
HETATM   18  C   UNL     1      -9.423  13.411  67.433  1.00  0.00    -0.222 C  
HETATM   19  H   UNL     1      -9.707  13.600  64.880  1.00  0.00     0.000 HD 
HETATM   20  C   UNL     1     -10.753  14.021  68.137  1.00  0.00    -0.254 C  
HETATM   21  F   UNL     1      -8.559  13.269  68.547  1.00  0.00    -0.168 F  
HETATM   22  C   UNL     1     -11.415  12.982  69.055  1.00  0.00    -0.353 C  
HETATM   23  C   UNL     1     -11.506  11.621  68.397  1.00  0.00    -0.297 C  
HETATM   24  F   UNL     1     -12.176  10.790  69.231  1.00  0.00    -0.364 F  
HETATM   25  C   UNL     1     -10.124  11.067  68.091  1.00  0.00    -0.195 C  
HETATM   26  C   UNL     1      -9.916   9.738  68.159  1.00  0.00    -0.179 C  
HETATM   27  C   UNL     1     -10.383   9.156  66.849  1.00  0.00    -0.251 C  
ENDROOT
BRANCH   4  28
HETATM   28  C   UNL     1     -10.372  17.821  66.335  1.00  0.00    -0.351 C  
HETATM   29  O   UNL     1     -10.728  17.891  65.148  1.00  0.00    -0.615 OA 
BRANCH  28  30
HETATM   30  C   UNL     1     -10.031  19.161  66.998  1.00  0.00    -0.347 C  
HETATM   31  O   UNL     1      -9.751  20.125  65.983  1.00  0.00    -0.554 OA 
HETATM   32  H   UNL     1      -9.540  20.956  66.393  1.00  0.00     0.000 HD 
ENDBRANCH  28  30
ENDBRANCH   4  28
TORSDOF 2
ENDMDL
MODEL       52
REMARK 921   NORMALIZED FREE ENERGY PREDICTED BY IDOCK:   -4.88 KCAL/MOL
REMARK 922        TOTAL FREE ENERGY PREDICTED BY IDOCK:   -4.74 KCAL/MOL
REMARK 923 INTER-LIGAND FREE ENERGY PREDICTED BY IDOCK:   -5.63 KCAL/MOL
REMARK 924 INTRA-LIGAND FREE ENERGY PREDICTED BY IDOCK:    0.89 KCAL/MOL
REMARK 927      BINDING AFFINITY PREDICTED BY RF-SCORE:    0.00 PKD
ROOT
HETATM    1  C   UNL     1      -8.191  16.210  66.902  1.00  0.00    -0.273 C  
HETATM    2  C   UNL     1      -8.691  15.981  65.601  1.00  0.00     0.447 C  
HETATM    3  C   UNL     1      -9.648  16.825  66.418  1.00  0.00    -0.303 C  
HETATM    4  C   UNL     1      -8.922  17.527  68.218  1.00  0.00    -0.267 C  
HETATM    5  C   UNL     1     -10.556  17.440  65.138  1.00  0.00     0.188 C  
HETATM    6  O   UNL     1      -7.508  17.334  68.623  1.00  0.00    -0.230 OA 
HETATM    7  C   UNL     1     -12.612  13.528  67.565  1.00  0.00     0.420 C  
HETATM    8  C   UNL     1      -9.010  17.971  66.947  1.00  0.00    -0.268 C  
HETATM    9  C   UNL     1     -10.770  17.983  67.787  1.00  0.00    -0.350 C  
HETATM   10  C   UNL     1      -8.175  19.046  66.241  1.00  0.00    -0.294 C  
HETATM   11  C   UNL     1     -11.284  13.551  68.435  1.00  0.00    -0.309 C  
HETATM   12  C   UNL     1     -11.785  13.238  69.835  1.00  0.00    -0.330 C  
HETATM   13  H   UNL     1      -7.175  17.657  69.452  1.00  0.00     0.000 HD 
HETATM   14  C   UNL     1     -11.242  16.376  68.480  1.00  0.00    -0.334 C  
HETATM   15  C   UNL     1     -11.856  11.956  70.270  1.00  0.00    -0.368 C  
HETATM   16  O   UNL     1     -11.318   9.657  69.867  1.00  0.00    -0.230 OA 
HETATM   17  O   UNL     1     -11.171  16.483  69.908  1.00  0.00    -0.378 OA 
HETATM   18  C   UNL     1     -10.527  14.876  67.980  1.00  0.00    -0.246 C  
HETATM   19  H   UNL     1     -11.418  15.641  70.271  1.00  0.00     0.000 HD 
HETATM   20  C   UNL     1      -8.906  14.983  68.005  1.00  0.00    -0.165 C  
HETATM   21  F   UNL     1     -10.768  14.646  66.603  1.00  0.00    -0.286 F  
HETATM   22  C   UNL     1      -8.261  13.626  67.683  1.00  0.00    -0.178 C  
HETATM   23  C   UNL     1      -8.922  12.491  68.438  1.00  0.00    -0.130 C  
HETATM   24  F   UNL     1      -8.242  11.351  68.168  1.00  0.00    -0.117 F  
HETATM   25  C   UNL     1     -10.382  12.347  68.042  1.00  0.00    -0.220 C  
HETATM   26  C   UNL     1     -10.942  11.122  68.021  1.00  0.00    -0.307 C  
HETATM   27  C   UNL     1     -11.348  10.805  69.439  1.00  0.00    -0.285 C  
ENDROOT
BRANCH   4  28
HETATM   28  C   UNL     1      -8.859  19.105  68.920  1.00  0.00    -0.282 C  
HETATM   29  O   UNL     1      -9.781  19.936  68.952  1.00  0.00    -0.335 OA 
BRANCH  28  30
HETATM   30  C   UNL     1      -7.571  19.526  69.637  1.00  0.00     0.103 C  
HETATM   31  O   UNL     1      -6.700  20.158  68.698  1.00  0.00    -0.304 OA 
HETATM   32  H   UNL     1      -5.902  20.419  69.142  1.00  0.00     0.000 HD 
ENDBRANCH  28  30
ENDBRANCH   4  28
TORSDOF 2
ENDMDL
MODEL       53
REMARK 921   NORMALIZED FREE ENERGY PREDICTED BY IDOCK:   -4.80 KCAL/MOL
REMARK 922        TOTAL FREE ENERGY PREDICTED BY IDOCK:   -4.66 KCAL/MOL
REMARK 923 INTER-LIGAND FREE ENERGY PREDICTED BY IDOCK:   -5.56 KCAL/MOL
REMARK 924 INTRA-LIGAND FREE ENERGY PREDICTED BY IDOCK:    0.90 KCAL/MOL
REMARK 927      BINDING AFFINITY PREDICTED BY RF-SCORE:    0.00 PKD
ROOT
HETATM    1  C   UNL     1      -8.076   7.003  69.349  1.00  0.00    -0.130 C  
HETATM    2  C   UNL     1      -6.805   7.598  69.503  1.00  0.00    -0.044 C  
HETATM    3  C   UNL     1      -7.878   8.403  70.207  1.00  0.00    -0.096 C  
HETATM    4  C   UNL     1      -9.727   7.502  70.362  1.00  0.00    -0.179 C  
HETATM    5  C   UNL     1      -6.864   9.304  71.209  1.00  0.00    -0.037 C  
HETATM    6  O   UNL     1      -9.956   6.100  69.935  1.00  0.00    -0.163 OA 
HETATM    7  C   UNL     1      -8.433  11.663  67.038  1.00  0.00    -0.168 C  
HETATM    8  C   UNL     1      -8.613   7.608  71.116  1.00  0.00    -0.132 C  
HETATM    9  C   UNL     1      -9.574   9.305  71.092  1.00  0.00    -0.305 C  
HETATM   10  C   UNL     1      -8.122   6.694  72.245  1.00  0.00    -0.100 C  
HETATM   11  C   UNL     1      -9.170  10.295  66.712  1.00  0.00    -0.180 C  
HETATM   12  C   UNL     1     -10.490  10.751  66.111  1.00  0.00    -0.278 C  
HETATM   13  H   UNL     1     -10.807   5.685  70.006  1.00  0.00     0.000 HD 
HETATM   14  C   UNL     1      -9.894   9.922  69.418  1.00  0.00    -0.217 C  
HETATM   15  C   UNL     1     -10.606  10.946  64.775  1.00  0.00    -0.316 C  
HETATM   16  O   UNL     1      -9.615  10.702  62.607  1.00  0.00    -0.292 OA 
HETATM   17  O   UNL     1     -11.295   9.759  69.157  1.00  0.00    -0.430 OA 
HETATM   18  C   UNL     1      -8.988   9.416  68.027  1.00  0.00    -0.127 C  
HETATM   19  H   UNL     1     -11.463  10.083  68.280  1.00  0.00     0.000 HD 
HETATM   20  C   UNL     1      -8.905   7.794  67.963  1.00  0.00    -0.124 C  
HETATM   21  F   UNL     1      -7.622   9.758  68.173  1.00  0.00    -0.080 F  
HETATM   22  C   UNL     1      -8.212   7.330  66.673  1.00  0.00    -0.118 C  
HETATM   23  C   UNL     1      -8.721   8.076  65.457  1.00  0.00    -0.102 C  
HETATM   24  F   UNL     1      -8.129   7.549  64.358  1.00  0.00    -0.132 F  
HETATM   25  C   UNL     1      -8.424   9.562  65.561  1.00  0.00    -0.150 C  
HETATM   26  C   UNL     1      -8.155  10.261  64.442  1.00  0.00    -0.149 C  
HETATM   27  C   UNL     1      -9.482  10.622  63.823  1.00  0.00    -0.290 C  
ENDROOT
BRANCH   4  28
HETATM   28  C   UNL     1     -10.783   7.217  71.701  1.00  0.00    -0.212 C  
HETATM   29  O   UNL     1     -11.025   8.003  72.630  1.00  0.00    -0.334 OA 
BRANCH  28  30
HETATM   30  C   UNL     1     -11.559   5.895  71.740  1.00  0.00    -0.155 C  
HETATM   31  O   UNL     1     -12.321   5.838  72.947  1.00  0.00    -0.519 OA 
HETATM   32  H   UNL     1     -12.803   5.019  72.971  1.00  0.00     0.000 HD 
ENDBRANCH  28  30
ENDBRANCH   4  28
TORSDOF 2
ENDMDL
MODEL       54
REMARK 921   NORMALIZED FREE ENERGY PREDICTED BY IDOCK:   -4.77 KCAL/MOL
REMARK 922        TOTAL FREE ENERGY PREDICTED BY IDOCK:   -4.62 KCAL/MOL
REMARK 923 INTER-LIGAND FREE ENERGY PREDICTED BY IDOCK:   -5.36 KCAL/MOL
REMARK 924 INTRA-LIGAND FREE ENERGY PREDICTED BY IDOCK:    0.74 KCAL/MOL
REMARK 927      BINDING AFFINITY PREDICTED BY RF-SCORE:    0.00 PKD
ROOT
HETATM    1  C   UNL     1      -9.690  18.157  66.644  1.00  0.00    -0.334 C  
HETATM    2  C   UNL     1     -10.626  18.042  67.694  1.00  0.00    -0.413 C  
HETATM    3  C   UNL     1      -9.283  18.523  68.205  1.00  0.00    -0.329 C  
HETATM    4  C   UNL     1      -7.910  19.062  66.763  1.00  0.00    -0.251 C  
HETATM    5  C   UNL     1      -9.810  19.132  69.686  1.00  0.00     0.159 C  
HETATM    6  O   UNL     1      -8.260  19.106  65.322  1.00  0.00     0.119 OA 
HETATM    7  C   UNL     1      -7.742  14.537  69.850  1.00  0.00     0.322 C  
HETATM    8  C   UNL     1      -8.847  19.677  67.513  1.00  0.00    -0.371 C  
HETATM    9  C   UNL     1      -7.317  19.184  68.618  1.00  0.00    -0.365 C  
HETATM   10  C   UNL     1      -9.573  21.002  67.254  1.00  0.00    -0.249 C  
HETATM   11  C   UNL     1      -7.604  14.697  68.276  1.00  0.00    -0.118 C  
HETATM   12  C   UNL     1      -6.253  14.064  67.984  1.00  0.00    -0.145 C  
HETATM   13  H   UNL     1      -7.627  19.355  64.658  1.00  0.00     0.000 HD 
HETATM   14  C   UNL     1      -6.899  17.423  68.514  1.00  0.00    -0.203 C  
HETATM   15  C   UNL     1      -6.161  12.743  67.696  1.00  0.00    -0.152 C  
HETATM   16  O   UNL     1      -7.311  10.703  67.189  1.00  0.00    -0.092 OA 
HETATM   17  O   UNL     1      -5.685  17.311  67.758  1.00  0.00    -0.115 OA 
HETATM   18  C   UNL     1      -8.019  16.207  67.987  1.00  0.00    -0.145 C  
HETATM   19  H   UNL     1      -5.466  16.388  67.704  1.00  0.00     0.000 HD 
HETATM   20  C   UNL     1      -8.717  16.646  66.587  1.00  0.00    -0.280 C  
HETATM   21  F   UNL     1      -9.140  16.157  68.852  1.00  0.00    -0.197 F  
HETATM   22  C   UNL     1      -9.618  15.525  66.047  1.00  0.00    -0.380 C  
HETATM   23  C   UNL     1      -8.945  14.170  66.125  1.00  0.00     0.183 C  
HETATM   24  F   UNL     1      -9.765  13.256  65.552  1.00  0.00    -0.256 F  
HETATM   25  C   UNL     1      -8.647  13.789  67.565  1.00  0.00    -0.194 C  
HETATM   26  C   UNL     1      -8.704  12.494  67.930  1.00  0.00    -0.180 C  
HETATM   27  C   UNL     1      -7.384  11.874  67.547  1.00  0.00    -0.132 C  
ENDROOT
BRANCH   4  28
HETATM   28  C   UNL     1      -6.956  20.483  66.526  1.00  0.00    -0.251 C  
HETATM   29  O   UNL     1      -6.723  21.364  67.370  1.00  0.00    -0.563 OA 
BRANCH  28  30
HETATM   30  C   UNL     1      -6.264  20.673  65.172  1.00  0.00    -0.269 C  
HETATM   31  O   UNL     1      -5.404  19.560  64.927  1.00  0.00    -0.156 OA 
HETATM   32  H   UNL     1      -4.976  19.677  64.087  1.00  0.00     0.000 HD 
ENDBRANCH  28  30
ENDBRANCH   4  28
TORSDOF 2
ENDMDL
MODEL       55
REMARK 921   NORMALIZED FREE ENERGY PREDICTED BY IDOCK:   -4.74 KCAL/MOL
REMARK 922        TOTAL FREE ENERGY PREDICTED BY IDOCK:   -4.59 KCAL/MOL
REMARK 923 INTER-LIGAND FREE ENERGY PREDICTED BY IDOCK:   -5.25 KCAL/MOL
REMARK 924 INTRA-LIGAND FREE ENERGY PREDICTED BY IDOCK:    0.66 KCAL/MOL
REMARK 927      BINDING AFFINITY PREDICTED BY RF-SCORE:    0.00 PKD
ROOT
HETATM    1  C   UNL     1      -8.637   7.483  71.865  1.00  0.00    -0.122 C  
HETATM    2  C   UNL     1      -9.175   8.780  72.016  1.00  0.00    -0.294 C  
HETATM    3  C   UNL     1     -10.246   7.783  71.621  1.00  0.00    -0.225 C  
HETATM    4  C   UNL     1      -9.697   5.795  71.685  1.00  0.00    -0.161 C  
HETATM    5  C   UNL     1     -11.585   8.701  72.073  1.00  0.00    -0.440 C  
HETATM    6  O   UNL     1      -8.382   5.360  72.216  1.00  0.00    -0.120 OA 
HETATM    7  C   UNL     1     -10.460   8.788  67.159  1.00  0.00    -0.354 C  
HETATM    8  C   UNL     1     -10.287   6.684  72.510  1.00  0.00    -0.218 C  
HETATM    9  C   UNL     1     -11.512   6.178  71.080  1.00  0.00    -0.316 C  
HETATM   10  C   UNL     1     -10.391   6.660  74.040  1.00  0.00    -0.377 C  
HETATM   11  C   UNL     1      -9.240   7.858  67.565  1.00  0.00    -0.152 C  
HETATM   12  C   UNL     1      -9.164   6.868  66.415  1.00  0.00    -0.186 C  
HETATM   13  H   UNL     1      -8.130   4.445  72.245  1.00  0.00     0.000 HD 
HETATM   14  C   UNL     1     -10.819   6.429  69.424  1.00  0.00    -0.321 C  
HETATM   15  C   UNL     1      -8.394   7.130  65.331  1.00  0.00    -0.122 C  
HETATM   16  O   UNL     1      -6.733   8.536  64.330  1.00  0.00    -0.070 OA 
HETATM   17  O   UNL     1     -10.524   5.135  68.877  1.00  0.00    -0.165 OA 
HETATM   18  C   UNL     1      -9.497   7.504  69.097  1.00  0.00    -0.150 C  
HETATM   19  H   UNL     1     -10.161   5.267  68.010  1.00  0.00     0.000 HD 
HETATM   20  C   UNL     1      -8.269   7.224  70.124  1.00  0.00    -0.134 C  
HETATM   21  F   UNL     1      -9.844   8.835  69.437  1.00  0.00    -0.173 F  
HETATM   22  C   UNL     1      -7.047   8.085  69.768  1.00  0.00    -0.060 C  
HETATM   23  C   UNL     1      -6.761   8.074  68.280  1.00  0.00    -0.067 C  
HETATM   24  F   UNL     1      -5.625   8.779  68.063  1.00  0.00    -0.034 F  
HETATM   25  C   UNL     1      -7.917   8.672  67.496  1.00  0.00    -0.106 C  
HETATM   26  C   UNL     1      -7.663   9.361  66.367  1.00  0.00    -0.097 C  
HETATM   27  C   UNL     1      -7.505   8.346  65.263  1.00  0.00    -0.086 C  
ENDROOT
BRANCH   4  28
HETATM   28  C   UNL     1     -10.405   4.408  72.435  1.00  0.00    -0.173 C  
HETATM   29  O   UNL     1     -11.263   4.411  73.332  1.00  0.00    -0.282 OA 
BRANCH  28  30
HETATM   30  C   UNL     1     -10.001   3.022  71.919  1.00  0.00    -0.140 C  
HETATM   31  O   UNL     1      -9.191   3.176  70.753  1.00  0.00    -0.108 OA 
HETATM   32  H   UNL     1      -8.940   2.317  70.434  1.00  0.00     0.000 HD 
ENDBRANCH  28  30
ENDBRANCH   4  28
TORSDOF 2
ENDMDL
MODEL       56
REMARK 921   NORMALIZED FREE ENERGY PREDICTED BY IDOCK:   -4.74 KCAL/MOL
REMARK 922        TOTAL FREE ENERGY PREDICTED BY IDOCK:   -4.58 KCAL/MOL
REMARK 923 INTER-LIGAND FREE ENERGY PREDICTED BY IDOCK:   -6.26 KCAL/MOL
REMARK 924 INTRA-LIGAND FREE ENERGY PREDICTED BY IDOCK:    1.67 KCAL/MOL
REMARK 927      BINDING AFFINITY PREDICTED BY RF-SCORE:    0.00 PKD
ROOT
HETATM    1  C   UNL     1     -10.697   8.467  69.399  1.00  0.00    -0.162 C  
HETATM    2  C   UNL     1     -10.534   7.690  68.232  1.00  0.00    -0.219 C  
HETATM    3  C   UNL     1      -9.208   7.919  68.930  1.00  0.00    -0.144 C  
HETATM    4  C   UNL     1      -9.313   8.746  70.817  1.00  0.00    -0.208 C  
HETATM    5  C   UNL     1      -8.341   6.685  68.178  1.00  0.00    -0.117 C  
HETATM    6  O   UNL     1     -10.609   8.975  71.503  1.00  0.00    -0.291 OA 
HETATM    7  C   UNL     1      -7.642  11.297  66.264  1.00  0.00    -0.032 C  
HETATM    8  C   UNL     1      -9.255   7.509  70.283  1.00  0.00    -0.157 C  
HETATM    9  C   UNL     1      -7.526   8.395  70.119  1.00  0.00    -0.063 C  
HETATM   10  C   UNL     1      -9.698   6.173  70.891  1.00  0.00    -0.203 C  
HETATM   11  C   UNL     1      -8.702  11.756  67.352  1.00  0.00    -0.162 C  
HETATM   12  C   UNL     1      -8.156  13.094  67.823  1.00  0.00    -0.165 C  
HETATM   13  H   UNL     1     -10.657   9.355  72.373  1.00  0.00     0.000 HD 
HETATM   14  C   UNL     1      -7.623  10.005  69.290  1.00  0.00    -0.109 C  
HETATM   15  C   UNL     1      -8.528  14.243  67.209  1.00  0.00    -0.226 C  
HETATM   16  O   UNL     1      -9.982  15.307  65.629  1.00  0.00    -0.325 OA 
HETATM   17  O   UNL     1      -7.426  11.017  70.286  1.00  0.00    -0.373 OA 
HETATM   18  C   UNL     1      -8.937  10.465  68.255  1.00  0.00    -0.135 C  
HETATM   19  H   UNL     1      -7.476  11.860  69.852  1.00  0.00     0.000 HD 
HETATM   20  C   UNL     1     -10.361  10.184  68.986  1.00  0.00    -0.230 C  
HETATM   21  F   UNL     1      -9.021   9.594  67.141  1.00  0.00    -0.131 F  
HETATM   22  C   UNL     1     -11.529  10.700  68.131  1.00  0.00    -0.303 C  
HETATM   23  C   UNL     1     -11.260  12.086  67.583  1.00  0.00    -0.282 C  
HETATM   24  F   UNL     1     -12.366  12.501  66.919  1.00  0.00    -0.354 F  
HETATM   25  C   UNL     1     -10.054  12.085  66.658  1.00  0.00    -0.220 C  
HETATM   26  C   UNL     1     -10.031  12.921  65.603  1.00  0.00    -0.245 C  
HETATM   27  C   UNL     1      -9.569  14.261  66.118  1.00  0.00    -0.275 C  
ENDROOT
BRANCH   4  28
HETATM   28  C   UNL     1      -8.643   8.279  72.340  1.00  0.00    -0.206 C  
HETATM   29  O   UNL     1      -7.788   8.901  72.991  1.00  0.00    -0.378 OA 
BRANCH  28  30
HETATM   30  C   UNL     1      -9.181   7.010  73.009  1.00  0.00    -0.137 C  
HETATM   31  O   UNL     1     -10.112   7.378  74.027  1.00  0.00    -0.402 OA 
HETATM   32  H   UNL     1     -10.446   6.591  74.442  1.00  0.00     0.000 HD 
ENDBRANCH  28  30
ENDBRANCH   4  28
TORSDOF 2
ENDMDL
MODEL       57
REMARK 921   NORMALIZED FREE ENERGY PREDICTED BY IDOCK:   -4.70 KCAL/MOL
REMARK 922        TOTAL FREE ENERGY PREDICTED BY IDOCK:   -4.54 KCAL/MOL
REMARK 923 INTER-LIGAND FREE ENERGY PREDICTED BY IDOCK:   -5.25 KCAL/MOL
REMARK 924 INTRA-LIGAND FREE ENERGY PREDICTED BY IDOCK:    0.71 KCAL/MOL
REMARK 927      BINDING AFFINITY PREDICTED BY RF-SCORE:    0.00 PKD
ROOT
HETATM    1  C   UNL     1     -10.869   7.275  70.093  1.00  0.00    -0.274 C  
HETATM    2  C   UNL     1     -10.765   6.909  71.453  1.00  0.00    -0.247 C  
HETATM    3  C   UNL     1      -9.733   7.956  71.085  1.00  0.00    -0.182 C  
HETATM    4  C   UNL     1      -9.964   8.839  69.235  1.00  0.00    -0.194 C  
HETATM    5  C   UNL     1      -9.359   8.463  72.648  1.00  0.00    -0.334 C  
HETATM    6  O   UNL     1     -11.142   8.567  68.376  1.00  0.00    -0.431 OA 
HETATM    7  C   UNL     1      -6.125   5.177  70.607  1.00  0.00    -0.022 C  
HETATM    8  C   UNL     1     -10.334   9.097  70.506  1.00  0.00    -0.288 C  
HETATM    9  C   UNL     1      -8.422   9.410  70.285  1.00  0.00    -0.237 C  
HETATM   10  C   UNL     1     -11.489   9.967  71.016  1.00  0.00    -0.463 C  
HETATM   11  C   UNL     1      -7.110   5.195  69.363  1.00  0.00    -0.056 C  
HETATM   12  C   UNL     1      -6.165   5.144  68.174  1.00  0.00    -0.034 C  
HETATM   13  H   UNL     1     -11.248   8.974  67.524  1.00  0.00     0.000 HD 
HETATM   14  C   UNL     1      -7.537   7.978  69.613  1.00  0.00    -0.096 C  
HETATM   15  C   UNL     1      -5.783   3.955  67.650  1.00  0.00    -0.022 C  
HETATM   16  O   UNL     1      -6.087   1.578  67.606  1.00  0.00    -0.019 OA 
HETATM   17  O   UNL     1      -7.181   8.287  68.258  1.00  0.00    -0.089 OA 
HETATM   18  C   UNL     1      -8.150   6.356  69.690  1.00  0.00    -0.124 C  
HETATM   19  H   UNL     1      -6.717   7.537  67.906  1.00  0.00     0.000 HD 
HETATM   20  C   UNL     1      -9.683   6.303  69.154  1.00  0.00    -0.154 C  
HETATM   21  F   UNL     1      -8.313   5.951  71.037  1.00  0.00    -0.115 F  
HETATM   22  C   UNL     1     -10.197   4.856  69.102  1.00  0.00    -0.186 C  
HETATM   23  C   UNL     1      -9.183   3.917  68.483  1.00  0.00    -0.155 C  
HETATM   24  F   UNL     1      -9.744   2.686  68.394  1.00  0.00    -0.255 F  
HETATM   25  C   UNL     1      -7.910   3.862  69.311  1.00  0.00    -0.052 C  
HETATM   26  C   UNL     1      -7.215   2.711  69.379  1.00  0.00    -0.044 C  
HETATM   27  C   UNL     1      -6.353   2.648  68.143  1.00  0.00    -0.029 C  
ENDROOT
BRANCH   4  28
HETATM   28  C   UNL     1     -10.032  10.489  68.724  1.00  0.00    -0.192 C  
HETATM   29  O   UNL     1      -9.379  11.435  69.195  1.00  0.00    -0.022 OA 
BRANCH  28  30
HETATM   30  C   UNL     1     -10.931  10.841  67.534  1.00  0.00    -0.312 C  
HETATM   31  O   UNL     1     -12.207  11.257  68.020  1.00  0.00    -0.621 OA 
HETATM   32  H   UNL     1     -12.764  11.476  67.282  1.00  0.00     0.000 HD 
ENDBRANCH  28  30
ENDBRANCH   4  28
TORSDOF 2
ENDMDL
MODEL       58
REMARK 921   NORMALIZED FREE ENERGY PREDICTED BY IDOCK:   -4.60 KCAL/MOL
REMARK 922        TOTAL FREE ENERGY PREDICTED BY IDOCK:   -4.43 KCAL/MOL
REMARK 923 INTER-LIGAND FREE ENERGY PREDICTED BY IDOCK:   -5.28 KCAL/MOL
REMARK 924 INTRA-LIGAND FREE ENERGY PREDICTED BY IDOCK:    0.85 KCAL/MOL
REMARK 927      BINDING AFFINITY PREDICTED BY RF-SCORE:    0.00 PKD
ROOT
HETATM    1  C   UNL     1      -9.912   9.310  67.696  1.00  0.00    -0.245 C  
HETATM    2  C   UNL     1     -10.773   9.433  66.584  1.00  0.00    -0.076 C  
HETATM    3  C   UNL     1      -9.370   9.897  66.248  1.00  0.00    -0.224 C  
HETATM    4  C   UNL     1      -7.919   9.475  67.652  1.00  0.00    -0.106 C  
HETATM    5  C   UNL     1      -9.507   9.835  64.569  1.00  0.00    -0.269 C  
HETATM    6  O   UNL     1      -8.203   8.648  68.851  1.00  0.00    -0.119 OA 
HETATM    7  C   UNL     1     -10.069  14.408  66.617  1.00  0.00    -0.276 C  
HETATM    8  C   UNL     1      -8.409   8.900  66.535  1.00  0.00    -0.115 C  
HETATM    9  C   UNL     1      -7.340  10.465  66.074  1.00  0.00    -0.134 C  
HETATM   10  C   UNL     1      -8.359   7.429  66.104  1.00  0.00    -0.139 C  
HETATM   11  C   UNL     1      -9.874  13.657  68.002  1.00  0.00    -0.244 C  
HETATM   12  C   UNL     1      -9.035  14.635  68.809  1.00  0.00    -0.173 C  
HETATM   13  H   UNL     1      -7.534   8.453  69.497  1.00  0.00     0.000 HD 
HETATM   14  C   UNL     1      -7.877  11.973  66.923  1.00  0.00    -0.095 C  
HETATM   15  C   UNL     1      -9.630  15.573  69.585  1.00  0.00    -0.264 C  
HETATM   16  O   UNL     1     -11.660  16.404  70.547  1.00  0.00    -0.281 OA 
HETATM   17  O   UNL     1      -6.893  12.282  67.920  1.00  0.00    -0.075 OA 
HETATM   18  C   UNL     1      -9.463  12.172  67.601  1.00  0.00    -0.187 C  
HETATM   19  H   UNL     1      -7.174  13.072  68.365  1.00  0.00     0.000 HD 
HETATM   20  C   UNL     1      -9.845  10.899  68.535  1.00  0.00    -0.188 C  
HETATM   21  F   UNL     1     -10.450  12.078  66.589  1.00  0.00    -0.224 F  
HETATM   22  C   UNL     1     -11.193  11.119  69.238  1.00  0.00    -0.331 C  
HETATM   23  C   UNL     1     -11.304  12.508  69.830  1.00  0.00    -0.040 C  
HETATM   24  F   UNL     1     -12.478  12.590  70.503  1.00  0.00    -0.377 F  
HETATM   25  C   UNL     1     -11.237  13.572  68.746  1.00  0.00    -0.311 C  
HETATM   26  C   UNL     1     -11.944  14.708  68.892  1.00  0.00    -0.309 C  
HETATM   27  C   UNL     1     -11.126  15.622  69.769  1.00  0.00    -0.313 C  
ENDROOT
BRANCH   4  28
HETATM   28  C   UNL     1      -6.375   8.706  67.546  1.00  0.00    -0.057 C  
HETATM   29  O   UNL     1      -5.818   8.307  66.510  1.00  0.00    -0.042 OA 
BRANCH  28  30
HETATM   30  C   UNL     1      -5.558   8.543  68.833  1.00  0.00    -0.040 C  
HETATM   31  O   UNL     1      -5.794   7.242  69.374  1.00  0.00    -0.025 OA 
HETATM   32  H   UNL     1      -5.288   7.141  70.172  1.00  0.00     0.000 HD 
ENDBRANCH  28  30
ENDBRANCH   4  28
TORSDOF 2
ENDMDL
MODEL       59
REMARK 921   NORMALIZED FREE ENERGY PREDICTED BY IDOCK:   -4.58 KCAL/MOL
REMARK 922        TOTAL FREE ENERGY PREDICTED BY IDOCK:   -4.41 KCAL/MOL
REMARK 923 INTER-LIGAND FREE ENERGY PREDICTED BY IDOCK:   -5.21 KCAL/MOL
REMARK 924 INTRA-LIGAND FREE ENERGY PREDICTED BY IDOCK:    0.80 KCAL/MOL
REMARK 927      BINDING AFFINITY PREDICTED BY RF-SCORE:    0.00 PKD
ROOT
HETATM    1  C   UNL     1      -8.010  10.649  69.143  1.00  0.00    -0.139 C  
HETATM    2  C   UNL     1      -6.615  10.487  69.003  1.00  0.00    -0.060 C  
HETATM    3  C   UNL     1      -7.276  10.745  67.664  1.00  0.00    -0.092 C  
HETATM    4  C   UNL     1      -9.252  11.332  67.731  1.00  0.00    -0.156 C  
HETATM    5  C   UNL     1      -5.892  11.191  66.811  1.00  0.00    -0.111 C  
HETATM    6  O   UNL     1      -9.943  11.618  69.013  1.00  0.00    -0.389 OA 
HETATM    7  C   UNL     1      -7.396   6.424  66.150  1.00  0.00    -0.080 C  
HETATM    8  C   UNL     1      -8.045  11.931  67.684  1.00  0.00    -0.148 C  
HETATM    9  C   UNL     1      -8.466  11.127  65.958  1.00  0.00    -0.138 C  
HETATM   10  C   UNL     1      -7.654  13.350  68.115  1.00  0.00    -0.138 C  
HETATM   11  C   UNL     1      -8.540   6.790  67.189  1.00  0.00    -0.120 C  
HETATM   12  C   UNL     1      -9.754   6.064  66.633  1.00  0.00    -0.189 C  
HETATM   13  H   UNL     1     -10.854  11.888  69.044  1.00  0.00     0.000 HD 
HETATM   14  C   UNL     1      -8.872   9.364  66.071  1.00  0.00    -0.156 C  
HETATM   15  C   UNL     1     -10.033   4.795  67.017  1.00  0.00    -0.235 C  
HETATM   16  O   UNL     1      -9.536   2.982  68.503  1.00  0.00    -0.188 OA 
HETATM   17  O   UNL     1     -10.284   9.231  65.854  1.00  0.00    -0.330 OA 
HETATM   18  C   UNL     1      -8.400   8.361  67.406  1.00  0.00    -0.124 C  
HETATM   19  H   UNL     1     -10.497   8.308  65.913  1.00  0.00     0.000 HD 
HETATM   20  C   UNL     1      -8.798   9.066  68.815  1.00  0.00    -0.137 C  
HETATM   21  F   UNL     1      -6.988   8.309  67.512  1.00  0.00    -0.068 F  
HETATM   22  C   UNL     1      -8.496   8.135  70.000  1.00  0.00    -0.128 C  
HETATM   23  C   UNL     1      -8.968   6.719  69.741  1.00  0.00    -0.144 C  
HETATM   24  F   UNL     1      -8.746   5.988  70.861  1.00  0.00    -0.128 F  
HETATM   25  C   UNL     1      -8.242   6.108  68.554  1.00  0.00    -0.111 C  
HETATM   26  C   UNL     1      -7.976   4.788  68.552  1.00  0.00    -0.084 C  
HETATM   27  C   UNL     1      -9.227   4.091  68.080  1.00  0.00    -0.153 C  
ENDROOT
BRANCH   4  28
HETATM   28  C   UNL     1     -10.103  12.663  67.031  1.00  0.00    -0.224 C  
HETATM   29  O   UNL     1      -9.601  13.628  66.432  1.00  0.00    -0.277 OA 
BRANCH  28  30
HETATM   30  C   UNL     1     -11.636  12.649  67.081  1.00  0.00    -0.368 C  
HETATM   31  O   UNL     1     -12.077  11.353  67.485  1.00  0.00    -0.592 OA 
HETATM   32  H   UNL     1     -13.027  11.344  67.517  1.00  0.00     0.000 HD 
ENDBRANCH  28  30
ENDBRANCH   4  28
TORSDOF 2
ENDMDL
MODEL       60
REMARK 921   NORMALIZED FREE ENERGY PREDICTED BY IDOCK:   -4.55 KCAL/MOL
REMARK 922        TOTAL FREE ENERGY PREDICTED BY IDOCK:   -4.37 KCAL/MOL
REMARK 923 INTER-LIGAND FREE ENERGY PREDICTED BY IDOCK:   -5.10 KCAL/MOL
REMARK 924 INTRA-LIGAND FREE ENERGY PREDICTED BY IDOCK:    0.73 KCAL/MOL
REMARK 927      BINDING AFFINITY PREDICTED BY RF-SCORE:    0.00 PKD
ROOT
HETATM    1  C   UNL     1      -9.877   8.689  68.726  1.00  0.00    -0.180 C  
HETATM    2  C   UNL     1     -10.636   8.392  67.573  1.00  0.00    -0.285 C  
HETATM    3  C   UNL     1      -9.211   8.761  67.214  1.00  0.00    -0.165 C  
HETATM    4  C   UNL     1      -7.888   8.896  68.791  1.00  0.00    -0.101 C  
HETATM    5  C   UNL     1      -9.198   8.122  65.654  1.00  0.00    -0.040 C  
HETATM    6  O   UNL     1      -8.275   8.522  70.174  1.00  0.00    -0.112 OA 
HETATM    7  C   UNL     1      -9.957  13.098  65.945  1.00  0.00    -0.275 C  
HETATM    8  C   UNL     1      -8.275   7.957  67.905  1.00  0.00    -0.129 C  
HETATM    9  C   UNL     1      -7.175   9.303  67.021  1.00  0.00    -0.087 C  
HETATM   10  C   UNL     1      -8.182   6.430  68.014  1.00  0.00    -0.116 C  
HETATM   11  C   UNL     1      -9.883  12.875  67.515  1.00  0.00    -0.208 C  
HETATM   12  C   UNL     1      -9.123  14.098  68.000  1.00  0.00    -0.191 C  
HETATM   13  H   UNL     1      -7.665   8.585  70.900  1.00  0.00     0.000 HD 
HETATM   14  C   UNL     1      -7.792  10.992  67.251  1.00  0.00    -0.122 C  
HETATM   15  C   UNL     1      -9.787  15.225  68.354  1.00  0.00    -0.216 C  
HETATM   16  O   UNL     1     -11.899  16.266  68.799  1.00  0.00    -0.278 OA 
HETATM   17  O   UNL     1      -6.901  11.658  68.157  1.00  0.00    -0.064 OA 
HETATM   18  C   UNL     1      -9.432  11.357  67.686  1.00  0.00    -0.162 C  
HETATM   19  H   UNL     1      -7.224  12.543  68.277  1.00  0.00     0.000 HD 
HETATM   20  C   UNL     1      -9.890  10.471  68.967  1.00  0.00    -0.224 C  
HETATM   21  F   UNL     1     -10.324  10.888  66.691  1.00  0.00    -0.242 F  
HETATM   22  C   UNL     1     -11.297  10.872  69.438  1.00  0.00    -0.347 C  
HETATM   23  C   UNL     1     -11.465  12.376  69.502  1.00  0.00    -0.240 C  
HETATM   24  F   UNL     1     -12.694  12.643  70.007  1.00  0.00    -0.138 F  
HETATM   25  C   UNL     1     -11.306  13.004  68.128  1.00  0.00    -0.329 C  
HETATM   26  C   UNL     1     -12.028  14.096  67.814  1.00  0.00    -0.389 C  
HETATM   27  C   UNL     1     -11.294  15.283  68.385  1.00  0.00    -0.329 C  
ENDROOT
BRANCH   4  28
HETATM   28  C   UNL     1      -6.338   8.191  69.084  1.00  0.00    -0.039 C  
HETATM   29  O   UNL     1      -5.538   7.784  68.226  1.00  0.00    -0.030 OA 
BRANCH  28  30
HETATM   30  C   UNL     1      -5.845   8.104  70.533  1.00  0.00    -0.029 C  
HETATM   31  O   UNL     1      -5.939   6.749  70.977  1.00  0.00    -0.031 OA 
HETATM   32  H   UNL     1      -5.633   6.695  71.875  1.00  0.00     0.000 HD 
ENDBRANCH  28  30
ENDBRANCH   4  28
TORSDOF 2
ENDMDL
MODEL       61
REMARK 921   NORMALIZED FREE ENERGY PREDICTED BY IDOCK:   -4.55 KCAL/MOL
REMARK 922        TOTAL FREE ENERGY PREDICTED BY IDOCK:   -4.37 KCAL/MOL
REMARK 923 INTER-LIGAND FREE ENERGY PREDICTED BY IDOCK:   -5.08 KCAL/MOL
REMARK 924 INTRA-LIGAND FREE ENERGY PREDICTED BY IDOCK:    0.71 KCAL/MOL
REMARK 927      BINDING AFFINITY PREDICTED BY RF-SCORE:    0.00 PKD
ROOT
HETATM    1  C   UNL     1      -7.116   9.462  68.682  1.00  0.00    -0.070 C  
HETATM    2  C   UNL     1      -6.243   8.392  68.393  1.00  0.00    -0.054 C  
HETATM    3  C   UNL     1      -7.490   8.331  67.535  1.00  0.00    -0.094 C  
HETATM    4  C   UNL     1      -8.708   9.995  67.594  1.00  0.00    -0.121 C  
HETATM    5  C   UNL     1      -6.900   7.285  66.352  1.00  0.00    -0.061 C  
HETATM    6  O   UNL     1      -8.319  11.228  68.322  1.00  0.00    -0.135 OA 
HETATM    7  C   UNL     1      -9.761   5.140  69.907  1.00  0.00    -0.269 C  
HETATM    8  C   UNL     1      -7.695   9.540  66.829  1.00  0.00    -0.098 C  
HETATM    9  C   UNL     1      -9.315   8.511  66.482  1.00  0.00    -0.260 C  
HETATM   10  C   UNL     1      -6.737  10.327  65.927  1.00  0.00    -0.117 C  
HETATM   11  C   UNL     1      -9.829   6.597  70.532  1.00  0.00    -0.190 C  
HETATM   12  C   UNL     1     -11.263   6.693  71.026  1.00  0.00    -0.349 C  
HETATM   13  H   UNL     1      -8.881  11.994  68.350  1.00  0.00     0.000 HD 
HETATM   14  C   UNL     1     -10.040   7.793  67.980  1.00  0.00    -0.186 C  
HETATM   15  C   UNL     1     -11.584   6.312  72.286  1.00  0.00    -0.355 C  
HETATM   16  O   UNL     1     -10.805   5.634  74.448  1.00  0.00    -0.163 OA 
HETATM   17  O   UNL     1     -11.235   8.528  68.279  1.00  0.00    -0.328 OA 
HETATM   18  C   UNL     1      -9.143   7.535  69.444  1.00  0.00    -0.142 C  
HETATM   19  H   UNL     1     -11.614   8.152  69.064  1.00  0.00     0.000 HD 
HETATM   20  C   UNL     1      -8.343   8.885  69.864  1.00  0.00    -0.128 C  
HETATM   21  F   UNL     1      -8.071   6.637  69.217  1.00  0.00    -0.108 F  
HETATM   22  C   UNL     1      -7.644   8.710  71.221  1.00  0.00    -0.129 C  
HETATM   23  C   UNL     1      -8.551   8.059  72.245  1.00  0.00    -0.157 C  
HETATM   24  F   UNL     1      -7.893   8.022  73.429  1.00  0.00    -0.153 F  
HETATM   25  C   UNL     1      -8.948   6.658  71.813  1.00  0.00    -0.140 C  
HETATM   26  C   UNL     1      -9.133   5.706  72.747  1.00  0.00    -0.130 C  
HETATM   27  C   UNL     1     -10.533   5.884  73.279  1.00  0.00    -0.235 C  
ENDROOT
BRANCH   4  28
HETATM   28  C   UNL     1      -9.386  10.996  66.359  1.00  0.00    -0.183 C  
HETATM   29  O   UNL     1      -9.931  10.609  65.312  1.00  0.00    -0.255 OA 
BRANCH  28  30
HETATM   30  C   UNL     1      -9.385  12.513  66.576  1.00  0.00    -0.233 C  
HETATM   31  O   UNL     1     -10.640  12.906  67.132  1.00  0.00    -0.236 OA 
HETATM   32  H   UNL     1     -10.640  13.846  67.267  1.00  0.00     0.000 HD 
ENDBRANCH  28  30
ENDBRANCH   4  28
TORSDOF 2
ENDMDL
MODEL       62
REMARK 921   NORMALIZED FREE ENERGY PREDICTED BY IDOCK:   -4.50 KCAL/MOL
REMARK 922        TOTAL FREE ENERGY PREDICTED BY IDOCK:   -4.31 KCAL/MOL
REMARK 923 INTER-LIGAND FREE ENERGY PREDICTED BY IDOCK:   -5.01 KCAL/MOL
REMARK 924 INTRA-LIGAND FREE ENERGY PREDICTED BY IDOCK:    0.69 KCAL/MOL
REMARK 927      BINDING AFFINITY PREDICTED BY RF-SCORE:    0.00 PKD
ROOT
HETATM    1  C   UNL     1     -10.422   6.912  71.687  1.00  0.00    -0.224 C  
HETATM    2  C   UNL     1     -11.503   6.016  71.837  1.00  0.00    -0.328 C  
HETATM    3  C   UNL     1     -10.192   5.367  72.231  1.00  0.00    -0.244 C  
HETATM    4  C   UNL     1      -8.570   6.632  72.388  1.00  0.00    -0.124 C  
HETATM    5  C   UNL     1     -10.833   4.079  73.110  1.00  0.00    -0.274 C  
HETATM    6  O   UNL     1      -8.706   8.104  72.259  1.00  0.00    -0.146 OA 
HETATM    7  C   UNL     1      -9.453   2.998  68.382  1.00  0.00    -0.211 C  
HETATM    8  C   UNL     1      -9.511   6.125  73.211  1.00  0.00    -0.143 C  
HETATM    9  C   UNL     1      -8.232   4.739  72.716  1.00  0.00    -0.101 C  
HETATM   10  C   UNL     1     -10.006   6.664  74.559  1.00  0.00    -0.316 C  
HETATM   11  C   UNL     1      -9.075   4.537  68.291  1.00  0.00    -0.158 C  
HETATM   12  C   UNL     1      -7.795   4.529  67.470  1.00  0.00    -0.089 C  
HETATM   13  H   UNL     1      -7.959   8.686  72.332  1.00  0.00     0.000 HD 
HETATM   14  C   UNL     1      -8.046   4.546  70.923  1.00  0.00    -0.077 C  
HETATM   15  C   UNL     1      -7.844   4.626  66.120  1.00  0.00    -0.095 C  
HETATM   16  O   UNL     1      -9.178   5.039  64.173  1.00  0.00    -0.019 OA 
HETATM   17  O   UNL     1      -6.765   5.081  70.560  1.00  0.00    -0.037 OA 
HETATM   18  C   UNL     1      -9.236   5.081  69.779  1.00  0.00    -0.118 C  
HETATM   19  H   UNL     1      -6.668   4.980  69.621  1.00  0.00     0.000 HD 
HETATM   20  C   UNL     1      -9.665   6.618  70.082  1.00  0.00    -0.174 C  
HETATM   21  F   UNL     1     -10.463   4.405  69.987  1.00  0.00    -0.240 F  
HETATM   22  C   UNL     1     -10.626   7.144  69.005  1.00  0.00    -0.225 C  
HETATM   23  C   UNL     1     -10.161   6.786  67.608  1.00  0.00    -0.161 C  
HETATM   24  F   UNL     1     -11.009   7.359  66.720  1.00  0.00    -0.426 F  
HETATM   25  C   UNL     1     -10.122   5.280  67.413  1.00  0.00    -0.228 C  
HETATM   26  C   UNL     1     -10.405   4.764  66.202  1.00  0.00    -0.337 C  
HETATM   27  C   UNL     1      -9.141   4.852  65.384  1.00  0.00    -0.155 C  
ENDROOT
BRANCH   4  28
HETATM   28  C   UNL     1      -7.408   6.897  73.640  1.00  0.00    -0.080 C  
HETATM   29  O   UNL     1      -6.963   6.046  74.427  1.00  0.00    -0.086 OA 
BRANCH  28  30
HETATM   30  C   UNL     1      -6.801   8.298  73.779  1.00  0.00    -0.127 C  
HETATM   31  O   UNL     1      -5.914   8.532  72.684  1.00  0.00    -0.065 OA 
HETATM   32  H   UNL     1      -5.538   9.400  72.770  1.00  0.00     0.000 HD 
ENDBRANCH  28  30
ENDBRANCH   4  28
TORSDOF 2
ENDMDL
MODEL       63
REMARK 921   NORMALIZED FREE ENERGY PREDICTED BY IDOCK:   -4.49 KCAL/MOL
REMARK 922        TOTAL FREE ENERGY PREDICTED BY IDOCK:   -4.31 KCAL/MOL
REMARK 923 INTER-LIGAND FREE ENERGY PREDICTED BY IDOCK:   -4.95 KCAL/MOL
REMARK 924 INTRA-LIGAND FREE ENERGY PREDICTED BY IDOCK:    0.65 KCAL/MOL
REMARK 927      BINDING AFFINITY PREDICTED BY RF-SCORE:    0.00 PKD
ROOT
HETATM    1  C   UNL     1     -10.691   7.317  69.571  1.00  0.00    -0.244 C  
HETATM    2  C   UNL     1     -11.132   6.171  68.874  1.00  0.00    -0.417 C  
HETATM    3  C   UNL     1      -9.795   5.927  69.544  1.00  0.00    -0.216 C  
HETATM    4  C   UNL     1      -9.172   7.378  70.872  1.00  0.00    -0.154 C  
HETATM    5  C   UNL     1      -9.821   4.242  69.491  1.00  0.00    -0.224 C  
HETATM    6  O   UNL     1     -10.039   8.520  71.251  1.00  0.00    -0.193 OA 
HETATM    7  C   UNL     1      -7.114   6.478  65.873  1.00  0.00    -0.062 C  
HETATM    8  C   UNL     1      -9.847   6.212  70.928  1.00  0.00    -0.215 C  
HETATM    9  C   UNL     1      -7.956   5.879  70.587  1.00  0.00    -0.110 C  
HETATM   10  C   UNL     1     -10.825   5.714  71.999  1.00  0.00    -0.300 C  
HETATM   11  C   UNL     1      -7.604   7.833  66.539  1.00  0.00    -0.096 C  
HETATM   12  C   UNL     1      -6.377   8.726  66.446  1.00  0.00    -0.061 C  
HETATM   13  H   UNL     1      -9.752   9.188  71.862  1.00  0.00     0.000 HD 
HETATM   14  C   UNL     1      -7.322   6.773  69.143  1.00  0.00    -0.093 C  
HETATM   15  C   UNL     1      -6.182   9.516  65.363  1.00  0.00    -0.067 C  
HETATM   16  O   UNL     1      -7.084  10.417  63.334  1.00  0.00    -0.117 OA 
HETATM   17  O   UNL     1      -6.480   7.830  69.624  1.00  0.00    -0.031 OA 
HETATM   18  C   UNL     1      -8.340   7.381  67.877  1.00  0.00    -0.119 C  
HETATM   19  H   UNL     1      -6.148   8.298  68.868  1.00  0.00     0.000 HD 
HETATM   20  C   UNL     1      -9.574   8.234  68.500  1.00  0.00    -0.154 C  
HETATM   21  F   UNL     1      -9.030   6.319  67.242  1.00  0.00    -0.115 F  
HETATM   22  C   UNL     1     -10.414   8.880  67.387  1.00  0.00    -0.347 C  
HETATM   23  C   UNL     1      -9.547   9.531  66.330  1.00  0.00    -0.226 C  
HETATM   24  F   UNL     1     -10.359  10.150  65.438  1.00  0.00    -0.359 F  
HETATM   25  C   UNL     1      -8.672   8.505  65.630  1.00  0.00    -0.213 C  
HETATM   26  C   UNL     1      -8.373   8.671  64.327  1.00  0.00    -0.138 C  
HETATM   27  C   UNL     1      -7.210   9.629  64.265  1.00  0.00    -0.122 C  
ENDROOT
BRANCH   4  28
HETATM   28  C   UNL     1      -8.625   7.310  72.510  1.00  0.00    -0.111 C  
HETATM   29  O   UNL     1      -8.763   6.359  73.295  1.00  0.00    -0.125 OA 
BRANCH  28  30
HETATM   30  C   UNL     1      -7.833   8.503  73.058  1.00  0.00     0.003 C  
HETATM   31  O   UNL     1      -7.169   9.158  71.977  1.00  0.00    -0.326 OA 
HETATM   32  H   UNL     1      -6.678   9.898  72.317  1.00  0.00     0.000 HD 
ENDBRANCH  28  30
ENDBRANCH   4  28
TORSDOF 2
ENDMDL
MODEL       64
REMARK 921   NORMALIZED FREE ENERGY PREDICTED BY IDOCK:   -4.46 KCAL/MOL
REMARK 922        TOTAL FREE ENERGY PREDICTED BY IDOCK:   -4.27 KCAL/MOL
REMARK 923 INTER-LIGAND FREE ENERGY PREDICTED BY IDOCK:   -5.56 KCAL/MOL
REMARK 924 INTRA-LIGAND FREE ENERGY PREDICTED BY IDOCK:    1.29 KCAL/MOL
REMARK 927      BINDING AFFINITY PREDICTED BY RF-SCORE:    0.00 PKD
ROOT
HETATM    1  C   UNL     1      -8.057   6.499  69.464  1.00  0.00    -0.118 C  
HETATM    2  C   UNL     1      -8.592   6.784  70.739  1.00  0.00    -0.141 C  
HETATM    3  C   UNL     1      -9.688   6.464  69.742  1.00  0.00    -0.172 C  
HETATM    4  C   UNL     1      -9.064   5.703  67.928  1.00  0.00    -0.107 C  
HETATM    5  C   UNL     1     -10.915   6.140  70.851  1.00  0.00    -0.359 C  
HETATM    6  O   UNL     1      -7.644   5.362  67.667  1.00  0.00    -0.086 OA 
HETATM    7  C   UNL     1     -11.002  10.752  68.816  1.00  0.00    -0.295 C  
HETATM    8  C   UNL     1      -9.473   5.214  69.116  1.00  0.00    -0.188 C  
HETATM    9  C   UNL     1     -10.984   5.972  68.145  1.00  0.00    -0.340 C  
HETATM   10  C   UNL     1      -9.207   3.837  69.736  1.00  0.00    -0.213 C  
HETATM   11  C   UNL     1      -9.686  10.289  68.060  1.00  0.00    -0.167 C  
HETATM   12  C   UNL     1      -9.849  10.903  66.679  1.00  0.00    -0.237 C  
HETATM   13  H   UNL     1      -7.357   5.012  66.831  1.00  0.00     0.000 HD 
HETATM   14  C   UNL     1     -10.717   7.693  67.639  1.00  0.00    -0.175 C  
HETATM   15  C   UNL     1      -9.371  12.143  66.416  1.00  0.00    -0.225 C  
HETATM   16  O   UNL     1      -8.053  13.998  67.166  1.00  0.00    -0.174 OA 
HETATM   17  O   UNL     1     -10.513   7.699  66.219  1.00  0.00    -0.418 OA 
HETATM   18  C   UNL     1      -9.554   8.737  68.391  1.00  0.00    -0.147 C  
HETATM   19  H   UNL     1     -10.373   8.600  65.954  1.00  0.00     0.000 HD 
HETATM   20  C   UNL     1      -8.107   8.005  68.482  1.00  0.00    -0.125 C  
HETATM   21  F   UNL     1      -9.861   8.915  69.763  1.00  0.00    -0.168 F  
HETATM   22  C   UNL     1      -7.040   8.962  69.034  1.00  0.00    -0.064 C  
HETATM   23  C   UNL     1      -7.118  10.330  68.388  1.00  0.00    -0.078 C  
HETATM   24  F   UNL     1      -6.094  11.081  68.862  1.00  0.00    -0.041 F  
HETATM   25  C   UNL     1      -8.449  11.000  68.682  1.00  0.00    -0.157 C  
HETATM   26  C   UNL     1      -8.499  12.338  68.822  1.00  0.00     0.113 C  
HETATM   27  C   UNL     1      -8.571  12.919  67.432  1.00  0.00    -0.195 C  
ENDROOT
BRANCH   4  28
HETATM   28  C   UNL     1      -9.518   4.300  67.028  1.00  0.00    -0.184 C  
HETATM   29  O   UNL     1      -9.738   3.168  67.487  1.00  0.00    -0.129 OA 
BRANCH  28  30
HETATM   30  C   UNL     1      -9.740   4.450  65.518  1.00  0.00    -0.200 C  
HETATM   31  O   UNL     1     -11.119   4.733  65.275  1.00  0.00    -0.768 OA 
HETATM   32  H   UNL     1     -11.257   4.826  64.340  1.00  0.00     0.000 HD 
ENDBRANCH  28  30
ENDBRANCH   4  28
TORSDOF 2
ENDMDL
MODEL       65
REMARK 921   NORMALIZED FREE ENERGY PREDICTED BY IDOCK:   -4.46 KCAL/MOL
REMARK 922        TOTAL FREE ENERGY PREDICTED BY IDOCK:   -4.27 KCAL/MOL
REMARK 923 INTER-LIGAND FREE ENERGY PREDICTED BY IDOCK:   -5.20 KCAL/MOL
REMARK 924 INTRA-LIGAND FREE ENERGY PREDICTED BY IDOCK:    0.93 KCAL/MOL
REMARK 927      BINDING AFFINITY PREDICTED BY RF-SCORE:    0.00 PKD
ROOT
HETATM    1  C   UNL     1     -10.570   7.140  69.585  1.00  0.00    -0.249 C  
HETATM    2  C   UNL     1     -11.647   6.343  70.030  1.00  0.00    -0.446 C  
HETATM    3  C   UNL     1     -10.447   6.206  70.945  1.00  0.00    -0.282 C  
HETATM    4  C   UNL     1      -8.914   7.550  70.630  1.00  0.00    -0.154 C  
HETATM    5  C   UNL     1     -11.250   5.550  72.274  1.00  0.00    -0.281 C  
HETATM    6  O   UNL     1      -9.036   8.667  69.662  1.00  0.00    -0.141 OA 
HETATM    7  C   UNL     1      -8.853   2.224  69.339  1.00  0.00    -0.146 C  
HETATM    8  C   UNL     1     -10.006   7.464  71.416  1.00  0.00    -0.195 C  
HETATM    9  C   UNL     1      -8.634   6.223  72.033  1.00  0.00    -0.131 C  
HETATM   10  C   UNL     1     -10.792   8.587  72.103  1.00  0.00    -0.427 C  
HETATM   11  C   UNL     1      -8.482   3.487  68.452  1.00  0.00    -0.107 C  
HETATM   12  C   UNL     1      -7.054   3.198  68.021  1.00  0.00    -0.050 C  
HETATM   13  H   UNL     1      -8.329   9.286  69.517  1.00  0.00     0.000 HD 
HETATM   14  C   UNL     1      -8.057   5.095  70.737  1.00  0.00    -0.104 C  
HETATM   15  C   UNL     1      -6.805   2.520  66.874  1.00  0.00    -0.041 C  
HETATM   16  O   UNL     1      -7.685   1.599  64.844  1.00  0.00    -0.061 OA 
HETATM   17  O   UNL     1      -6.734   5.505  70.363  1.00  0.00    -0.044 OA 
HETATM   18  C   UNL     1      -8.973   4.738  69.307  1.00  0.00    -0.095 C  
HETATM   19  H   UNL     1      -6.431   4.914  69.684  1.00  0.00     0.000 HD 
HETATM   20  C   UNL     1      -9.476   6.111  68.598  1.00  0.00    -0.128 C  
HETATM   21  F   UNL     1     -10.208   4.133  69.647  1.00  0.00    -0.259 F  
HETATM   22  C   UNL     1     -10.183   5.814  67.266  1.00  0.00    -0.248 C  
HETATM   23  C   UNL     1      -9.418   4.808  66.431  1.00  0.00    -0.158 C  
HETATM   24  F   UNL     1     -10.057   4.670  65.244  1.00  0.00    -0.188 F  
HETATM   25  C   UNL     1      -9.319   3.468  67.141  1.00  0.00    -0.229 C  
HETATM   26  C   UNL     1      -9.324   2.334  66.415  1.00  0.00     0.077 C  
HETATM   27  C   UNL     1      -7.912   2.123  65.929  1.00  0.00    -0.082 C  
ENDROOT
BRANCH   4  28
HETATM   28  C   UNL     1      -8.058   8.619  71.684  1.00  0.00    -0.132 C  
HETATM   29  O   UNL     1      -8.385   8.933  72.841  1.00  0.00    -0.372 OA 
BRANCH  28  30
HETATM   30  C   UNL     1      -6.729   9.205  71.197  1.00  0.00    -0.090 C  
HETATM   31  O   UNL     1      -6.948  10.538  70.734  1.00  0.00    -0.436 OA 
HETATM   32  H   UNL     1      -6.124  10.902  70.432  1.00  0.00     0.000 HD 
ENDBRANCH  28  30
ENDBRANCH   4  28
TORSDOF 2
ENDMDL
MODEL       66
REMARK 921   NORMALIZED FREE ENERGY PREDICTED BY IDOCK:   -4.44 KCAL/MOL
REMARK 922        TOTAL FREE ENERGY PREDICTED BY IDOCK:   -4.26 KCAL/MOL
REMARK 923 INTER-LIGAND FREE ENERGY PREDICTED BY IDOCK:   -5.36 KCAL/MOL
REMARK 924 INTRA-LIGAND FREE ENERGY PREDICTED BY IDOCK:    1.10 KCAL/MOL
REMARK 927      BINDING AFFINITY PREDICTED BY RF-SCORE:    0.00 PKD
ROOT
HETATM    1  C   UNL     1      -9.111  10.339  68.825  1.00  0.00    -0.159 C  
HETATM    2  C   UNL     1      -7.987  10.742  69.579  1.00  0.00    -0.022 C  
HETATM    3  C   UNL     1      -7.625   9.649  68.594  1.00  0.00    -0.080 C  
HETATM    4  C   UNL     1      -9.066   9.184  67.191  1.00  0.00    -0.126 C  
HETATM    5  C   UNL     1      -5.955   9.877  68.607  1.00  0.00    -0.038 C  
HETATM    6  O   UNL     1     -10.322   9.964  67.068  1.00  0.00    -0.222 OA 
HETATM    7  C   UNL     1      -7.648   6.112  71.502  1.00  0.00    -0.099 C  
HETATM    8  C   UNL     1      -7.992   9.997  67.273  1.00  0.00    -0.106 C  
HETATM    9  C   UNL     1      -7.420   8.138  67.128  1.00  0.00    -0.089 C  
HETATM   10  C   UNL     1      -7.674  11.261  66.464  1.00  0.00    -0.125 C  
HETATM   11  C   UNL     1      -9.087   6.571  71.013  1.00  0.00    -0.150 C  
HETATM   12  C   UNL     1      -9.822   5.254  70.823  1.00  0.00    -0.261 C  
HETATM   13  H   UNL     1     -10.985   9.750  66.422  1.00  0.00     0.000 HD 
HETATM   14  C   UNL     1      -8.150   7.065  68.393  1.00  0.00    -0.124 C  
HETATM   15  C   UNL     1     -10.522   4.704  71.845  1.00  0.00    -0.172 C  
HETATM   16  O   UNL     1     -11.406   4.966  74.056  1.00  0.00    -0.183 OA 
HETATM   17  O   UNL     1      -9.126   6.236  67.747  1.00  0.00    -0.117 OA 
HETATM   18  C   UNL     1      -8.801   7.660  69.887  1.00  0.00    -0.143 C  
HETATM   19  H   UNL     1      -9.509   5.674  68.409  1.00  0.00     0.000 HD 
HETATM   20  C   UNL     1      -9.827   8.889  69.610  1.00  0.00    -0.182 C  
HETATM   21  F   UNL     1      -7.794   8.307  70.645  1.00  0.00    -0.079 F  
HETATM   22  C   UNL     1     -10.504   9.345  70.913  1.00  0.00    -0.381 C  
HETATM   23  C   UNL     1     -10.988   8.172  71.740  1.00  0.00    -0.261 C  
HETATM   24  F   UNL     1     -11.646   8.658  72.820  1.00  0.00    -0.411 F  
HETATM   25  C   UNL     1      -9.828   7.292  72.175  1.00  0.00    -0.185 C  
HETATM   26  C   UNL     1      -9.883   6.669  73.367  1.00  0.00    -0.215 C  
HETATM   27  C   UNL     1     -10.692   5.413  73.165  1.00  0.00    -0.266 C  
ENDROOT
BRANCH   4  28
HETATM   28  C   UNL     1      -9.027   9.064  65.468  1.00  0.00    -0.204 C  
HETATM   29  O   UNL     1      -8.485   8.166  64.803  1.00  0.00    -0.138 OA 
BRANCH  28  30
HETATM   30  C   UNL     1      -9.781  10.120  64.652  1.00  0.00    -0.309 C  
HETATM   31  O   UNL     1      -9.734   9.763  63.270  1.00  0.00    -0.511 OA 
HETATM   32  H   UNL     1     -10.201  10.417  62.764  1.00  0.00     0.000 HD 
ENDBRANCH  28  30
ENDBRANCH   4  28
TORSDOF 2
ENDMDL
MODEL       67
REMARK 921   NORMALIZED FREE ENERGY PREDICTED BY IDOCK:   -4.44 KCAL/MOL
REMARK 922        TOTAL FREE ENERGY PREDICTED BY IDOCK:   -4.25 KCAL/MOL
REMARK 923 INTER-LIGAND FREE ENERGY PREDICTED BY IDOCK:   -4.97 KCAL/MOL
REMARK 924 INTRA-LIGAND FREE ENERGY PREDICTED BY IDOCK:    0.72 KCAL/MOL
REMARK 927      BINDING AFFINITY PREDICTED BY RF-SCORE:    0.00 PKD
ROOT
HETATM    1  C   UNL     1      -9.791   9.054  69.006  1.00  0.00    -0.178 C  
HETATM    2  C   UNL     1      -9.447   9.927  70.061  1.00  0.00    -0.246 C  
HETATM    3  C   UNL     1      -8.231   9.189  69.538  1.00  0.00    -0.120 C  
HETATM    4  C   UNL     1      -8.500   8.133  67.787  1.00  0.00    -0.132 C  
HETATM    5  C   UNL     1      -7.053  10.205  70.189  1.00  0.00    -0.162 C  
HETATM    6  O   UNL     1      -9.765   8.202  67.015  1.00  0.00    -0.176 OA 
HETATM    7  C   UNL     1      -7.955   5.986  72.800  1.00  0.00    -0.107 C  
HETATM    8  C   UNL     1      -8.078   9.363  68.143  1.00  0.00    -0.110 C  
HETATM    9  C   UNL     1      -6.731   8.030  68.602  1.00  0.00    -0.062 C  
HETATM   10  C   UNL     1      -8.042  10.650  67.310  1.00  0.00    -0.116 C  
HETATM   11  C   UNL     1      -9.051   5.700  71.688  1.00  0.00    -0.150 C  
HETATM   12  C   UNL     1      -8.936   4.201  71.469  1.00  0.00    -0.163 C  
HETATM   13  H   UNL     1      -9.889   7.715  66.208  1.00  0.00     0.000 HD 
HETATM   14  C   UNL     1      -7.376   6.689  69.638  1.00  0.00    -0.083 C  
HETATM   15  C   UNL     1      -9.685   3.340  72.200  1.00  0.00    -0.230 C  
HETATM   16  O   UNL     1     -11.478   3.051  73.763  1.00  0.00    -0.183 OA 
HETATM   17  O   UNL     1      -7.462   5.514  68.820  1.00  0.00    -0.076 OA 
HETATM   18  C   UNL     1      -8.818   6.832  70.592  1.00  0.00    -0.151 C  
HETATM   19  H   UNL     1      -7.800   4.811  69.363  1.00  0.00     0.000 HD 
HETATM   20  C   UNL     1     -10.040   7.410  69.691  1.00  0.00    -0.186 C  
HETATM   21  F   UNL     1      -8.675   7.860  71.556  1.00  0.00    -0.115 F  
HETATM   22  C   UNL     1     -11.352   7.427  70.490  1.00  0.00    -0.295 C  
HETATM   23  C   UNL     1     -11.566   6.137  71.254  1.00  0.00    -0.205 C  
HETATM   24  F   UNL     1     -12.778   6.197  71.857  1.00  0.00    -0.336 F  
HETATM   25  C   UNL     1     -10.470   5.922  72.284  1.00  0.00    -0.246 C  
HETATM   26  C   UNL     1     -10.766   5.306  73.445  1.00  0.00    -0.329 C  
HETATM   27  C   UNL     1     -10.730   3.824  73.173  1.00  0.00    -0.176 C  
ENDROOT
BRANCH   4  28
HETATM   28  C   UNL     1      -7.641   8.112  66.287  1.00  0.00    -0.090 C  
HETATM   29  O   UNL     1      -6.450   8.415  66.115  1.00  0.00    -0.052 OA 
BRANCH  28  30
HETATM   30  C   UNL     1      -8.378   7.614  65.039  1.00  0.00    -0.071 C  
HETATM   31  O   UNL     1      -9.026   8.718  64.407  1.00  0.00    -0.427 OA 
HETATM   32  H   UNL     1      -9.482   8.410  63.633  1.00  0.00     0.000 HD 
ENDBRANCH  28  30
ENDBRANCH   4  28
TORSDOF 2
ENDMDL
MODEL       68
REMARK 921   NORMALIZED FREE ENERGY PREDICTED BY IDOCK:   -4.42 KCAL/MOL
REMARK 922        TOTAL FREE ENERGY PREDICTED BY IDOCK:   -4.23 KCAL/MOL
REMARK 923 INTER-LIGAND FREE ENERGY PREDICTED BY IDOCK:   -4.98 KCAL/MOL
REMARK 924 INTRA-LIGAND FREE ENERGY PREDICTED BY IDOCK:    0.75 KCAL/MOL
REMARK 927      BINDING AFFINITY PREDICTED BY RF-SCORE:    0.00 PKD
ROOT
HETATM    1  C   UNL     1      -8.160   6.526  65.204  1.00  0.00    -0.133 C  
HETATM    2  C   UNL     1      -6.949   7.153  65.570  1.00  0.00    -0.056 C  
HETATM    3  C   UNL     1      -7.050   5.763  66.164  1.00  0.00    -0.071 C  
HETATM    4  C   UNL     1      -8.593   4.590  65.458  1.00  0.00    -0.123 C  
HETATM    5  C   UNL     1      -5.417   5.553  66.527  1.00  0.00    -0.013 C  
HETATM    6  O   UNL     1      -9.466   5.029  64.342  1.00  0.00    -0.359 OA 
HETATM    7  C   UNL     1      -8.330   6.950  70.397  1.00  0.00    -0.130 C  
HETATM    8  C   UNL     1      -7.291   4.788  65.168  1.00  0.00    -0.072 C  
HETATM    9  C   UNL     1      -7.465   3.803  66.842  1.00  0.00    -0.079 C  
HETATM   10  C   UNL     1      -6.541   4.513  63.859  1.00  0.00    -0.042 C  
HETATM   11  C   UNL     1      -9.502   6.966  69.327  1.00  0.00    -0.147 C  
HETATM   12  C   UNL     1     -10.683   6.404  70.101  1.00  0.00    -0.328 C  
HETATM   13  H   UNL     1     -10.177   4.488  64.017  1.00  0.00     0.000 HD 
HETATM   14  C   UNL     1      -8.513   4.642  68.059  1.00  0.00    -0.102 C  
HETATM   15  C   UNL     1     -11.513   7.229  70.784  1.00  0.00    -0.328 C  
HETATM   16  O   UNL     1     -12.178   9.482  71.256  1.00  0.00    -0.308 OA 
HETATM   17  O   UNL     1      -9.746   3.912  68.145  1.00  0.00    -0.146 OA 
HETATM   18  C   UNL     1      -8.855   6.342  68.012  1.00  0.00    -0.113 C  
HETATM   19  H   UNL     1     -10.295   4.352  68.783  1.00  0.00     0.000 HD 
HETATM   20  C   UNL     1      -9.350   6.781  66.528  1.00  0.00    -0.197 C  
HETATM   21  F   UNL     1      -7.660   7.092  68.138  1.00  0.00    -0.101 F  
HETATM   22  C   UNL     1      -9.772   8.258  66.504  1.00  0.00    -0.323 C  
HETATM   23  C   UNL     1     -10.641   8.618  67.691  1.00  0.00    -0.203 C  
HETATM   24  F   UNL     1     -11.041   9.905  67.548  1.00  0.00    -0.343 F  
HETATM   25  C   UNL     1      -9.887   8.436  68.997  1.00  0.00    -0.184 C  
HETATM   26  C   UNL     1     -10.144   9.264  70.028  1.00  0.00    -0.240 C  
HETATM   27  C   UNL     1     -11.371   8.730  70.721  1.00  0.00    -0.272 C  
ENDROOT
BRANCH   4  28
HETATM   28  C   UNL     1      -8.646   2.990  64.808  1.00  0.00    -0.101 C  
HETATM   29  O   UNL     1      -7.968   2.018  65.182  1.00  0.00    -0.075 OA 
BRANCH  28  30
HETATM   30  C   UNL     1      -9.664   2.692  63.701  1.00  0.00    -0.120 C  
HETATM   31  O   UNL     1     -10.847   2.149  64.289  1.00  0.00    -0.269 OA 
HETATM   32  H   UNL     1     -11.478   1.965  63.603  1.00  0.00     0.000 HD 
ENDBRANCH  28  30
ENDBRANCH   4  28
TORSDOF 2
ENDMDL
MODEL       69
REMARK 921   NORMALIZED FREE ENERGY PREDICTED BY IDOCK:   -4.41 KCAL/MOL
REMARK 922        TOTAL FREE ENERGY PREDICTED BY IDOCK:   -4.21 KCAL/MOL
REMARK 923 INTER-LIGAND FREE ENERGY PREDICTED BY IDOCK:   -5.79 KCAL/MOL
REMARK 924 INTRA-LIGAND FREE ENERGY PREDICTED BY IDOCK:    1.58 KCAL/MOL
REMARK 927      BINDING AFFINITY PREDICTED BY RF-SCORE:    0.00 PKD
ROOT
HETATM    1  C   UNL     1     -11.270  12.698  66.279  1.00  0.00    -0.354 C  
HETATM    2  C   UNL     1     -11.981  12.256  67.415  1.00  0.00    -0.204 C  
HETATM    3  C   UNL     1     -10.959  13.313  67.783  1.00  0.00    -0.278 C  
HETATM    4  C   UNL     1     -10.073  14.300  66.203  1.00  0.00    -0.313 C  
HETATM    5  C   UNL     1     -11.596  13.729  69.287  1.00  0.00    -0.362 C  
HETATM    6  O   UNL     1     -10.508  14.086  64.801  1.00  0.00    -0.413 OA 
HETATM    7  C   UNL     1      -7.697  10.534  69.398  1.00  0.00    -0.157 C  
HETATM    8  C   UNL     1     -11.131  14.490  67.018  1.00  0.00    -0.324 C  
HETATM    9  C   UNL     1      -9.468  14.798  67.990  1.00  0.00    -0.204 C  
HETATM   10  C   UNL     1     -12.386  15.340  66.789  1.00  0.00     0.812 C  
HETATM   11  C   UNL     1      -7.755  10.630  67.814  1.00  0.00    -0.100 C  
HETATM   12  C   UNL     1      -6.288  10.637  67.416  1.00  0.00    -0.058 C  
HETATM   13  H   UNL     1     -10.099  14.541  64.073  1.00  0.00     0.000 HD 
HETATM   14  C   UNL     1      -8.319  13.398  67.901  1.00  0.00    -0.166 C  
HETATM   15  C   UNL     1      -5.639   9.476  67.161  1.00  0.00    -0.040 C  
HETATM   16  O   UNL     1      -5.796   7.108  66.827  1.00  0.00    -0.025 OA 
HETATM   17  O   UNL     1      -7.239  13.779  67.038  1.00  0.00    -0.351 OA 
HETATM   18  C   UNL     1      -8.816  11.780  67.519  1.00  0.00    -0.162 C  
HETATM   19  H   UNL     1      -6.637  13.046  66.992  1.00  0.00     0.000 HD 
HETATM   20  C   UNL     1      -9.733  11.770  66.178  1.00  0.00    -0.250 C  
HETATM   21  F   UNL     1      -9.735  11.302  68.486  1.00  0.00    -0.171 F  
HETATM   22  C   UNL     1     -10.079  10.332  65.759  1.00  0.00    -0.325 C  
HETATM   23  C   UNL     1      -8.870   9.421  65.815  1.00  0.00    -0.171 C  
HETATM   24  F   UNL     1      -9.237   8.202  65.349  1.00  0.00    -0.154 F  
HETATM   25  C   UNL     1      -8.333   9.309  67.232  1.00  0.00    -0.125 C  
HETATM   26  C   UNL     1      -7.783   8.150  67.640  1.00  0.00    -0.102 C  
HETATM   27  C   UNL     1      -6.356   8.149  67.154  1.00  0.00    -0.056 C  
ENDROOT
BRANCH   4  28
HETATM   28  C   UNL     1      -9.869  15.976  65.835  1.00  0.00    -0.348 C  
HETATM   29  O   UNL     1     -10.418  16.601  64.913  1.00  0.00    -0.657 OA 
BRANCH  28  30
HETATM   30  C   UNL     1      -8.978  16.816  66.757  1.00  0.00    -0.240 C  
HETATM   31  O   UNL     1      -8.369  17.858  65.995  1.00  0.00    -0.495 OA 
HETATM   32  H   UNL     1      -7.817  18.379  66.566  1.00  0.00     0.000 HD 
ENDBRANCH  28  30
ENDBRANCH   4  28
TORSDOF 2
ENDMDL
MODEL       70
REMARK 921   NORMALIZED FREE ENERGY PREDICTED BY IDOCK:   -4.37 KCAL/MOL
REMARK 922        TOTAL FREE ENERGY PREDICTED BY IDOCK:   -4.17 KCAL/MOL
REMARK 923 INTER-LIGAND FREE ENERGY PREDICTED BY IDOCK:   -4.86 KCAL/MOL
REMARK 924 INTRA-LIGAND FREE ENERGY PREDICTED BY IDOCK:    0.69 KCAL/MOL
REMARK 927      BINDING AFFINITY PREDICTED BY RF-SCORE:    0.00 PKD
ROOT
HETATM    1  C   UNL     1      -9.983   9.253  65.738  1.00  0.00    -0.215 C  
HETATM    2  C   UNL     1     -10.604  10.368  66.341  1.00  0.00    -0.198 C  
HETATM    3  C   UNL     1      -9.097  10.522  66.322  1.00  0.00    -0.184 C  
HETATM    4  C   UNL     1      -8.063   9.146  65.184  1.00  0.00    -0.130 C  
HETATM    5  C   UNL     1      -9.036  12.185  66.590  1.00  0.00    -0.206 C  
HETATM    6  O   UNL     1      -8.759   8.153  64.329  1.00  0.00    -0.394 OA 
HETATM    7  C   UNL     1      -8.262   9.310  70.658  1.00  0.00    -0.224 C  
HETATM    8  C   UNL     1      -8.576  10.382  65.015  1.00  0.00    -0.190 C  
HETATM    9  C   UNL     1      -6.990  10.460  66.147  1.00  0.00    -0.126 C  
HETATM   10  C   UNL     1      -8.976  11.091  63.715  1.00  0.00    -0.070 C  
HETATM   11  C   UNL     1      -8.508   8.092  69.671  1.00  0.00    -0.131 C  
HETATM   12  C   UNL     1      -7.495   7.060  70.137  1.00  0.00    -0.086 C  
HETATM   13  H   UNL     1      -8.282   7.520  63.805  1.00  0.00     0.000 HD 
HETATM   14  C   UNL     1      -7.084   9.363  67.586  1.00  0.00    -0.082 C  
HETATM   15  C   UNL     1      -7.827   6.150  71.085  1.00  0.00    -0.111 C  
HETATM   16  O   UNL     1      -9.558   5.164  72.417  1.00  0.00    -0.146 OA 
HETATM   17  O   UNL     1      -6.187   8.268  67.355  1.00  0.00    -0.053 OA 
HETATM   18  C   UNL     1      -8.579   8.754  68.224  1.00  0.00    -0.134 C  
HETATM   19  H   UNL     1      -6.236   7.693  68.109  1.00  0.00     0.000 HD 
HETATM   20  C   UNL     1      -9.484   8.114  67.037  1.00  0.00    -0.226 C  
HETATM   21  F   UNL     1      -9.405   9.821  68.657  1.00  0.00    -0.139 F  
HETATM   22  C   UNL     1     -10.755   7.462  67.605  1.00  0.00    -0.278 C  
HETATM   23  C   UNL     1     -10.460   6.615  68.825  1.00  0.00    -0.213 C  
HETATM   24  F   UNL     1     -11.610   6.010  69.209  1.00  0.00    -0.469 F  
HETATM   25  C   UNL     1      -9.900   7.461  69.957  1.00  0.00    -0.179 C  
HETATM   26  C   UNL     1     -10.192   7.135  71.231  1.00  0.00    -0.199 C  
HETATM   27  C   UNL     1      -9.228   6.049  71.634  1.00  0.00    -0.145 C  
ENDROOT
BRANCH   4  28
HETATM   28  C   UNL     1      -6.872   9.310  63.943  1.00  0.00    -0.092 C  
HETATM   29  O   UNL     1      -6.635  10.332  63.278  1.00  0.00    -0.136 OA 
BRANCH  28  30
HETATM   30  C   UNL     1      -5.958   8.114  63.655  1.00  0.00    -0.067 C  
HETATM   31  O   UNL     1      -5.829   7.329  64.840  1.00  0.00    -0.036 OA 
HETATM   32  H   UNL     1      -5.263   6.587  64.661  1.00  0.00     0.000 HD 
ENDBRANCH  28  30
ENDBRANCH   4  28
TORSDOF 2
ENDMDL
MODEL       71
REMARK 921   NORMALIZED FREE ENERGY PREDICTED BY IDOCK:   -4.36 KCAL/MOL
REMARK 922        TOTAL FREE ENERGY PREDICTED BY IDOCK:   -4.16 KCAL/MOL
REMARK 923 INTER-LIGAND FREE ENERGY PREDICTED BY IDOCK:   -4.91 KCAL/MOL
REMARK 924 INTRA-LIGAND FREE ENERGY PREDICTED BY IDOCK:    0.75 KCAL/MOL
REMARK 927      BINDING AFFINITY PREDICTED BY RF-SCORE:    0.00 PKD
ROOT
HETATM    1  C   UNL     1      -7.100  10.380  67.431  1.00  0.00    -0.087 C  
HETATM    2  C   UNL     1      -5.960   9.754  67.980  1.00  0.00    -0.043 C  
HETATM    3  C   UNL     1      -6.500   8.975  66.798  1.00  0.00    -0.064 C  
HETATM    4  C   UNL     1      -7.953   9.922  65.681  1.00  0.00    -0.130 C  
HETATM    5  C   UNL     1      -5.126   8.048  66.491  1.00  0.00    -0.024 C  
HETATM    6  O   UNL     1      -8.345  11.330  65.935  1.00  0.00    -0.303 OA 
HETATM    7  C   UNL     1      -8.750   5.734  69.124  1.00  0.00    -0.113 C  
HETATM    8  C   UNL     1      -6.611   9.788  65.646  1.00  0.00    -0.087 C  
HETATM    9  C   UNL     1      -7.469   8.115  65.126  1.00  0.00    -0.081 C  
HETATM   10  C   UNL     1      -5.568  10.687  64.973  1.00  0.00    -0.116 C  
HETATM   11  C   UNL     1      -9.516   7.120  69.018  1.00  0.00    -0.143 C  
HETATM   12  C   UNL     1     -10.961   6.699  68.806  1.00  0.00    -0.322 C  
HETATM   13  H   UNL     1      -9.014  11.766  65.420  1.00  0.00     0.000 HD 
HETATM   14  C   UNL     1      -8.656   7.508  66.355  1.00  0.00    -0.140 C  
HETATM   15  C   UNL     1     -11.784   6.507  69.865  1.00  0.00    -0.349 C  
HETATM   16  O   UNL     1     -12.117   6.729  72.228  1.00  0.00    -0.262 OA 
HETATM   17  O   UNL     1      -9.972   7.706  65.820  1.00  0.00    -0.193 OA 
HETATM   18  C   UNL     1      -8.634   7.993  68.021  1.00  0.00    -0.129 C  
HETATM   19  H   UNL     1     -10.593   7.388  66.463  1.00  0.00     0.000 HD 
HETATM   20  C   UNL     1      -8.563   9.612  68.140  1.00  0.00    -0.119 C  
HETATM   21  F   UNL     1      -7.413   7.616  68.631  1.00  0.00    -0.091 F  
HETATM   22  C   UNL     1      -8.667  10.060  69.606  1.00  0.00    -0.210 C  
HETATM   23  C   UNL     1      -9.769   9.329  70.345  1.00  0.00    -0.244 C  
HETATM   24  F   UNL     1      -9.852   9.842  71.597  1.00  0.00    -0.133 F  
HETATM   25  C   UNL     1      -9.495   7.835  70.399  1.00  0.00    -0.164 C  
HETATM   26  C   UNL     1      -9.887   7.131  71.477  1.00  0.00    -0.176 C  
HETATM   27  C   UNL     1     -11.346   6.804  71.277  1.00  0.00    -0.289 C  
ENDROOT
BRANCH   4  28
HETATM   28  C   UNL     1      -8.112  10.233  63.988  1.00  0.00    -0.137 C  
HETATM   29  O   UNL     1      -7.453   9.707  63.076  1.00  0.00    -0.107 OA 
BRANCH  28  30
HETATM   30  C   UNL     1      -9.208  11.201  63.530  1.00  0.00    -0.186 C  
HETATM   31  O   UNL     1     -10.478  10.702  63.953  1.00  0.00    -0.472 OA 
HETATM   32  H   UNL     1     -11.158  11.303  63.669  1.00  0.00     0.000 HD 
ENDBRANCH  28  30
ENDBRANCH   4  28
TORSDOF 2
ENDMDL
MODEL       72
REMARK 921   NORMALIZED FREE ENERGY PREDICTED BY IDOCK:   -4.30 KCAL/MOL
REMARK 922        TOTAL FREE ENERGY PREDICTED BY IDOCK:   -4.10 KCAL/MOL
REMARK 923 INTER-LIGAND FREE ENERGY PREDICTED BY IDOCK:   -5.01 KCAL/MOL
REMARK 924 INTRA-LIGAND FREE ENERGY PREDICTED BY IDOCK:    0.92 KCAL/MOL
REMARK 927      BINDING AFFINITY PREDICTED BY RF-SCORE:    0.00 PKD
ROOT
HETATM    1  C   UNL     1      -6.896   8.918  68.385  1.00  0.00    -0.065 C  
HETATM    2  C   UNL     1      -6.971   9.083  69.786  1.00  0.00    -0.054 C  
HETATM    3  C   UNL     1      -8.070   8.171  69.280  1.00  0.00    -0.117 C  
HETATM    4  C   UNL     1      -7.904   7.561  67.316  1.00  0.00    -0.118 C  
HETATM    5  C   UNL     1      -8.471   7.462  70.756  1.00  0.00    -0.131 C  
HETATM    6  O   UNL     1      -6.713   7.882  66.492  1.00  0.00    -0.056 OA 
HETATM    7  C   UNL     1     -11.492  11.215  69.269  1.00  0.00    -0.363 C  
HETATM    8  C   UNL     1      -7.547   7.093  68.530  1.00  0.00    -0.115 C  
HETATM    9  C   UNL     1      -9.476   6.940  68.291  1.00  0.00    -0.126 C  
HETATM   10  C   UNL     1      -6.449   6.085  68.890  1.00  0.00    -0.049 C  
HETATM   11  C   UNL     1     -10.514  11.319  68.023  1.00  0.00    -0.215 C  
HETATM   12  C   UNL     1     -11.459  11.607  66.867  1.00  0.00    -0.320 C  
HETATM   13  H   UNL     1      -6.638   7.601  65.588  1.00  0.00     0.000 HD 
HETATM   14  C   UNL     1     -10.269   8.509  67.850  1.00  0.00    -0.218 C  
HETATM   15  C   UNL     1     -11.764  12.884  66.531  1.00  0.00    -0.453 C  
HETATM   16  O   UNL     1     -11.306  15.216  66.836  1.00  0.00    -0.333 OA 
HETATM   17  O   UNL     1     -10.649   8.429  66.470  1.00  0.00    -0.338 OA 
HETATM   18  C   UNL     1      -9.551  10.059  68.159  1.00  0.00    -0.139 C  
HETATM   19  H   UNL     1     -11.064   9.251  66.239  1.00  0.00     0.000 HD 
HETATM   20  C   UNL     1      -8.020  10.093  67.617  1.00  0.00    -0.102 C  
HETATM   21  F   UNL     1      -9.357  10.247  69.550  1.00  0.00    -0.198 F  
HETATM   22  C   UNL     1      -7.413  11.496  67.774  1.00  0.00    -0.101 C  
HETATM   23  C   UNL     1      -8.366  12.580  67.315  1.00  0.00    -0.185 C  
HETATM   24  F   UNL     1      -7.727  13.771  67.402  1.00  0.00    -0.146 F  
HETATM   25  C   UNL     1      -9.630  12.591  68.158  1.00  0.00    -0.215 C  
HETATM   26  C   UNL     1     -10.248  13.762  68.406  1.00  0.00    -0.248 C  
HETATM   27  C   UNL     1     -11.108  14.063  67.204  1.00  0.00    -0.303 C  
ENDROOT
BRANCH   4  28
HETATM   28  C   UNL     1      -7.946   6.005  66.566  1.00  0.00    -0.105 C  
HETATM   29  O   UNL     1      -8.875   5.183  66.620  1.00  0.00    -0.112 OA 
BRANCH  28  30
HETATM   30  C   UNL     1      -6.758   5.593  65.687  1.00  0.00    -0.044 C  
HETATM   31  O   UNL     1      -6.567   4.182  65.792  1.00  0.00    -0.042 OA 
HETATM   32  H   UNL     1      -5.832   3.927  65.247  1.00  0.00     0.000 HD 
ENDBRANCH  28  30
ENDBRANCH   4  28
TORSDOF 2
ENDMDL
MODEL       73
REMARK 921   NORMALIZED FREE ENERGY PREDICTED BY IDOCK:   -4.23 KCAL/MOL
REMARK 922        TOTAL FREE ENERGY PREDICTED BY IDOCK:   -4.01 KCAL/MOL
REMARK 923 INTER-LIGAND FREE ENERGY PREDICTED BY IDOCK:   -4.94 KCAL/MOL
REMARK 924 INTRA-LIGAND FREE ENERGY PREDICTED BY IDOCK:    0.92 KCAL/MOL
REMARK 927      BINDING AFFINITY PREDICTED BY RF-SCORE:    0.00 PKD
ROOT
HETATM    1  C   UNL     1      -8.294  11.932  66.597  1.00  0.00    -0.117 C  
HETATM    2  C   UNL     1      -7.505  11.013  65.871  1.00  0.00     0.019 C  
HETATM    3  C   UNL     1      -8.951  10.566  65.933  1.00  0.00    -0.185 C  
HETATM    4  C   UNL     1     -10.294  11.952  66.664  1.00  0.00    -0.211 C  
HETATM    5  C   UNL     1      -8.900   9.460  64.662  1.00  0.00    -0.238 C  
HETATM    6  O   UNL     1      -9.891  13.344  66.980  1.00  0.00    -0.238 OA 
HETATM    7  C   UNL     1      -8.536   7.468  69.280  1.00  0.00    -0.136 C  
HETATM    8  C   UNL     1      -9.827  11.570  65.458  1.00  0.00    -0.269 C  
HETATM    9  C   UNL     1     -11.021  10.207  66.179  1.00  0.00     0.244 C  
HETATM   10  C   UNL     1      -9.801  12.354  64.140  1.00  0.00    -0.145 C  
HETATM   11  C   UNL     1      -8.606   8.973  69.781  1.00  0.00    -0.138 C  
HETATM   12  C   UNL     1      -9.463   8.879  71.032  1.00  0.00    -0.318 C  
HETATM   13  H   UNL     1     -10.510  13.982  67.317  1.00  0.00     0.000 HD 
HETATM   14  C   UNL     1     -10.541   9.639  67.832  1.00  0.00    -0.255 C  
HETATM   15  C   UNL     1      -8.892   8.672  72.243  1.00  0.00    -0.218 C  
HETATM   16  O   UNL     1      -6.873   8.545  73.527  1.00  0.00    -0.211 OA 
HETATM   17  O   UNL     1     -11.488  10.174  68.766  1.00  0.00    -0.459 OA 
HETATM   18  C   UNL     1      -8.938   9.818  68.473  1.00  0.00    -0.124 C  
HETATM   19  H   UNL     1     -11.237   9.876  69.632  1.00  0.00     0.000 HD 
HETATM   20  C   UNL     1      -8.423  11.348  68.293  1.00  0.00    -0.154 C  
HETATM   21  F   UNL     1      -8.003   9.115  67.674  1.00  0.00    -0.097 F  
HETATM   22  C   UNL     1      -7.056  11.550  68.965  1.00  0.00    -0.115 C  
HETATM   23  C   UNL     1      -7.006  10.929  70.346  1.00  0.00     0.429 C  
HETATM   24  F   UNL     1      -5.807  11.227  70.901  1.00  0.00    -0.131 F  
HETATM   25  C   UNL     1      -7.202   9.424  70.276  1.00  0.00    -0.104 C  
HETATM   26  C   UNL     1      -6.565   8.634  71.162  1.00  0.00    -0.061 C  
HETATM   27  C   UNL     1      -7.395   8.633  72.421  1.00  0.00     0.028 C  
ENDROOT
BRANCH   4  28
HETATM   28  C   UNL     1     -11.787  12.572  66.053  1.00  0.00    -0.418 C  
HETATM   29  O   UNL     1     -12.591  11.972  65.322  1.00  0.00    -0.371 OA 
BRANCH  28  30
HETATM   30  C   UNL     1     -12.220  13.976  66.491  1.00  0.00    -0.451 C  
HETATM   31  O   UNL     1     -13.177  14.480  65.559  1.00  0.00    -0.495 OA 
HETATM   32  H   UNL     1     -13.446  15.350  65.831  1.00  0.00     0.000 HD 
ENDBRANCH  28  30
ENDBRANCH   4  28
TORSDOF 2
ENDMDL
MODEL       74
REMARK 921   NORMALIZED FREE ENERGY PREDICTED BY IDOCK:   -4.23 KCAL/MOL
REMARK 922        TOTAL FREE ENERGY PREDICTED BY IDOCK:   -4.01 KCAL/MOL
REMARK 923 INTER-LIGAND FREE ENERGY PREDICTED BY IDOCK:   -4.91 KCAL/MOL
REMARK 924 INTRA-LIGAND FREE ENERGY PREDICTED BY IDOCK:    0.90 KCAL/MOL
REMARK 927      BINDING AFFINITY PREDICTED BY RF-SCORE:    0.00 PKD
ROOT
HETATM    1  C   UNL     1     -10.709   5.590  69.954  1.00  0.00    -0.358 C  
HETATM    2  C   UNL     1     -10.084   4.532  70.650  1.00  0.00    -0.232 C  
HETATM    3  C   UNL     1      -9.358   5.843  70.873  1.00  0.00    -0.180 C  
HETATM    4  C   UNL     1     -10.326   7.537  70.204  1.00  0.00    -0.216 C  
HETATM    5  C   UNL     1      -8.487   5.388  72.243  1.00  0.00    -0.122 C  
HETATM    6  O   UNL     1     -11.707   7.491  69.663  1.00  0.00    -0.402 OA 
HETATM    7  C   UNL     1      -5.933   5.209  67.900  1.00  0.00    -0.022 C  
HETATM    8  C   UNL     1     -10.230   6.845  71.358  1.00  0.00    -0.212 C  
HETATM    9  C   UNL     1      -8.567   7.800  71.005  1.00  0.00    -0.128 C  
HETATM   10  C   UNL     1     -11.194   6.818  72.550  1.00  0.00    -0.305 C  
HETATM   11  C   UNL     1      -7.301   5.668  67.239  1.00  0.00    -0.077 C  
HETATM   12  C   UNL     1      -6.854   6.641  66.161  1.00  0.00    -0.060 C  
HETATM   13  H   UNL     1     -12.152   8.271  69.355  1.00  0.00     0.000 HD 
HETATM   14  C   UNL     1      -7.861   7.429  69.378  1.00  0.00    -0.122 C  
HETATM   15  C   UNL     1      -6.582   6.203  64.908  1.00  0.00    -0.039 C  
HETATM   16  O   UNL     1      -6.662   4.389  63.344  1.00  0.00    -0.036 OA 
HETATM   17  O   UNL     1      -8.053   8.584  68.549  1.00  0.00    -0.118 OA 
HETATM   18  C   UNL     1      -8.252   6.001  68.472  1.00  0.00    -0.110 C  
HETATM   19  H   UNL     1      -7.682   8.390  67.696  1.00  0.00     0.000 HD 
HETATM   20  C   UNL     1      -9.863   5.810  68.382  1.00  0.00    -0.174 C  
HETATM   21  F   UNL     1      -7.875   4.840  69.190  1.00  0.00    -0.068 F  
HETATM   22  C   UNL     1     -10.226   4.619  67.481  1.00  0.00    -0.068 C  
HETATM   23  C   UNL     1      -9.425   4.618  66.196  1.00  0.00    -0.169 C  
HETATM   24  F   UNL     1      -9.865   3.594  65.424  1.00  0.00    -0.170 F  
HETATM   25  C   UNL     1      -7.939   4.473  66.476  1.00  0.00    -0.103 C  
HETATM   26  C   UNL     1      -7.165   3.802  65.602  1.00  0.00    -0.071 C  
HETATM   27  C   UNL     1      -6.811   4.769  64.501  1.00  0.00    -0.049 C  
ENDROOT
BRANCH   4  28
HETATM   28  C   UNL     1     -10.726   9.036  70.966  1.00  0.00    -0.269 C  
HETATM   29  O   UNL     1     -10.586   9.314  72.168  1.00  0.00    -0.177 OA 
BRANCH  28  30
HETATM   30  C   UNL     1     -11.251  10.177  70.087  1.00  0.00    -0.310 C  
HETATM   31  O   UNL     1     -12.678  10.188  70.139  1.00  0.00    -0.547 OA 
HETATM   32  H   UNL     1     -13.003  10.896  69.595  1.00  0.00     0.000 HD 
ENDBRANCH  28  30
ENDBRANCH   4  28
TORSDOF 2
ENDMDL
MODEL       75
REMARK 921   NORMALIZED FREE ENERGY PREDICTED BY IDOCK:   -4.09 KCAL/MOL
REMARK 922        TOTAL FREE ENERGY PREDICTED BY IDOCK:   -3.86 KCAL/MOL
REMARK 923 INTER-LIGAND FREE ENERGY PREDICTED BY IDOCK:   -4.74 KCAL/MOL
REMARK 924 INTRA-LIGAND FREE ENERGY PREDICTED BY IDOCK:    0.88 KCAL/MOL
REMARK 927      BINDING AFFINITY PREDICTED BY RF-SCORE:    0.00 PKD
ROOT
HETATM    1  C   UNL     1     -11.204   8.355  69.059  1.00  0.00     0.373 C  
HETATM    2  C   UNL     1     -10.800   7.708  70.247  1.00  0.00    -0.253 C  
HETATM    3  C   UNL     1      -9.883   8.866  69.912  1.00  0.00    -0.190 C  
HETATM    4  C   UNL     1     -10.522  10.117  68.401  1.00  0.00    -0.208 C  
HETATM    5  C   UNL     1      -9.176   9.041  71.433  1.00  0.00    -0.293 C  
HETATM    6  O   UNL     1     -11.859   9.973  67.775  1.00  0.00    -0.356 OA 
HETATM    7  C   UNL     1      -6.449   6.466  68.062  1.00  0.00    -0.049 C  
HETATM    8  C   UNL     1     -10.605  10.071  69.746  1.00  0.00    -0.301 C  
HETATM    9  C   UNL     1      -8.790  10.531  69.199  1.00  0.00    -0.161 C  
HETATM   10  C   UNL     1     -11.624  10.742  70.674  1.00  0.00    -0.388 C  
HETATM   11  C   UNL     1      -7.685   6.700  67.094  1.00  0.00    -0.100 C  
HETATM   12  C   UNL     1      -7.025   6.962  65.750  1.00  0.00    -0.064 C  
HETATM   13  H   UNL     1     -12.153  10.549  67.079  1.00  0.00     0.000 HD 
HETATM   14  C   UNL     1      -8.065   9.332  68.048  1.00  0.00    -0.104 C  
HETATM   15  C   UNL     1      -6.760   5.939  64.903  1.00  0.00    -0.047 C  
HETATM   16  O   UNL     1      -7.049   3.616  64.391  1.00  0.00    -0.052 OA 
HETATM   17  O   UNL     1      -8.019   9.948  66.754  1.00  0.00    -0.114 OA 
HETATM   18  C   UNL     1      -8.635   7.701  67.888  1.00  0.00    -0.122 C  
HETATM   19  H   UNL     1      -7.639   9.320  66.151  1.00  0.00     0.000 HD 
HETATM   20  C   UNL     1     -10.248   7.679  67.694  1.00  0.00    -0.277 C  
HETATM   21  F   UNL     1      -8.494   7.003  69.113  1.00  0.00    -0.124 F  
HETATM   22  C   UNL     1     -10.751   6.251  67.429  1.00  0.00    -0.409 C  
HETATM   23  C   UNL     1      -9.891   5.529  66.412  1.00  0.00    -0.167 C  
HETATM   24  F   UNL     1     -10.450   4.318  66.170  1.00  0.00    -0.246 F  
HETATM   25  C   UNL     1      -8.467   5.367  66.915  1.00  0.00    -0.107 C  
HETATM   26  C   UNL     1      -7.766   4.269  66.572  1.00  0.00    -0.094 C  
HETATM   27  C   UNL     1      -7.198   4.526  65.199  1.00  0.00    -0.068 C  
ENDROOT
BRANCH   4  28
HETATM   28  C   UNL     1     -10.712  11.832  68.302  1.00  0.00    -0.214 C  
HETATM   29  O   UNL     1     -10.805  12.621  69.256  1.00  0.00    -0.132 OA 
BRANCH  28  30
HETATM   30  C   UNL     1     -10.706  12.481  66.913  1.00  0.00    -0.243 C  
HETATM   31  O   UNL     1      -9.360  12.568  66.444  1.00  0.00    -0.234 OA 
HETATM   32  H   UNL     1      -9.357  12.970  65.583  1.00  0.00     0.000 HD 
ENDBRANCH  28  30
ENDBRANCH   4  28
TORSDOF 2
ENDMDL
MODEL       76
REMARK 921   NORMALIZED FREE ENERGY PREDICTED BY IDOCK:   -4.07 KCAL/MOL
REMARK 922        TOTAL FREE ENERGY PREDICTED BY IDOCK:   -3.84 KCAL/MOL
REMARK 923 INTER-LIGAND FREE ENERGY PREDICTED BY IDOCK:   -4.91 KCAL/MOL
REMARK 924 INTRA-LIGAND FREE ENERGY PREDICTED BY IDOCK:    1.08 KCAL/MOL
REMARK 927      BINDING AFFINITY PREDICTED BY RF-SCORE:    0.00 PKD
ROOT
HETATM    1  C   UNL     1      -7.934  10.474  68.005  1.00  0.00    -0.106 C  
HETATM    2  C   UNL     1      -8.814  10.457  69.109  1.00  0.00    -0.180 C  
HETATM    3  C   UNL     1      -9.564  10.682  67.812  1.00  0.00    -0.172 C  
HETATM    4  C   UNL     1      -8.477  10.402  66.081  1.00  0.00    -0.147 C  
HETATM    5  C   UNL     1     -11.105  10.287  68.370  1.00  0.00    -0.302 C  
HETATM    6  O   UNL     1      -7.088   9.880  66.101  1.00  0.00    -0.095 OA 
HETATM    7  C   UNL     1     -10.088  15.220  68.136  1.00  0.00    -0.229 C  
HETATM    8  C   UNL     1      -9.287   9.665  66.868  1.00  0.00    -0.183 C  
HETATM    9  C   UNL     1     -10.330  10.969  65.862  1.00  0.00    -0.315 C  
HETATM   10  C   UNL     1      -9.368   8.141  67.013  1.00  0.00    -0.197 C  
HETATM   11  C   UNL     1      -8.652  14.757  67.642  1.00  0.00    -0.180 C  
HETATM   12  C   UNL     1      -8.309  15.781  66.573  1.00  0.00    -0.313 C  
HETATM   13  H   UNL     1      -6.588   9.751  65.304  1.00  0.00     0.000 HD 
HETATM   14  C   UNL     1      -9.749  12.672  66.081  1.00  0.00    -0.251 C  
HETATM   15  C   UNL     1      -7.653  16.921  66.899  1.00  0.00    -0.250 C  
HETATM   16  O   UNL     1      -6.462  18.157  68.571  1.00  0.00    -0.201 OA 
HETATM   17  O   UNL     1      -9.106  13.070  64.862  1.00  0.00     0.201 OA 
HETATM   18  C   UNL     1      -8.786  13.184  67.431  1.00  0.00    -0.204 C  
HETATM   19  H   UNL     1      -8.802  13.962  64.976  1.00  0.00     0.000 HD 
HETATM   20  C   UNL     1      -7.522  12.185  67.638  1.00  0.00    -0.129 C  
HETATM   21  F   UNL     1      -9.492  12.992  68.644  1.00  0.00    -0.198 F  
HETATM   22  C   UNL     1      -6.595  12.696  68.752  1.00  0.00    -0.089 C  
HETATM   23  C   UNL     1      -6.329  14.182  68.630  1.00  0.00    -0.089 C  
HETATM   24  F   UNL     1      -5.439  14.532  69.590  1.00  0.00    -0.091 F  
HETATM   25  C   UNL     1      -7.612  14.982  68.777  1.00  0.00    -0.137 C  
HETATM   26  C   UNL     1      -7.571  16.195  69.359  1.00  0.00    -0.161 C  
HETATM   27  C   UNL     1      -7.143  17.174  68.295  1.00  0.00    -0.197 C  
ENDROOT
BRANCH   4  28
HETATM   28  C   UNL     1      -8.759   9.460  64.659  1.00  0.00    -0.200 C  
HETATM   29  O   UNL     1      -9.608   9.685  63.781  1.00  0.00    -0.053 OA 
BRANCH  28  30
HETATM   30  C   UNL     1      -7.847   8.257  64.396  1.00  0.00    -0.135 C  
HETATM   31  O   UNL     1      -8.277   7.597  63.204  1.00  0.00    -0.312 OA 
HETATM   32  H   UNL     1      -7.711   6.851  63.041  1.00  0.00     0.000 HD 
ENDBRANCH  28  30
ENDBRANCH   4  28
TORSDOF 2
ENDMDL
MODEL       77
REMARK 921   NORMALIZED FREE ENERGY PREDICTED BY IDOCK:   -4.01 KCAL/MOL
REMARK 922        TOTAL FREE ENERGY PREDICTED BY IDOCK:   -3.77 KCAL/MOL
REMARK 923 INTER-LIGAND FREE ENERGY PREDICTED BY IDOCK:   -4.38 KCAL/MOL
REMARK 924 INTRA-LIGAND FREE ENERGY PREDICTED BY IDOCK:    0.61 KCAL/MOL
REMARK 927      BINDING AFFINITY PREDICTED BY RF-SCORE:    0.00 PKD
ROOT
HETATM    1  C   UNL     1      -9.390   8.067  70.761  1.00  0.00    -0.167 C  
HETATM    2  C   UNL     1     -10.630   8.524  70.264  1.00  0.00    -0.238 C  
HETATM    3  C   UNL     1     -10.705   7.067  70.675  1.00  0.00    -0.255 C  
HETATM    4  C   UNL     1      -9.085   6.340  71.725  1.00  0.00    -0.144 C  
HETATM    5  C   UNL     1     -12.384   6.947  70.770  1.00  0.00    -0.314 C  
HETATM    6  O   UNL     1      -7.979   7.222  72.171  1.00  0.00    -0.092 OA 
HETATM    7  C   UNL     1     -10.329   5.195  66.512  1.00  0.00    -0.336 C  
HETATM    8  C   UNL     1     -10.287   6.882  72.013  1.00  0.00    -0.220 C  
HETATM    9  C   UNL     1     -10.511   5.067  71.334  1.00  0.00    -0.213 C  
HETATM   10  C   UNL     1     -10.746   7.588  73.294  1.00  0.00    -0.437 C  
HETATM   11  C   UNL     1      -8.954   5.673  67.146  1.00  0.00    -0.112 C  
HETATM   12  C   UNL     1      -7.987   4.574  66.737  1.00  0.00    -0.102 C  
HETATM   13  H   UNL     1      -7.233   6.887  72.655  1.00  0.00     0.000 HD 
HETATM   14  C   UNL     1      -9.722   4.805  69.723  1.00  0.00    -0.202 C  
HETATM   15  C   UNL     1      -7.297   4.663  65.574  1.00  0.00    -0.076 C  
HETATM   16  O   UNL     1      -6.675   6.013  63.695  1.00  0.00    -0.035 OA 
HETATM   17  O   UNL     1      -8.562   3.989  69.937  1.00  0.00    -0.063 OA 
HETATM   18  C   UNL     1      -9.323   6.097  68.636  1.00  0.00    -0.121 C  
HETATM   19  H   UNL     1      -8.149   3.851  69.093  1.00  0.00     0.000 HD 
HETATM   20  C   UNL     1      -8.505   7.264  69.417  1.00  0.00    -0.133 C  
HETATM   21  F   UNL     1     -10.492   6.794  68.242  1.00  0.00    -0.161 F  
HETATM   22  C   UNL     1      -8.039   8.355  68.441  1.00  0.00    -0.123 C  
HETATM   23  C   UNL     1      -7.435   7.769  67.182  1.00  0.00    -0.096 C  
HETATM   24  F   UNL     1      -6.971   8.789  66.420  1.00  0.00    -0.075 F  
HETATM   25  C   UNL     1      -8.458   6.952  66.412  1.00  0.00    -0.130 C  
HETATM   26  C   UNL     1      -8.403   6.922  65.067  1.00  0.00    -0.054 C  
HETATM   27  C   UNL     1      -7.372   5.887  64.696  1.00  0.00    -0.070 C  
ENDROOT
BRANCH   4  28
HETATM   28  C   UNL     1      -8.947   5.489  73.223  1.00  0.00    -0.123 C  
HETATM   29  O   UNL     1      -9.851   5.304  74.053  1.00  0.00    -0.153 OA 
BRANCH  28  30
HETATM   30  C   UNL     1      -7.604   4.831  73.559  1.00  0.00    -0.087 C  
HETATM   31  O   UNL     1      -6.892   4.577  72.348  1.00  0.00    -0.047 OA 
HETATM   32  H   UNL     1      -6.059   4.170  72.556  1.00  0.00     0.000 HD 
ENDBRANCH  28  30
ENDBRANCH   4  28
TORSDOF 2
ENDMDL
MODEL       78
REMARK 921   NORMALIZED FREE ENERGY PREDICTED BY IDOCK:   -3.94 KCAL/MOL
REMARK 922        TOTAL FREE ENERGY PREDICTED BY IDOCK:   -3.70 KCAL/MOL
REMARK 923 INTER-LIGAND FREE ENERGY PREDICTED BY IDOCK:   -5.53 KCAL/MOL
REMARK 924 INTRA-LIGAND FREE ENERGY PREDICTED BY IDOCK:    1.83 KCAL/MOL
REMARK 927      BINDING AFFINITY PREDICTED BY RF-SCORE:    0.00 PKD
ROOT
HETATM    1  C   UNL     1      -9.246  16.495  66.017  1.00  0.00    -0.295 C  
HETATM    2  C   UNL     1     -10.588  16.928  65.954  1.00  0.00    -0.239 C  
HETATM    3  C   UNL     1     -10.029  17.069  67.355  1.00  0.00    -0.278 C  
HETATM    4  C   UNL     1      -7.993  16.798  67.547  1.00  0.00    -0.172 C  
HETATM    5  C   UNL     1     -11.185  18.141  67.952  1.00  0.00     0.327 C  
HETATM    6  O   UNL     1      -7.111  16.612  66.368  1.00  0.00    -0.218 OA 
HETATM    7  C   UNL     1     -11.883  13.302  69.182  1.00  0.00    -0.378 C  
HETATM    8  C   UNL     1      -8.839  17.833  67.366  1.00  0.00    -0.240 C  
HETATM    9  C   UNL     1      -8.981  17.158  69.190  1.00  0.00    -0.014 C  
HETATM   10  C   UNL     1      -8.554  19.220  66.778  1.00  0.00    -0.326 C  
HETATM   11  C   UNL     1     -10.586  13.038  68.306  1.00  0.00    -0.260 C  
HETATM   12  C   UNL     1      -9.852  11.964  69.092  1.00  0.00     0.246 C  
HETATM   13  H   UNL     1      -6.174  16.487  66.457  1.00  0.00     0.000 HD 
HETATM   14  C   UNL     1      -9.336  15.382  69.270  1.00  0.00    -0.254 C  
HETATM   15  C   UNL     1     -10.087  10.652  68.849  1.00  0.00    -0.215 C  
HETATM   16  O   UNL     1     -11.130   9.016  67.442  1.00  0.00    -0.026 OA 
HETATM   17  O   UNL     1      -8.140  14.721  69.708  1.00  0.00    -0.413 OA 
HETATM   18  C   UNL     1     -10.035  14.490  67.955  1.00  0.00    -0.222 C  
HETATM   19  H   UNL     1      -8.326  13.791  69.750  1.00  0.00     0.000 HD 
HETATM   20  C   UNL     1      -9.229  14.786  66.576  1.00  0.00    -0.304 C  
HETATM   21  F   UNL     1     -11.319  14.998  67.640  1.00  0.00    -0.292 F  
HETATM   22  C   UNL     1      -9.761  13.910  65.431  1.00  0.00    -0.096 C  
HETATM   23  C   UNL     1      -9.953  12.471  65.861  1.00  0.00    -0.257 C  
HETATM   24  F   UNL     1     -10.336  11.753  64.777  1.00  0.00    -0.271 F  
HETATM   25  C   UNL     1     -10.991  12.363  66.965  1.00  0.00    -0.303 C  
HETATM   26  C   UNL     1     -11.781  11.274  67.024  1.00  0.00     0.106 C  
HETATM   27  C   UNL     1     -10.992  10.200  67.730  1.00  0.00    -0.277 C  
ENDROOT
BRANCH   4  28
HETATM   28  C   UNL     1      -6.747  17.752  68.270  1.00  0.00    -0.206 C  
HETATM   29  O   UNL     1      -5.524  17.618  68.102  1.00  0.00    -0.147 OA 
BRANCH  28  30
HETATM   30  C   UNL     1      -7.161  18.928  69.162  1.00  0.00    -0.248 C  
HETATM   31  O   UNL     1      -6.064  19.835  69.278  1.00  0.00    -0.260 OA 
HETATM   32  H   UNL     1      -6.321  20.564  69.830  1.00  0.00     0.000 HD 
ENDBRANCH  28  30
ENDBRANCH   4  28
TORSDOF 2
ENDMDL
MODEL       79
REMARK 921   NORMALIZED FREE ENERGY PREDICTED BY IDOCK:   -3.90 KCAL/MOL
REMARK 922        TOTAL FREE ENERGY PREDICTED BY IDOCK:   -3.65 KCAL/MOL
REMARK 923 INTER-LIGAND FREE ENERGY PREDICTED BY IDOCK:   -4.37 KCAL/MOL
REMARK 924 INTRA-LIGAND FREE ENERGY PREDICTED BY IDOCK:    0.72 KCAL/MOL
REMARK 927      BINDING AFFINITY PREDICTED BY RF-SCORE:    0.00 PKD
ROOT
HETATM    1  C   UNL     1     -10.244   6.756  69.208  1.00  0.00    -0.197 C  
HETATM    2  C   UNL     1     -11.580   6.772  69.665  1.00  0.00    -0.234 C  
HETATM    3  C   UNL     1     -10.757   7.850  70.338  1.00  0.00    -0.233 C  
HETATM    4  C   UNL     1      -8.880   8.181  69.546  1.00  0.00    -0.143 C  
HETATM    5  C   UNL     1     -12.036   8.795  70.897  1.00  0.00    -0.195 C  
HETATM    6  O   UNL     1      -8.419   7.502  68.310  1.00  0.00    -0.124 OA 
HETATM    7  C   UNL     1      -9.982   5.701  74.307  1.00  0.00    -0.245 C  
HETATM    8  C   UNL     1     -10.121   8.687  69.391  1.00  0.00    -0.204 C  
HETATM    9  C   UNL     1      -9.370   9.255  71.099  1.00  0.00    -0.259 C  
HETATM   10  C   UNL     1     -10.711   9.447  68.198  1.00  0.00    -0.230 C  
HETATM   11  C   UNL     1      -9.048   5.233  73.112  1.00  0.00    -0.127 C  
HETATM   12  C   UNL     1      -7.698   5.043  73.785  1.00  0.00    -0.099 C  
HETATM   13  H   UNL     1      -7.555   7.654  67.945  1.00  0.00     0.000 HD 
HETATM   14  C   UNL     1      -8.811   7.872  72.129  1.00  0.00    -0.146 C  
HETATM   15  C   UNL     1      -7.355   3.843  74.311  1.00  0.00    -0.062 C  
HETATM   16  O   UNL     1      -7.884   1.518  74.547  1.00  0.00    -0.032 OA 
HETATM   17  O   UNL     1      -7.377   7.881  72.125  1.00  0.00    -0.071 OA 
HETATM   18  C   UNL     1      -9.375   6.243  71.926  1.00  0.00    -0.149 C  
HETATM   19  H   UNL     1      -7.084   7.157  72.665  1.00  0.00     0.000 HD 
HETATM   20  C   UNL     1      -9.263   5.794  70.368  1.00  0.00    -0.175 C  
HETATM   21  F   UNL     1     -10.775   6.173  72.134  1.00  0.00    -0.234 F  
HETATM   22  C   UNL     1      -9.643   4.316  70.194  1.00  0.00    -0.269 C  
HETATM   23  C   UNL     1      -9.000   3.438  71.247  1.00  0.00    -0.096 C  
HETATM   24  F   UNL     1      -9.312   2.148  70.972  1.00  0.00    -0.151 F  
HETATM   25  C   UNL     1      -9.476   3.814  72.640  1.00  0.00    -0.171 C  
HETATM   26  C   UNL     1      -9.606   2.854  73.575  1.00  0.00    -0.130 C  
HETATM   27  C   UNL     1      -8.235   2.627  74.161  1.00  0.00    -0.067 C  
ENDROOT
BRANCH   4  28
HETATM   28  C   UNL     1      -8.071   9.609  69.006  1.00  0.00    -0.103 C  
HETATM   29  O   UNL     1      -8.334  10.776  69.338  1.00  0.00    -0.116 OA 
BRANCH  28  30
HETATM   30  C   UNL     1      -6.866   9.449  68.073  1.00  0.00    -0.074 C  
HETATM   31  O   UNL     1      -5.821   8.771  68.773  1.00  0.00    -0.040 OA 
HETATM   32  H   UNL     1      -5.074   8.672  68.194  1.00  0.00     0.000 HD 
ENDBRANCH  28  30
ENDBRANCH   4  28
TORSDOF 2
ENDMDL
MODEL       80
REMARK 921   NORMALIZED FREE ENERGY PREDICTED BY IDOCK:   -3.90 KCAL/MOL
REMARK 922        TOTAL FREE ENERGY PREDICTED BY IDOCK:   -3.64 KCAL/MOL
REMARK 923 INTER-LIGAND FREE ENERGY PREDICTED BY IDOCK:   -5.22 KCAL/MOL
REMARK 924 INTRA-LIGAND FREE ENERGY PREDICTED BY IDOCK:    1.57 KCAL/MOL
REMARK 927      BINDING AFFINITY PREDICTED BY RF-SCORE:    0.00 PKD
ROOT
HETATM    1  C   UNL     1      -9.835   8.867  70.367  1.00  0.00    -0.224 C  
HETATM    2  C   UNL     1      -8.821   9.184  71.296  1.00  0.00    -0.182 C  
HETATM    3  C   UNL     1      -8.235   8.685  69.991  1.00  0.00    -0.122 C  
HETATM    4  C   UNL     1      -9.559   8.497  68.420  1.00  0.00    -0.147 C  
HETATM    5  C   UNL     1      -6.667   9.264  70.211  1.00  0.00    -0.066 C  
HETATM    6  O   UNL     1     -10.968   8.952  68.522  1.00  0.00    -0.448 OA 
HETATM    7  C   UNL     1      -7.338   4.382  71.279  1.00  0.00    -0.055 C  
HETATM    8  C   UNL     1      -8.709   9.433  68.888  1.00  0.00    -0.132 C  
HETATM    9  C   UNL     1      -7.714   7.968  68.070  1.00  0.00    -0.118 C  
HETATM   10  C   UNL     1      -8.722  10.949  68.662  1.00  0.00    -0.154 C  
HETATM   11  C   UNL     1      -8.857   4.655  70.906  1.00  0.00    -0.149 C  
HETATM   12  C   UNL     1      -9.262   3.391  70.166  1.00  0.00    -0.225 C  
HETATM   13  H   UNL     1     -11.577   8.865  67.798  1.00  0.00     0.000 HD 
HETATM   14  C   UNL     1      -8.134   6.346  68.761  1.00  0.00    -0.114 C  
HETATM   15  C   UNL     1      -9.784   2.337  70.839  1.00  0.00    -0.130 C  
HETATM   16  O   UNL     1     -10.647   1.492  72.908  1.00  0.00    -0.119 OA 
HETATM   17  O   UNL     1      -8.901   5.641  67.775  1.00  0.00    -0.108 OA 
HETATM   18  C   UNL     1      -8.869   6.135  70.319  1.00  0.00    -0.149 C  
HETATM   19  H   UNL     1      -9.121   4.791  68.136  1.00  0.00     0.000 HD 
HETATM   20  C   UNL     1     -10.165   7.102  70.471  1.00  0.00    -0.206 C  
HETATM   21  F   UNL     1      -8.025   6.640  71.338  1.00  0.00    -0.101 F  
HETATM   22  C   UNL     1     -10.896   6.837  71.796  1.00  0.00    -0.257 C  
HETATM   23  C   UNL     1     -11.065   5.356  72.063  1.00  0.00    -0.136 C  
HETATM   24  F   UNL     1     -11.792   5.210  73.197  1.00  0.00    -0.373 F  
HETATM   25  C   UNL     1      -9.718   4.667  72.202  1.00  0.00    -0.219 C  
HETATM   26  C   UNL     1      -9.592   3.628  73.049  1.00  0.00    -0.160 C  
HETATM   27  C   UNL     1     -10.084   2.405  72.316  1.00  0.00    -0.155 C  
ENDROOT
BRANCH   4  28
HETATM   28  C   UNL     1      -9.538   9.080  66.793  1.00  0.00    -0.200 C  
HETATM   29  O   UNL     1     -10.388   9.812  66.261  1.00  0.00    -0.235 OA 
BRANCH  28  30
HETATM   30  C   UNL     1      -8.332   8.730  65.915  1.00  0.00    -0.126 C  
HETATM   31  O   UNL     1      -8.797   8.223  64.664  1.00  0.00    -0.406 OA 
HETATM   32  H   UNL     1      -8.050   8.006  64.119  1.00  0.00     0.000 HD 
ENDBRANCH  28  30
ENDBRANCH   4  28
TORSDOF 2
ENDMDL
MODEL       81
REMARK 921   NORMALIZED FREE ENERGY PREDICTED BY IDOCK:   -3.90 KCAL/MOL
REMARK 922        TOTAL FREE ENERGY PREDICTED BY IDOCK:   -3.64 KCAL/MOL
REMARK 923 INTER-LIGAND FREE ENERGY PREDICTED BY IDOCK:   -4.58 KCAL/MOL
REMARK 924 INTRA-LIGAND FREE ENERGY PREDICTED BY IDOCK:    0.93 KCAL/MOL
REMARK 927      BINDING AFFINITY PREDICTED BY RF-SCORE:    0.00 PKD
ROOT
HETATM    1  C   UNL     1     -10.940   6.747  68.202  1.00  0.00    -0.277 C  
HETATM    2  C   UNL     1     -10.809   5.800  69.241  1.00  0.00    -0.374 C  
HETATM    3  C   UNL     1      -9.657   6.784  69.247  1.00  0.00    -0.144 C  
HETATM    4  C   UNL     1      -9.865   8.424  68.013  1.00  0.00    -0.169 C  
HETATM    5  C   UNL     1      -9.117   6.490  70.816  1.00  0.00    -0.154 C  
HETATM    6  O   UNL     1     -11.121   8.695  67.271  1.00  0.00    -0.387 OA 
HETATM    7  C   UNL     1      -6.538   4.152  67.169  1.00  0.00    -0.046 C  
HETATM    8  C   UNL     1     -10.116   8.121  69.303  1.00  0.00    -0.202 C  
HETATM    9  C   UNL     1      -8.195   8.293  69.013  1.00  0.00    -0.119 C  
HETATM   10  C   UNL     1     -11.095   8.784  70.278  1.00  0.00    -0.240 C  
HETATM   11  C   UNL     1      -7.583   4.833  66.187  1.00  0.00    -0.090 C  
HETATM   12  C   UNL     1      -6.730   5.222  64.992  1.00  0.00    -0.048 C  
HETATM   13  H   UNL     1     -11.217   9.450  66.703  1.00  0.00     0.000 HD 
HETATM   14  C   UNL     1      -7.575   7.233  67.679  1.00  0.00    -0.110 C  
HETATM   15  C   UNL     1      -6.562   4.363  63.958  1.00  0.00    -0.042 C  
HETATM   16  O   UNL     1      -7.218   2.308  62.915  1.00  0.00    -0.038 OA 
HETATM   17  O   UNL     1      -7.260   8.079  66.565  1.00  0.00    -0.077 OA 
HETATM   18  C   UNL     1      -8.417   5.826  67.112  1.00  0.00    -0.107 C  
HETATM   19  H   UNL     1      -6.935   7.523  65.866  1.00  0.00     0.000 HD 
HETATM   20  C   UNL     1      -9.971   6.182  66.797  1.00  0.00    -0.218 C  
HETATM   21  F   UNL     1      -8.557   4.877  68.155  1.00  0.00    -0.101 F  
HETATM   22  C   UNL     1     -10.696   4.977  66.179  1.00  0.00    -0.264 C  
HETATM   23  C   UNL     1      -9.872   4.315  65.094  1.00  0.00    -0.200 C  
HETATM   24  F   UNL     1     -10.615   3.324  64.543  1.00  0.00    -0.128 F  
HETATM   25  C   UNL     1      -8.574   3.759  65.654  1.00  0.00    -0.112 C  
HETATM   26  C   UNL     1      -8.056   2.634  65.126  1.00  0.00    -0.083 C  
HETATM   27  C   UNL     1      -7.289   3.044  63.894  1.00  0.00    -0.065 C  
ENDROOT
BRANCH   4  28
HETATM   28  C   UNL     1      -9.718  10.124  68.289  1.00  0.00    -0.141 C  
HETATM   29  O   UNL     1      -9.678  10.692  69.392  1.00  0.00    -0.198 OA 
BRANCH  28  30
HETATM   30  C   UNL     1      -9.555  11.043  67.073  1.00  0.00    -0.177 C  
HETATM   31  O   UNL     1     -10.846  11.443  66.614  1.00  0.00    -0.269 OA 
HETATM   32  H   UNL     1     -10.746  12.013  65.861  1.00  0.00     0.000 HD 
ENDBRANCH  28  30
ENDBRANCH   4  28
TORSDOF 2
ENDMDL
MODEL       82
REMARK 921   NORMALIZED FREE ENERGY PREDICTED BY IDOCK:   -3.78 KCAL/MOL
REMARK 922        TOTAL FREE ENERGY PREDICTED BY IDOCK:   -3.51 KCAL/MOL
REMARK 923 INTER-LIGAND FREE ENERGY PREDICTED BY IDOCK:   -4.66 KCAL/MOL
REMARK 924 INTRA-LIGAND FREE ENERGY PREDICTED BY IDOCK:    1.15 KCAL/MOL
REMARK 927      BINDING AFFINITY PREDICTED BY RF-SCORE:    0.00 PKD
ROOT
HETATM    1  C   UNL     1      -8.379  10.392  65.709  1.00  0.00    -0.158 C  
HETATM    2  C   UNL     1      -9.669  10.568  65.161  1.00  0.00    -0.341 C  
HETATM    3  C   UNL     1      -9.689  10.707  66.670  1.00  0.00    -0.225 C  
HETATM    4  C   UNL     1      -7.846  10.810  67.592  1.00  0.00    -0.109 C  
HETATM    5  C   UNL     1     -11.174  11.495  66.803  1.00  0.00    -0.350 C  
HETATM    6  O   UNL     1      -6.583  10.882  66.817  1.00  0.00    -0.097 OA 
HETATM    7  C   UNL     1     -11.270   6.532  67.691  1.00  0.00    -0.274 C  
HETATM    8  C   UNL     1      -8.762  11.678  67.115  1.00  0.00    -0.164 C  
HETATM    9  C   UNL     1      -9.408  10.855  68.761  1.00  0.00    -0.190 C  
HETATM   10  C   UNL     1      -8.573  13.134  66.672  1.00  0.00     0.042 C  
HETATM   11  C   UNL     1      -9.721   6.584  67.349  1.00  0.00    -0.150 C  
HETATM   12  C   UNL     1      -9.116   5.611  68.349  1.00  0.00    -0.121 C  
HETATM   13  H   UNL     1      -5.735  10.929  67.242  1.00  0.00     0.000 HD 
HETATM   14  C   UNL     1      -9.400   9.043  68.704  1.00  0.00    -0.136 C  
HETATM   15  C   UNL     1      -8.977   4.300  68.036  1.00  0.00    -0.148 C  
HETATM   16  O   UNL     1      -9.094   2.607  66.344  1.00  0.00    -0.148 OA 
HETATM   17  O   UNL     1      -8.334   8.588  69.549  1.00  0.00    -0.114 OA 
HETATM   18  C   UNL     1      -9.387   8.136  67.225  1.00  0.00    -0.141 C  
HETATM   19  H   UNL     1      -8.330   7.639  69.520  1.00  0.00     0.000 HD 
HETATM   20  C   UNL     1      -8.219   8.679  66.235  1.00  0.00    -0.116 C  
HETATM   21  F   UNL     1     -10.548   8.414  66.462  1.00  0.00    -0.371 F  
HETATM   22  C   UNL     1      -8.116   7.807  64.975  1.00  0.00    -0.139 C  
HETATM   23  C   UNL     1      -8.154   6.329  65.304  1.00  0.00    -0.132 C  
HETATM   24  F   UNL     1      -7.970   5.634  64.155  1.00  0.00    -0.093 F  
HETATM   25  C   UNL     1      -9.473   5.946  65.953  1.00  0.00    -0.033 C  
HETATM   26  C   UNL     1      -9.994   4.726  65.718  1.00  0.00    -0.225 C  
HETATM   27  C   UNL     1      -9.311   3.771  66.663  1.00  0.00    -0.190 C  
ENDROOT
BRANCH   4  28
HETATM   28  C   UNL     1      -7.162  11.926  68.721  1.00  0.00    -0.112 C  
HETATM   29  O   UNL     1      -7.604  13.050  69.008  1.00  0.00    -0.008 OA 
BRANCH  28  30
HETATM   30  C   UNL     1      -5.921  11.489  69.507  1.00  0.00    -0.086 C  
HETATM   31  O   UNL     1      -5.863  12.222  70.731  1.00  0.00    -0.336 OA 
HETATM   32  H   UNL     1      -5.094  11.951  71.219  1.00  0.00     0.000 HD 
ENDBRANCH  28  30
ENDBRANCH   4  28
TORSDOF 2
ENDMDL
MODEL       83
REMARK 921   NORMALIZED FREE ENERGY PREDICTED BY IDOCK:   -3.78 KCAL/MOL
REMARK 922        TOTAL FREE ENERGY PREDICTED BY IDOCK:   -3.51 KCAL/MOL
REMARK 923 INTER-LIGAND FREE ENERGY PREDICTED BY IDOCK:   -4.39 KCAL/MOL
REMARK 924 INTRA-LIGAND FREE ENERGY PREDICTED BY IDOCK:    0.88 KCAL/MOL
REMARK 927      BINDING AFFINITY PREDICTED BY RF-SCORE:    0.00 PKD
ROOT
HETATM    1  C   UNL     1      -7.786   5.455  68.528  1.00  0.00    -0.088 C  
HETATM    2  C   UNL     1      -6.689   6.331  68.676  1.00  0.00    -0.061 C  
HETATM    3  C   UNL     1      -6.896   5.493  69.921  1.00  0.00    -0.060 C  
HETATM    4  C   UNL     1      -8.239   3.937  69.749  1.00  0.00    -0.053 C  
HETATM    5  C   UNL     1      -5.375   5.731  70.608  1.00  0.00    -0.012 C  
HETATM    6  O   UNL     1      -8.860   3.575  68.451  1.00  0.00    -0.098 OA 
HETATM    7  C   UNL     1      -9.063   8.625  72.464  1.00  0.00    -0.187 C  
HETATM    8  C   UNL     1      -6.908   4.111  69.622  1.00  0.00    -0.042 C  
HETATM    9  C   UNL     1      -7.420   4.190  71.502  1.00  0.00    -0.059 C  
HETATM   10  C   UNL     1      -5.893   3.264  68.844  1.00  0.00    -0.023 C  
HETATM   11  C   UNL     1      -9.980   7.900  71.391  1.00  0.00    -0.208 C  
HETATM   12  C   UNL     1     -11.292   7.706  72.134  1.00  0.00    -0.341 C  
HETATM   13  H   UNL     1      -9.478   2.858  68.373  1.00  0.00     0.000 HD 
HETATM   14  C   UNL     1      -8.715   5.413  71.839  1.00  0.00    -0.135 C  
HETATM   15  C   UNL     1     -12.258   8.654  72.083  1.00  0.00    -0.453 C  
HETATM   16  O   UNL     1     -13.038  10.688  71.086  1.00  0.00    -0.368 OA 
HETATM   17  O   UNL     1      -9.927   4.697  72.111  1.00  0.00    -0.167 OA 
HETATM   18  C   UNL     1      -9.061   6.749  70.786  1.00  0.00    -0.151 C  
HETATM   19  H   UNL     1     -10.605   5.338  72.287  1.00  0.00     0.000 HD 
HETATM   20  C   UNL     1      -9.234   6.235  69.255  1.00  0.00    -0.133 C  
HETATM   21  F   UNL     1      -7.929   7.593  70.669  1.00  0.00    -0.092 F  
HETATM   22  C   UNL     1      -9.661   7.388  68.333  1.00  0.00    -0.149 C  
HETATM   23  C   UNL     1     -10.767   8.222  68.945  1.00  0.00    -0.062 C  
HETATM   24  F   UNL     1     -11.144   9.156  68.039  1.00  0.00    -0.216 F  
HETATM   25  C   UNL     1     -10.306   8.885  70.232  1.00  0.00    -0.235 C  
HETATM   26  C   UNL     1     -10.786  10.100  70.558  1.00  0.00    -0.340 C  
HETATM   27  C   UNL     1     -12.126   9.878  71.213  1.00  0.00    -0.394 C  
ENDROOT
BRANCH   4  28
HETATM   28  C   UNL     1      -8.131   2.251  70.114  1.00  0.00    -0.041 C  
HETATM   29  O   UNL     1      -7.089   1.595  70.274  1.00  0.00    -0.033 OA 
BRANCH  28  30
HETATM   30  C   UNL     1      -9.434   1.472  70.329  1.00  0.00    -0.082 C  
HETATM   31  O   UNL     1     -10.147   2.050  71.424  1.00  0.00    -0.112 OA 
HETATM   32  H   UNL     1     -10.955   1.568  71.557  1.00  0.00     0.000 HD 
ENDBRANCH  28  30
ENDBRANCH   4  28
TORSDOF 2
ENDMDL
MODEL       84
REMARK 921   NORMALIZED FREE ENERGY PREDICTED BY IDOCK:   -3.76 KCAL/MOL
REMARK 922        TOTAL FREE ENERGY PREDICTED BY IDOCK:   -3.49 KCAL/MOL
REMARK 923 INTER-LIGAND FREE ENERGY PREDICTED BY IDOCK:   -4.22 KCAL/MOL
REMARK 924 INTRA-LIGAND FREE ENERGY PREDICTED BY IDOCK:    0.73 KCAL/MOL
REMARK 927      BINDING AFFINITY PREDICTED BY RF-SCORE:    0.00 PKD
ROOT
HETATM    1  C   UNL     1      -7.540   5.490  69.988  1.00  0.00    -0.077 C  
HETATM    2  C   UNL     1      -6.181   5.796  69.758  1.00  0.00    -0.026 C  
HETATM    3  C   UNL     1      -6.765   6.675  70.844  1.00  0.00    -0.054 C  
HETATM    4  C   UNL     1      -8.634   6.138  71.533  1.00  0.00    -0.131 C  
HETATM    5  C   UNL     1      -5.311   7.195  71.521  1.00  0.00    -0.028 C  
HETATM    6  O   UNL     1      -9.305   4.890  71.091  1.00  0.00    -0.139 OA 
HETATM    7  C   UNL     1      -7.488  10.431  68.326  1.00  0.00    -0.090 C  
HETATM    8  C   UNL     1      -7.351   5.907  71.877  1.00  0.00    -0.094 C  
HETATM    9  C   UNL     1      -7.846   7.741  72.317  1.00  0.00    -0.127 C  
HETATM   10  C   UNL     1      -6.764   4.751  72.697  1.00  0.00    -0.053 C  
HETATM   11  C   UNL     1      -8.588   9.301  68.152  1.00  0.00    -0.125 C  
HETATM   12  C   UNL     1      -9.884  10.091  68.066  1.00  0.00    -0.164 C  
HETATM   13  H   UNL     1     -10.166   4.643  71.408  1.00  0.00     0.000 HD 
HETATM   14  C   UNL     1      -8.511   8.660  70.903  1.00  0.00    -0.166 C  
HETATM   15  C   UNL     1     -10.355  10.510  66.867  1.00  0.00    -0.293 C  
HETATM   16  O   UNL     1     -10.166  10.418  64.480  1.00  0.00    -0.342 OA 
HETATM   17  O   UNL     1      -9.922   8.815  71.113  1.00  0.00    -0.204 OA 
HETATM   18  C   UNL     1      -8.223   8.209  69.253  1.00  0.00    -0.119 C  
HETATM   19  H   UNL     1     -10.270   9.297  70.373  1.00  0.00     0.000 HD 
HETATM   20  C   UNL     1      -8.545   6.633  69.030  1.00  0.00    -0.130 C  
HETATM   21  F   UNL     1      -6.837   8.253  68.962  1.00  0.00    -0.051 F  
HETATM   22  C   UNL     1      -8.411   6.249  67.548  1.00  0.00    -0.108 C  
HETATM   23  C   UNL     1      -9.081   7.258  66.639  1.00  0.00    -0.154 C  
HETATM   24  F   UNL     1      -8.995   6.803  65.365  1.00  0.00    -0.110 F  
HETATM   25  C   UNL     1      -8.426   8.624  66.761  1.00  0.00    -0.117 C  
HETATM   26  C   UNL     1      -8.358   9.422  65.679  1.00  0.00    -0.129 C  
HETATM   27  C   UNL     1      -9.687  10.126  65.571  1.00  0.00    -0.281 C  
ENDROOT
BRANCH   4  28
HETATM   28  C   UNL     1      -9.263   5.859  73.118  1.00  0.00    -0.133 C  
HETATM   29  O   UNL     1      -8.796   6.291  74.184  1.00  0.00    -0.128 OA 
BRANCH  28  30
HETATM   30  C   UNL     1     -10.561   5.054  73.250  1.00  0.00    -0.234 C  
HETATM   31  O   UNL     1     -11.643   5.822  72.721  1.00  0.00    -0.417 OA 
HETATM   32  H   UNL     1     -12.447   5.322  72.802  1.00  0.00     0.000 HD 
ENDBRANCH  28  30
ENDBRANCH   4  28
TORSDOF 2
ENDMDL
MODEL       85
REMARK 921   NORMALIZED FREE ENERGY PREDICTED BY IDOCK:   -3.64 KCAL/MOL
REMARK 922        TOTAL FREE ENERGY PREDICTED BY IDOCK:   -3.35 KCAL/MOL
REMARK 923 INTER-LIGAND FREE ENERGY PREDICTED BY IDOCK:   -3.99 KCAL/MOL
REMARK 924 INTRA-LIGAND FREE ENERGY PREDICTED BY IDOCK:    0.64 KCAL/MOL
REMARK 927      BINDING AFFINITY PREDICTED BY RF-SCORE:    0.00 PKD
ROOT
HETATM    1  C   UNL     1      -9.717   8.592  68.805  1.00  0.00    -0.168 C  
HETATM    2  C   UNL     1     -11.033   8.108  68.637  1.00  0.00     0.161 C  
HETATM    3  C   UNL     1     -10.279   7.302  69.675  1.00  0.00    -0.214 C  
HETATM    4  C   UNL     1      -8.466   8.079  70.279  1.00  0.00    -0.127 C  
HETATM    5  C   UNL     1     -11.612   6.581  70.413  1.00  0.00    -0.470 C  
HETATM    6  O   UNL     1      -7.994   9.411  69.829  1.00  0.00    -0.092 OA 
HETATM    7  C   UNL     1      -9.190   3.711  67.049  1.00  0.00    -0.208 C  
HETATM    8  C   UNL     1      -9.749   8.129  70.692  1.00  0.00    -0.184 C  
HETATM    9  C   UNL     1      -8.989   6.374  71.070  1.00  0.00    -0.146 C  
HETATM   10  C   UNL     1     -10.442   9.184  71.563  1.00  0.00    -0.422 C  
HETATM   11  C   UNL     1      -8.263   4.983  66.843  1.00  0.00    -0.107 C  
HETATM   12  C   UNL     1      -6.879   4.376  66.676  1.00  0.00    -0.055 C  
HETATM   13  H   UNL     1      -7.159   9.769  70.108  1.00  0.00     0.000 HD 
HETATM   14  C   UNL     1      -8.281   5.571  69.607  1.00  0.00    -0.101 C  
HETATM   15  C   UNL     1      -6.419   4.040  65.447  1.00  0.00    -0.036 C  
HETATM   16  O   UNL     1      -6.744   4.137  63.075  1.00  0.00    -0.033 OA 
HETATM   17  O   UNL     1      -6.853   5.606  69.742  1.00  0.00    -0.056 OA 
HETATM   18  C   UNL     1      -8.714   6.000  67.982  1.00  0.00    -0.112 C  
HETATM   19  H   UNL     1      -6.482   5.185  68.976  1.00  0.00     0.000 HD 
HETATM   20  C   UNL     1      -8.619   7.609  67.775  1.00  0.00    -0.121 C  
HETATM   21  F   UNL     1     -10.094   5.773  67.760  1.00  0.00    -0.127 F  
HETATM   22  C   UNL     1      -8.881   7.990  66.309  1.00  0.00    -0.191 C  
HETATM   23  C   UNL     1      -8.130   7.092  65.348  1.00  0.00    -0.137 C  
HETATM   24  F   UNL     1      -8.343   7.548  64.089  1.00  0.00    -0.121 F  
HETATM   25  C   UNL     1      -8.587   5.649  65.476  1.00  0.00    -0.151 C  
HETATM   26  C   UNL     1      -8.604   4.863  64.382  1.00  0.00    -0.142 C  
HETATM   27  C   UNL     1      -7.199   4.348  64.194  1.00  0.00    -0.054 C  
ENDROOT
BRANCH   4  28
HETATM   28  C   UNL     1      -7.798   8.420  71.836  1.00  0.00    -0.125 C  
HETATM   29  O   UNL     1      -8.422   8.489  72.908  1.00  0.00    -0.350 OA 
BRANCH  28  30
HETATM   30  C   UNL     1      -6.280   8.599  71.949  1.00  0.00    -0.071 C  
HETATM   31  O   UNL     1      -5.644   7.857  70.907  1.00  0.00    -0.030 OA 
HETATM   32  H   UNL     1      -4.703   7.968  70.977  1.00  0.00     0.000 HD 
ENDBRANCH  28  30
ENDBRANCH   4  28
TORSDOF 2
ENDMDL
MODEL       86
REMARK 921   NORMALIZED FREE ENERGY PREDICTED BY IDOCK:   -3.59 KCAL/MOL
REMARK 922        TOTAL FREE ENERGY PREDICTED BY IDOCK:   -3.30 KCAL/MOL
REMARK 923 INTER-LIGAND FREE ENERGY PREDICTED BY IDOCK:   -4.58 KCAL/MOL
REMARK 924 INTRA-LIGAND FREE ENERGY PREDICTED BY IDOCK:    1.27 KCAL/MOL
REMARK 927      BINDING AFFINITY PREDICTED BY RF-SCORE:    0.00 PKD
ROOT
HETATM    1  C   UNL     1      -8.191  14.257  67.291  1.00  0.00    -0.212 C  
HETATM    2  C   UNL     1      -8.495  13.756  66.006  1.00  0.00     1.219 C  
HETATM    3  C   UNL     1      -9.645  14.569  66.565  1.00  0.00    -0.311 C  
HETATM    4  C   UNL     1      -9.240  15.644  68.279  1.00  0.00    -0.188 C  
HETATM    5  C   UNL     1     -10.460  14.834  65.114  1.00  0.00    -0.443 C  
HETATM    6  O   UNL     1      -7.874  15.726  68.851  1.00  0.00    -0.160 OA 
HETATM    7  C   UNL     1     -12.281  11.095  67.964  1.00  0.00     0.437 C  
HETATM    8  C   UNL     1      -9.227  15.864  66.949  1.00  0.00    -0.247 C  
HETATM    9  C   UNL     1     -11.064  15.751  67.594  1.00  0.00    -0.283 C  
HETATM   10  C   UNL     1      -8.457  16.925  66.154  1.00  0.00    -0.281 C  
HETATM   11  C   UNL     1     -11.084  11.449  68.945  1.00  0.00    -0.290 C  
HETATM   12  C   UNL     1     -11.709  11.291  70.322  1.00  0.00    -0.415 C  
HETATM   13  H   UNL     1      -7.688  16.221  69.640  1.00  0.00     0.000 HD 
HETATM   14  C   UNL     1     -11.409  14.222  68.504  1.00  0.00    -0.282 C  
HETATM   15  C   UNL     1     -11.668  10.098  70.962  1.00  0.00    -0.470 C  
HETATM   16  O   UNL     1     -10.795   7.867  71.019  1.00  0.00    -0.229 OA 
HETATM   17  O   UNL     1     -11.527  14.562  69.893  1.00  0.00    -0.258 OA 
HETATM   18  C   UNL     1     -10.452  12.782  68.345  1.00  0.00    -0.243 C  
HETATM   19  H   UNL     1     -11.708  13.760  70.370  1.00  0.00     0.000 HD 
HETATM   20  C   UNL     1      -8.874  13.128  68.513  1.00  0.00    -0.045 C  
HETATM   21  F   UNL     1     -10.492  12.306  67.012  1.00  0.00    -0.219 F  
HETATM   22  C   UNL     1      -8.026  11.846  68.496  1.00  0.00    -0.137 C  
HETATM   23  C   UNL     1      -8.624  10.761  69.366  1.00  0.00     0.034 C  
HETATM   24  F   UNL     1      -7.776   9.704  69.367  1.00  0.00    -0.075 F  
HETATM   25  C   UNL     1      -9.994  10.344  68.858  1.00  0.00    -0.208 C  
HETATM   26  C   UNL     1     -10.386   9.063  68.995  1.00  0.00    -0.233 C  
HETATM   27  C   UNL     1     -10.919   8.917  70.398  1.00  0.00    -0.244 C  
ENDROOT
BRANCH   4  28
HETATM   28  C   UNL     1      -9.465  17.305  68.701  1.00  0.00    -0.278 C  
HETATM   29  O   UNL     1     -10.426  17.784  69.325  1.00  0.00    -0.267 OA 
BRANCH  28  30
HETATM   30  C   UNL     1      -8.357  18.300  68.337  1.00  0.00    -0.307 C  
HETATM   31  O   UNL     1      -7.555  18.548  69.492  1.00  0.00     0.057 OA 
HETATM   32  H   UNL     1      -6.868  19.164  69.267  1.00  0.00     0.000 HD 
ENDBRANCH  28  30
ENDBRANCH   4  28
TORSDOF 2
ENDMDL
MODEL       87
REMARK 921   NORMALIZED FREE ENERGY PREDICTED BY IDOCK:   -3.55 KCAL/MOL
REMARK 922        TOTAL FREE ENERGY PREDICTED BY IDOCK:   -3.26 KCAL/MOL
REMARK 923 INTER-LIGAND FREE ENERGY PREDICTED BY IDOCK:   -5.19 KCAL/MOL
REMARK 924 INTRA-LIGAND FREE ENERGY PREDICTED BY IDOCK:    1.94 KCAL/MOL
REMARK 927      BINDING AFFINITY PREDICTED BY RF-SCORE:    0.00 PKD
ROOT
HETATM    1  C   UNL     1     -11.193  12.994  68.632  1.00  0.00    -0.316 C  
HETATM    2  C   UNL     1     -12.405  13.192  67.935  1.00  0.00     0.098 C  
HETATM    3  C   UNL     1     -11.284  12.805  66.991  1.00  0.00    -0.336 C  
HETATM    4  C   UNL     1      -9.538  12.159  67.880  1.00  0.00    -0.198 C  
HETATM    5  C   UNL     1     -12.241  12.340  65.684  1.00  0.00    -0.203 C  
HETATM    6  O   UNL     1      -9.432  11.953  69.346  1.00  0.00    -0.134 OA 
HETATM    7  C   UNL     1     -10.301  16.985  65.399  1.00  0.00    -0.084 C  
HETATM    8  C   UNL     1     -10.662  11.599  67.389  1.00  0.00    -0.277 C  
HETATM    9  C   UNL     1      -9.541  12.249  65.931  1.00  0.00    -0.207 C  
HETATM   10  C   UNL     1     -11.281  10.233  67.710  1.00  0.00    -0.262 C  
HETATM   11  C   UNL     1      -9.689  16.665  66.828  1.00  0.00    -0.271 C  
HETATM   12  C   UNL     1      -8.311  17.302  66.763  1.00  0.00    -0.276 C  
HETATM   13  H   UNL     1      -8.628  11.655  69.755  1.00  0.00     0.000 HD 
HETATM   14  C   UNL     1      -9.103  14.000  66.093  1.00  0.00     0.077 C  
HETATM   15  C   UNL     1      -8.129  18.588  67.151  1.00  0.00    -0.248 C  
HETATM   16  O   UNL     1      -9.060  20.529  68.202  1.00  0.00    -0.051 OA 
HETATM   17  O   UNL     1      -7.716  14.068  66.452  1.00  0.00     0.266 OA 
HETATM   18  C   UNL     1     -10.003  15.122  67.064  1.00  0.00    -0.241 C  
HETATM   19  H   UNL     1      -7.486  14.985  66.537  1.00  0.00     0.000 HD 
HETATM   20  C   UNL     1     -10.242  14.519  68.554  1.00  0.00    -0.240 C  
HETATM   21  F   UNL     1     -11.334  15.229  66.592  1.00  0.00    -0.328 F  
HETATM   22  C   UNL     1     -10.931  15.551  69.460  1.00  0.00    -0.273 C  
HETATM   23  C   UNL     1     -10.307  16.925  69.329  1.00  0.00    -0.298 C  
HETATM   24  F   UNL     1     -10.909  17.750  70.220  1.00  0.00     0.221 F  
HETATM   25  C   UNL     1     -10.461  17.463  67.917  1.00  0.00    -0.383 C  
HETATM   26  C   UNL     1     -10.621  18.787  67.729  1.00  0.00    -0.452 C  
HETATM   27  C   UNL     1      -9.245  19.401  67.758  1.00  0.00    -0.318 C  
ENDROOT
BRANCH   4  28
HETATM   28  C   UNL     1      -8.564  10.748  67.660  1.00  0.00    -0.123 C  
HETATM   29  O   UNL     1      -7.573  10.423  68.334  1.00  0.00    -0.088 OA 
BRANCH  28  30
HETATM   30  C   UNL     1      -8.975   9.748  66.573  1.00  0.00    -0.150 C  
HETATM   31  O   UNL     1      -8.026   8.682  66.537  1.00  0.00    -0.097 OA 
HETATM   32  H   UNL     1      -8.281   8.062  65.864  1.00  0.00     0.000 HD 
ENDBRANCH  28  30
ENDBRANCH   4  28
TORSDOF 2
ENDMDL
MODEL       88
REMARK 921   NORMALIZED FREE ENERGY PREDICTED BY IDOCK:   -3.35 KCAL/MOL
REMARK 922        TOTAL FREE ENERGY PREDICTED BY IDOCK:   -3.03 KCAL/MOL
REMARK 923 INTER-LIGAND FREE ENERGY PREDICTED BY IDOCK:   -4.01 KCAL/MOL
REMARK 924 INTRA-LIGAND FREE ENERGY PREDICTED BY IDOCK:    0.98 KCAL/MOL
REMARK 927      BINDING AFFINITY PREDICTED BY RF-SCORE:    0.00 PKD
ROOT
HETATM    1  C   UNL     1     -10.012   9.262  67.804  1.00  0.00    -0.235 C  
HETATM    2  C   UNL     1      -9.600   9.838  69.025  1.00  0.00    -0.177 C  
HETATM    3  C   UNL     1      -8.472   9.827  68.014  1.00  0.00    -0.118 C  
HETATM    4  C   UNL     1      -8.996   9.328  66.082  1.00  0.00    -0.165 C  
HETATM    5  C   UNL     1      -7.488  10.974  68.761  1.00  0.00    -0.116 C  
HETATM    6  O   UNL     1     -10.410   9.128  65.678  1.00  0.00    -0.216 OA 
HETATM    7  C   UNL     1      -6.218   6.165  69.590  1.00  0.00    -0.030 C  
HETATM    8  C   UNL     1      -8.850  10.457  66.806  1.00  0.00    -0.139 C  
HETATM    9  C   UNL     1      -7.105   9.682  66.407  1.00  0.00    -0.093 C  
HETATM   10  C   UNL     1      -9.464  11.842  66.569  1.00  0.00    -0.225 C  
HETATM   11  C   UNL     1      -7.492   5.823  68.707  1.00  0.00    -0.085 C  
HETATM   12  C   UNL     1      -7.033   4.628  67.888  1.00  0.00    -0.060 C  
HETATM   13  H   UNL     1     -10.651   8.899  64.788  1.00  0.00     0.000 HD 
HETATM   14  C   UNL     1      -6.955   7.953  66.928  1.00  0.00    -0.073 C  
HETATM   15  C   UNL     1      -7.215   3.367  68.350  1.00  0.00    -0.050 C  
HETATM   16  O   UNL     1      -8.221   1.948  69.997  1.00  0.00    -0.041 OA 
HETATM   17  O   UNL     1      -6.969   7.141  65.745  1.00  0.00    -0.058 OA 
HETATM   18  C   UNL     1      -7.973   7.229  68.133  1.00  0.00    -0.123 C  
HETATM   19  H   UNL     1      -6.890   6.235  66.018  1.00  0.00     0.000 HD 
HETATM   20  C   UNL     1      -9.537   7.528  67.809  1.00  0.00    -0.166 C  
HETATM   21  F   UNL     1      -7.817   7.890  69.376  1.00  0.00    -0.103 F  
HETATM   22  C   UNL     1     -10.453   6.791  68.798  1.00  0.00    -0.231 C  
HETATM   23  C   UNL     1     -10.021   5.355  69.008  1.00  0.00    -0.190 C  
HETATM   24  F   UNL     1     -10.926   4.754  69.819  1.00  0.00    -0.002 F  
HETATM   25  C   UNL     1      -8.631   5.285  69.619  1.00  0.00    -0.101 C  
HETATM   26  C   UNL     1      -8.333   4.285  70.470  1.00  0.00    -0.084 C  
HETATM   27  C   UNL     1      -7.967   3.089  69.627  1.00  0.00    -0.045 C  
ENDROOT
BRANCH   4  28
HETATM   28  C   UNL     1      -8.719  10.095  64.558  1.00  0.00    -0.196 C  
HETATM   29  O   UNL     1      -7.618  10.282  64.015  1.00  0.00    -0.142 OA 
BRANCH  28  30
HETATM   30  C   UNL     1      -9.937  10.544  63.742  1.00  0.00    -0.258 C  
HETATM   31  O   UNL     1      -9.635  11.781  63.096  1.00  0.00    -0.489 OA 
HETATM   32  H   UNL     1     -10.390  12.059  62.590  1.00  0.00     0.000 HD 
ENDBRANCH  28  30
ENDBRANCH   4  28
TORSDOF 2
ENDMDL
MODEL       89
REMARK 921   NORMALIZED FREE ENERGY PREDICTED BY IDOCK:   -3.29 KCAL/MOL
REMARK 922        TOTAL FREE ENERGY PREDICTED BY IDOCK:   -2.97 KCAL/MOL
REMARK 923 INTER-LIGAND FREE ENERGY PREDICTED BY IDOCK:   -4.81 KCAL/MOL
REMARK 924 INTRA-LIGAND FREE ENERGY PREDICTED BY IDOCK:    1.85 KCAL/MOL
REMARK 927      BINDING AFFINITY PREDICTED BY RF-SCORE:    0.00 PKD
ROOT
HETATM    1  C   UNL     1     -11.563  13.550  67.239  1.00  0.00    -0.398 C  
HETATM    2  C   UNL     1     -11.843  13.035  68.524  1.00  0.00    -0.360 C  
HETATM    3  C   UNL     1     -10.769  14.102  68.581  1.00  0.00    -0.263 C  
HETATM    4  C   UNL     1     -10.479  15.186  66.850  1.00  0.00    -0.282 C  
HETATM    5  C   UNL     1     -10.865  14.431  70.232  1.00  0.00     0.175 C  
HETATM    6  O   UNL     1     -11.360  15.025  65.666  1.00  0.00    -0.345 OA 
HETATM    7  C   UNL     1      -7.123  11.345  68.854  1.00  0.00    -0.109 C  
HETATM    8  C   UNL     1     -11.201  15.308  67.982  1.00  0.00    -0.330 C  
HETATM    9  C   UNL     1      -9.312  15.618  68.352  1.00  0.00    -0.195 C  
HETATM   10  C   UNL     1     -12.470  16.132  68.234  1.00  0.00     1.317 C  
HETATM   11  C   UNL     1      -7.713  11.513  67.390  1.00  0.00    -0.143 C  
HETATM   12  C   UNL     1      -6.468  11.579  66.521  1.00  0.00    -0.037 C  
HETATM   13  H   UNL     1     -11.226  15.524  64.869  1.00  0.00     0.000 HD 
HETATM   14  C   UNL     1      -8.245  14.256  67.808  1.00  0.00    -0.174 C  
HETATM   15  C   UNL     1      -5.930  10.449  66.002  1.00  0.00    -0.096 C  
HETATM   16  O   UNL     1      -6.165   8.096  65.616  1.00  0.00    -0.044 OA 
HETATM   17  O   UNL     1      -7.524  14.707  66.653  1.00  0.00    -0.211 OA 
HETATM   18  C   UNL     1      -8.825  12.644  67.530  1.00  0.00    -0.186 C  
HETATM   19  H   UNL     1      -6.965  13.994  66.368  1.00  0.00     0.000 HD 
HETATM   20  C   UNL     1     -10.140  12.670  66.578  1.00  0.00    -0.257 C  
HETATM   21  F   UNL     1      -9.357  12.097  68.723  1.00  0.00    -0.161 F  
HETATM   22  C   UNL     1     -10.591  11.244  66.225  1.00  0.00    -0.315 C  
HETATM   23  C   UNL     1      -9.425  10.365  65.822  1.00  0.00    -0.198 C  
HETATM   24  F   UNL     1      -9.915   9.160  65.444  1.00  0.00    -0.323 F  
HETATM   25  C   UNL     1      -8.440  10.204  66.967  1.00  0.00    -0.129 C  
HETATM   26  C   UNL     1      -7.772   9.043  67.105  1.00  0.00    -0.099 C  
HETATM   27  C   UNL     1      -6.593   9.104  66.167  1.00  0.00    -0.069 C  
ENDROOT
BRANCH   4  28
HETATM   28  C   UNL     1     -10.430  16.882  66.523  1.00  0.00    -0.253 C  
HETATM   29  O   UNL     1     -10.535  17.423  65.411  1.00  0.00    -0.648 OA 
BRANCH  28  30
HETATM   30  C   UNL     1     -10.309  17.844  67.711  1.00  0.00    -0.387 C  
HETATM   31  O   UNL     1      -9.509  18.963  67.326  1.00  0.00    -0.295 OA 
HETATM   32  H   UNL     1      -9.435  19.559  68.062  1.00  0.00     0.000 HD 
ENDBRANCH  28  30
ENDBRANCH   4  28
TORSDOF 2
ENDMDL
MODEL       90
REMARK 921   NORMALIZED FREE ENERGY PREDICTED BY IDOCK:   -3.26 KCAL/MOL
REMARK 922        TOTAL FREE ENERGY PREDICTED BY IDOCK:   -2.94 KCAL/MOL
REMARK 923 INTER-LIGAND FREE ENERGY PREDICTED BY IDOCK:   -4.57 KCAL/MOL
REMARK 924 INTRA-LIGAND FREE ENERGY PREDICTED BY IDOCK:    1.63 KCAL/MOL
REMARK 927      BINDING AFFINITY PREDICTED BY RF-SCORE:    0.00 PKD
ROOT
HETATM    1  C   UNL     1     -10.098   7.779  69.837  1.00  0.00    -0.203 C  
HETATM    2  C   UNL     1      -9.693   6.997  68.733  1.00  0.00    -0.143 C  
HETATM    3  C   UNL     1      -8.736   6.842  69.897  1.00  0.00    -0.141 C  
HETATM    4  C   UNL     1      -9.358   7.649  71.691  1.00  0.00    -0.138 C  
HETATM    5  C   UNL     1      -7.987   5.421  69.386  1.00  0.00    -0.089 C  
HETATM    6  O   UNL     1     -10.715   8.224  71.865  1.00  0.00    -0.243 OA 
HETATM    7  C   UNL     1      -5.450   9.671  68.425  1.00  0.00    -0.036 C  
HETATM    8  C   UNL     1      -9.411   6.450  71.076  1.00  0.00    -0.181 C  
HETATM    9  C   UNL     1      -7.593   6.819  71.676  1.00  0.00    -0.088 C  
HETATM   10  C   UNL     1     -10.380   5.285  71.314  1.00  0.00    -0.292 C  
HETATM   11  C   UNL     1      -6.698  10.398  69.084  1.00  0.00    -0.061 C  
HETATM   12  C   UNL     1      -6.059  11.527  69.877  1.00  0.00    -0.141 C  
HETATM   13  H   UNL     1     -11.001   8.595  72.691  1.00  0.00     0.000 HD 
HETATM   14  C   UNL     1      -6.946   8.399  71.065  1.00  0.00    -0.056 C  
HETATM   15  C   UNL     1      -5.857  12.739  69.307  1.00  0.00    -0.087 C  
HETATM   16  O   UNL     1      -6.255  14.180  67.435  1.00  0.00    -0.336 OA 
HETATM   17  O   UNL     1      -6.905   9.308  72.174  1.00  0.00    -0.308 OA 
HETATM   18  C   UNL     1      -7.587   9.217  69.675  1.00  0.00    -0.080 C  
HETATM   19  H   UNL     1      -6.566  10.135  71.854  1.00  0.00     0.000 HD 
HETATM   20  C   UNL     1      -9.203   9.338  69.783  1.00  0.00    -0.191 C  
HETATM   21  F   UNL     1      -7.445   8.413  68.517  1.00  0.00    -0.085 F  
HETATM   22  C   UNL     1      -9.771  10.166  68.620  1.00  0.00    -0.167 C  
HETATM   23  C   UNL     1      -8.966  11.427  68.377  1.00  0.00    -0.172 C  
HETATM   24  F   UNL     1      -9.580  12.140  67.402  1.00  0.00    -0.172 F  
HETATM   25  C   UNL     1      -7.538  11.097  67.977  1.00  0.00    -0.100 C  
HETATM   26  C   UNL     1      -6.892  11.903  67.113  1.00  0.00    -0.144 C  
HETATM   27  C   UNL     1      -6.347  13.056  67.916  1.00  0.00    -0.134 C  
ENDROOT
BRANCH   4  28
HETATM   28  C   UNL     1      -9.480   7.000  73.288  1.00  0.00    -0.166 C  
HETATM   29  O   UNL     1     -10.527   6.795  73.924  1.00  0.00    -0.347 OA 
BRANCH  28  30
HETATM   30  C   UNL     1      -8.189   6.567  73.993  1.00  0.00    -0.118 C  
HETATM   31  O   UNL     1      -7.541   7.720  74.529  1.00  0.00    -0.148 OA 
HETATM   32  H   UNL     1      -6.741   7.452  74.967  1.00  0.00     0.000 HD 
ENDBRANCH  28  30
ENDBRANCH   4  28
TORSDOF 2
ENDMDL
MODEL       91
REMARK 921   NORMALIZED FREE ENERGY PREDICTED BY IDOCK:   -3.16 KCAL/MOL
REMARK 922        TOTAL FREE ENERGY PREDICTED BY IDOCK:   -2.82 KCAL/MOL
REMARK 923 INTER-LIGAND FREE ENERGY PREDICTED BY IDOCK:   -3.52 KCAL/MOL
REMARK 924 INTRA-LIGAND FREE ENERGY PREDICTED BY IDOCK:    0.70 KCAL/MOL
REMARK 927      BINDING AFFINITY PREDICTED BY RF-SCORE:    0.00 PKD
ROOT
HETATM    1  C   UNL     1     -10.366   8.026  68.333  1.00  0.00    -0.236 C  
HETATM    2  C   UNL     1     -11.380   8.474  69.206  1.00  0.00     0.410 C  
HETATM    3  C   UNL     1     -10.135   9.329  69.325  1.00  0.00    -0.201 C  
HETATM    4  C   UNL     1      -8.687   9.019  67.888  1.00  0.00    -0.129 C  
HETATM    5  C   UNL     1     -10.844  10.656  70.085  1.00  0.00    -0.224 C  
HETATM    6  O   UNL     1      -8.908   8.115  66.733  1.00  0.00    -0.128 OA 
HETATM    7  C   UNL     1      -8.417   7.457  73.134  1.00  0.00    -0.164 C  
HETATM    8  C   UNL     1      -9.737   9.846  68.070  1.00  0.00    -0.160 C  
HETATM    9  C   UNL     1      -8.278  10.339  69.265  1.00  0.00    -0.164 C  
HETATM   10  C   UNL     1     -10.547  10.621  67.024  1.00  0.00    -0.317 C  
HETATM   11  C   UNL     1      -8.150   6.620  71.812  1.00  0.00    -0.103 C  
HETATM   12  C   UNL     1      -6.730   6.115  72.005  1.00  0.00    -0.064 C  
HETATM   13  H   UNL     1      -8.241   7.973  66.072  1.00  0.00     0.000 HD 
HETATM   14  C   UNL     1      -7.704   8.964  70.298  1.00  0.00    -0.090 C  
HETATM   15  C   UNL     1      -6.499   4.926  72.611  1.00  0.00    -0.043 C  
HETATM   16  O   UNL     1      -7.421   2.891  73.478  1.00  0.00    -0.048 OA 
HETATM   17  O   UNL     1      -6.421   8.556  69.801  1.00  0.00    -0.035 OA 
HETATM   18  C   UNL     1      -8.664   7.558  70.631  1.00  0.00    -0.141 C  
HETATM   19  H   UNL     1      -6.120   7.836  70.341  1.00  0.00     0.000 HD 
HETATM   20  C   UNL     1      -9.266   6.941  69.254  1.00  0.00    -0.139 C  
HETATM   21  F   UNL     1      -9.850   7.918  71.316  1.00  0.00    -0.170 F  
HETATM   22  C   UNL     1     -10.016   5.627  69.522  1.00  0.00    -0.263 C  
HETATM   23  C   UNL     1      -9.240   4.711  70.445  1.00  0.00    -0.125 C  
HETATM   24  F   UNL     1      -9.924   3.546  70.558  1.00  0.00    -0.252 F  
HETATM   25  C   UNL     1      -9.043   5.347  71.810  1.00  0.00    -0.152 C  
HETATM   26  C   UNL     1      -9.023   4.565  72.906  1.00  0.00    -0.125 C  
HETATM   27  C   UNL     1      -7.626   4.010  73.020  1.00  0.00    -0.075 C  
ENDROOT
BRANCH   4  28
HETATM   28  C   UNL     1      -7.840  10.090  66.828  1.00  0.00    -0.110 C  
HETATM   29  O   UNL     1      -7.545  11.274  67.057  1.00  0.00    -0.128 OA 
BRANCH  28  30
HETATM   30  C   UNL     1      -7.334   9.534  65.492  1.00  0.00    -0.094 C  
HETATM   31  O   UNL     1      -6.297   8.585  65.743  1.00  0.00    -0.051 OA 
HETATM   32  H   UNL     1      -5.984   8.241  64.915  1.00  0.00     0.000 HD 
ENDBRANCH  28  30
ENDBRANCH   4  28
TORSDOF 2
ENDMDL
MODEL       92
REMARK 921   NORMALIZED FREE ENERGY PREDICTED BY IDOCK:   -3.09 KCAL/MOL
REMARK 922        TOTAL FREE ENERGY PREDICTED BY IDOCK:   -2.74 KCAL/MOL
REMARK 923 INTER-LIGAND FREE ENERGY PREDICTED BY IDOCK:   -3.35 KCAL/MOL
REMARK 924 INTRA-LIGAND FREE ENERGY PREDICTED BY IDOCK:    0.61 KCAL/MOL
REMARK 927      BINDING AFFINITY PREDICTED BY RF-SCORE:    0.00 PKD
ROOT
HETATM    1  C   UNL     1      -7.200   8.941  67.050  1.00  0.00    -0.079 C  
HETATM    2  C   UNL     1      -8.247   9.529  66.310  1.00  0.00    -0.115 C  
HETATM    3  C   UNL     1      -8.720   9.098  67.683  1.00  0.00    -0.120 C  
HETATM    4  C   UNL     1      -7.244   8.528  69.008  1.00  0.00    -0.073 C  
HETATM    5  C   UNL     1     -10.128  10.024  67.739  1.00  0.00    -0.222 C  
HETATM    6  O   UNL     1      -5.803   8.663  68.683  1.00  0.00    -0.043 OA 
HETATM    7  C   UNL     1     -10.770   5.186  66.470  1.00  0.00    -0.262 C  
HETATM    8  C   UNL     1      -7.920   9.656  68.707  1.00  0.00    -0.089 C  
HETATM    9  C   UNL     1      -9.083   8.404  69.647  1.00  0.00    -0.153 C  
HETATM   10  C   UNL     1      -7.524  11.115  68.961  1.00  0.00    -0.124 C  
HETATM   11  C   UNL     1      -9.190   5.091  66.591  1.00  0.00    -0.129 C  
HETATM   12  C   UNL     1      -8.975   3.727  67.226  1.00  0.00    -0.158 C  
HETATM   13  H   UNL     1      -5.124   8.400  69.293  1.00  0.00     0.000 HD 
HETATM   14  C   UNL     1      -9.160   6.772  68.862  1.00  0.00    -0.133 C  
HETATM   15  C   UNL     1      -8.821   2.625  66.453  1.00  0.00    -0.136 C  
HETATM   16  O   UNL     1      -8.510   1.732  64.252  1.00  0.00    -0.077 OA 
HETATM   17  O   UNL     1      -8.430   5.858  69.692  1.00  0.00    -0.115 OA 
HETATM   18  C   UNL     1      -8.747   6.494  67.200  1.00  0.00    -0.111 C  
HETATM   19  H   UNL     1      -8.471   5.003  69.281  1.00  0.00     0.000 HD 
HETATM   20  C   UNL     1      -7.304   7.156  66.855  1.00  0.00    -0.088 C  
HETATM   21  F   UNL     1      -9.602   7.234  66.346  1.00  0.00    -0.212 F  
HETATM   22  C   UNL     1      -6.870   6.813  65.422  1.00  0.00    -0.051 C  
HETATM   23  C   UNL     1      -7.089   5.349  65.099  1.00  0.00    -0.065 C  
HETATM   24  F   UNL     1      -6.603   5.112  63.856  1.00  0.00    -0.030 F  
HETATM   25  C   UNL     1      -8.563   4.987  65.171  1.00  0.00    -0.148 C  
HETATM   26  C   UNL     1      -9.056   4.054  64.334  1.00  0.00    -0.142 C  
HETATM   27  C   UNL     1      -8.748   2.712  64.949  1.00  0.00    -0.111 C  
ENDROOT
BRANCH   4  28
HETATM   28  C   UNL     1      -6.876   9.005  70.627  1.00  0.00    -0.071 C  
HETATM   29  O   UNL     1      -7.402   9.935  71.260  1.00  0.00    -0.223 OA 
BRANCH  28  30
HETATM   30  C   UNL     1      -5.847   8.179  71.408  1.00  0.00    -0.035 C  
HETATM   31  O   UNL     1      -5.980   6.804  71.046  1.00  0.00    -0.031 OA 
HETATM   32  H   UNL     1      -5.343   6.293  71.530  1.00  0.00     0.000 HD 
ENDBRANCH  28  30
ENDBRANCH   4  28
TORSDOF 2
ENDMDL
MODEL       93
REMARK 921   NORMALIZED FREE ENERGY PREDICTED BY IDOCK:   -3.02 KCAL/MOL
REMARK 922        TOTAL FREE ENERGY PREDICTED BY IDOCK:   -2.67 KCAL/MOL
REMARK 923 INTER-LIGAND FREE ENERGY PREDICTED BY IDOCK:   -3.36 KCAL/MOL
REMARK 924 INTRA-LIGAND FREE ENERGY PREDICTED BY IDOCK:    0.69 KCAL/MOL
REMARK 927      BINDING AFFINITY PREDICTED BY RF-SCORE:    0.00 PKD
ROOT
HETATM    1  C   UNL     1      -8.831   9.330  64.676  1.00  0.00    -0.218 C  
HETATM    2  C   UNL     1      -8.011   9.870  63.661  1.00  0.00    -0.147 C  
HETATM    3  C   UNL     1      -7.211   9.000  64.609  1.00  0.00    -0.097 C  
HETATM    4  C   UNL     1      -8.309   7.873  65.944  1.00  0.00    -0.132 C  
HETATM    5  C   UNL     1      -5.867   8.764  63.620  1.00  0.00    -0.072 C  
HETATM    6  O   UNL     1      -9.791   7.812  65.888  1.00  0.00    -0.424 OA 
HETATM    7  C   UNL     1      -5.357  12.330  67.147  1.00  0.00    -0.063 C  
HETATM    8  C   UNL     1      -7.767   7.704  64.720  1.00  0.00    -0.116 C  
HETATM    9  C   UNL     1      -6.368   7.733  66.078  1.00  0.00    -0.042 C  
HETATM   10  C   UNL     1      -8.148   6.700  63.626  1.00  0.00    -0.001 C  
HETATM   11  C   UNL     1      -6.859  11.977  67.521  1.00  0.00    -0.128 C  
HETATM   12  C   UNL     1      -6.866  12.062  69.038  1.00  0.00    -0.105 C  
HETATM   13  H   UNL     1     -10.296   7.293  66.503  1.00  0.00     0.000 HD 
HETATM   14  C   UNL     1      -6.416   9.215  67.122  1.00  0.00    -0.060 C  
HETATM   15  C   UNL     1      -7.155  13.231  69.660  1.00  0.00     0.337 C  
HETATM   16  O   UNL     1      -7.943  15.484  69.455  1.00  0.00    -0.228 OA 
HETATM   17  O   UNL     1      -6.894   8.818  68.415  1.00  0.00    -0.063 OA 
HETATM   18  C   UNL     1      -7.199  10.689  66.648  1.00  0.00    -0.128 C  
HETATM   19  H   UNL     1      -6.919   9.594  68.962  1.00  0.00     0.000 HD 
HETATM   20  C   UNL     1      -8.707  10.388  66.124  1.00  0.00    -0.163 C  
HETATM   21  F   UNL     1      -6.599  11.215  65.478  1.00  0.00    -0.040 F  
HETATM   22  C   UNL     1      -9.454  11.696  65.817  1.00  0.00    -0.244 C  
HETATM   23  C   UNL     1      -9.261  12.727  66.909  1.00  0.00    -0.229 C  
HETATM   24  F   UNL     1     -10.018  13.810  66.607  1.00  0.00    -0.250 F  
HETATM   25  C   UNL     1      -7.799  13.120  67.040  1.00  0.00     0.034 C  
HETATM   26  C   UNL     1      -7.483  14.381  67.390  1.00  0.00    -0.183 C  
HETATM   27  C   UNL     1      -7.584  14.456  68.892  1.00  0.00    -0.128 C  
ENDROOT
BRANCH   4  28
HETATM   28  C   UNL     1      -8.303   6.190  66.340  1.00  0.00    -0.120 C  
HETATM   29  O   UNL     1      -7.314   5.440  66.357  1.00  0.00    -0.079 OA 
BRANCH  28  30
HETATM   30  C   UNL     1      -9.623   5.546  66.779  1.00  0.00    -0.146 C  
HETATM   31  O   UNL     1      -9.899   5.920  68.129  1.00  0.00    -0.122 OA 
HETATM   32  H   UNL     1     -10.717   5.521  68.401  1.00  0.00     0.000 HD 
ENDBRANCH  28  30
ENDBRANCH   4  28
TORSDOF 2
ENDMDL
MODEL       94
REMARK 921   NORMALIZED FREE ENERGY PREDICTED BY IDOCK:   -2.90 KCAL/MOL
REMARK 922        TOTAL FREE ENERGY PREDICTED BY IDOCK:   -2.53 KCAL/MOL
REMARK 923 INTER-LIGAND FREE ENERGY PREDICTED BY IDOCK:   -3.53 KCAL/MOL
REMARK 924 INTRA-LIGAND FREE ENERGY PREDICTED BY IDOCK:    1.00 KCAL/MOL
REMARK 927      BINDING AFFINITY PREDICTED BY RF-SCORE:    0.00 PKD
ROOT
HETATM    1  C   UNL     1      -8.005   6.300  70.517  1.00  0.00    -0.112 C  
HETATM    2  C   UNL     1      -9.123   6.933  71.103  1.00  0.00    -0.150 C  
HETATM    3  C   UNL     1      -9.456   6.392  69.727  1.00  0.00    -0.160 C  
HETATM    4  C   UNL     1      -8.041   5.154  68.878  1.00  0.00    -0.085 C  
HETATM    5  C   UNL     1     -11.135   6.416  69.876  1.00  0.00    -0.444 C  
HETATM    6  O   UNL     1      -6.837   4.710  69.622  1.00  0.00    -0.045 OA 
HETATM    7  C   UNL     1      -9.127  10.314  67.385  1.00  0.00    -0.148 C  
HETATM    8  C   UNL     1      -9.156   5.014  69.624  1.00  0.00    -0.151 C  
HETATM    9  C   UNL     1      -9.625   5.531  67.803  1.00  0.00    -0.138 C  
HETATM   10  C   UNL     1      -9.574   3.846  70.525  1.00  0.00    -0.263 C  
HETATM   11  C   UNL     1      -7.735   9.624  67.713  1.00  0.00    -0.094 C  
HETATM   12  C   UNL     1      -6.933   9.849  66.442  1.00  0.00    -0.095 C  
HETATM   13  H   UNL     1      -6.186   4.140  69.231  1.00  0.00     0.000 HD 
HETATM   14  C   UNL     1      -8.790   7.044  67.252  1.00  0.00    -0.119 C  
HETATM   15  C   UNL     1      -6.167  10.958  66.299  1.00  0.00    -0.134 C  
HETATM   16  O   UNL     1      -5.222  12.904  67.330  1.00  0.00    -0.315 OA 
HETATM   17  O   UNL     1      -7.792   6.663  66.296  1.00  0.00    -0.099 OA 
HETATM   18  C   UNL     1      -8.122   8.215  68.345  1.00  0.00    -0.128 C  
HETATM   19  H   UNL     1      -7.355   7.455  66.007  1.00  0.00     0.000 HD 
HETATM   20  C   UNL     1      -7.179   7.488  69.449  1.00  0.00    -0.082 C  
HETATM   21  F   UNL     1      -9.138   8.763  69.166  1.00  0.00    -0.137 F  
HETATM   22  C   UNL     1      -6.485   8.525  70.346  1.00  0.00    -0.036 C  
HETATM   23  C   UNL     1      -5.905   9.671  69.544  1.00  0.00    -0.033 C  
HETATM   24  F   UNL     1      -5.238  10.489  70.394  1.00  0.00    -0.041 F  
HETATM   25  C   UNL     1      -6.997  10.436  68.815  1.00  0.00    -0.068 C  
HETATM   26  C   UNL     1      -6.864  11.764  68.634  1.00  0.00    -0.081 C  
HETATM   27  C   UNL     1      -5.991  11.953  67.419  1.00  0.00    -0.116 C  
ENDROOT
BRANCH   4  28
HETATM   28  C   UNL     1      -8.133   3.576  68.180  1.00  0.00    -0.078 C  
HETATM   29  O   UNL     1      -8.758   3.257  67.155  1.00  0.00    -0.105 OA 
BRANCH  28  30
HETATM   30  C   UNL     1      -7.324   2.448  68.831  1.00  0.00    -0.044 C  
HETATM   31  O   UNL     1      -6.641   1.716  67.814  1.00  0.00    -0.028 OA 
HETATM   32  H   UNL     1      -6.139   1.017  68.217  1.00  0.00     0.000 HD 
ENDBRANCH  28  30
ENDBRANCH   4  28
TORSDOF 2
ENDMDL
MODEL       95
REMARK 921   NORMALIZED FREE ENERGY PREDICTED BY IDOCK:   -2.87 KCAL/MOL
REMARK 922        TOTAL FREE ENERGY PREDICTED BY IDOCK:   -2.50 KCAL/MOL
REMARK 923 INTER-LIGAND FREE ENERGY PREDICTED BY IDOCK:   -3.34 KCAL/MOL
REMARK 924 INTRA-LIGAND FREE ENERGY PREDICTED BY IDOCK:    0.85 KCAL/MOL
REMARK 927      BINDING AFFINITY PREDICTED BY RF-SCORE:    0.00 PKD
ROOT
HETATM    1  C   UNL     1      -9.949  10.906  69.943  1.00  0.00     0.396 C  
HETATM    2  C   UNL     1     -11.313  10.567  70.079  1.00  0.00    -0.392 C  
HETATM    3  C   UNL     1     -10.630   9.694  69.046  1.00  0.00    -0.237 C  
HETATM    4  C   UNL     1      -8.573   9.832  68.966  1.00  0.00    -0.146 C  
HETATM    5  C   UNL     1     -11.780   8.463  68.996  1.00  0.00     1.340 C  
HETATM    6  O   UNL     1      -7.800  10.631  69.949  1.00  0.00    -0.363 OA 
HETATM    7  C   UNL     1     -12.090  11.865  65.287  1.00  0.00     0.022 C  
HETATM    8  C   UNL     1      -9.487   9.054  69.580  1.00  0.00    -0.164 C  
HETATM    9  C   UNL     1      -9.416   8.635  67.677  1.00  0.00    -0.169 C  
HETATM   10  C   UNL     1      -9.337   8.206  70.849  1.00  0.00    -0.173 C  
HETATM   11  C   UNL     1     -10.871  12.568  66.022  1.00  0.00    -0.309 C  
HETATM   12  C   UNL     1     -10.007  13.052  64.869  1.00  0.00    -0.151 C  
HETATM   13  H   UNL     1      -6.853  10.694  69.911  1.00  0.00     0.000 HD 
HETATM   14  C   UNL     1      -9.663  10.084  66.616  1.00  0.00    -0.194 C  
HETATM   15  C   UNL     1     -10.192  14.286  64.341  1.00  0.00     0.363 C  
HETATM   16  O   UNL     1     -11.275  16.416  64.521  1.00  0.00    -0.697 OA 
HETATM   17  O   UNL     1      -8.397  10.410  66.027  1.00  0.00    -0.137 OA 
HETATM   18  C   UNL     1     -10.436  11.540  67.157  1.00  0.00    -0.224 C  
HETATM   19  H   UNL     1      -8.526  11.169  65.471  1.00  0.00     0.000 HD 
HETATM   20  C   UNL     1      -9.785  12.042  68.558  1.00  0.00    -0.165 C  
HETATM   21  F   UNL     1     -11.771  11.275  67.551  1.00  0.00    -0.347 F  
HETATM   22  C   UNL     1     -10.376  13.394  68.986  1.00  0.00    -0.004 C  
HETATM   23  C   UNL     1     -10.447  14.372  67.831  1.00  0.00    -0.239 C  
HETATM   24  F   UNL     1     -10.893  15.559  68.308  1.00  0.00    -0.254 F  
HETATM   25  C   UNL     1     -11.366  13.859  66.735  1.00  0.00    -0.347 C  
HETATM   26  C   UNL     1     -12.086  14.738  66.013  1.00  0.00    -0.101 C  
HETATM   27  C   UNL     1     -11.175  15.265  64.932  1.00  0.00    -0.415 C  
ENDROOT
BRANCH   4  28
HETATM   28  C   UNL     1      -7.316   8.646  69.013  1.00  0.00    -0.077 C  
HETATM   29  O   UNL     1      -7.437   7.434  68.776  1.00  0.00    -0.096 OA 
BRANCH  28  30
HETATM   30  C   UNL     1      -5.888   9.117  69.313  1.00  0.00    -0.035 C  
HETATM   31  O   UNL     1      -5.426   8.476  70.503  1.00  0.00    -0.028 OA 
HETATM   32  H   UNL     1      -4.541   8.768  70.689  1.00  0.00     0.000 HD 
ENDBRANCH  28  30
ENDBRANCH   4  28
TORSDOF 2
ENDMDL
MODEL       96
REMARK 921   NORMALIZED FREE ENERGY PREDICTED BY IDOCK:   -2.86 KCAL/MOL
REMARK 922        TOTAL FREE ENERGY PREDICTED BY IDOCK:   -2.48 KCAL/MOL
REMARK 923 INTER-LIGAND FREE ENERGY PREDICTED BY IDOCK:   -3.43 KCAL/MOL
REMARK 924 INTRA-LIGAND FREE ENERGY PREDICTED BY IDOCK:    0.95 KCAL/MOL
REMARK 927      BINDING AFFINITY PREDICTED BY RF-SCORE:    0.00 PKD
ROOT
HETATM    1  C   UNL     1      -6.422   6.560  69.300  1.00  0.00    -0.040 C  
HETATM    2  C   UNL     1      -5.667   7.592  69.898  1.00  0.00    -0.023 C  
HETATM    3  C   UNL     1      -7.054   7.506  70.501  1.00  0.00    -0.056 C  
HETATM    4  C   UNL     1      -8.165   5.847  69.979  1.00  0.00    -0.121 C  
HETATM    5  C   UNL     1      -6.743   8.381  71.908  1.00  0.00    -0.083 C  
HETATM    6  O   UNL     1      -7.592   4.740  69.174  1.00  0.00    -0.056 OA 
HETATM    7  C   UNL     1      -8.981  10.967  68.203  1.00  0.00    -0.152 C  
HETATM    8  C   UNL     1      -7.334   6.205  70.979  1.00  0.00    -0.083 C  
HETATM    9  C   UNL     1      -9.035   7.144  71.148  1.00  0.00    -0.145 C  
HETATM   10  C   UNL     1      -6.527   5.312  71.930  1.00  0.00    -0.040 C  
HETATM   11  C   UNL     1      -8.866   9.615  67.381  1.00  0.00    -0.134 C  
HETATM   12  C   UNL     1     -10.177   9.567  66.613  1.00  0.00    -0.310 C  
HETATM   13  H   UNL     1      -8.103   3.977  68.934  1.00  0.00     0.000 HD 
HETATM   14  C   UNL     1      -9.497   8.059  69.654  1.00  0.00    -0.163 C  
HETATM   15  C   UNL     1     -10.272  10.121  65.380  1.00  0.00    -0.281 C  
HETATM   16  O   UNL     1      -9.134  11.118  63.522  1.00  0.00    -0.188 OA 
HETATM   17  O   UNL     1     -10.581   7.354  69.032  1.00  0.00    -0.214 OA 
HETATM   18  C   UNL     1      -8.355   8.541  68.440  1.00  0.00    -0.124 C  
HETATM   19  H   UNL     1     -10.823   7.834  68.250  1.00  0.00     0.000 HD 
HETATM   20  C   UNL     1      -7.431   7.280  67.997  1.00  0.00    -0.102 C  
HETATM   21  F   UNL     1      -7.385   9.415  68.990  1.00  0.00    -0.067 F  
HETATM   22  C   UNL     1      -6.498   7.663  66.837  1.00  0.00    -0.054 C  
HETATM   23  C   UNL     1      -7.226   8.439  65.759  1.00  0.00    -0.072 C  
HETATM   24  F   UNL     1      -6.361   8.659  64.739  1.00  0.00    -0.062 F  
HETATM   25  C   UNL     1      -7.759   9.756  66.297  1.00  0.00    -0.103 C  
HETATM   26  C   UNL     1      -7.808  10.829  65.486  1.00  0.00    -0.041 C  
HETATM   27  C   UNL     1      -9.074  10.706  64.676  1.00  0.00    -0.211 C  
ENDROOT
BRANCH   4  28
HETATM   28  C   UNL     1      -9.016   4.667  70.910  1.00  0.00    -0.120 C  
HETATM   29  O   UNL     1      -9.924   4.887  71.728  1.00  0.00    -0.175 OA 
BRANCH  28  30
HETATM   30  C   UNL     1      -8.683   3.188  70.682  1.00  0.00    -0.075 C  
HETATM   31  O   UNL     1      -9.600   2.383  71.424  1.00  0.00    -0.136 OA 
HETATM   32  H   UNL     1      -9.395   1.467  71.282  1.00  0.00     0.000 HD 
ENDBRANCH  28  30
ENDBRANCH   4  28
TORSDOF 2
ENDMDL
MODEL       97
REMARK 921   NORMALIZED FREE ENERGY PREDICTED BY IDOCK:   -2.73 KCAL/MOL
REMARK 922        TOTAL FREE ENERGY PREDICTED BY IDOCK:   -2.34 KCAL/MOL
REMARK 923 INTER-LIGAND FREE ENERGY PREDICTED BY IDOCK:   -4.40 KCAL/MOL
REMARK 924 INTRA-LIGAND FREE ENERGY PREDICTED BY IDOCK:    2.06 KCAL/MOL
REMARK 927      BINDING AFFINITY PREDICTED BY RF-SCORE:    0.00 PKD
ROOT
HETATM    1  C   UNL     1      -7.036  12.240  67.819  1.00  0.00    -0.114 C  
HETATM    2  C   UNL     1      -7.744  12.176  69.039  1.00  0.00     0.128 C  
HETATM    3  C   UNL     1      -7.993  10.943  68.194  1.00  0.00    -0.117 C  
HETATM    4  C   UNL     1      -6.781  10.724  66.539  1.00  0.00    -0.126 C  
HETATM    5  C   UNL     1      -8.592   9.949  69.416  1.00  0.00    -0.180 C  
HETATM    6  O   UNL     1      -5.646  11.641  66.269  1.00  0.00    -0.390 OA 
HETATM    7  C   UNL     1     -12.078  12.129  66.497  1.00  0.00     0.010 C  
HETATM    8  C   UNL     1      -6.782  10.313  67.823  1.00  0.00    -0.073 C  
HETATM    9  C   UNL     1      -8.142   9.352  66.808  1.00  0.00    -0.109 C  
HETATM   10  C   UNL     1      -5.603   9.859  68.693  1.00  0.00    -0.035 C  
HETATM   11  C   UNL     1     -10.841  12.813  65.774  1.00  0.00    -0.299 C  
HETATM   12  C   UNL     1     -11.246  12.797  64.309  1.00  0.00    -0.409 C  
HETATM   13  H   UNL     1      -5.088  11.540  65.507  1.00  0.00     0.000 HD 
HETATM   14  C   UNL     1      -9.301  10.450  65.949  1.00  0.00    -0.182 C  
HETATM   15  C   UNL     1     -11.930  13.837  63.773  1.00  0.00    -0.365 C  
HETATM   16  O   UNL     1     -12.750  16.070  64.053  1.00  0.00    -0.520 OA 
HETATM   17  O   UNL     1      -9.001  10.386  64.548  1.00  0.00    -0.187 OA 
HETATM   18  C   UNL     1      -9.562  12.104  66.405  1.00  0.00    -0.234 C  
HETATM   19  H   UNL     1      -9.608  10.961  64.098  1.00  0.00     0.000 HD 
HETATM   20  C   UNL     1      -8.144  12.882  66.557  1.00  0.00     0.456 C  
HETATM   21  F   UNL     1     -10.064  12.181  67.728  1.00  0.00    -0.186 F  
HETATM   22  C   UNL     1      -8.365  14.376  66.840  1.00  0.00    -0.109 C  
HETATM   23  C   UNL     1      -9.423  14.974  65.936  1.00  0.00    -0.278 C  
HETATM   24  F   UNL     1      -9.493  16.303  66.187  1.00  0.00    -0.275 F  
HETATM   25  C   UNL     1     -10.774  14.317  66.166  1.00  0.00    -0.295 C  
HETATM   26  C   UNL     1     -11.896  15.050  66.034  1.00  0.00    -0.016 C  
HETATM   27  C   UNL     1     -12.221  15.088  64.562  1.00  0.00    -0.331 C  
ENDROOT
BRANCH   4  28
HETATM   28  C   UNL     1      -5.800   9.420  65.969  1.00  0.00    -0.053 C  
HETATM   29  O   UNL     1      -5.152   9.391  64.911  1.00  0.00    -0.042 OA 
BRANCH  28  30
HETATM   30  C   UNL     1      -5.644   8.187  66.867  1.00  0.00    -0.037 C  
HETATM   31  O   UNL     1      -5.823   7.010  66.078  1.00  0.00    -0.033 OA 
HETATM   32  H   UNL     1      -5.726   6.245  66.634  1.00  0.00     0.000 HD 
ENDBRANCH  28  30
ENDBRANCH   4  28
TORSDOF 2
ENDMDL
MODEL       98
REMARK 921   NORMALIZED FREE ENERGY PREDICTED BY IDOCK:   -0.95 KCAL/MOL
REMARK 922        TOTAL FREE ENERGY PREDICTED BY IDOCK:   -0.36 KCAL/MOL
REMARK 923 INTER-LIGAND FREE ENERGY PREDICTED BY IDOCK:   -2.44 KCAL/MOL
REMARK 924 INTRA-LIGAND FREE ENERGY PREDICTED BY IDOCK:    2.09 KCAL/MOL
REMARK 927      BINDING AFFINITY PREDICTED BY RF-SCORE:    0.00 PKD
ROOT
HETATM    1  C   UNL     1      -9.464  17.076  69.041  1.00  0.00    -0.177 C  
HETATM    2  C   UNL     1      -8.235  16.610  69.557  1.00  0.00     0.322 C  
HETATM    3  C   UNL     1      -8.266  16.521  68.044  1.00  0.00    -0.172 C  
HETATM    4  C   UNL     1      -9.849  17.465  67.117  1.00  0.00    -0.278 C  
HETATM    5  C   UNL     1      -6.606  16.376  67.793  1.00  0.00    -0.158 C  
HETATM    6  O   UNL     1     -10.820  18.295  67.871  1.00  0.00    -0.363 OA 
HETATM    7  C   UNL     1      -9.196  12.052  67.674  1.00  0.00    -0.182 C  
HETATM    8  C   UNL     1      -8.579  17.768  67.456  1.00  0.00    -0.228 C  
HETATM    9  C   UNL     1      -8.596  16.522  65.955  1.00  0.00    -0.241 C  
HETATM   10  C   UNL     1      -7.940  19.145  67.671  1.00  0.00    -0.290 C  
HETATM   11  C   UNL     1     -10.455  12.961  68.003  1.00  0.00    -0.237 C  
HETATM   12  C   UNL     1     -11.559  12.338  67.164  1.00  0.00    -0.423 C  
HETATM   13  H   UNL     1     -11.548  18.730  67.444  1.00  0.00     0.000 HD 
HETATM   14  C   UNL     1      -9.548  15.016  66.288  1.00  0.00    -0.307 C  
HETATM   15  C   UNL     1     -12.338  11.354  67.673  1.00  0.00     1.078 C  
HETATM   16  O   UNL     1     -12.991  10.093  69.603  1.00  0.00     0.176 OA 
HETATM   17  O   UNL     1     -10.759  15.091  65.522  1.00  0.00    -0.313 OA 
HETATM   18  C   UNL     1      -9.915  14.455  67.889  1.00  0.00    -0.228 C  
HETATM   19  H   UNL     1     -11.257  14.302  65.696  1.00  0.00     0.000 HD 
HETATM   20  C   UNL     1     -10.541  15.658  68.783  1.00  0.00    -0.238 C  
HETATM   21  F   UNL     1      -8.723  14.171  68.600  1.00  0.00    -0.170 F  
HETATM   22  C   UNL     1     -10.983  15.145  70.162  1.00  0.00    -0.277 C  
HETATM   23  C   UNL     1     -11.752  13.845  70.062  1.00  0.00    -0.268 C  
HETATM   24  F   UNL     1     -12.180  13.509  71.304  1.00  0.00    -0.403 F  
HETATM   25  C   UNL     1     -10.887  12.739  69.480  1.00  0.00     0.158 C  
HETATM   26  C   UNL     1     -11.066  11.472  69.899  1.00  0.00    -0.079 C  
HETATM   27  C   UNL     1     -12.222  10.911  69.111  1.00  0.00    -0.110 C  
ENDROOT
BRANCH   4  28
HETATM   28  C   UNL     1      -9.936  18.616  65.830  1.00  0.00    -0.100 C  
HETATM   29  O   UNL     1     -10.968  19.031  65.280  1.00  0.00    -0.511 OA 
BRANCH  28  30
HETATM   30  C   UNL     1      -8.630  19.252  65.340  1.00  0.00     1.073 C  
HETATM   31  O   UNL     1      -8.932  20.471  64.660  1.00  0.00     0.504 OA 
HETATM   32  H   UNL     1      -8.122  20.866  64.357  1.00  0.00     0.000 HD 
ENDBRANCH  28  30
ENDBRANCH   4  28
TORSDOF 2
ENDMDL
MODEL       99
REMARK 921   NORMALIZED FREE ENERGY PREDICTED BY IDOCK:   -0.67 KCAL/MOL
REMARK 922        TOTAL FREE ENERGY PREDICTED BY IDOCK:   -0.04 KCAL/MOL
REMARK 923 INTER-LIGAND FREE ENERGY PREDICTED BY IDOCK:   -0.72 KCAL/MOL
REMARK 924 INTRA-LIGAND FREE ENERGY PREDICTED BY IDOCK:    0.68 KCAL/MOL
REMARK 927      BINDING AFFINITY PREDICTED BY RF-SCORE:    0.00 PKD
ROOT
HETATM    1  C   UNL     1      -9.277   7.909  64.935  1.00  0.00     0.798 C  
HETATM    2  C   UNL     1      -8.758   8.724  63.906  1.00  0.00     0.008 C  
HETATM    3  C   UNL     1      -7.752   7.677  64.338  1.00  0.00    -0.127 C  
HETATM    4  C   UNL     1      -8.467   6.202  65.591  1.00  0.00    -0.151 C  
HETATM    5  C   UNL     1      -6.746   7.758  62.988  1.00  0.00    -0.075 C  
HETATM    6  O   UNL     1      -9.906   6.094  65.936  1.00  0.00    -0.385 OA 
HETATM    7  C   UNL     1      -5.159  10.329  67.025  1.00  0.00    -0.040 C  
HETATM    8  C   UNL     1      -8.295   6.373  64.264  1.00  0.00     0.074 C  
HETATM    9  C   UNL     1      -6.571   6.116  65.139  1.00  0.00    -0.043 C  
HETATM   10  C   UNL     1      -8.998   5.665  63.100  1.00  0.00     0.390 C  
HETATM   11  C   UNL     1      -6.507   9.828  67.698  1.00  0.00    -0.067 C  
HETATM   12  C   UNL     1      -6.086   9.524  69.126  1.00  0.00    -0.041 C  
HETATM   13  H   UNL     1     -10.235   5.415  66.513  1.00  0.00     0.000 HD 
HETATM   14  C   UNL     1      -6.279   7.280  66.498  1.00  0.00    -0.040 C  
HETATM   15  C   UNL     1      -6.153  10.482  70.082  1.00  0.00    -0.105 C  
HETATM   16  O   UNL     1      -6.895  12.678  70.688  1.00  0.00     0.722 OA 
HETATM   17  O   UNL     1      -6.388   6.547  67.726  1.00  0.00    -0.039 OA 
HETATM   18  C   UNL     1      -7.117   8.791  66.655  1.00  0.00    -0.081 C  
HETATM   19  H   UNL     1      -6.235   7.156  68.438  1.00  0.00     0.000 HD 
HETATM   20  C   UNL     1      -8.720   8.569  66.513  1.00  0.00    -0.149 C  
HETATM   21  F   UNL     1      -6.853   9.623  65.539  1.00  0.00    -0.077 F  
HETATM   22  C   UNL     1      -9.481   9.878  66.771  1.00  0.00    -0.212 C  
HETATM   23  C   UNL     1      -8.959  10.606  67.992  1.00  0.00    -0.140 C  
HETATM   24  F   UNL     1      -9.736  11.696  68.201  1.00  0.00    -0.164 F  
HETATM   25  C   UNL     1      -7.507  11.014  67.807  1.00  0.00    -0.094 C  
HETATM   26  C   UNL     1      -7.066  12.157  68.366  1.00  0.00    -0.089 C  
HETATM   27  C   UNL     1      -6.741  11.843  69.804  1.00  0.00     0.047 C  
ENDROOT
BRANCH   4  28
HETATM   28  C   UNL     1      -8.403   4.476  65.525  1.00  0.00    -0.116 C  
HETATM   29  O   UNL     1      -7.483   3.789  65.051  1.00  0.00    -0.071 OA 
BRANCH  28  30
HETATM   30  C   UNL     1      -9.550   3.684  66.162  1.00  0.00    -0.129 C  
HETATM   31  O   UNL     1     -10.449   3.258  65.137  1.00  0.00    -0.325 OA 
HETATM   32  H   UNL     1     -11.160   2.767  65.532  1.00  0.00     0.000 HD 
ENDBRANCH  28  30
ENDBRANCH   4  28
TORSDOF 2
ENDMDL
MODEL      100
REMARK 921   NORMALIZED FREE ENERGY PREDICTED BY IDOCK:   -0.30 KCAL/MOL
REMARK 922        TOTAL FREE ENERGY PREDICTED BY IDOCK:    0.38 KCAL/MOL
REMARK 923 INTER-LIGAND FREE ENERGY PREDICTED BY IDOCK:   -1.05 KCAL/MOL
REMARK 924 INTRA-LIGAND FREE ENERGY PREDICTED BY IDOCK:    1.43 KCAL/MOL
REMARK 927      BINDING AFFINITY PREDICTED BY RF-SCORE:    0.00 PKD
ROOT
HETATM    1  C   UNL     1      -9.388  12.577  66.064  1.00  0.00    -0.091 C  
HETATM    2  C   UNL     1     -10.766  12.505  66.361  1.00  0.00    -0.275 C  
HETATM    3  C   UNL     1      -9.955  12.847  67.594  1.00  0.00    -0.218 C  
HETATM    4  C   UNL     1      -7.973  13.317  67.269  1.00  0.00    -0.125 C  
HETATM    5  C   UNL     1     -11.218  13.443  68.537  1.00  0.00    -0.316 C  
HETATM    6  O   UNL     1      -7.411  13.447  65.902  1.00  0.00     2.107 OA 
HETATM    7  C   UNL     1      -9.866   8.681  69.494  1.00  0.00    -0.187 C  
HETATM    8  C   UNL     1      -9.140  13.983  67.382  1.00  0.00    -0.209 C  
HETATM    9  C   UNL     1      -8.573  13.316  69.125  1.00  0.00     0.605 C  
HETATM   10  C   UNL     1      -9.512  15.376  66.860  1.00  0.00    -0.246 C  
HETATM   11  C   UNL     1      -8.825   8.888  68.314  1.00  0.00    -0.134 C  
HETATM   12  C   UNL     1      -7.591   8.151  68.809  1.00  0.00    -0.105 C  
HETATM   13  H   UNL     1      -6.498  13.664  65.752  1.00  0.00     0.000 HD 
HETATM   14  C   UNL     1      -8.260  11.531  69.140  1.00  0.00     0.166 C  
HETATM   15  C   UNL     1      -7.412   6.839  68.521  1.00  0.00    -0.092 C  
HETATM   16  O   UNL     1      -8.146   4.929  67.275  1.00  0.00    -0.105 OA 
HETATM   17  O   UNL     1      -6.841  11.341  69.223  1.00  0.00    -0.095 OA 
HETATM   18  C   UNL     1      -8.917  10.439  67.962  1.00  0.00    -0.129 C  
HETATM   19  H   UNL     1      -6.676  10.406  69.231  1.00  0.00     0.000 HD 
HETATM   20  C   UNL     1      -8.641  10.990  66.459  1.00  0.00    -0.165 C  
HETATM   21  F   UNL     1     -10.333  10.454  68.007  1.00  0.00    -0.173 F  
HETATM   22  C   UNL     1      -9.109   9.973  65.406  1.00  0.00    -0.235 C  
HETATM   23  C   UNL     1      -8.676   8.563  65.749  1.00  0.00    -0.179 C  
HETATM   24  F   UNL     1      -9.049   7.747  64.734  1.00  0.00     0.139 F  
HETATM   25  C   UNL     1      -9.297   8.102  67.057  1.00  0.00    -0.197 C  
HETATM   26  C   UNL     1      -9.620   6.804  67.214  1.00  0.00    -0.165 C  
HETATM   27  C   UNL     1      -8.357   6.087  67.619  1.00  0.00    -0.108 C  
ENDROOT
BRANCH   4  28
HETATM   28  C   UNL     1      -6.993  14.658  67.748  1.00  0.00    -0.177 C  
HETATM   29  O   UNL     1      -7.230  15.858  67.538  1.00  0.00    -0.143 OA 
BRANCH  28  30
HETATM   30  C   UNL     1      -5.731  14.374  68.571  1.00  0.00    -0.096 C  
HETATM   31  O   UNL     1      -5.415  15.526  69.354  1.00  0.00    -0.104 OA 
HETATM   32  H   UNL     1      -4.634  15.350  69.864  1.00  0.00     0.000 HD 
ENDBRANCH  28  30
ENDBRANCH   4  28
TORSDOF 2
ENDMDL
MODEL      101
REMARK 921   NORMALIZED FREE ENERGY PREDICTED BY IDOCK:    0.63 KCAL/MOL
REMARK 922        TOTAL FREE ENERGY PREDICTED BY IDOCK:    1.41 KCAL/MOL
REMARK 923 INTER-LIGAND FREE ENERGY PREDICTED BY IDOCK:   -0.16 KCAL/MOL
REMARK 924 INTRA-LIGAND FREE ENERGY PREDICTED BY IDOCK:    1.57 KCAL/MOL
REMARK 927      BINDING AFFINITY PREDICTED BY RF-SCORE:    0.00 PKD
ROOT
HETATM    1  C   UNL     1     -10.213   6.158  67.420  1.00  0.00    -0.226 C  
HETATM    2  C   UNL     1     -11.335   6.154  68.277  1.00  0.00     0.029 C  
HETATM    3  C   UNL     1     -10.441   7.347  68.547  1.00  0.00    -0.215 C  
HETATM    4  C   UNL     1      -8.943   7.684  67.169  1.00  0.00    -0.126 C  
HETATM    5  C   UNL     1     -11.561   8.281  69.395  1.00  0.00     0.717 C  
HETATM    6  O   UNL     1      -8.833   6.891  65.920  1.00  0.00    -0.195 OA 
HETATM    7  C   UNL     1      -8.280   5.721  72.243  1.00  0.00    -0.108 C  
HETATM    8  C   UNL     1     -10.210   8.100  67.373  1.00  0.00    -0.327 C  
HETATM    9  C   UNL     1      -9.017   8.904  68.689  1.00  0.00    -0.137 C  
HETATM   10  C   UNL     1     -11.208   8.684  66.365  1.00  0.00     2.043 C  
HETATM   11  C   UNL     1      -7.728   5.168  70.861  1.00  0.00    -0.088 C  
HETATM   12  C   UNL     1      -6.225   5.131  71.081  1.00  0.00    -0.023 C  
HETATM   13  H   UNL     1      -8.143   7.046  65.285  1.00  0.00     0.000 HD 
HETATM   14  C   UNL     1      -8.044   7.683  69.611  1.00  0.00    -0.126 C  
HETATM   15  C   UNL     1      -5.630   4.021  71.580  1.00  0.00    -0.008 C  
HETATM   16  O   UNL     1      -5.851   1.714  72.190  1.00  0.00    -0.008 OA 
HETATM   17  O   UNL     1      -6.689   7.770  69.148  1.00  0.00    -0.046 OA 
HETATM   18  C   UNL     1      -8.497   6.014  69.752  1.00  0.00    -0.126 C  
HETATM   19  H   UNL     1      -6.180   7.130  69.631  1.00  0.00     0.000 HD 
HETATM   20  C   UNL     1      -8.837   5.392  68.290  1.00  0.00    -0.105 C  
HETATM   21  F   UNL     1      -9.750   5.893  70.403  1.00  0.00    -0.175 F  
HETATM   22  C   UNL     1      -9.121   3.885  68.386  1.00  0.00    -0.189 C  
HETATM   23  C   UNL     1      -8.106   3.172  69.255  1.00  0.00    -0.048 C  
HETATM   24  F   UNL     1      -8.373   1.844  69.216  1.00  0.00    -0.058 F  
HETATM   25  C   UNL     1      -8.155   3.683  70.685  1.00  0.00    -0.061 C  
HETATM   26  C   UNL     1      -7.901   2.833  71.699  1.00  0.00    -0.048 C  
HETATM   27  C   UNL     1      -6.402   2.751  71.834  1.00  0.00    -0.015 C  
ENDROOT
BRANCH   4  28
HETATM   28  C   UNL     1      -8.472   9.081  66.268  1.00  0.00    -0.125 C  
HETATM   29  O   UNL     1      -9.066   9.562  65.289  1.00  0.00    -0.194 OA 
BRANCH  28  30
HETATM   30  C   UNL     1      -7.240   9.863  66.736  1.00  0.00    -0.091 C  
HETATM   31  O   UNL     1      -6.379  10.089  65.620  1.00  0.00    -0.080 OA 
HETATM   32  H   UNL     1      -5.615  10.574  65.910  1.00  0.00     0.000 HD 
ENDBRANCH  28  30
ENDBRANCH   4  28
TORSDOF 2
ENDMDL
MODEL      102
REMARK 921   NORMALIZED FREE ENERGY PREDICTED BY IDOCK:    0.93 KCAL/MOL
REMARK 922        TOTAL FREE ENERGY PREDICTED BY IDOCK:    1.74 KCAL/MOL
REMARK 923 INTER-LIGAND FREE ENERGY PREDICTED BY IDOCK:   -0.10 KCAL/MOL
REMARK 924 INTRA-LIGAND FREE ENERGY PREDICTED BY IDOCK:    1.85 KCAL/MOL
REMARK 927      BINDING AFFINITY PREDICTED BY RF-SCORE:    0.00 PKD
ROOT
HETATM    1  C   UNL     1      -9.561  14.005  67.101  1.00  0.00    -0.245 C  
HETATM    2  C   UNL     1     -10.097  13.336  68.223  1.00  0.00    -0.250 C  
HETATM    3  C   UNL     1      -8.727  13.909  68.527  1.00  0.00    -0.134 C  
HETATM    4  C   UNL     1      -7.953  15.195  67.112  1.00  0.00    -0.215 C  
HETATM    5  C   UNL     1      -8.826  13.851  70.209  1.00  0.00     2.885 C  
HETATM    6  O   UNL     1      -8.744  15.640  65.938  1.00  0.00    -0.361 OA 
HETATM    7  C   UNL     1      -6.291  10.060  68.060  1.00  0.00    -0.054 C  
HETATM    8  C   UNL     1      -8.670  15.295  68.250  1.00  0.00    -0.165 C  
HETATM    9  C   UNL     1      -6.823  14.820  68.658  1.00  0.00    -0.103 C  
HETATM   10  C   UNL     1      -9.590  16.430  68.715  1.00  0.00    -0.249 C  
HETATM   11  C   UNL     1      -6.676  10.765  66.691  1.00  0.00    -0.120 C  
HETATM   12  C   UNL     1      -5.423  10.589  65.848  1.00  0.00    -0.101 C  
HETATM   13  H   UNL     1      -8.387  16.232  65.287  1.00  0.00     0.000 HD 
HETATM   14  C   UNL     1      -6.256  13.338  67.780  1.00  0.00    -0.158 C  
HETATM   15  C   UNL     1      -5.273   9.498  65.059  1.00  0.00    -0.045 C  
HETATM   16  O   UNL     1      -6.278   7.542  64.107  1.00  0.00    -0.047 OA 
HETATM   17  O   UNL     1      -5.339  13.763  66.761  1.00  0.00     0.478 OA 
HETATM   18  C   UNL     1      -7.335  12.149  67.122  1.00  0.00    -0.124 C  
HETATM   19  H   UNL     1      -5.042  12.987  66.302  1.00  0.00     0.000 HD 
HETATM   20  C   UNL     1      -8.486  12.862  66.223  1.00  0.00     0.489 C  
HETATM   21  F   UNL     1      -8.111  11.561  68.150  1.00  0.00    -0.117 F  
HETATM   22  C   UNL     1      -9.374  11.813  65.536  1.00  0.00    -0.131 C  
HETATM   23  C   UNL     1      -8.557  10.700  64.913  1.00  0.00    -0.141 C  
HETATM   24  F   UNL     1      -9.404   9.871  64.256  1.00  0.00    -0.264 F  
HETATM   25  C   UNL     1      -7.777   9.936  65.969  1.00  0.00    -0.108 C  
HETATM   26  C   UNL     1      -7.564   8.617  65.806  1.00  0.00    -0.089 C  
HETATM   27  C   UNL     1      -6.370   8.477  64.896  1.00  0.00    -0.064 C  
ENDROOT
BRANCH   4  28
HETATM   28  C   UNL     1      -7.296  16.790  67.213  1.00  0.00    -0.175 C  
HETATM   29  O   UNL     1      -7.909  17.823  67.529  1.00  0.00    -0.203 OA 
BRANCH  28  30
HETATM   30  C   UNL     1      -5.795  16.972  66.956  1.00  0.00    -0.179 C  
HETATM   31  O   UNL     1      -5.128  17.165  68.203  1.00  0.00    -0.113 OA 
HETATM   32  H   UNL     1      -4.198  17.277  68.044  1.00  0.00     0.000 HD 
ENDBRANCH  28  30
ENDBRANCH   4  28
TORSDOF 2
ENDMDL
MODEL      103
REMARK 921   NORMALIZED FREE ENERGY PREDICTED BY IDOCK:    1.07 KCAL/MOL
REMARK 922        TOTAL FREE ENERGY PREDICTED BY IDOCK:    1.91 KCAL/MOL
REMARK 923 INTER-LIGAND FREE ENERGY PREDICTED BY IDOCK:    0.78 KCAL/MOL
REMARK 924 INTRA-LIGAND FREE ENERGY PREDICTED BY IDOCK:    1.12 KCAL/MOL
REMARK 927      BINDING AFFINITY PREDICTED BY RF-SCORE:    0.00 PKD
ROOT
HETATM    1  C   UNL     1      -7.081  18.196  68.775  1.00  0.00    -0.287 C  
HETATM    2  C   UNL     1      -6.117  17.169  68.861  1.00  0.00    -0.169 C  
HETATM    3  C   UNL     1      -6.556  17.393  67.428  1.00  0.00    -0.172 C  
HETATM    4  C   UNL     1      -7.705  19.072  67.088  1.00  0.00    -0.234 C  
HETATM    5  C   UNL     1      -5.265  16.615  66.672  1.00  0.00     0.099 C  
HETATM    6  O   UNL     1      -7.969  20.072  68.152  1.00  0.00    -0.287 OA 
HETATM    7  C   UNL     1      -9.487  13.890  67.088  1.00  0.00    -0.246 C  
HETATM    8  C   UNL     1      -6.398  18.743  67.040  1.00  0.00    -0.189 C  
HETATM    9  C   UNL     1      -7.350  17.933  65.544  1.00  0.00     0.242 C  
HETATM   10  C   UNL     1      -5.169  19.655  67.133  1.00  0.00    -0.161 C  
HETATM   11  C   UNL     1     -10.066  15.162  67.841  1.00  0.00    -0.222 C  
HETATM   12  C   UNL     1     -11.500  15.233  67.343  1.00  0.00    -0.246 C  
HETATM   13  H   UNL     1      -8.498  20.845  67.995  1.00  0.00     0.000 HD 
HETATM   14  C   UNL     1      -8.771  16.933  66.059  1.00  0.00    -0.158 C  
HETATM   15  C   UNL     1     -12.491  14.589  68.006  1.00  0.00     0.236 C  
HETATM   16  O   UNL     1     -13.152  13.374  69.962  1.00  0.00     0.277 OA 
HETATM   17  O   UNL     1      -9.960  17.654  65.706  1.00  0.00    -0.544 OA 
HETATM   18  C   UNL     1      -8.949  16.282  67.658  1.00  0.00    -0.192 C  
HETATM   19  H   UNL     1     -10.704  17.130  65.976  1.00  0.00     0.000 HD 
HETATM   20  C   UNL     1      -8.713  17.440  68.772  1.00  0.00    -0.223 C  
HETATM   21  F   UNL     1      -7.885  15.394  67.953  1.00  0.00    -0.117 F  
HETATM   22  C   UNL     1      -8.987  16.906  70.187  1.00  0.00     2.036 C  
HETATM   23  C   UNL     1     -10.264  16.095  70.248  1.00  0.00     0.200 C  
HETATM   24  F   UNL     1     -10.478  15.738  71.538  1.00  0.00     0.034 F  
HETATM   25  C   UNL     1     -10.174  14.863  69.364  1.00  0.00    -0.180 C  
HETATM   26  C   UNL     1     -10.803  13.733  69.738  1.00  0.00     0.166 C  
HETATM   27  C   UNL     1     -12.242  13.873  69.309  1.00  0.00    -0.277 C  
ENDROOT
BRANCH   4  28
HETATM   28  C   UNL     1      -7.568  20.377  65.962  1.00  0.00    -0.106 C  
HETATM   29  O   UNL     1      -6.572  21.096  65.783  1.00  0.00    -0.147 OA 
BRANCH  28  30
HETATM   30  C   UNL     1      -8.755  20.659  65.034  1.00  0.00     1.531 C  
HETATM   31  O   UNL     1      -9.900  20.978  65.826  1.00  0.00     0.124 OA 
HETATM   32  H   UNL     1     -10.636  21.153  65.251  1.00  0.00     0.000 HD 
ENDBRANCH  28  30
ENDBRANCH   4  28
TORSDOF 2
ENDMDL
MODEL      104
REMARK 921   NORMALIZED FREE ENERGY PREDICTED BY IDOCK:    4.08 KCAL/MOL
REMARK 922        TOTAL FREE ENERGY PREDICTED BY IDOCK:    5.26 KCAL/MOL
REMARK 923 INTER-LIGAND FREE ENERGY PREDICTED BY IDOCK:    3.76 KCAL/MOL
REMARK 924 INTRA-LIGAND FREE ENERGY PREDICTED BY IDOCK:    1.51 KCAL/MOL
REMARK 927      BINDING AFFINITY PREDICTED BY RF-SCORE:    0.00 PKD
ROOT
HETATM    1  C   UNL     1     -10.922  16.067  68.191  1.00  0.00    -0.339 C  
HETATM    2  C   UNL     1     -12.133  15.718  68.828  1.00  0.00    -0.087 C  
HETATM    3  C   UNL     1     -10.963  14.952  69.413  1.00  0.00    -0.284 C  
HETATM    4  C   UNL     1      -9.088  15.584  68.829  1.00  0.00    -0.207 C  
HETATM    5  C   UNL     1     -11.704  14.472  70.849  1.00  0.00    -0.308 C  
HETATM    6  O   UNL     1      -8.891  16.797  67.998  1.00  0.00    -0.208 OA 
HETATM    7  C   UNL     1     -11.600  10.994  67.200  1.00  0.00     0.053 C  
HETATM    8  C   UNL     1      -9.937  15.823  69.849  1.00  0.00    -0.195 C  
HETATM    9  C   UNL     1      -9.154  14.046  70.028  1.00  0.00     1.865 C  
HETATM   10  C   UNL     1     -10.009  17.038  70.781  1.00  0.00     2.566 C  
HETATM   11  C   UNL     1     -10.892  12.123  66.338  1.00  0.00    -0.306 C  
HETATM   12  C   UNL     1      -9.843  11.351  65.554  1.00  0.00    -0.271 C  
HETATM   13  H   UNL     1      -8.027  17.087  67.729  1.00  0.00     0.000 HD 
HETATM   14  C   UNL     1      -9.384  13.012  68.556  1.00  0.00    -0.078 C  
HETATM   15  C   UNL     1     -10.137  10.832  64.338  1.00  0.00    -0.419 C  
HETATM   16  O   UNL     1     -11.697  10.701  62.524  1.00  0.00     1.794 OA 
HETATM   17  O   UNL     1      -8.112  12.902  67.902  1.00  0.00    -0.135 OA 
HETATM   18  C   UNL     1     -10.616  13.304  67.370  1.00  0.00    -0.246 C  
HETATM   19  H   UNL     1      -8.232  12.360  67.131  1.00  0.00     0.000 HD 
HETATM   20  C   UNL     1     -10.595  14.859  66.900  1.00  0.00    -0.300 C  
HETATM   21  F   UNL     1     -11.902  13.210  67.957  1.00  0.00    -0.338 F  
HETATM   22  C   UNL     1     -11.598  15.103  65.762  1.00  0.00    -0.097 C  
HETATM   23  C   UNL     1     -11.522  14.026  64.699  1.00  0.00    -0.383 C  
HETATM   24  F   UNL     1     -12.370  14.361  63.696  1.00  0.00    -0.470 F  
HETATM   25  C   UNL     1     -11.885  12.666  65.271  1.00  0.00    -0.452 C  
HETATM   26  C   UNL     1     -12.521  11.771  64.492  1.00  0.00     0.042 C  
HETATM   27  C   UNL     1     -11.463  11.084  63.665  1.00  0.00     0.581 C  
ENDROOT
BRANCH   4  28
HETATM   28  C   UNL     1      -7.669  16.018  69.715  1.00  0.00     0.230 C  
HETATM   29  O   UNL     1      -7.050  15.299  70.516  1.00  0.00     0.191 OA 
BRANCH  28  30
HETATM   30  C   UNL     1      -7.054  17.400  69.464  1.00  0.00     0.061 C  
HETATM   31  O   UNL     1      -7.772  18.375  70.220  1.00  0.00     1.496 OA 
HETATM   32  H   UNL     1      -7.391  19.231  70.065  1.00  0.00     0.000 HD 
ENDBRANCH  28  30
ENDBRANCH   4  28
TORSDOF 2
ENDMDL
MODEL      105
REMARK 921   NORMALIZED FREE ENERGY PREDICTED BY IDOCK:    4.74 KCAL/MOL
REMARK 922        TOTAL FREE ENERGY PREDICTED BY IDOCK:    6.00 KCAL/MOL
REMARK 923 INTER-LIGAND FREE ENERGY PREDICTED BY IDOCK:    4.61 KCAL/MOL
REMARK 924 INTRA-LIGAND FREE ENERGY PREDICTED BY IDOCK:    1.39 KCAL/MOL
REMARK 927      BINDING AFFINITY PREDICTED BY RF-SCORE:    0.00 PKD
ROOT
HETATM    1  C   UNL     1     -11.212  17.872  67.224  1.00  0.00     0.384 C  
HETATM    2  C   UNL     1     -10.691  18.493  66.068  1.00  0.00    -0.252 C  
HETATM    3  C   UNL     1     -10.255  17.044  66.158  1.00  0.00    -0.346 C  
HETATM    4  C   UNL     1     -11.195  15.907  67.600  1.00  0.00    -0.219 C  
HETATM    5  C   UNL     1      -9.793  16.847  64.549  1.00  0.00     3.294 C  
HETATM    6  O   UNL     1     -12.323  16.436  68.405  1.00  0.00     0.187 OA 
HETATM    7  C   UNL     1      -6.031  17.732  67.788  1.00  0.00    -0.157 C  
HETATM    8  C   UNL     1     -11.363  16.175  66.289  1.00  0.00     0.379 C  
HETATM    9  C   UNL     1      -9.819  15.012  66.545  1.00  0.00    -0.276 C  
HETATM   10  C   UNL     1     -12.633  16.064  65.436  1.00  0.00     2.086 C  
HETATM   11  C   UNL     1      -7.181  17.827  68.878  1.00  0.00    -0.256 C  
HETATM   12  C   UNL     1      -6.562  17.150  70.090  1.00  0.00     0.525 C  
HETATM   13  H   UNL     1     -12.756  15.912  69.069  1.00  0.00     0.000 HD 
HETATM   14  C   UNL     1      -8.604  15.683  67.711  1.00  0.00    -0.162 C  
HETATM   15  C   UNL     1      -5.862  17.871  70.998  1.00  0.00     0.505 C  
HETATM   16  O   UNL     1      -5.210  20.039  71.783  1.00  0.00    -0.348 OA 
HETATM   17  O   UNL     1      -8.690  14.911  68.917  1.00  0.00    -0.174 OA 
HETATM   18  C   UNL     1      -8.500  17.368  68.114  1.00  0.00    -0.241 C  
HETATM   19  H   UNL     1      -8.053  15.263  69.528  1.00  0.00     0.000 HD 
HETATM   20  C   UNL     1      -9.964  17.947  68.516  1.00  0.00    -0.379 C  
HETATM   21  F   UNL     1      -8.206  18.136  66.961  1.00  0.00    -0.217 F  
HETATM   22  C   UNL     1      -9.866  19.405  68.992  1.00  0.00    -0.487 C  
HETATM   23  C   UNL     1      -8.718  19.609  69.959  1.00  0.00     1.033 C  
HETATM   24  F   UNL     1      -8.755  20.891  70.396  1.00  0.00     1.365 F  
HETATM   25  C   UNL     1      -7.384  19.312  69.295  1.00  0.00    -0.282 C  
HETATM   26  C   UNL     1      -6.295  20.016  69.657  1.00  0.00    -0.387 C  
HETATM   27  C   UNL     1      -5.757  19.373  70.911  1.00  0.00    -0.173 C  
ENDROOT
BRANCH   4  28
HETATM   28  C   UNL     1     -12.011  14.385  67.543  1.00  0.00    -0.354 C  
HETATM   29  O   UNL     1     -12.958  14.082  66.800  1.00  0.00     0.151 OA 
BRANCH  28  30
HETATM   30  C   UNL     1     -11.498  13.255  68.444  1.00  0.00    -0.314 C  
HETATM   31  O   UNL     1     -12.216  13.280  69.678  1.00  0.00    -0.279 OA 
HETATM   32  H   UNL     1     -11.898  12.580  70.236  1.00  0.00     0.000 HD 
ENDBRANCH  28  30
ENDBRANCH   4  28
TORSDOF 2
ENDMDL
MODEL      106
REMARK 921   NORMALIZED FREE ENERGY PREDICTED BY IDOCK:    5.53 KCAL/MOL
REMARK 922        TOTAL FREE ENERGY PREDICTED BY IDOCK:    6.89 KCAL/MOL
REMARK 923 INTER-LIGAND FREE ENERGY PREDICTED BY IDOCK:    5.87 KCAL/MOL
REMARK 924 INTRA-LIGAND FREE ENERGY PREDICTED BY IDOCK:    1.01 KCAL/MOL
REMARK 927      BINDING AFFINITY PREDICTED BY RF-SCORE:    0.00 PKD
ROOT
HETATM    1  C   UNL     1      -7.891  15.754  69.336  1.00  0.00    -0.210 C  
HETATM    2  C   UNL     1      -7.055  15.806  68.200  1.00  0.00    -0.123 C  
HETATM    3  C   UNL     1      -8.486  16.159  67.847  1.00  0.00    -0.166 C  
HETATM    4  C   UNL     1      -9.762  16.454  69.441  1.00  0.00    -0.157 C  
HETATM    5  C   UNL     1      -8.176  16.907  66.368  1.00  0.00    -0.342 C  
HETATM    6  O   UNL     1      -9.279  16.457  70.843  1.00  0.00     2.738 OA 
HETATM    7  C   UNL     1      -9.739  12.122  66.085  1.00  0.00    -0.254 C  
HETATM    8  C   UNL     1      -8.975  17.214  68.651  1.00  0.00    -0.267 C  
HETATM    9  C   UNL     1     -10.543  16.613  67.660  1.00  0.00    -0.321 C  
HETATM   10  C   UNL     1      -8.375  18.597  68.931  1.00  0.00    -0.217 C  
HETATM   11  C   UNL     1      -9.740  12.176  67.671  1.00  0.00    -0.188 C  
HETATM   12  C   UNL     1     -10.978  11.377  68.043  1.00  0.00    -0.290 C  
HETATM   13  H   UNL     1      -9.867  16.594  71.577  1.00  0.00     0.000 HD 
HETATM   14  C   UNL     1     -10.756  14.813  67.682  1.00  0.00    -0.270 C  
HETATM   15  C   UNL     1     -10.899  10.041  68.249  1.00  0.00    -0.286 C  
HETATM   16  O   UNL     1      -9.490   8.120  68.511  1.00  0.00    -0.142 OA 
HETATM   17  O   UNL     1     -11.870  14.520  68.537  1.00  0.00    -0.338 OA 
HETATM   18  C   UNL     1      -9.465  13.705  68.023  1.00  0.00    -0.209 C  
HETATM   19  H   UNL     1     -11.982  13.577  68.549  1.00  0.00     0.000 HD 
HETATM   20  C   UNL     1      -8.685  14.141  69.379  1.00  0.00     0.494 C  
HETATM   21  F   UNL     1      -8.435  13.832  67.058  1.00  0.00    -0.201 F  
HETATM   22  C   UNL     1      -7.618  13.101  69.759  1.00  0.00     1.099 C  
HETATM   23  C   UNL     1      -8.145  11.685  69.652  1.00  0.00     0.972 C  
HETATM   24  F   UNL     1      -7.178  10.840  70.085  1.00  0.00    -0.155 F  
HETATM   25  C   UNL     1      -8.540  11.354  68.222  1.00  0.00    -0.156 C  
HETATM   26  C   UNL     1      -8.378  10.097  67.767  1.00  0.00    -0.114 C  
HETATM   27  C   UNL     1      -9.579   9.310  68.227  1.00  0.00    -0.147 C  
ENDROOT
BRANCH   4  28
HETATM   28  C   UNL     1     -10.837  17.742  69.858  1.00  0.00     1.181 C  
HETATM   29  O   UNL     1     -11.060  18.763  69.188  1.00  0.00     1.255 OA 
BRANCH  28  30
HETATM   30  C   UNL     1     -11.658  17.611  71.146  1.00  0.00     3.235 C  
HETATM   31  O   UNL     1     -11.728  16.233  71.516  1.00  0.00    -0.548 OA 
HETATM   32  H   UNL     1     -12.236  16.152  72.314  1.00  0.00     0.000 HD 
ENDBRANCH  28  30
ENDBRANCH   4  28
TORSDOF 2
ENDMDL
MODEL      107
REMARK 921   NORMALIZED FREE ENERGY PREDICTED BY IDOCK:    5.66 KCAL/MOL
REMARK 922        TOTAL FREE ENERGY PREDICTED BY IDOCK:    7.03 KCAL/MOL
REMARK 923 INTER-LIGAND FREE ENERGY PREDICTED BY IDOCK:    3.10 KCAL/MOL
REMARK 924 INTRA-LIGAND FREE ENERGY PREDICTED BY IDOCK:    3.94 KCAL/MOL
REMARK 927      BINDING AFFINITY PREDICTED BY RF-SCORE:    0.00 PKD
ROOT
HETATM    1  C   UNL     1      -8.243  17.853  67.588  1.00  0.00    -0.232 C  
HETATM    2  C   UNL     1      -8.521  17.945  66.207  1.00  0.00    -0.218 C  
HETATM    3  C   UNL     1      -9.787  17.722  67.009  1.00  0.00    -0.309 C  
HETATM    4  C   UNL     1      -9.602  17.898  69.056  1.00  0.00    -0.137 C  
HETATM    5  C   UNL     1     -10.889  18.210  65.830  1.00  0.00     0.024 C  
HETATM    6  O   UNL     1      -8.342  18.349  69.695  1.00  0.00     0.500 OA 
HETATM    7  C   UNL     1     -10.251  13.228  66.262  1.00  0.00    -0.296 C  
HETATM    8  C   UNL     1      -9.939  18.696  68.022  1.00  0.00    -0.389 C  
HETATM    9  C   UNL     1     -11.369  17.418  68.380  1.00  0.00     0.432 C  
HETATM   10  C   UNL     1      -9.896  20.226  67.931  1.00  0.00    -0.492 C  
HETATM   11  C   UNL     1      -9.185  13.603  67.377  1.00  0.00    -0.222 C  
HETATM   12  C   UNL     1      -9.400  12.533  68.434  1.00  0.00    -0.149 C  
HETATM   13  H   UNL     1      -8.257  18.430  70.637  1.00  0.00     0.000 HD 
HETATM   14  C   UNL     1     -10.806  15.695  68.367  1.00  0.00    -0.290 C  
HETATM   15  C   UNL     1      -8.705  11.371  68.389  1.00  0.00    -0.157 C  
HETATM   16  O   UNL     1      -6.923  10.124  67.383  1.00  0.00    -0.081 OA 
HETATM   17  O   UNL     1     -10.804  15.231  69.724  1.00  0.00    -0.256 OA 
HETATM   18  C   UNL     1      -9.350  15.174  67.580  1.00  0.00    -0.189 C  
HETATM   19  H   UNL     1     -10.510  14.328  69.718  1.00  0.00     0.000 HD 
HETATM   20  C   UNL     1      -8.099  16.113  68.020  1.00  0.00    -0.149 C  
HETATM   21  F   UNL     1      -9.417  15.435  66.189  1.00  0.00    -0.263 F  
HETATM   22  C   UNL     1      -6.783  15.588  67.426  1.00  0.00    -0.200 C  
HETATM   23  C   UNL     1      -6.649  14.088  67.583  1.00  0.00    -0.159 C  
HETATM   24  F   UNL     1      -5.431  13.720  67.118  1.00  0.00     0.097 F  
HETATM   25  C   UNL     1      -7.749  13.358  66.830  1.00  0.00     0.309 C  
HETATM   26  C   UNL     1      -7.486  12.161  66.273  1.00  0.00     0.667 C  
HETATM   27  C   UNL     1      -7.622  11.132  67.367  1.00  0.00    -0.113 C  
ENDROOT
BRANCH   4  28
HETATM   28  C   UNL     1     -10.472  18.812  70.237  1.00  0.00     1.716 C  
HETATM   29  O   UNL     1     -11.261  18.362  71.084  1.00  0.00     2.608 OA 
BRANCH  28  30
HETATM   30  C   UNL     1     -10.219  20.322  70.313  1.00  0.00     0.948 C  
HETATM   31  O   UNL     1     -11.142  20.993  69.455  1.00  0.00     0.098 OA 
HETATM   32  H   UNL     1     -10.986  21.929  69.503  1.00  0.00     0.000 HD 
ENDBRANCH  28  30
ENDBRANCH   4  28
TORSDOF 2
ENDMDL
MODEL      108
REMARK 921   NORMALIZED FREE ENERGY PREDICTED BY IDOCK:    6.53 KCAL/MOL
REMARK 922        TOTAL FREE ENERGY PREDICTED BY IDOCK:    8.01 KCAL/MOL
REMARK 923 INTER-LIGAND FREE ENERGY PREDICTED BY IDOCK:    5.46 KCAL/MOL
REMARK 924 INTRA-LIGAND FREE ENERGY PREDICTED BY IDOCK:    2.55 KCAL/MOL
REMARK 927      BINDING AFFINITY PREDICTED BY RF-SCORE:    0.00 PKD
ROOT
HETATM    1  C   UNL     1      -8.076  15.953  66.858  1.00  0.00    -0.285 C  
HETATM    2  C   UNL     1      -8.711  17.156  66.476  1.00  0.00    -0.293 C  
HETATM    3  C   UNL     1      -9.205  16.678  67.827  1.00  0.00    -0.214 C  
HETATM    4  C   UNL     1      -8.145  15.127  68.679  1.00  0.00    -0.154 C  
HETATM    5  C   UNL     1      -9.882  18.132  68.346  1.00  0.00    -0.380 C  
HETATM    6  O   UNL     1      -6.896  14.603  68.072  1.00  0.00    -0.112 OA 
HETATM    7  C   UNL     1     -13.140  14.783  66.452  1.00  0.00     1.511 C  
HETATM    8  C   UNL     1      -8.135  16.474  68.729  1.00  0.00    -0.244 C  
HETATM    9  C   UNL     1      -9.690  15.776  69.677  1.00  0.00    -0.248 C  
HETATM   10  C   UNL     1      -6.995  17.417  69.132  1.00  0.00    -0.209 C  
HETATM   11  C   UNL     1     -11.856  13.884  66.204  1.00  0.00    -0.422 C  
HETATM   12  C   UNL     1     -12.345  12.485  66.537  1.00  0.00     0.198 C  
HETATM   13  H   UNL     1      -6.408  13.888  68.465  1.00  0.00     0.000 HD 
HETATM   14  C   UNL     1     -10.707  14.670  68.664  1.00  0.00    -0.250 C  
HETATM   15  C   UNL     1     -12.884  11.697  65.575  1.00  0.00     2.814 C  
HETATM   16  O   UNL     1     -13.317  11.375  63.240  1.00  0.00    -0.092 OA 
HETATM   17  O   UNL     1     -10.505  13.334  69.146  1.00  0.00    -0.425 OA 
HETATM   18  C   UNL     1     -10.672  14.665  66.929  1.00  0.00    -0.294 C  
HETATM   19  H   UNL     1     -11.038  12.754  68.616  1.00  0.00     0.000 HD 
HETATM   20  C   UNL     1      -9.141  14.581  66.392  1.00  0.00    -0.217 C  
HETATM   21  F   UNL     1     -11.074  15.925  66.422  1.00  0.00    -0.285 F  
HETATM   22  C   UNL     1      -9.102  14.453  64.861  1.00  0.00     2.278 C  
HETATM   23  C   UNL     1     -10.102  13.437  64.352  1.00  0.00    -0.099 C  
HETATM   24  F   UNL     1      -9.943  13.320  63.012  1.00  0.00     1.159 F  
HETATM   25  C   UNL     1     -11.525  13.854  64.685  1.00  0.00    -0.386 C  
HETATM   26  C   UNL     1     -12.520  13.546  63.832  1.00  0.00    -0.295 C  
HETATM   27  C   UNL     1     -12.923  12.123  64.129  1.00  0.00    -0.137 C  
ENDROOT
BRANCH   4  28
HETATM   28  C   UNL     1      -7.422  14.917  70.234  1.00  0.00     0.425 C  
HETATM   29  O   UNL     1      -7.977  15.075  71.333  1.00  0.00     2.364 OA 
BRANCH  28  30
HETATM   30  C   UNL     1      -5.970  14.426  70.297  1.00  0.00    -0.160 C  
HETATM   31  O   UNL     1      -5.353  14.630  69.026  1.00  0.00    -0.088 OA 
HETATM   32  H   UNL     1      -4.454  14.327  69.065  1.00  0.00     0.000 HD 
ENDBRANCH  28  30
ENDBRANCH   4  28
TORSDOF 2
ENDMDL
MODEL      109
REMARK 921   NORMALIZED FREE ENERGY PREDICTED BY IDOCK:    7.17 KCAL/MOL
REMARK 922        TOTAL FREE ENERGY PREDICTED BY IDOCK:    8.72 KCAL/MOL
REMARK 923 INTER-LIGAND FREE ENERGY PREDICTED BY IDOCK:    7.23 KCAL/MOL
REMARK 924 INTRA-LIGAND FREE ENERGY PREDICTED BY IDOCK:    1.49 KCAL/MOL
REMARK 927      BINDING AFFINITY PREDICTED BY RF-SCORE:    0.00 PKD
ROOT
HETATM    1  C   UNL     1      -8.355  11.365  65.599  1.00  0.00     0.168 C  
HETATM    2  C   UNL     1      -7.215  11.995  66.143  1.00  0.00     0.824 C  
HETATM    3  C   UNL     1      -7.117  10.487  66.258  1.00  0.00    -0.132 C  
HETATM    4  C   UNL     1      -8.537   9.409  65.218  1.00  0.00    -0.162 C  
HETATM    5  C   UNL     1      -5.456  10.388  66.527  1.00  0.00    -0.055 C  
HETATM    6  O   UNL     1      -9.506  10.063  64.306  1.00  0.00    -0.280 OA 
HETATM    7  C   UNL     1      -8.339  10.085  70.653  1.00  0.00     0.545 C  
HETATM    8  C   UNL     1      -7.283   9.858  65.002  1.00  0.00    -0.135 C  
HETATM    9  C   UNL     1      -7.258   8.377  66.270  1.00  0.00    -0.078 C  
HETATM   10  C   UNL     1      -6.566  10.114  63.671  1.00  0.00    -0.122 C  
HETATM   11  C   UNL     1      -9.551  10.289  69.649  1.00  0.00    -0.192 C  
HETATM   12  C   UNL     1     -10.618   9.360  70.206  1.00  0.00    -0.297 C  
HETATM   13  H   UNL     1     -10.160   9.566  63.827  1.00  0.00     0.000 HD 
HETATM   14  C   UNL     1      -8.345   8.639  67.697  1.00  0.00    -0.121 C  
HETATM   15  C   UNL     1     -11.511   9.809  71.121  1.00  0.00    -0.472 C  
HETATM   16  O   UNL     1     -12.425  11.687  72.296  1.00  0.00     0.366 OA 
HETATM   17  O   UNL     1      -9.473   7.766  67.548  1.00  0.00    -0.137 OA 
HETATM   18  C   UNL     1      -8.894  10.206  68.201  1.00  0.00    -0.126 C  
HETATM   19  H   UNL     1     -10.042   7.904  68.296  1.00  0.00     0.000 HD 
HETATM   20  C   UNL     1      -9.506  11.026  66.939  1.00  0.00    -0.197 C  
HETATM   21  F   UNL     1      -7.795  11.026  68.557  1.00  0.00    -0.100 F  
HETATM   22  C   UNL     1     -10.106  12.366  67.393  1.00  0.00    -0.205 C  
HETATM   23  C   UNL     1     -10.958  12.212  68.636  1.00  0.00    -0.245 C  
HETATM   24  F   UNL     1     -11.518  13.414  68.917  1.00  0.00    -0.260 F  
HETATM   25  C   UNL     1     -10.129  11.724  69.812  1.00  0.00     1.064 C  
HETATM   26  C   UNL     1     -10.437  12.139  71.055  1.00  0.00     5.476 C  
HETATM   27  C   UNL     1     -11.557  11.256  71.545  1.00  0.00     1.462 C  
ENDROOT
BRANCH   4  28
HETATM   28  C   UNL     1      -8.423   8.107  64.087  1.00  0.00     0.078 C  
HETATM   29  O   UNL     1      -7.908   8.153  62.958  1.00  0.00    -0.134 OA 
BRANCH  28  30
HETATM   30  C   UNL     1      -8.942   6.730  64.515  1.00  0.00     0.838 C  
HETATM   31  O   UNL     1      -8.194   5.718  63.840  1.00  0.00    -0.146 OA 
HETATM   32  H   UNL     1      -8.516   4.864  64.106  1.00  0.00     0.000 HD 
ENDBRANCH  28  30
ENDBRANCH   4  28
TORSDOF 2
ENDMDL
MODEL      110
REMARK 921   NORMALIZED FREE ENERGY PREDICTED BY IDOCK:    8.71 KCAL/MOL
REMARK 922        TOTAL FREE ENERGY PREDICTED BY IDOCK:   10.44 KCAL/MOL
REMARK 923 INTER-LIGAND FREE ENERGY PREDICTED BY IDOCK:    8.23 KCAL/MOL
REMARK 924 INTRA-LIGAND FREE ENERGY PREDICTED BY IDOCK:    2.21 KCAL/MOL
REMARK 927      BINDING AFFINITY PREDICTED BY RF-SCORE:    0.00 PKD
ROOT
HETATM    1  C   UNL     1     -12.537  14.607  67.661  1.00  0.00     0.641 C  
HETATM    2  C   UNL     1     -13.244  13.445  68.042  1.00  0.00     3.695 C  
HETATM    3  C   UNL     1     -12.084  13.716  68.979  1.00  0.00    -0.348 C  
HETATM    4  C   UNL     1     -11.158  15.546  68.764  1.00  0.00    -0.291 C  
HETATM    5  C   UNL     1     -12.595  12.742  70.257  1.00  0.00    -0.061 C  
HETATM    6  O   UNL     1     -11.679  16.587  67.845  1.00  0.00     0.056 OA 
HETATM    7  C   UNL     1      -9.116  10.696  67.236  1.00  0.00    -0.151 C  
HETATM    8  C   UNL     1     -12.145  15.022  69.518  1.00  0.00    -0.311 C  
HETATM    9  C   UNL     1     -10.414  14.348  70.112  1.00  0.00     0.425 C  
HETATM   10  C   UNL     1     -13.296  15.737  70.235  1.00  0.00     0.616 C  
HETATM   11  C   UNL     1      -9.235  12.050  66.416  1.00  0.00    -0.216 C  
HETATM   12  C   UNL     1      -7.798  12.333  66.008  1.00  0.00     1.016 C  
HETATM   13  H   UNL     1     -11.252  17.430  67.746  1.00  0.00     0.000 HD 
HETATM   14  C   UNL     1      -9.451  13.581  68.781  1.00  0.00     0.043 C  
HETATM   15  C   UNL     1      -7.309  11.856  64.838  1.00  0.00     2.983 C  
HETATM   16  O   UNL     1      -7.770  10.779  62.748  1.00  0.00    -0.106 OA 
HETATM   17  O   UNL     1      -8.373  14.471  68.460  1.00  0.00    -0.149 OA 
HETATM   18  C   UNL     1     -10.160  12.985  67.314  1.00  0.00    -0.235 C  
HETATM   19  H   UNL     1      -7.868  14.070  67.763  1.00  0.00     0.000 HD 
HETATM   20  C   UNL     1     -11.132  14.108  66.655  1.00  0.00    -0.314 C  
HETATM   21  F   UNL     1     -11.084  11.949  67.595  1.00  0.00    -0.236 F  
HETATM   22  C   UNL     1     -11.670  13.639  65.294  1.00  0.00    -0.349 C  
HETATM   23  C   UNL     1     -10.581  13.032  64.434  1.00  0.00    -0.409 C  
HETATM   24  F   UNL     1     -11.115  12.728  63.227  1.00  0.00    -0.476 F  
HETATM   25  C   UNL     1      -9.997  11.790  65.085  1.00  0.00    -0.285 C  
HETATM   26  C   UNL     1      -9.575  10.774  64.309  1.00  0.00    -0.333 C  
HETATM   27  C   UNL     1      -8.182  11.125  63.849  1.00  0.00     0.511 C  
ENDROOT
BRANCH   4  28
HETATM   28  C   UNL     1     -10.767  16.801  69.887  1.00  0.00    -0.119 C  
HETATM   29  O   UNL     1      -9.881  17.661  69.754  1.00  0.00     0.275 OA 
BRANCH  28  30
HETATM   30  C   UNL     1     -11.622  16.930  71.153  1.00  0.00     0.760 C  
HETATM   31  O   UNL     1     -11.315  18.167  71.799  1.00  0.00     1.603 OA 
HETATM   32  H   UNL     1     -11.845  18.247  72.583  1.00  0.00     0.000 HD 
ENDBRANCH  28  30
ENDBRANCH   4  28
TORSDOF 2
ENDMDL
MODEL      111
REMARK 921   NORMALIZED FREE ENERGY PREDICTED BY IDOCK:   10.22 KCAL/MOL
REMARK 922        TOTAL FREE ENERGY PREDICTED BY IDOCK:   12.12 KCAL/MOL
REMARK 923 INTER-LIGAND FREE ENERGY PREDICTED BY IDOCK:   10.47 KCAL/MOL
REMARK 924 INTRA-LIGAND FREE ENERGY PREDICTED BY IDOCK:    1.66 KCAL/MOL
REMARK 927      BINDING AFFINITY PREDICTED BY RF-SCORE:    0.00 PKD
ROOT
HETATM    1  C   UNL     1      -8.166  12.875  66.168  1.00  0.00     1.005 C  
HETATM    2  C   UNL     1      -7.107  12.816  65.237  1.00  0.00     6.397 C  
HETATM    3  C   UNL     1      -8.283  11.974  64.786  1.00  0.00     2.002 C  
HETATM    4  C   UNL     1     -10.029  12.214  65.859  1.00  0.00    -0.245 C  
HETATM    5  C   UNL     1      -7.850  11.831  63.163  1.00  0.00     1.736 C  
HETATM    6  O   UNL     1     -10.165  13.246  66.917  1.00  0.00    -0.245 OA 
HETATM    7  C   UNL     1      -6.683   7.878  66.068  1.00  0.00    -0.053 C  
HETATM    8  C   UNL     1      -9.477  12.730  64.742  1.00  0.00     0.385 C  
HETATM    9  C   UNL     1     -10.067  10.899  64.418  1.00  0.00    -0.402 C  
HETATM   10  C   UNL     1      -9.770  14.066  64.049  1.00  0.00     2.596 C  
HETATM   11  C   UNL     1      -7.296   8.744  67.248  1.00  0.00    -0.081 C  
HETATM   12  C   UNL     1      -8.033   7.712  68.086  1.00  0.00    -0.123 C  
HETATM   13  H   UNL     1     -10.969  13.356  67.410  1.00  0.00     0.000 HD 
HETATM   14  C   UNL     1      -9.378   9.708  65.598  1.00  0.00    -0.237 C  
HETATM   15  C   UNL     1      -7.402   7.070  69.099  1.00  0.00    -0.092 C  
HETATM   16  O   UNL     1      -5.455   6.916  70.486  1.00  0.00    -0.022 OA 
HETATM   17  O   UNL     1     -10.438   9.306  66.477  1.00  0.00    -0.227 OA 
HETATM   18  C   UNL     1      -7.944  10.008  66.528  1.00  0.00    -0.115 C  
HETATM   19  H   UNL     1     -10.077   8.682  67.094  1.00  0.00     0.000 HD 
HETATM   20  C   UNL     1      -8.036  11.454  67.262  1.00  0.00    -0.149 C  
HETATM   21  F   UNL     1      -6.830  10.202  65.673  1.00  0.00    -0.095 F  
HETATM   22  C   UNL     1      -6.828  11.679  68.185  1.00  0.00    -0.068 C  
HETATM   23  C   UNL     1      -6.525  10.459  69.029  1.00  0.00    -0.052 C  
HETATM   24  F   UNL     1      -5.510  10.768  69.872  1.00  0.00    -0.037 F  
HETATM   25  C   UNL     1      -6.150   9.271  68.159  1.00  0.00    -0.053 C  
HETATM   26  C   UNL     1      -5.249   8.379  68.612  1.00  0.00    -0.032 C  
HETATM   27  C   UNL     1      -5.994   7.422  69.508  1.00  0.00    -0.027 C  
ENDROOT
BRANCH   4  28
HETATM   28  C   UNL     1     -11.657  12.550  65.387  1.00  0.00    -0.375 C  
HETATM   29  O   UNL     1     -12.454  13.303  65.970  1.00  0.00    -0.405 OA 
BRANCH  28  30
HETATM   30  C   UNL     1     -12.179  11.921  64.091  1.00  0.00    -0.281 C  
HETATM   31  O   UNL     1     -13.558  12.256  63.932  1.00  0.00    -0.239 OA 
HETATM   32  H   UNL     1     -13.881  11.866  63.128  1.00  0.00     0.000 HD 
ENDBRANCH  28  30
ENDBRANCH   4  28
TORSDOF 2
ENDMDL
MODEL      112
REMARK 921   NORMALIZED FREE ENERGY PREDICTED BY IDOCK:   11.03 KCAL/MOL
REMARK 922        TOTAL FREE ENERGY PREDICTED BY IDOCK:   13.02 KCAL/MOL
REMARK 923 INTER-LIGAND FREE ENERGY PREDICTED BY IDOCK:   11.79 KCAL/MOL
REMARK 924 INTRA-LIGAND FREE ENERGY PREDICTED BY IDOCK:    1.23 KCAL/MOL
REMARK 927      BINDING AFFINITY PREDICTED BY RF-SCORE:    0.00 PKD
ROOT
HETATM    1  C   UNL     1     -11.988  11.561  66.269  1.00  0.00     0.616 C  
HETATM    2  C   UNL     1     -12.956  11.938  65.312  1.00  0.00     1.880 C  
HETATM    3  C   UNL     1     -11.575  11.856  64.694  1.00  0.00    -0.320 C  
HETATM    4  C   UNL     1     -10.110  11.000  65.869  1.00  0.00    -0.249 C  
HETATM    5  C   UNL     1     -12.054  11.778  63.080  1.00  0.00    -0.252 C  
HETATM    6  O   UNL     1     -10.418  10.380  67.181  1.00  0.00    -0.228 OA 
HETATM    7  C   UNL     1     -10.595  16.329  64.686  1.00  0.00     0.213 C  
HETATM    8  C   UNL     1     -10.979  10.593  64.920  1.00  0.00     0.247 C  
HETATM    9  C   UNL     1      -9.551  11.652  64.117  1.00  0.00    -0.138 C  
HETATM   10  C   UNL     1     -11.523   9.186  64.650  1.00  0.00     9.326 C  
HETATM   11  C   UNL     1     -10.400  15.616  66.090  1.00  0.00    -0.329 C  
HETATM   12  C   UNL     1      -9.135  16.261  66.632  1.00  0.00    -0.278 C  
HETATM   13  H   UNL     1      -9.743   9.986  67.721  1.00  0.00     0.000 HD 
HETATM   14  C   UNL     1      -9.358  13.286  64.877  1.00  0.00     0.814 C  
HETATM   15  C   UNL     1      -9.206  17.381  67.391  1.00  0.00    -0.236 C  
HETATM   16  O   UNL     1     -10.595  18.923  68.589  1.00  0.00    -0.159 OA 
HETATM   17  O   UNL     1      -8.152  13.263  65.652  1.00  0.00     1.587 OA 
HETATM   18  C   UNL     1     -10.612  14.067  65.788  1.00  0.00    -0.299 C  
HETATM   19  H   UNL     1      -8.051  14.120  66.050  1.00  0.00     0.000 HD 
HETATM   20  C   UNL     1     -11.215  13.054  66.907  1.00  0.00    -0.331 C  
HETATM   21  F   UNL     1     -11.750  14.290  64.975  1.00  0.00    -0.329 F  
HETATM   22  C   UNL     1     -12.239  13.771  67.801  1.00  0.00    -0.208 C  
HETATM   23  C   UNL     1     -11.747  15.131  68.248  1.00  0.00    -0.314 C  
HETATM   24  F   UNL     1     -12.663  15.655  69.098  1.00  0.00    -0.120 F  
HETATM   25  C   UNL     1     -11.534  16.055  67.060  1.00  0.00     0.284 C  
HETATM   26  C   UNL     1     -11.765  17.374  67.200  1.00  0.00     1.620 C  
HETATM   27  C   UNL     1     -10.526  17.970  67.820  1.00  0.00    -0.408 C  
ENDROOT
BRANCH   4  28
HETATM   28  C   UNL     1      -8.977   9.726  65.586  1.00  0.00    -0.163 C  
HETATM   29  O   UNL     1      -7.896   9.821  64.983  1.00  0.00    -0.117 OA 
BRANCH  28  30
HETATM   30  C   UNL     1      -9.278   8.345  66.179  1.00  0.00    -0.205 C  
HETATM   31  O   UNL     1      -8.047   7.679  66.458  1.00  0.00    -0.112 OA 
HETATM   32  H   UNL     1      -8.233   6.823  66.826  1.00  0.00     0.000 HD 
ENDBRANCH  28  30
ENDBRANCH   4  28
TORSDOF 2
ENDMDL
MODEL      113
REMARK 921   NORMALIZED FREE ENERGY PREDICTED BY IDOCK:   11.07 KCAL/MOL
REMARK 922        TOTAL FREE ENERGY PREDICTED BY IDOCK:   13.07 KCAL/MOL
REMARK 923 INTER-LIGAND FREE ENERGY PREDICTED BY IDOCK:   12.10 KCAL/MOL
REMARK 924 INTRA-LIGAND FREE ENERGY PREDICTED BY IDOCK:    0.98 KCAL/MOL
REMARK 927      BINDING AFFINITY PREDICTED BY RF-SCORE:    0.00 PKD
ROOT
HETATM    1  C   UNL     1     -11.696  12.708  68.618  1.00  0.00    -0.364 C  
HETATM    2  C   UNL     1     -11.617  11.761  69.662  1.00  0.00    -0.393 C  
HETATM    3  C   UNL     1     -10.877  13.035  70.018  1.00  0.00     0.787 C  
HETATM    4  C   UNL     1     -11.174  14.635  68.750  1.00  0.00    -0.267 C  
HETATM    5  C   UNL     1     -10.793  12.789  71.684  1.00  0.00     6.486 C  
HETATM    6  O   UNL     1     -12.155  14.585  67.638  1.00  0.00    -0.542 OA 
HETATM    7  C   UNL     1      -6.625  11.600  69.107  1.00  0.00    -0.101 C  
HETATM    8  C   UNL     1     -11.711  14.171  69.897  1.00  0.00    -0.372 C  
HETATM    9  C   UNL     1      -9.942  14.919  70.236  1.00  0.00     0.342 C  
HETATM   10  C   UNL     1     -13.098  14.442  70.492  1.00  0.00    -0.198 C  
HETATM   11  C   UNL     1      -7.465  12.021  67.828  1.00  0.00    -0.121 C  
HETATM   12  C   UNL     1      -6.440  12.735  66.963  1.00  0.00     0.256 C  
HETATM   13  H   UNL     1     -12.291  15.322  67.054  1.00  0.00     0.000 HD 
HETATM   14  C   UNL     1      -8.648  14.194  69.194  1.00  0.00     0.221 C  
HETATM   15  C   UNL     1      -5.707  12.046  66.055  1.00  0.00     1.268 C  
HETATM   16  O   UNL     1      -5.353   9.977  64.899  1.00  0.00    -0.062 OA 
HETATM   17  O   UNL     1      -8.270  15.180  68.223  1.00  0.00    -0.136 OA 
HETATM   18  C   UNL     1      -8.805  12.651  68.415  1.00  0.00    -0.119 C  
HETATM   19  H   UNL     1      -7.592  14.800  67.678  1.00  0.00     0.000 HD 
HETATM   20  C   UNL     1     -10.213  12.562  67.610  1.00  0.00    -0.220 C  
HETATM   21  F   UNL     1      -8.970  11.624  69.377  1.00  0.00     0.133 F  
HETATM   22  C   UNL     1     -10.310  11.250  66.817  1.00  0.00    -0.278 C  
HETATM   23  C   UNL     1      -9.030  10.945  66.068  1.00  0.00    -0.186 C  
HETATM   24  F   UNL     1      -9.228   9.827  65.328  1.00  0.00    -0.201 F  
HETATM   25  C   UNL     1      -7.867  10.750  67.026  1.00  0.00    -0.121 C  
HETATM   26  C   UNL     1      -6.896   9.870  66.716  1.00  0.00    -0.084 C  
HETATM   27  C   UNL     1      -5.944  10.581  65.788  1.00  0.00    -0.129 C  
ENDROOT
BRANCH   4  28
HETATM   28  C   UNL     1     -11.640  16.277  69.024  1.00  0.00    -0.231 C  
HETATM   29  O   UNL     1     -11.535  16.905  70.089  1.00  0.00     0.230 OA 
BRANCH  28  30
HETATM   30  C   UNL     1     -12.180  17.083  67.837  1.00  0.00     2.042 C  
HETATM   31  O   UNL     1     -12.817  18.264  68.326  1.00  0.00     4.460 OA 
HETATM   32  H   UNL     1     -13.152  18.764  67.591  1.00  0.00     0.000 HD 
ENDBRANCH  28  30
ENDBRANCH   4  28
TORSDOF 2
ENDMDL
MODEL      114
REMARK 921   NORMALIZED FREE ENERGY PREDICTED BY IDOCK:   11.41 KCAL/MOL
REMARK 922        TOTAL FREE ENERGY PREDICTED BY IDOCK:   13.46 KCAL/MOL
REMARK 923 INTER-LIGAND FREE ENERGY PREDICTED BY IDOCK:    7.38 KCAL/MOL
REMARK 924 INTRA-LIGAND FREE ENERGY PREDICTED BY IDOCK:    6.08 KCAL/MOL
REMARK 927      BINDING AFFINITY PREDICTED BY RF-SCORE:    0.00 PKD
ROOT
HETATM    1  C   UNL     1      -7.784   8.866  68.093  1.00  0.00    -0.100 C  
HETATM    2  C   UNL     1      -7.789   9.666  66.930  1.00  0.00    -0.102 C  
HETATM    3  C   UNL     1      -9.154   9.644  67.588  1.00  0.00    -0.141 C  
HETATM    4  C   UNL     1      -9.236   8.798  69.468  1.00  0.00    -0.149 C  
HETATM    5  C   UNL     1      -9.794  11.004  66.825  1.00  0.00    -0.229 C  
HETATM    6  O   UNL     1      -8.014   8.365  70.188  1.00  0.00    -0.096 OA 
HETATM    7  C   UNL     1     -11.152   6.571  64.842  1.00  0.00     6.560 C  
HETATM    8  C   UNL     1      -9.083  10.032  68.945  1.00  0.00    -0.159 C  
HETATM    9  C   UNL     1     -10.925   9.431  68.723  1.00  0.00    -0.080 C  
HETATM   10  C   UNL     1      -8.455  11.278  69.580  1.00  0.00     0.761 C  
HETATM   11  C   UNL     1     -10.210   5.944  65.955  1.00  0.00     0.248 C  
HETATM   12  C   UNL     1     -10.973   4.706  66.395  1.00  0.00     0.601 C  
HETATM   13  H   UNL     1      -8.052   7.976  71.054  1.00  0.00     0.000 HD 
HETATM   14  C   UNL     1     -11.058   7.832  67.880  1.00  0.00     0.284 C  
HETATM   15  C   UNL     1     -10.768   3.517  65.779  1.00  0.00     1.426 C  
HETATM   16  O   UNL     1      -9.453   2.247  64.230  1.00  0.00    -0.133 OA 
HETATM   17  O   UNL     1     -11.441   6.856  68.859  1.00  0.00    -0.533 OA 
HETATM   18  C   UNL     1      -9.801   7.176  66.878  1.00  0.00    -0.208 C  
HETATM   19  H   UNL     1     -11.510   6.018  68.417  1.00  0.00     0.000 HD 
HETATM   20  C   UNL     1      -8.374   7.225  67.652  1.00  0.00    -0.117 C  
HETATM   21  F   UNL     1      -9.549   8.031  65.776  1.00  0.00    -0.179 F  
HETATM   22  C   UNL     1      -7.277   6.537  66.825  1.00  0.00    -0.077 C  
HETATM   23  C   UNL     1      -7.744   5.214  66.254  1.00  0.00    -0.088 C  
HETATM   24  F   UNL     1      -6.697   4.634  65.618  1.00  0.00    -0.049 F  
HETATM   25  C   UNL     1      -8.906   5.411  65.295  1.00  0.00    -0.132 C  
HETATM   26  C   UNL     1      -9.029   4.596  64.231  1.00  0.00    -0.136 C  
HETATM   27  C   UNL     1      -9.710   3.342  64.719  1.00  0.00    -0.131 C  
ENDROOT
BRANCH   4  28
HETATM   28  C   UNL     1      -9.870   9.356  70.976  1.00  0.00    -0.247 C  
HETATM   29  O   UNL     1      -9.643   8.871  72.096  1.00  0.00    -0.301 OA 
BRANCH  28  30
HETATM   30  C   UNL     1     -10.754  10.609  70.971  1.00  0.00     1.136 C  
HETATM   31  O   UNL     1     -11.469  10.670  69.736  1.00  0.00    -0.254 OA 
HETATM   32  H   UNL     1     -12.017  11.446  69.733  1.00  0.00     0.000 HD 
ENDBRANCH  28  30
ENDBRANCH   4  28
TORSDOF 2
ENDMDL
MODEL      115
REMARK 921   NORMALIZED FREE ENERGY PREDICTED BY IDOCK:   11.97 KCAL/MOL
REMARK 922        TOTAL FREE ENERGY PREDICTED BY IDOCK:   14.07 KCAL/MOL
REMARK 923 INTER-LIGAND FREE ENERGY PREDICTED BY IDOCK:   13.14 KCAL/MOL
REMARK 924 INTRA-LIGAND FREE ENERGY PREDICTED BY IDOCK:    0.93 KCAL/MOL
REMARK 927      BINDING AFFINITY PREDICTED BY RF-SCORE:    0.00 PKD
ROOT
HETATM    1  C   UNL     1      -8.312   5.217  66.277  1.00  0.00    -0.113 C  
HETATM    2  C   UNL     1      -7.238   4.791  67.089  1.00  0.00    -0.077 C  
HETATM    3  C   UNL     1      -8.477   3.953  67.332  1.00  0.00    -0.103 C  
HETATM    4  C   UNL     1     -10.027   4.224  65.997  1.00  0.00    -0.219 C  
HETATM    5  C   UNL     1      -7.723   2.649  68.088  1.00  0.00    -0.055 C  
HETATM    6  O   UNL     1      -9.887   5.082  64.795  1.00  0.00    -0.361 OA 
HETATM    7  C   UNL     1      -9.892   5.983  71.186  1.00  0.00    -0.214 C  
HETATM    8  C   UNL     1      -8.972   3.395  66.131  1.00  0.00    -0.145 C  
HETATM    9  C   UNL     1     -10.341   2.960  67.450  1.00  0.00     2.247 C  
HETATM   10  C   UNL     1      -8.249   2.573  65.058  1.00  0.00    -0.087 C  
HETATM   11  C   UNL     1     -10.251   6.773  69.856  1.00  0.00    -0.211 C  
HETATM   12  C   UNL     1     -11.649   7.299  70.136  1.00  0.00    -0.149 C  
HETATM   13  H   UNL     1     -10.600   5.207  64.181  1.00  0.00     0.000 HD 
HETATM   14  C   UNL     1     -10.826   4.379  68.470  1.00  0.00     1.848 C  
HETATM   15  C   UNL     1     -11.825   8.512  70.712  1.00  0.00    -0.184 C  
HETATM   16  O   UNL     1     -10.826  10.569  71.430  1.00  0.00     0.652 OA 
HETATM   17  O   UNL     1     -12.139   4.781  68.055  1.00  0.00     6.178 OA 
HETATM   18  C   UNL     1      -9.834   5.787  68.677  1.00  0.00    -0.138 C  
HETATM   19  H   UNL     1     -12.394   5.523  68.589  1.00  0.00     0.000 HD 
HETATM   20  C   UNL     1      -9.332   6.345  67.237  1.00  0.00    -0.125 C  
HETATM   21  F   UNL     1      -8.602   5.440  69.285  1.00  0.00    -0.099 F  
HETATM   22  C   UNL     1      -8.554   7.661  67.398  1.00  0.00    -0.125 C  
HETATM   23  C   UNL     1      -9.252   8.619  68.341  1.00  0.00    -0.138 C  
HETATM   24  F   UNL     1      -8.553   9.780  68.359  1.00  0.00    -0.114 F  
HETATM   25  C   UNL     1      -9.351   8.036  69.740  1.00  0.00    -0.159 C  
HETATM   26  C   UNL     1      -9.284   8.858  70.805  1.00  0.00    -0.272 C  
HETATM   27  C   UNL     1     -10.664   9.432  71.001  1.00  0.00    -0.337 C  
ENDROOT
BRANCH   4  28
HETATM   28  C   UNL     1     -10.959   3.124  65.045  1.00  0.00     1.391 C  
HETATM   29  O   UNL     1     -11.079   1.903  65.235  1.00  0.00     2.709 OA 
BRANCH  28  30
HETATM   30  C   UNL     1     -11.780   3.690  63.881  1.00  0.00     1.715 C  
HETATM   31  O   UNL     1     -10.921   3.889  62.758  1.00  0.00    -0.176 OA 
HETATM   32  H   UNL     1     -11.430   4.240  62.036  1.00  0.00     0.000 HD 
ENDBRANCH  28  30
ENDBRANCH   4  28
TORSDOF 2
ENDMDL
MODEL      116
REMARK 921   NORMALIZED FREE ENERGY PREDICTED BY IDOCK:   12.67 KCAL/MOL
REMARK 922        TOTAL FREE ENERGY PREDICTED BY IDOCK:   14.86 KCAL/MOL
REMARK 923 INTER-LIGAND FREE ENERGY PREDICTED BY IDOCK:   13.10 KCAL/MOL
REMARK 924 INTRA-LIGAND FREE ENERGY PREDICTED BY IDOCK:    1.77 KCAL/MOL
REMARK 927      BINDING AFFINITY PREDICTED BY RF-SCORE:    0.00 PKD
ROOT
HETATM    1  C   UNL     1      -8.751  12.984  68.049  1.00  0.00    -0.187 C  
HETATM    2  C   UNL     1     -10.070  12.537  68.281  1.00  0.00    -0.228 C  
HETATM    3  C   UNL     1      -9.087  11.857  69.213  1.00  0.00     0.669 C  
HETATM    4  C   UNL     1      -7.177  12.636  69.234  1.00  0.00     0.162 C  
HETATM    5  C   UNL     1     -10.200  11.306  70.352  1.00  0.00     1.814 C  
HETATM    6  O   UNL     1      -6.823  13.870  68.489  1.00  0.00    -0.083 OA 
HETATM    7  C   UNL     1      -8.698   7.885  66.967  1.00  0.00    -0.132 C  
HETATM    8  C   UNL     1      -8.318  12.799  69.935  1.00  0.00     2.640 C  
HETATM    9  C   UNL     1      -7.497  11.085  70.374  1.00  0.00     1.291 C  
HETATM   10  C   UNL     1      -8.769  13.995  70.781  1.00  0.00     4.331 C  
HETATM   11  C   UNL     1      -7.844   9.074  66.353  1.00  0.00    -0.099 C  
HETATM   12  C   UNL     1      -6.548   8.393  65.947  1.00  0.00    -0.053 C  
HETATM   13  H   UNL     1      -5.944  14.228  68.499  1.00  0.00     0.000 HD 
HETATM   14  C   UNL     1      -7.176  10.053  68.919  1.00  0.00    -0.077 C  
HETATM   15  C   UNL     1      -6.407   7.865  64.707  1.00  0.00    -0.048 C  
HETATM   16  O   UNL     1      -7.308   7.635  62.499  1.00  0.00    -0.084 OA 
HETATM   17  O   UNL     1      -5.759  10.047  68.696  1.00  0.00    -0.039 OA 
HETATM   18  C   UNL     1      -7.995  10.262  67.403  1.00  0.00    -0.107 C  
HETATM   19  H   UNL     1      -5.591   9.506  67.934  1.00  0.00     0.000 HD 
HETATM   20  C   UNL     1      -7.946  11.819  66.941  1.00  0.00    -0.149 C  
HETATM   21  F   UNL     1      -9.389  10.063  67.561  1.00  0.00    -0.144 F  
HETATM   22  C   UNL     1      -8.560  11.997  65.544  1.00  0.00     0.597 C  
HETATM   23  C   UNL     1      -8.074  10.940  64.573  1.00  0.00     0.257 C  
HETATM   24  F   UNL     1      -8.589  11.219  63.351  1.00  0.00    -0.079 F  
HETATM   25  C   UNL     1      -8.493   9.551  65.022  1.00  0.00    -0.165 C  
HETATM   26  C   UNL     1      -8.783   8.617  64.096  1.00  0.00     0.043 C  
HETATM   27  C   UNL     1      -7.471   8.022  63.650  1.00  0.00    -0.118 C  
ENDROOT
BRANCH   4  28
HETATM   28  C   UNL     1      -6.143  13.169  70.513  1.00  0.00    -0.017 C  
HETATM   29  O   UNL     1      -5.182  13.949  70.409  1.00  0.00    -0.095 OA 
BRANCH  28  30
HETATM   30  C   UNL     1      -6.456  12.700  71.938  1.00  0.00     3.593 C  
HETATM   31  O   UNL     1      -5.855  13.602  72.868  1.00  0.00    -0.396 OA 
HETATM   32  H   UNL     1      -6.049  13.312  73.752  1.00  0.00     0.000 HD 
ENDBRANCH  28  30
ENDBRANCH   4  28
TORSDOF 2
ENDMDL
MODEL      117
REMARK 921   NORMALIZED FREE ENERGY PREDICTED BY IDOCK:   19.74 KCAL/MOL
REMARK 922        TOTAL FREE ENERGY PREDICTED BY IDOCK:   22.76 KCAL/MOL
REMARK 923 INTER-LIGAND FREE ENERGY PREDICTED BY IDOCK:   21.82 KCAL/MOL
REMARK 924 INTRA-LIGAND FREE ENERGY PREDICTED BY IDOCK:    0.94 KCAL/MOL
REMARK 927      BINDING AFFINITY PREDICTED BY RF-SCORE:    0.00 PKD
ROOT
HETATM    1  C   UNL     1      -7.822  15.915  70.733  1.00  0.00     2.607 C  
HETATM    2  C   UNL     1      -6.639  16.140  69.996  1.00  0.00     0.053 C  
HETATM    3  C   UNL     1      -7.767  15.674  69.098  1.00  0.00    -0.212 C  
HETATM    4  C   UNL     1      -9.642  15.622  69.956  1.00  0.00     0.065 C  
HETATM    5  C   UNL     1      -7.104  16.169  67.629  1.00  0.00    -0.170 C  
HETATM    6  O   UNL     1      -9.895  16.137  71.324  1.00  0.00     2.002 OA 
HETATM    7  C   UNL     1      -6.534  11.280  68.724  1.00  0.00    -0.058 C  
HETATM    8  C   UNL     1      -8.912  16.494  69.232  1.00  0.00    -0.083 C  
HETATM    9  C   UNL     1      -9.516  15.023  68.103  1.00  0.00    -0.196 C  
HETATM   10  C   UNL     1      -9.047  18.018  69.134  1.00  0.00     0.084 C  
HETATM   11  C   UNL     1      -7.282  11.641  70.077  1.00  0.00     0.766 C  
HETATM   12  C   UNL     1      -8.174  10.432  70.309  1.00  0.00     0.546 C  
HETATM   13  H   UNL     1     -10.758  16.113  71.719  1.00  0.00     0.000 HD 
HETATM   14  C   UNL     1      -9.056  13.392  68.747  1.00  0.00     0.120 C  
HETATM   15  C   UNL     1      -7.725   9.374  71.027  1.00  0.00    -0.031 C  
HETATM   16  O   UNL     1      -6.013   8.477  72.443  1.00  0.00    -0.058 OA 
HETATM   17  O   UNL     1     -10.250  12.771  69.244  1.00  0.00    -0.405 OA 
HETATM   18  C   UNL     1      -7.766  13.145  69.881  1.00  0.00     1.589 C  
HETATM   19  H   UNL     1     -10.009  11.916  69.581  1.00  0.00     0.000 HD 
HETATM   20  C   UNL     1      -7.911  14.164  71.137  1.00  0.00     3.860 C  
HETATM   21  F   UNL     1      -6.531  13.563  69.326  1.00  0.00    -0.091 F  
HETATM   22  C   UNL     1      -6.846  13.873  72.206  1.00  0.00     3.217 C  
HETATM   23  C   UNL     1      -6.718  12.391  72.490  1.00  0.00     6.594 C  
HETATM   24  F   UNL     1      -5.829  12.228  73.499  1.00  0.00     0.968 F  
HETATM   25  C   UNL     1      -6.265  11.634  71.253  1.00  0.00     1.279 C  
HETATM   26  C   UNL     1      -5.475  10.552  71.394  1.00  0.00     0.003 C  
HETATM   27  C   UNL     1      -6.381   9.389  71.711  1.00  0.00     0.110 C  
ENDROOT
BRANCH   4  28
HETATM   28  C   UNL     1     -11.168  16.278  69.478  1.00  0.00    -0.308 C  
HETATM   29  O   UNL     1     -11.422  16.852  68.407  1.00  0.00    -0.136 OA 
BRANCH  28  30
HETATM   30  C   UNL     1     -12.362  16.093  70.422  1.00  0.00     0.179 C  
HETATM   31  O   UNL     1     -12.801  14.736  70.360  1.00  0.00    -0.476 OA 
HETATM   32  H   UNL     1     -13.540  14.621  70.946  1.00  0.00     0.000 HD 
ENDBRANCH  28  30
ENDBRANCH   4  28
TORSDOF 2
ENDMDL
MODEL      118
REMARK 921   NORMALIZED FREE ENERGY PREDICTED BY IDOCK:   19.81 KCAL/MOL
REMARK 922        TOTAL FREE ENERGY PREDICTED BY IDOCK:   22.84 KCAL/MOL
REMARK 923 INTER-LIGAND FREE ENERGY PREDICTED BY IDOCK:   21.70 KCAL/MOL
REMARK 924 INTRA-LIGAND FREE ENERGY PREDICTED BY IDOCK:    1.13 KCAL/MOL
REMARK 927      BINDING AFFINITY PREDICTED BY RF-SCORE:    0.00 PKD
ROOT
HETATM    1  C   UNL     1     -12.121  11.232  67.379  1.00  0.00     0.603 C  
HETATM    2  C   UNL     1     -11.569  12.212  66.526  1.00  0.00    -0.425 C  
HETATM    3  C   UNL     1     -10.485  11.419  67.228  1.00  0.00    -0.241 C  
HETATM    4  C   UNL     1     -11.112   9.738  68.247  1.00  0.00    -0.102 C  
HETATM    5  C   UNL     1      -9.207  11.830  66.208  1.00  0.00    -0.227 C  
HETATM    6  O   UNL     1     -12.514   9.258  68.182  1.00  0.00     2.938 OA 
HETATM    7  C   UNL     1      -9.473  14.456  70.504  1.00  0.00     2.129 C  
HETATM    8  C   UNL     1     -10.638  10.029  67.018  1.00  0.00    -0.279 C  
HETATM    9  C   UNL     1      -9.207  10.151  68.338  1.00  0.00    -0.133 C  
HETATM   10  C   UNL     1     -10.798   9.244  65.711  1.00  0.00     1.551 C  
HETATM   11  C   UNL     1     -10.779  13.598  70.783  1.00  0.00     2.270 C  
HETATM   12  C   UNL     1     -10.696  13.318  72.275  1.00  0.00     8.216 C  
HETATM   13  H   UNL     1     -12.802   8.484  68.651  1.00  0.00     0.000 HD 
HETATM   14  C   UNL     1      -9.597  11.264  69.715  1.00  0.00     0.967 C  
HETATM   15  C   UNL     1     -11.259  14.169  73.166  1.00  0.00     2.559 C  
HETATM   16  O   UNL     1     -12.670  16.072  73.525  1.00  0.00    -0.495 OA 
HETATM   17  O   UNL     1      -9.843  10.452  70.871  1.00  0.00     0.091 OA 
HETATM   18  C   UNL     1     -10.802  12.509  69.621  1.00  0.00     0.322 C  
HETATM   19  H   UNL     1     -10.047  11.035  71.592  1.00  0.00     0.000 HD 
HETATM   20  C   UNL     1     -12.196  11.908  69.043  1.00  0.00    -0.103 C  
HETATM   21  F   UNL     1     -10.467  13.448  68.614  1.00  0.00    -0.231 F  
HETATM   22  C   UNL     1     -13.306  12.971  69.070  1.00  0.00     3.371 C  
HETATM   23  C   UNL     1     -13.334  13.727  70.382  1.00  0.00     0.468 C  
HETATM   24  F   UNL     1     -14.389  14.577  70.358  1.00  0.00     0.270 F  
HETATM   25  C   UNL     1     -12.039  14.491  70.602  1.00  0.00    -0.392 C  
HETATM   26  C   UNL     1     -12.071  15.671  71.250  1.00  0.00    -0.463 C  
HETATM   27  C   UNL     1     -12.076  15.357  72.725  1.00  0.00    -0.433 C  
ENDROOT
BRANCH   4  28
HETATM   28  C   UNL     1     -10.596   8.089  68.216  1.00  0.00    -0.101 C  
HETATM   29  O   UNL     1      -9.817   7.575  67.397  1.00  0.00    -0.147 OA 
BRANCH  28  30
HETATM   30  C   UNL     1     -11.080   7.159  69.334  1.00  0.00    -0.110 C  
HETATM   31  O   UNL     1     -10.113   6.127  69.533  1.00  0.00    -0.168 OA 
HETATM   32  H   UNL     1     -10.413   5.550  70.227  1.00  0.00     0.000 HD 
ENDBRANCH  28  30
ENDBRANCH   4  28
TORSDOF 2
ENDMDL
MODEL      119
REMARK 921   NORMALIZED FREE ENERGY PREDICTED BY IDOCK:   20.93 KCAL/MOL
REMARK 922        TOTAL FREE ENERGY PREDICTED BY IDOCK:   24.09 KCAL/MOL
REMARK 923 INTER-LIGAND FREE ENERGY PREDICTED BY IDOCK:   23.17 KCAL/MOL
REMARK 924 INTRA-LIGAND FREE ENERGY PREDICTED BY IDOCK:    0.92 KCAL/MOL
REMARK 927      BINDING AFFINITY PREDICTED BY RF-SCORE:    0.00 PKD
ROOT
HETATM    1  C   UNL     1      -8.671  15.523  70.257  1.00  0.00     0.896 C  
HETATM    2  C   UNL     1      -8.478  16.505  71.253  1.00  0.00     6.748 C  
HETATM    3  C   UNL     1      -9.952  16.268  70.993  1.00  0.00     2.112 C  
HETATM    4  C   UNL     1     -10.410  14.638  69.814  1.00  0.00     0.065 C  
HETATM    5  C   UNL     1     -10.546  16.963  72.409  1.00  0.00     3.761 C  
HETATM    6  O   UNL     1      -9.372  13.678  69.364  1.00  0.00    -0.085 OA 
HETATM    7  C   UNL     1     -10.735  19.898  68.314  1.00  0.00    -0.112 C  
HETATM    8  C   UNL     1     -10.291  14.902  71.132  1.00  0.00     0.917 C  
HETATM    9  C   UNL     1     -11.914  15.720  70.424  1.00  0.00    -0.385 C  
HETATM   10  C   UNL     1     -10.022  13.934  72.290  1.00  0.00     8.481 C  
HETATM   11  C   UNL     1     -10.042  18.675  67.578  1.00  0.00    -0.397 C  
HETATM   12  C   UNL     1     -10.722  18.661  66.219  1.00  0.00    -0.278 C  
HETATM   13  H   UNL     1      -9.583  12.928  68.821  1.00  0.00     0.000 HD 
HETATM   14  C   UNL     1     -11.607  16.801  69.001  1.00  0.00     0.309 C  
HETATM   15  C   UNL     1     -10.207  19.368  65.184  1.00  0.00     1.016 C  
HETATM   16  O   UNL     1      -8.376  20.660  64.338  1.00  0.00     1.102 OA 
HETATM   17  O   UNL     1     -12.100  16.129  67.833  1.00  0.00     0.056 OA 
HETATM   18  C   UNL     1     -10.057  17.498  68.651  1.00  0.00    -0.361 C  
HETATM   19  H   UNL     1     -11.939  16.695  67.088  1.00  0.00     0.000 HD 
HETATM   20  C   UNL     1      -8.901  16.357  68.680  1.00  0.00    -0.234 C  
HETATM   21  F   UNL     1      -9.641  18.341  69.711  1.00  0.00     0.201 F  
HETATM   22  C   UNL     1      -7.544  16.938  68.253  1.00  0.00    -0.202 C  
HETATM   23  C   UNL     1      -7.665  17.811  67.021  1.00  0.00    -0.210 C  
HETATM   24  F   UNL     1      -6.421  18.209  66.660  1.00  0.00    -0.182 F  
HETATM   25  C   UNL     1      -8.552  19.016  67.289  1.00  0.00    -0.298 C  
HETATM   26  C   UNL     1      -8.284  20.183  66.675  1.00  0.00    -0.328 C  
HETATM   27  C   UNL     1      -8.895  20.103  65.299  1.00  0.00     0.944 C  
ENDROOT
BRANCH   4  28
HETATM   28  C   UNL     1     -11.484  13.301  70.029  1.00  0.00    -0.035 C  
HETATM   29  O   UNL     1     -12.694  13.363  70.301  1.00  0.00    -0.160 OA 
BRANCH  28  30
HETATM   30  C   UNL     1     -10.934  11.888  69.807  1.00  0.00     0.161 C  
HETATM   31  O   UNL     1     -11.927  11.098  69.152  1.00  0.00    -0.330 OA 
HETATM   32  H   UNL     1     -11.586  10.222  69.014  1.00  0.00     0.000 HD 
ENDBRANCH  28  30
ENDBRANCH   4  28
TORSDOF 2
ENDMDL
MODEL      120
REMARK 921   NORMALIZED FREE ENERGY PREDICTED BY IDOCK:   28.01 KCAL/MOL
REMARK 922        TOTAL FREE ENERGY PREDICTED BY IDOCK:   31.99 KCAL/MOL
REMARK 923 INTER-LIGAND FREE ENERGY PREDICTED BY IDOCK:   30.44 KCAL/MOL
REMARK 924 INTRA-LIGAND FREE ENERGY PREDICTED BY IDOCK:    1.55 KCAL/MOL
REMARK 927      BINDING AFFINITY PREDICTED BY RF-SCORE:    0.00 PKD
ROOT
HETATM    1  C   UNL     1      -9.987  13.538  70.111  1.00  0.00     2.342 C  
HETATM    2  C   UNL     1     -11.095  13.609  70.984  1.00  0.00     1.785 C  
HETATM    3  C   UNL     1     -11.532  13.675  69.534  1.00  0.00    -0.324 C  
HETATM    4  C   UNL     1     -10.078  13.250  68.134  1.00  0.00    -0.241 C  
HETATM    5  C   UNL     1     -13.157  13.293  69.771  1.00  0.00     1.063 C  
HETATM    6  O   UNL     1      -8.727  12.776  68.523  1.00  0.00    -0.313 OA 
HETATM    7  C   UNL     1     -12.144  18.204  69.240  1.00  0.00     6.319 C  
HETATM    8  C   UNL     1     -11.041  12.575  68.793  1.00  0.00    -0.314 C  
HETATM    9  C   UNL     1     -11.837  13.735  67.443  1.00  0.00    -0.431 C  
HETATM   10  C   UNL     1     -11.143  11.072  69.079  1.00  0.00    -0.301 C  
HETATM   11  C   UNL     1     -10.631  17.736  69.136  1.00  0.00     0.074 C  
HETATM   12  C   UNL     1     -10.060  18.654  68.068  1.00  0.00    -0.413 C  
HETATM   13  H   UNL     1      -8.058  12.580  67.877  1.00  0.00     0.000 HD 
HETATM   14  C   UNL     1     -11.331  15.468  67.602  1.00  0.00    -0.260 C  
HETATM   15  C   UNL     1      -9.501  19.841  68.407  1.00  0.00    -0.423 C  
HETATM   16  O   UNL     1      -8.730  21.279  70.162  1.00  0.00     3.427 OA 
HETATM   17  O   UNL     1     -10.430  15.757  66.523  1.00  0.00    -0.293 OA 
HETATM   18  C   UNL     1     -10.703  16.147  69.071  1.00  0.00    -0.287 C  
HETATM   19  H   UNL     1     -10.165  16.665  66.607  1.00  0.00     0.000 HD 
HETATM   20  C   UNL     1      -9.513  15.214  69.664  1.00  0.00    -0.104 C  
HETATM   21  F   UNL     1     -11.665  16.060  70.107  1.00  0.00    -0.308 F  
HETATM   22  C   UNL     1      -8.867  15.865  70.897  1.00  0.00     3.088 C  
HETATM   23  C   UNL     1      -8.589  17.338  70.678  1.00  0.00     4.797 C  
HETATM   24  F   UNL     1      -7.943  17.813  71.771  1.00  0.00     7.640 F  
HETATM   25  C   UNL     1      -9.877  18.109  70.445  1.00  0.00     2.093 C  
HETATM   26  C   UNL     1      -9.977  19.377  70.886  1.00  0.00     1.931 C  
HETATM   27  C   UNL     1      -9.324  20.253  69.847  1.00  0.00     0.970 C  
ENDROOT
BRANCH   4  28
HETATM   28  C   UNL     1     -10.024  12.158  66.795  1.00  0.00    -0.203 C  
HETATM   29  O   UNL     1      -9.981  10.918  66.856  1.00  0.00    -0.184 OA 
BRANCH  28  30
HETATM   30  C   UNL     1     -10.099  12.743  65.381  1.00  0.00    -0.259 C  
HETATM   31  O   UNL     1      -9.467  11.843  64.469  1.00  0.00    -0.427 OA 
HETATM   32  H   UNL     1      -9.513  12.206  63.592  1.00  0.00     0.000 HD 
ENDBRANCH  28  30
ENDBRANCH   4  28
TORSDOF 2
ENDMDL
MODEL      121
REMARK 921   NORMALIZED FREE ENERGY PREDICTED BY IDOCK:   28.53 KCAL/MOL
REMARK 922        TOTAL FREE ENERGY PREDICTED BY IDOCK:   32.57 KCAL/MOL
REMARK 923 INTER-LIGAND FREE ENERGY PREDICTED BY IDOCK:   30.28 KCAL/MOL
REMARK 924 INTRA-LIGAND FREE ENERGY PREDICTED BY IDOCK:    2.29 KCAL/MOL
REMARK 927      BINDING AFFINITY PREDICTED BY RF-SCORE:    0.00 PKD
ROOT
HETATM    1  C   UNL     1      -8.684  14.487  69.118  1.00  0.00     0.032 C  
HETATM    2  C   UNL     1      -9.829  14.367  69.935  1.00  0.00     0.627 C  
HETATM    3  C   UNL     1      -8.579  14.574  70.766  1.00  0.00     2.808 C  
HETATM    4  C   UNL     1      -6.878  15.100  69.724  1.00  0.00    -0.179 C  
HETATM    5  C   UNL     1      -9.336  15.045  72.197  1.00  0.00     5.418 C  
HETATM    6  O   UNL     1      -6.908  15.391  68.269  1.00  0.00    -0.107 OA 
HETATM    7  C   UNL     1      -7.887  10.219  72.003  1.00  0.00     4.440 C  
HETATM    8  C   UNL     1      -7.878  15.736  70.369  1.00  0.00     1.309 C  
HETATM    9  C   UNL     1      -6.684  14.880  71.653  1.00  0.00     1.327 C  
HETATM   10  C   UNL     1      -8.376  17.175  70.196  1.00  0.00     2.417 C  
HETATM   11  C   UNL     1      -7.400  10.571  70.534  1.00  0.00     0.579 C  
HETATM   12  C   UNL     1      -6.099   9.796  70.407  1.00  0.00    -0.075 C  
HETATM   13  H   UNL     1      -6.124  15.634  67.790  1.00  0.00     0.000 HD 
HETATM   14  C   UNL     1      -6.456  13.108  71.345  1.00  0.00     1.912 C  
HETATM   15  C   UNL     1      -6.098   8.527  69.931  1.00  0.00    -0.031 C  
HETATM   16  O   UNL     1      -7.339   6.764  68.886  1.00  0.00    -0.088 OA 
HETATM   17  O   UNL     1      -5.130  12.926  70.829  1.00  0.00    -0.106 OA 
HETATM   18  C   UNL     1      -7.569  12.151  70.421  1.00  0.00     3.200 C  
HETATM   19  H   UNL     1      -5.011  11.998  70.668  1.00  0.00     0.000 HD 
HETATM   20  C   UNL     1      -7.899  12.873  69.004  1.00  0.00     0.254 C  
HETATM   21  F   UNL     1      -8.847  12.146  71.033  1.00  0.00     6.728 F  
HETATM   22  C   UNL     1      -8.787  11.979  68.124  1.00  0.00    -0.182 C  
HETATM   23  C   UNL     1      -8.304  10.543  68.108  1.00  0.00    -0.119 C  
HETATM   24  F   UNL     1      -9.083   9.845  67.246  1.00  0.00    -0.133 F  
HETATM   25  C   UNL     1      -8.365   9.929  69.497  1.00  0.00    -0.174 C  
HETATM   26  C   UNL     1      -8.645   8.619  69.627  1.00  0.00    -0.131 C  
HETATM   27  C   UNL     1      -7.353   7.873  69.409  1.00  0.00    -0.081 C  
ENDROOT
BRANCH   4  28
HETATM   28  C   UNL     1      -5.741  16.387  69.911  1.00  0.00    -0.193 C  
HETATM   29  O   UNL     1      -5.295  17.115  69.009  1.00  0.00    -0.143 OA 
BRANCH  28  30
HETATM   30  C   UNL     1      -5.263  16.730  71.327  1.00  0.00    -0.006 C  
HETATM   31  O   UNL     1      -5.961  17.888  71.787  1.00  0.00     0.973 OA 
HETATM   32  H   UNL     1      -5.665  18.101  72.664  1.00  0.00     0.000 HD 
ENDBRANCH  28  30
ENDBRANCH   4  28
TORSDOF 2
ENDMDL
MODEL      122
REMARK 921   NORMALIZED FREE ENERGY PREDICTED BY IDOCK:   28.64 KCAL/MOL
REMARK 922        TOTAL FREE ENERGY PREDICTED BY IDOCK:   32.69 KCAL/MOL
REMARK 923 INTER-LIGAND FREE ENERGY PREDICTED BY IDOCK:   30.50 KCAL/MOL
REMARK 924 INTRA-LIGAND FREE ENERGY PREDICTED BY IDOCK:    2.19 KCAL/MOL
REMARK 927      BINDING AFFINITY PREDICTED BY RF-SCORE:    0.00 PKD
ROOT
HETATM    1  C   UNL     1     -10.324  16.370  66.840  1.00  0.00    -0.300 C  
HETATM    2  C   UNL     1      -9.041  16.860  66.513  1.00  0.00    -0.302 C  
HETATM    3  C   UNL     1      -9.568  15.936  65.435  1.00  0.00    -0.015 C  
HETATM    4  C   UNL     1     -11.554  15.401  65.595  1.00  0.00     0.049 C  
HETATM    5  C   UNL     1      -8.520  16.408  64.201  1.00  0.00    10.903 C  
HETATM    6  O   UNL     1     -12.446  15.992  66.622  1.00  0.00     1.466 OA 
HETATM    7  C   UNL     1      -7.249  12.167  66.613  1.00  0.00     0.213 C  
HETATM    8  C   UNL     1     -10.835  16.353  64.966  1.00  0.00    -0.289 C  
HETATM    9  C   UNL     1     -10.561  14.624  64.106  1.00  0.00     0.803 C  
HETATM   10  C   UNL     1     -11.291  17.723  64.449  1.00  0.00     2.980 C  
HETATM   11  C   UNL     1      -8.535  12.451  67.498  1.00  0.00    -0.175 C  
HETATM   12  C   UNL     1      -9.120  11.064  67.711  1.00  0.00    -0.147 C  
HETATM   13  H   UNL     1     -13.361  15.746  66.696  1.00  0.00     0.000 HD 
HETATM   14  C   UNL     1     -10.009  13.334  65.254  1.00  0.00    -0.173 C  
HETATM   15  C   UNL     1      -8.747  10.318  68.779  1.00  0.00    -0.144 C  
HETATM   16  O   UNL     1      -7.573  10.227  70.866  1.00  0.00     0.034 OA 
HETATM   17  O   UNL     1     -11.108  12.437  65.458  1.00  0.00    -0.282 OA 
HETATM   18  C   UNL     1      -9.256  13.676  66.780  1.00  0.00    -0.241 C  
HETATM   19  H   UNL     1     -10.819  11.761  66.060  1.00  0.00     0.000 HD 
HETATM   20  C   UNL     1     -10.132  14.759  67.616  1.00  0.00    -0.227 C  
HETATM   21  F   UNL     1      -8.046  14.389  66.587  1.00  0.00    -0.140 F  
HETATM   22  C   UNL     1      -9.543  14.978  69.018  1.00  0.00    -0.225 C  
HETATM   23  C   UNL     1      -9.178  13.671  69.690  1.00  0.00     1.443 C  
HETATM   24  F   UNL     1      -8.751  13.945  70.946  1.00  0.00     3.080 F  
HETATM   25  C   UNL     1      -8.100  12.936  68.910  1.00  0.00     0.211 C  
HETATM   26  C   UNL     1      -7.192  12.198  69.575  1.00  0.00     0.283 C  
HETATM   27  C   UNL     1      -7.833  10.861  69.849  1.00  0.00     0.433 C  
ENDROOT
BRANCH   4  28
HETATM   28  C   UNL     1     -12.876  15.456  64.483  1.00  0.00     0.666 C  
HETATM   29  O   UNL     1     -12.797  15.488  63.244  1.00  0.00     0.421 OA 
BRANCH  28  30
HETATM   30  C   UNL     1     -14.300  15.399  65.048  1.00  0.00     4.608 C  
HETATM   31  O   UNL     1     -14.329  16.069  66.309  1.00  0.00     5.566 OA 
HETATM   32  H   UNL     1     -15.211  16.034  66.659  1.00  0.00     0.000 HD 
ENDBRANCH  28  30
ENDBRANCH   4  28
TORSDOF 2
ENDMDL
MODEL      123
REMARK 921   NORMALIZED FREE ENERGY PREDICTED BY IDOCK:   31.11 KCAL/MOL
REMARK 922        TOTAL FREE ENERGY PREDICTED BY IDOCK:   35.45 KCAL/MOL
REMARK 923 INTER-LIGAND FREE ENERGY PREDICTED BY IDOCK:   33.42 KCAL/MOL
REMARK 924 INTRA-LIGAND FREE ENERGY PREDICTED BY IDOCK:    2.03 KCAL/MOL
REMARK 927      BINDING AFFINITY PREDICTED BY RF-SCORE:    0.00 PKD
ROOT
HETATM    1  C   UNL     1      -6.767  13.523  68.535  1.00  0.00    -0.095 C  
HETATM    2  C   UNL     1      -6.026  13.285  69.713  1.00  0.00    -0.128 C  
HETATM    3  C   UNL     1      -7.098  12.233  69.516  1.00  0.00     0.219 C  
HETATM    4  C   UNL     1      -8.045  12.241  67.683  1.00  0.00    -0.165 C  
HETATM    5  C   UNL     1      -6.473  11.074  70.568  1.00  0.00     0.121 C  
HETATM    6  O   UNL     1      -7.610  13.131  66.578  1.00  0.00     0.011 OA 
HETATM    7  C   UNL     1     -10.202  13.906  72.437  1.00  0.00     7.548 C  
HETATM    8  C   UNL     1      -6.993  11.614  68.248  1.00  0.00    -0.074 C  
HETATM    9  C   UNL     1      -8.663  10.917  68.975  1.00  0.00    -0.108 C  
HETATM   10  C   UNL     1      -5.785  10.955  67.572  1.00  0.00    -0.044 C  
HETATM   11  C   UNL     1     -10.160  14.640  71.030  1.00  0.00     1.712 C  
HETATM   12  C   UNL     1     -11.628  14.900  70.733  1.00  0.00    -0.345 C  
HETATM   13  H   UNL     1      -8.046  13.134  65.734  1.00  0.00     0.000 HD 
HETATM   14  C   UNL     1      -9.738  12.206  69.659  1.00  0.00     1.491 C  
HETATM   15  C   UNL     1     -12.218  16.051  71.135  1.00  0.00    -0.368 C  
HETATM   16  O   UNL     1     -11.941  18.242  72.065  1.00  0.00     4.557 OA 
HETATM   17  O   UNL     1     -10.843  12.370  68.759  1.00  0.00    -0.228 OA 
HETATM   18  C   UNL     1      -9.161  13.767  70.150  1.00  0.00     2.753 C  
HETATM   19  H   UNL     1     -11.407  13.045  69.117  1.00  0.00     0.000 HD 
HETATM   20  C   UNL     1      -8.254  14.431  68.977  1.00  0.00    -0.031 C  
HETATM   21  F   UNL     1      -8.213  13.639  71.194  1.00  0.00     3.948 F  
HETATM   22  C   UNL     1      -7.838  15.863  69.349  1.00  0.00    -0.191 C  
HETATM   23  C   UNL     1      -8.998  16.663  69.907  1.00  0.00     1.052 C  
HETATM   24  F   UNL     1      -8.571  17.931  70.124  1.00  0.00     1.257 F  
HETATM   25  C   UNL     1      -9.518  16.048  71.194  1.00  0.00     3.163 C  
HETATM   26  C   UNL     1     -10.005  16.850  72.160  1.00  0.00     6.865 C  
HETATM   27  C   UNL     1     -11.434  17.160  71.790  1.00  0.00     1.087 C  
ENDROOT
BRANCH   4  28
HETATM   28  C   UNL     1      -8.338  11.006  66.509  1.00  0.00    -0.163 C  
HETATM   29  O   UNL     1      -8.994  11.124  65.462  1.00  0.00    -0.200 OA 
BRANCH  28  30
HETATM   30  C   UNL     1      -7.684   9.636  66.723  1.00  0.00    -0.098 C  
HETATM   31  O   UNL     1      -8.413   8.651  65.990  1.00  0.00    -0.126 OA 
HETATM   32  H   UNL     1      -8.007   7.803  66.122  1.00  0.00     0.000 HD 
ENDBRANCH  28  30
ENDBRANCH   4  28
TORSDOF 2
ENDMDL
MODEL      124
REMARK 921   NORMALIZED FREE ENERGY PREDICTED BY IDOCK:   32.69 KCAL/MOL
REMARK 922        TOTAL FREE ENERGY PREDICTED BY IDOCK:   37.23 KCAL/MOL
REMARK 923 INTER-LIGAND FREE ENERGY PREDICTED BY IDOCK:   32.63 KCAL/MOL
REMARK 924 INTRA-LIGAND FREE ENERGY PREDICTED BY IDOCK:    4.60 KCAL/MOL
REMARK 927      BINDING AFFINITY PREDICTED BY RF-SCORE:    0.00 PKD
ROOT
HETATM    1  C   UNL     1     -10.674  13.127  71.963  1.00  0.00     7.891 C  
HETATM    2  C   UNL     1      -9.319  13.514  71.863  1.00  0.00    12.849 C  
HETATM    3  C   UNL     1     -10.245  14.654  71.491  1.00  0.00     2.397 C  
HETATM    4  C   UNL     1     -12.246  14.362  71.902  1.00  0.00    -0.235 C  
HETATM    5  C   UNL     1      -9.131  15.909  71.646  1.00  0.00     5.677 C  
HETATM    6  O   UNL     1     -12.731  13.171  72.641  1.00  0.00    -0.054 OA 
HETATM    7  C   UNL     1      -9.928  14.293  66.937  1.00  0.00    -0.263 C  
HETATM    8  C   UNL     1     -11.182  14.919  72.517  1.00  0.00     0.308 C  
HETATM    9  C   UNL     1     -11.771  16.046  71.038  1.00  0.00    -0.458 C  
HETATM   10  C   UNL     1     -10.958  15.178  74.011  1.00  0.00     2.569 C  
HETATM   11  C   UNL     1     -10.908  13.244  67.613  1.00  0.00    -0.273 C  
HETATM   12  C   UNL     1     -12.067  13.174  66.633  1.00  0.00    -0.409 C  
HETATM   13  H   UNL     1     -13.652  13.037  72.830  1.00  0.00     0.000 HD 
HETATM   14  C   UNL     1     -11.856  15.164  69.457  1.00  0.00    -0.332 C  
HETATM   15  C   UNL     1     -12.060  12.273  65.621  1.00  0.00    -0.306 C  
HETATM   16  O   UNL     1     -11.011  10.359  64.632  1.00  0.00     0.299 OA 
HETATM   17  O   UNL     1     -13.242  14.978  69.139  1.00  0.00     0.331 OA 
HETATM   18  C   UNL     1     -10.991  13.694  69.138  1.00  0.00    -0.194 C  
HETATM   19  H   UNL     1     -13.286  14.516  68.311  1.00  0.00     0.000 HD 
HETATM   20  C   UNL     1     -11.237  12.620  70.332  1.00  0.00     0.826 C  
HETATM   21  F   UNL     1      -9.594  13.908  69.242  1.00  0.00    -0.024 F  
HETATM   22  C   UNL     1     -10.577  11.272  70.004  1.00  0.00     0.419 C  
HETATM   23  C   UNL     1     -10.848  10.841  68.577  1.00  0.00    -0.228 C  
HETATM   24  F   UNL     1     -10.310   9.611  68.397  1.00  0.00    -0.188 F  
HETATM   25  C   UNL     1     -10.260  11.830  67.585  1.00  0.00    -0.216 C  
HETATM   26  C   UNL     1      -9.786  11.381  66.407  1.00  0.00    -0.231 C  
HETATM   27  C   UNL     1     -10.970  11.239  65.486  1.00  0.00    -0.131 C  
ENDROOT
BRANCH   4  28
HETATM   28  C   UNL     1     -13.417  15.307  72.753  1.00  0.00    -0.518 C  
HETATM   29  O   UNL     1     -14.266  14.884  73.553  1.00  0.00     0.863 OA 
BRANCH  28  30
HETATM   30  C   UNL     1     -13.389  16.829  72.570  1.00  0.00     2.131 C  
HETATM   31  O   UNL     1     -12.099  17.320  72.936  1.00  0.00     0.129 OA 
HETATM   32  H   UNL     1     -12.082  18.263  72.823  1.00  0.00     0.000 HD 
ENDBRANCH  28  30
ENDBRANCH   4  28
TORSDOF 2
ENDMDL
MODEL      125
REMARK 921   NORMALIZED FREE ENERGY PREDICTED BY IDOCK:   36.34 KCAL/MOL
REMARK 922        TOTAL FREE ENERGY PREDICTED BY IDOCK:   41.29 KCAL/MOL
REMARK 923 INTER-LIGAND FREE ENERGY PREDICTED BY IDOCK:   40.36 KCAL/MOL
REMARK 924 INTRA-LIGAND FREE ENERGY PREDICTED BY IDOCK:    0.93 KCAL/MOL
REMARK 927      BINDING AFFINITY PREDICTED BY RF-SCORE:    0.00 PKD
ROOT
HETATM    1  C   UNL     1     -10.745  12.310  69.380  1.00  0.00     0.085 C  
HETATM    2  C   UNL     1     -11.258  11.167  70.032  1.00  0.00    -0.261 C  
HETATM    3  C   UNL     1      -9.779  11.343  70.312  1.00  0.00     2.437 C  
HETATM    4  C   UNL     1      -8.954  13.137  69.713  1.00  0.00     2.359 C  
HETATM    5  C   UNL     1      -9.684  10.339  71.663  1.00  0.00     3.614 C  
HETATM    6  O   UNL     1      -9.784  14.239  69.168  1.00  0.00    -0.398 OA 
HETATM    7  C   UNL     1      -8.176   8.268  67.320  1.00  0.00    -0.120 C  
HETATM    8  C   UNL     1      -9.498  12.626  70.836  1.00  0.00     9.315 C  
HETATM    9  C   UNL     1      -7.737  11.848  70.528  1.00  0.00     3.792 C  
HETATM   10  C   UNL     1     -10.129  13.362  72.025  1.00  0.00    10.634 C  
HETATM   11  C   UNL     1      -8.585   9.661  66.677  1.00  0.00    -0.137 C  
HETATM   12  C   UNL     1      -7.497   9.894  65.642  1.00  0.00    -0.116 C  
HETATM   13  H   UNL     1      -9.404  15.065  68.892  1.00  0.00     0.000 HD 
HETATM   14  C   UNL     1      -7.565  11.097  68.887  1.00  0.00    -0.133 C  
HETATM   15  C   UNL     1      -7.648   9.446  64.372  1.00  0.00    -0.114 C  
HETATM   16  O   UNL     1      -9.107   8.483  62.733  1.00  0.00     0.218 OA 
HETATM   17  O   UNL     1      -6.715  11.949  68.108  1.00  0.00    -0.057 OA 
HETATM   18  C   UNL     1      -8.918  10.597  67.922  1.00  0.00    -0.138 C  
HETATM   19  H   UNL     1      -6.624  11.555  67.248  1.00  0.00     0.000 HD 
HETATM   20  C   UNL     1     -10.015  11.791  67.821  1.00  0.00    -0.198 C  
HETATM   21  F   UNL     1      -9.661   9.594  68.590  1.00  0.00    -0.144 F  
HETATM   22  C   UNL     1     -11.159  11.406  66.870  1.00  0.00    -0.356 C  
HETATM   23  C   UNL     1     -10.645  10.788  65.586  1.00  0.00    -0.129 C  
HETATM   24  F   UNL     1     -11.704  10.561  64.772  1.00  0.00     0.657 F  
HETATM   25  C   UNL     1      -9.899   9.493  65.863  1.00  0.00    -0.360 C  
HETATM   26  C   UNL     1      -9.957   8.493  64.963  1.00  0.00     1.707 C  
HETATM   27  C   UNL     1      -8.928   8.800  63.904  1.00  0.00     0.334 C  
ENDROOT
BRANCH   4  28
HETATM   28  C   UNL     1      -8.004  14.322  70.537  1.00  0.00     2.026 C  
HETATM   29  O   UNL     1      -7.240  14.120  71.494  1.00  0.00     1.575 OA 
BRANCH  28  30
HETATM   30  C   UNL     1      -8.038  15.765  70.018  1.00  0.00     0.554 C  
HETATM   31  O   UNL     1      -7.550  16.638  71.036  1.00  0.00     3.711 OA 
HETATM   32  H   UNL     1      -7.571  17.532  70.715  1.00  0.00     0.000 HD 
ENDBRANCH  28  30
ENDBRANCH   4  28
TORSDOF 2
ENDMDL
MODEL      126
REMARK 921   NORMALIZED FREE ENERGY PREDICTED BY IDOCK:   36.35 KCAL/MOL
REMARK 922        TOTAL FREE ENERGY PREDICTED BY IDOCK:   41.31 KCAL/MOL
REMARK 923 INTER-LIGAND FREE ENERGY PREDICTED BY IDOCK:   40.01 KCAL/MOL
REMARK 924 INTRA-LIGAND FREE ENERGY PREDICTED BY IDOCK:    1.30 KCAL/MOL
REMARK 927      BINDING AFFINITY PREDICTED BY RF-SCORE:    0.00 PKD
ROOT
HETATM    1  C   UNL     1      -8.571  16.212  68.291  1.00  0.00    -0.182 C  
HETATM    2  C   UNL     1      -9.745  16.686  67.667  1.00  0.00    -0.250 C  
HETATM    3  C   UNL     1      -9.651  17.168  69.100  1.00  0.00    -0.116 C  
HETATM    4  C   UNL     1      -7.845  16.845  70.044  1.00  0.00     1.542 C  
HETATM    5  C   UNL     1     -10.770  18.424  68.990  1.00  0.00     0.514 C  
HETATM    6  O   UNL     1      -6.668  16.300  69.323  1.00  0.00    -0.179 OA 
HETATM    7  C   UNL     1     -12.514  14.141  70.999  1.00  0.00    -0.438 C  
HETATM    8  C   UNL     1      -8.430  17.839  69.344  1.00  0.00     0.469 C  
HETATM    9  C   UNL     1      -9.245  17.689  71.109  1.00  0.00     6.931 C  
HETATM   10  C   UNL     1      -7.776  18.998  68.583  1.00  0.00    -0.378 C  
HETATM   11  C   UNL     1     -11.057  13.579  70.715  1.00  0.00     1.415 C  
HETATM   12  C   UNL     1     -10.776  12.718  71.935  1.00  0.00     8.496 C  
HETATM   13  H   UNL     1      -5.837  16.152  69.758  1.00  0.00     0.000 HD 
HETATM   14  C   UNL     1      -9.857  16.023  71.475  1.00  0.00     3.354 C  
HETATM   15  C   UNL     1     -11.107  11.404  71.940  1.00  0.00     5.135 C  
HETATM   16  O   UNL     1     -11.868   9.510  70.685  1.00  0.00    -0.270 OA 
HETATM   17  O   UNL     1      -8.974  15.439  72.442  1.00  0.00     5.051 OA 
HETATM   18  C   UNL     1     -10.220  14.851  70.248  1.00  0.00     0.209 C  
HETATM   19  H   UNL     1      -9.295  14.567  72.634  1.00  0.00     0.000 HD 
HETATM   20  C   UNL     1      -8.981  14.718  69.205  1.00  0.00    -0.078 C  
HETATM   21  F   UNL     1     -11.248  15.325  69.397  1.00  0.00    -0.230 F  
HETATM   22  C   UNL     1      -9.237  13.598  68.186  1.00  0.00    -0.204 C  
HETATM   23  C   UNL     1      -9.762  12.340  68.847  1.00  0.00     0.143 C  
HETATM   24  F   UNL     1      -9.876  11.379  67.899  1.00  0.00    -0.166 F  
HETATM   25  C   UNL     1     -11.103  12.591  69.515  1.00  0.00    -0.073 C  
HETATM   26  C   UNL     1     -12.019  11.604  69.550  1.00  0.00    -0.383 C  
HETATM   27  C   UNL     1     -11.661  10.718  70.716  1.00  0.00    -0.224 C  
ENDROOT
BRANCH   4  28
HETATM   28  C   UNL     1      -6.772  17.888  70.909  1.00  0.00     2.398 C  
HETATM   29  O   UNL     1      -6.460  19.049  70.597  1.00  0.00     0.183 OA 
BRANCH  28  30
HETATM   30  C   UNL     1      -6.180  17.383  72.229  1.00  0.00     3.386 C  
HETATM   31  O   UNL     1      -6.672  18.189  73.301  1.00  0.00     3.953 OA 
HETATM   32  H   UNL     1      -6.306  17.875  74.119  1.00  0.00     0.000 HD 
ENDBRANCH  28  30
ENDBRANCH   4  28
TORSDOF 2
ENDMDL
MODEL      127
REMARK 921   NORMALIZED FREE ENERGY PREDICTED BY IDOCK:   47.02 KCAL/MOL
REMARK 922        TOTAL FREE ENERGY PREDICTED BY IDOCK:   53.23 KCAL/MOL
REMARK 923 INTER-LIGAND FREE ENERGY PREDICTED BY IDOCK:   49.30 KCAL/MOL
REMARK 924 INTRA-LIGAND FREE ENERGY PREDICTED BY IDOCK:    3.93 KCAL/MOL
REMARK 927      BINDING AFFINITY PREDICTED BY RF-SCORE:    0.00 PKD
ROOT
HETATM    1  C   UNL     1      -8.820  18.959  69.121  1.00  0.00    -0.060 C  
HETATM    2  C   UNL     1      -9.498  19.584  68.052  1.00  0.00    -0.424 C  
HETATM    3  C   UNL     1     -10.468  19.094  69.108  1.00  0.00     0.220 C  
HETATM    4  C   UNL     1      -9.627  18.461  70.882  1.00  0.00     4.084 C  
HETATM    5  C   UNL     1     -11.797  20.022  68.642  1.00  0.00     3.525 C  
HETATM    6  O   UNL     1      -8.177  18.605  71.159  1.00  0.00     4.900 OA 
HETATM    7  C   UNL     1     -11.818  15.247  67.022  1.00  0.00     0.081 C  
HETATM    8  C   UNL     1     -10.146  19.604  70.387  1.00  0.00     0.939 C  
HETATM    9  C   UNL     1     -11.568  18.317  70.738  1.00  0.00     5.614 C  
HETATM   10  C   UNL     1      -9.902  21.049  70.837  1.00  0.00     2.568 C  
HETATM   11  C   UNL     1     -10.413  15.141  67.753  1.00  0.00    -0.247 C  
HETATM   12  C   UNL     1     -10.447  13.750  68.364  1.00  0.00    -0.256 C  
HETATM   13  H   UNL     1      -7.790  18.314  71.976  1.00  0.00     0.000 HD 
HETATM   14  C   UNL     1     -11.306  16.721  69.919  1.00  0.00     0.288 C  
HETATM   15  C   UNL     1      -9.986  12.682  67.670  1.00  0.00    -0.216 C  
HETATM   16  O   UNL     1      -8.818  11.885  65.735  1.00  0.00    -0.045 OA 
HETATM   17  O   UNL     1     -10.950  15.768  70.931  1.00  0.00    -0.327 OA 
HETATM   18  C   UNL     1     -10.266  16.515  68.545  1.00  0.00    -0.266 C  
HETATM   19  H   UNL     1     -10.813  14.932  70.502  1.00  0.00     0.000 HD 
HETATM   20  C   UNL     1      -8.813  17.185  68.826  1.00  0.00    -0.235 C  
HETATM   21  F   UNL     1     -10.725  17.294  67.455  1.00  0.00    -0.339 F  
HETATM   22  C   UNL     1      -7.845  16.904  67.667  1.00  0.00    -0.186 C  
HETATM   23  C   UNL     1      -7.898  15.457  67.224  1.00  0.00    -0.206 C  
HETATM   24  F   UNL     1      -6.957  15.273  66.266  1.00  0.00     0.711 F  
HETATM   25  C   UNL     1      -9.276  15.097  66.693  1.00  0.00    -0.298 C  
HETATM   26  C   UNL     1      -9.385  14.203  65.692  1.00  0.00     0.166 C  
HETATM   27  C   UNL     1      -9.326  12.834  66.322  1.00  0.00    -0.152 C  
ENDROOT
BRANCH   4  28
HETATM   28  C   UNL     1      -9.935  18.866  72.534  1.00  0.00     5.084 C  
HETATM   29  O   UNL     1      -9.381  18.373  73.530  1.00  0.00     7.227 OA 
BRANCH  28  30
HETATM   30  C   UNL     1     -10.941  19.984  72.830  1.00  0.00     7.156 C  
HETATM   31  O   UNL     1     -12.254  19.529  72.505  1.00  0.00     9.993 OA 
HETATM   32  H   UNL     1     -12.878  20.222  72.688  1.00  0.00     0.000 HD 
ENDBRANCH  28  30
ENDBRANCH   4  28
TORSDOF 2
ENDMDL
MODEL      128
REMARK 921   NORMALIZED FREE ENERGY PREDICTED BY IDOCK:   50.79 KCAL/MOL
REMARK 922        TOTAL FREE ENERGY PREDICTED BY IDOCK:   57.44 KCAL/MOL
REMARK 923 INTER-LIGAND FREE ENERGY PREDICTED BY IDOCK:   56.13 KCAL/MOL
REMARK 924 INTRA-LIGAND FREE ENERGY PREDICTED BY IDOCK:    1.31 KCAL/MOL
REMARK 927      BINDING AFFINITY PREDICTED BY RF-SCORE:    0.00 PKD
ROOT
HETATM    1  C   UNL     1      -7.355  16.233  71.325  1.00  0.00     4.454 C  
HETATM    2  C   UNL     1      -6.309  17.134  71.028  1.00  0.00     1.806 C  
HETATM    3  C   UNL     1      -7.603  17.555  70.362  1.00  0.00     2.862 C  
HETATM    4  C   UNL     1      -9.297  16.541  70.960  1.00  0.00     4.207 C  
HETATM    5  C   UNL     1      -7.180  19.154  70.038  1.00  0.00     0.391 C  
HETATM    6  O   UNL     1      -9.273  15.558  72.071  1.00  0.00     3.621 OA 
HETATM    7  C   UNL     1      -6.722  15.968  66.157  1.00  0.00     1.761 C  
HETATM    8  C   UNL     1      -8.654  17.677  71.299  1.00  0.00     8.875 C  
HETATM    9  C   UNL     1      -9.536  17.893  69.573  1.00  0.00     0.461 C  
HETATM   10  C   UNL     1      -8.713  18.464  72.614  1.00  0.00    13.083 C  
HETATM   11  C   UNL     1      -7.197  14.862  67.192  1.00  0.00    -0.005 C  
HETATM   12  C   UNL     1      -8.105  13.975  66.355  1.00  0.00     0.982 C  
HETATM   13  H   UNL     1     -10.054  15.092  72.346  1.00  0.00     0.000 HD 
HETATM   14  C   UNL     1      -9.069  16.621  68.369  1.00  0.00    -0.226 C  
HETATM   15  C   UNL     1      -7.602  12.908  65.690  1.00  0.00     3.787 C  
HETATM   16  O   UNL     1      -5.724  11.468  65.313  1.00  0.00     0.208 OA 
HETATM   17  O   UNL     1     -10.191  15.743  68.210  1.00  0.00    -0.220 OA 
HETATM   18  C   UNL     1      -7.616  15.680  68.492  1.00  0.00    -0.132 C  
HETATM   19  H   UNL     1      -9.947  15.077  67.578  1.00  0.00     0.000 HD 
HETATM   20  C   UNL     1      -7.476  15.045  69.981  1.00  0.00     0.096 C  
HETATM   21  F   UNL     1      -6.476  16.518  68.440  1.00  0.00    -0.123 F  
HETATM   22  C   UNL     1      -6.259  14.110  70.067  1.00  0.00    -0.151 C  
HETATM   23  C   UNL     1      -6.173  13.181  68.875  1.00  0.00    -0.088 C  
HETATM   24  F   UNL     1      -5.131  12.336  69.070  1.00  0.00    -0.055 F  
HETATM   25  C   UNL     1      -5.990  13.961  67.584  1.00  0.00    -0.059 C  
HETATM   26  C   UNL     1      -5.255  13.429  66.589  1.00  0.00     1.991 C  
HETATM   27  C   UNL     1      -6.160  12.489  65.833  1.00  0.00     3.378 C  
ENDROOT
BRANCH   4  28
HETATM   28  C   UNL     1     -10.841  17.073  71.527  1.00  0.00     1.614 C  
HETATM   29  O   UNL     1     -11.819  17.378  70.826  1.00  0.00     1.953 OA 
BRANCH  28  30
HETATM   30  C   UNL     1     -11.078  17.122  73.041  1.00  0.00     2.128 C  
HETATM   31  O   UNL     1     -12.314  16.473  73.341  1.00  0.00    -0.466 OA 
HETATM   32  H   UNL     1     -12.461  16.503  74.279  1.00  0.00     0.000 HD 
ENDBRANCH  28  30
ENDBRANCH   4  28
TORSDOF 2
ENDMDL
