MODEL        1
REMARK 921   NORMALIZED FREE ENERGY PREDICTED BY IDOCK:   -7.21 KCAL/MOL
REMARK 922        TOTAL FREE ENERGY PREDICTED BY IDOCK:   -8.00 KCAL/MOL
REMARK 923 INTER-LIGAND FREE ENERGY PREDICTED BY IDOCK:   -7.63 KCAL/MOL
REMARK 924 INTRA-LIGAND FREE ENERGY PREDICTED BY IDOCK:   -0.37 KCAL/MOL
REMARK 927      BINDING AFFINITY PREDICTED BY RF-SCORE:    0.00 PKD
ROOT
HETATM    1  O   UNL     1      -9.692  17.286  67.353  1.00  0.00    -0.249 OA 
HETATM    2  C   UNL     1     -10.319  17.057  66.183  1.00  0.00    -0.319 C  
HETATM    3  O   UNL     1     -10.432  17.937  65.338  1.00  0.00    -0.635 OA 
HETATM    4  C   UNL     1     -10.881  15.697  65.943  1.00  0.00    -0.297 A  
HETATM    5  C   UNL     1     -11.505  15.438  64.713  1.00  0.00    -0.336 A  
HETATM    6  O   UNL     1     -11.624  16.362  63.709  1.00  0.00    -1.605 OA 
HETATM    7  C   UNL     1     -12.065  14.192  64.449  1.00  0.00    -0.486 A  
HETATM    8  C   UNL     1     -12.037  13.190  65.422  1.00  0.00    -0.478 A  
HETATM    9  H   UNL     1     -12.047  16.187  62.876  1.00  0.00     0.000 HD 
HETATM   10  C   UNL     1     -11.427  13.398  66.672  1.00  0.00    -0.376 A  
HETATM   11  C   UNL     1     -10.830  14.661  66.893  1.00  0.00    -0.305 A  
ENDROOT
BRANCH  10  12
HETATM   12  C   UNL     1     -11.423  12.343  67.722  1.00  0.00    -0.383 A  
HETATM   13  C   UNL     1     -11.920  12.574  69.023  1.00  0.00    -0.233 A  
HETATM   14  F   UNL     1     -12.439  13.768  69.353  1.00  0.00    -0.362 F  
HETATM   15  C   UNL     1     -11.911  11.595  70.015  1.00  0.00    -0.435 A  
HETATM   16  C   UNL     1     -11.414  10.340  69.715  1.00  0.00    -0.256 A  
HETATM   17  F   UNL     1     -11.404   9.390  70.659  1.00  0.00    -0.272 F  
HETATM   18  C   UNL     1     -10.927  10.054  68.448  1.00  0.00    -0.266 A  
HETATM   19  C   UNL     1     -10.924  11.049  67.462  1.00  0.00    -0.338 A  
ENDBRANCH  10  12
TORSDOF 1
ENDMDL
MODEL        2
REMARK 921   NORMALIZED FREE ENERGY PREDICTED BY IDOCK:   -7.08 KCAL/MOL
REMARK 922        TOTAL FREE ENERGY PREDICTED BY IDOCK:   -7.86 KCAL/MOL
REMARK 923 INTER-LIGAND FREE ENERGY PREDICTED BY IDOCK:   -7.44 KCAL/MOL
REMARK 924 INTRA-LIGAND FREE ENERGY PREDICTED BY IDOCK:   -0.42 KCAL/MOL
REMARK 927      BINDING AFFINITY PREDICTED BY RF-SCORE:    0.00 PKD
ROOT
HETATM    1  O   UNL     1      -9.374  17.068  67.294  1.00  0.00    -0.232 OA 
HETATM    2  C   UNL     1     -10.099  16.883  66.175  1.00  0.00    -0.333 C  
HETATM    3  O   UNL     1     -10.204  17.766  65.331  1.00  0.00    -0.551 OA 
HETATM    4  C   UNL     1     -10.781  15.571  65.990  1.00  0.00    -0.331 A  
HETATM    5  C   UNL     1     -11.510  15.355  64.810  1.00  0.00    -0.336 A  
HETATM    6  O   UNL     1     -11.629  16.281  63.807  1.00  0.00    -1.539 OA 
HETATM    7  C   UNL     1     -12.183  14.156  64.600  1.00  0.00    -0.465 A  
HETATM    8  C   UNL     1     -12.163  13.159  65.579  1.00  0.00    -0.513 A  
HETATM    9  H   UNL     1     -12.122  16.136  63.008  1.00  0.00     0.000 HD 
HETATM   10  C   UNL     1     -11.451  13.325  66.780  1.00  0.00    -0.387 A  
HETATM   11  C   UNL     1     -10.744  14.538  66.945  1.00  0.00    -0.288 A  
ENDROOT
BRANCH  10  12
HETATM   12  C   UNL     1     -11.454  12.278  67.838  1.00  0.00    -0.390 A  
HETATM   13  C   UNL     1     -10.940  10.982  67.615  1.00  0.00    -0.275 A  
HETATM   14  F   UNL     1     -10.407  10.654  66.427  1.00  0.00    -0.261 F  
HETATM   15  C   UNL     1     -10.948   9.993  68.597  1.00  0.00    -0.247 A  
HETATM   16  C   UNL     1     -11.459  10.291  69.847  1.00  0.00    -0.273 A  
HETATM   17  F   UNL     1     -11.468   9.350  70.799  1.00  0.00    -0.282 F  
HETATM   18  C   UNL     1     -11.963  11.553  70.124  1.00  0.00    -0.452 A  
HETATM   19  C   UNL     1     -11.967  12.536  69.126  1.00  0.00    -0.287 A  
ENDBRANCH  10  12
TORSDOF 1
ENDMDL
MODEL        3
REMARK 921   NORMALIZED FREE ENERGY PREDICTED BY IDOCK:   -7.02 KCAL/MOL
REMARK 922        TOTAL FREE ENERGY PREDICTED BY IDOCK:   -7.80 KCAL/MOL
REMARK 923 INTER-LIGAND FREE ENERGY PREDICTED BY IDOCK:   -7.44 KCAL/MOL
REMARK 924 INTRA-LIGAND FREE ENERGY PREDICTED BY IDOCK:   -0.35 KCAL/MOL
REMARK 927      BINDING AFFINITY PREDICTED BY RF-SCORE:    0.00 PKD
ROOT
HETATM    1  O   UNL     1     -12.943  14.067  65.184  1.00  0.00    -0.744 OA 
HETATM    2  C   UNL     1     -12.218  12.946  65.359  1.00  0.00    -0.478 C  
HETATM    3  O   UNL     1     -11.925  12.223  64.413  1.00  0.00    -0.378 OA 
HETATM    4  C   UNL     1     -11.783  12.601  66.742  1.00  0.00    -0.460 A  
HETATM    5  C   UNL     1     -10.996  11.454  66.930  1.00  0.00    -0.299 A  
HETATM    6  O   UNL     1     -10.595  10.629  65.912  1.00  0.00    -0.199 OA 
HETATM    7  C   UNL     1     -10.584  11.077  68.204  1.00  0.00    -0.226 A  
HETATM    8  C   UNL     1     -10.973  11.825  69.318  1.00  0.00    -0.231 A  
HETATM    9  H   UNL     1     -10.063   9.853  66.039  1.00  0.00     0.000 HD 
HETATM   10  C   UNL     1     -11.763  12.981  69.186  1.00  0.00    -0.378 A  
HETATM   11  C   UNL     1     -12.131  13.360  67.874  1.00  0.00    -0.289 A  
ENDROOT
BRANCH  10  12
HETATM   12  C   UNL     1     -12.206  13.762  70.373  1.00  0.00    -0.433 A  
HETATM   13  C   UNL     1     -12.888  13.164  71.455  1.00  0.00    -0.307 A  
HETATM   14  F   UNL     1     -13.145  11.846  71.455  1.00  0.00    -0.472 F  
HETATM   15  C   UNL     1     -13.315  13.889  72.566  1.00  0.00    -0.656 A  
HETATM   16  C   UNL     1     -13.047  15.244  72.627  1.00  0.00    -0.427 A  
HETATM   17  F   UNL     1     -13.449  15.950  73.690  1.00  0.00    -0.578 F  
HETATM   18  C   UNL     1     -12.367  15.880  71.598  1.00  0.00    -0.519 A  
HETATM   19  C   UNL     1     -11.957  15.146  70.478  1.00  0.00    -0.371 A  
ENDBRANCH  10  12
TORSDOF 1
ENDMDL
MODEL        4
REMARK 921   NORMALIZED FREE ENERGY PREDICTED BY IDOCK:   -7.01 KCAL/MOL
REMARK 922        TOTAL FREE ENERGY PREDICTED BY IDOCK:   -7.79 KCAL/MOL
REMARK 923 INTER-LIGAND FREE ENERGY PREDICTED BY IDOCK:   -7.33 KCAL/MOL
REMARK 924 INTRA-LIGAND FREE ENERGY PREDICTED BY IDOCK:   -0.45 KCAL/MOL
REMARK 927      BINDING AFFINITY PREDICTED BY RF-SCORE:    0.00 PKD
ROOT
HETATM    1  O   UNL     1     -13.673  12.772  72.337  1.00  0.00    -0.546 OA 
HETATM    2  C   UNL     1     -13.152  14.013  72.381  1.00  0.00    -0.443 C  
HETATM    3  O   UNL     1     -13.249  14.710  73.384  1.00  0.00    -0.585 OA 
HETATM    4  C   UNL     1     -12.453  14.523  71.167  1.00  0.00    -0.411 A  
HETATM    5  C   UNL     1     -11.875  15.801  71.214  1.00  0.00    -0.437 A  
HETATM    6  O   UNL     1     -11.907  16.613  72.318  1.00  0.00    -0.620 OA 
HETATM    7  C   UNL     1     -11.231  16.332  70.101  1.00  0.00    -0.340 A  
HETATM    8  C   UNL     1     -11.178  15.605  68.909  1.00  0.00    -0.311 A  
HETATM    9  H   UNL     1     -11.516  17.478  72.350  1.00  0.00     0.000 HD 
HETATM   10  C   UNL     1     -11.743  14.321  68.807  1.00  0.00    -0.378 A  
HETATM   11  C   UNL     1     -12.353  13.794  69.968  1.00  0.00    -0.364 A  
ENDROOT
BRANCH  10  12
HETATM   12  C   UNL     1     -11.715  13.557  67.529  1.00  0.00    -0.403 A  
HETATM   13  C   UNL     1     -10.934  12.393  67.365  1.00  0.00    -0.254 A  
HETATM   14  F   UNL     1     -10.193  11.920  68.381  1.00  0.00    -0.181 F  
HETATM   15  C   UNL     1     -10.895  11.677  66.170  1.00  0.00    -0.343 A  
HETATM   16  C   UNL     1     -11.663  12.108  65.104  1.00  0.00    -0.310 A  
HETATM   17  F   UNL     1     -11.636  11.426  63.952  1.00  0.00    -0.449 F  
HETATM   18  C   UNL     1     -12.461  13.237  65.215  1.00  0.00    -0.543 A  
HETATM   19  C   UNL     1     -12.481  13.959  66.415  1.00  0.00    -0.414 A  
ENDBRANCH  10  12
TORSDOF 1
ENDMDL
MODEL        5
REMARK 921   NORMALIZED FREE ENERGY PREDICTED BY IDOCK:   -6.94 KCAL/MOL
REMARK 922        TOTAL FREE ENERGY PREDICTED BY IDOCK:   -7.71 KCAL/MOL
REMARK 923 INTER-LIGAND FREE ENERGY PREDICTED BY IDOCK:   -7.24 KCAL/MOL
REMARK 924 INTRA-LIGAND FREE ENERGY PREDICTED BY IDOCK:   -0.48 KCAL/MOL
REMARK 927      BINDING AFFINITY PREDICTED BY RF-SCORE:    0.00 PKD
ROOT
HETATM    1  O   UNL     1     -12.633  14.291  63.595  1.00  0.00    -0.831 OA 
HETATM    2  C   UNL     1     -12.536  13.495  64.677  1.00  0.00    -0.323 C  
HETATM    3  O   UNL     1     -13.079  12.398  64.711  1.00  0.00    -0.806 OA 
HETATM    4  C   UNL     1     -11.749  13.991  65.842  1.00  0.00    -0.373 A  
HETATM    5  C   UNL     1     -11.611  13.154  66.961  1.00  0.00    -0.359 A  
HETATM    6  O   UNL     1     -12.154  11.899  67.047  1.00  0.00    -0.600 OA 
HETATM    7  C   UNL     1     -10.906  13.579  68.083  1.00  0.00    -0.271 A  
HETATM    8  C   UNL     1     -10.349  14.859  68.118  1.00  0.00    -0.237 A  
HETATM    9  H   UNL     1     -12.061  11.333  67.803  1.00  0.00     0.000 HD 
HETATM   10  C   UNL     1     -10.459  15.738  67.025  1.00  0.00    -0.309 A  
HETATM   11  C   UNL     1     -11.146  15.261  65.885  1.00  0.00    -0.287 A  
ENDROOT
BRANCH  10  12
HETATM   12  C   UNL     1      -9.893  17.114  67.072  1.00  0.00    -0.276 A  
HETATM   13  C   UNL     1      -8.645  17.434  66.496  1.00  0.00    -0.261 A  
HETATM   14  F   UNL     1      -7.926  16.494  65.860  1.00  0.00    -0.334 F  
HETATM   15  C   UNL     1      -8.103  18.717  66.543  1.00  0.00    -0.302 A  
HETATM   16  C   UNL     1      -8.819  19.726  67.160  1.00  0.00    -0.323 A  
HETATM   17  F   UNL     1      -8.311  20.963  67.209  1.00  0.00    -0.390 F  
HETATM   18  C   UNL     1     -10.058  19.470  67.730  1.00  0.00    -0.532 A  
HETATM   19  C   UNL     1     -10.587  18.174  67.692  1.00  0.00    -0.424 A  
ENDBRANCH  10  12
TORSDOF 1
ENDMDL
MODEL        6
REMARK 921   NORMALIZED FREE ENERGY PREDICTED BY IDOCK:   -6.85 KCAL/MOL
REMARK 922        TOTAL FREE ENERGY PREDICTED BY IDOCK:   -7.62 KCAL/MOL
REMARK 923 INTER-LIGAND FREE ENERGY PREDICTED BY IDOCK:   -7.17 KCAL/MOL
REMARK 924 INTRA-LIGAND FREE ENERGY PREDICTED BY IDOCK:   -0.44 KCAL/MOL
REMARK 927      BINDING AFFINITY PREDICTED BY RF-SCORE:    0.00 PKD
ROOT
HETATM    1  O   UNL     1     -13.448  12.046  71.975  1.00  0.00    -0.447 OA 
HETATM    2  C   UNL     1     -13.267  13.381  71.958  1.00  0.00    -0.438 C  
HETATM    3  O   UNL     1     -13.611  14.082  72.903  1.00  0.00    -0.676 OA 
HETATM    4  C   UNL     1     -12.639  13.988  70.750  1.00  0.00    -0.431 A  
HETATM    5  C   UNL     1     -12.413  15.373  70.738  1.00  0.00    -0.423 A  
HETATM    6  O   UNL     1     -12.731  16.207  71.778  1.00  0.00    -0.530 OA 
HETATM    7  C   UNL     1     -11.851  15.991  69.626  1.00  0.00    -0.234 A  
HETATM    8  C   UNL     1     -11.528  15.239  68.493  1.00  0.00    -0.355 A  
HETATM    9  H   UNL     1     -12.578  17.144  71.769  1.00  0.00     0.000 HD 
HETATM   10  C   UNL     1     -11.736  13.849  68.452  1.00  0.00    -0.391 A  
HETATM   11  C   UNL     1     -12.271  13.245  69.614  1.00  0.00    -0.258 A  
ENDROOT
BRANCH  10  12
HETATM   12  C   UNL     1     -11.424  13.049  67.236  1.00  0.00    -0.380 A  
HETATM   13  C   UNL     1     -12.142  13.202  66.030  1.00  0.00    -0.436 A  
HETATM   14  F   UNL     1     -13.134  14.102  65.936  1.00  0.00    -0.525 F  
HETATM   15  C   UNL     1     -11.862  12.452  64.890  1.00  0.00    -0.442 A  
HETATM   16  C   UNL     1     -10.830  11.533  64.927  1.00  0.00    -0.283 A  
HETATM   17  F   UNL     1     -10.549  10.808  63.837  1.00  0.00    -0.424 F  
HETATM   18  C   UNL     1     -10.082  11.353  66.082  1.00  0.00    -0.271 A  
HETATM   19  C   UNL     1     -10.381  12.099  67.228  1.00  0.00    -0.230 A  
ENDBRANCH  10  12
TORSDOF 1
ENDMDL
MODEL        7
REMARK 921   NORMALIZED FREE ENERGY PREDICTED BY IDOCK:   -6.84 KCAL/MOL
REMARK 922        TOTAL FREE ENERGY PREDICTED BY IDOCK:   -7.61 KCAL/MOL
REMARK 923 INTER-LIGAND FREE ENERGY PREDICTED BY IDOCK:   -7.16 KCAL/MOL
REMARK 924 INTRA-LIGAND FREE ENERGY PREDICTED BY IDOCK:   -0.44 KCAL/MOL
REMARK 927      BINDING AFFINITY PREDICTED BY RF-SCORE:    0.00 PKD
ROOT
HETATM    1  O   UNL     1     -12.939  14.215  65.236  1.00  0.00    -0.725 OA 
HETATM    2  C   UNL     1     -12.253  13.066  65.388  1.00  0.00    -0.471 C  
HETATM    3  O   UNL     1     -11.986  12.352  64.429  1.00  0.00    -0.368 OA 
HETATM    4  C   UNL     1     -11.830  12.680  66.765  1.00  0.00    -0.440 A  
HETATM    5  C   UNL     1     -11.083  11.503  66.930  1.00  0.00    -0.307 A  
HETATM    6  O   UNL     1     -10.712  10.684  65.896  1.00  0.00    -0.152 OA 
HETATM    7  C   UNL     1     -10.683  11.087  68.196  1.00  0.00    -0.246 A  
HETATM    8  C   UNL     1     -11.046  11.827  69.324  1.00  0.00    -0.278 A  
HETATM    9  H   UNL     1     -10.207   9.887  66.007  1.00  0.00     0.000 HD 
HETATM   10  C   UNL     1     -11.795  13.012  69.215  1.00  0.00    -0.370 A  
HETATM   11  C   UNL     1     -12.150  13.429  67.912  1.00  0.00    -0.289 A  
ENDROOT
BRANCH  10  12
HETATM   12  C   UNL     1     -12.210  13.785  70.418  1.00  0.00    -0.433 A  
HETATM   13  C   UNL     1     -11.702  15.073  70.697  1.00  0.00    -0.308 A  
HETATM   14  F   UNL     1     -10.828  15.657  69.861  1.00  0.00    -0.226 F  
HETATM   15  C   UNL     1     -12.077  15.799  71.825  1.00  0.00    -0.541 A  
HETATM   16  C   UNL     1     -12.997  15.252  72.701  1.00  0.00    -0.408 A  
HETATM   17  F   UNL     1     -13.368  15.942  73.786  1.00  0.00    -0.571 F  
HETATM   18  C   UNL     1     -13.539  13.997  72.467  1.00  0.00    -0.670 A  
HETATM   19  C   UNL     1     -13.144  13.267  71.339  1.00  0.00    -0.361 A  
ENDBRANCH  10  12
TORSDOF 1
ENDMDL
MODEL        8
REMARK 921   NORMALIZED FREE ENERGY PREDICTED BY IDOCK:   -6.79 KCAL/MOL
REMARK 922        TOTAL FREE ENERGY PREDICTED BY IDOCK:   -7.56 KCAL/MOL
REMARK 923 INTER-LIGAND FREE ENERGY PREDICTED BY IDOCK:   -7.08 KCAL/MOL
REMARK 924 INTRA-LIGAND FREE ENERGY PREDICTED BY IDOCK:   -0.48 KCAL/MOL
REMARK 927      BINDING AFFINITY PREDICTED BY RF-SCORE:    0.00 PKD
ROOT
HETATM    1  O   UNL     1     -13.615  14.017  65.415  1.00  0.00    -0.593 OA 
HETATM    2  C   UNL     1     -12.331  13.626  65.313  1.00  0.00    -0.465 C  
HETATM    3  O   UNL     1     -11.876  13.205  64.256  1.00  0.00    -0.364 OA 
HETATM    4  C   UNL     1     -11.472  13.714  66.528  1.00  0.00    -0.357 A  
HETATM    5  C   UNL     1     -10.122  13.342  66.422  1.00  0.00    -0.292 A  
HETATM    6  O   UNL     1      -9.540  12.908  65.261  1.00  0.00    -0.478 OA 
HETATM    7  C   UNL     1      -9.285  13.385  67.533  1.00  0.00    -0.219 A  
HETATM    8  C   UNL     1      -9.789  13.773  68.777  1.00  0.00    -0.093 A  
HETATM    9  H   UNL     1      -8.627  12.656  65.190  1.00  0.00     0.000 HD 
HETATM   10  C   UNL     1     -11.134  14.152  68.938  1.00  0.00    -0.288 A  
HETATM   11  C   UNL     1     -11.948  14.138  67.782  1.00  0.00    -0.389 A  
ENDROOT
BRANCH  10  12
HETATM   12  C   UNL     1     -11.681  14.535  70.269  1.00  0.00    -0.356 A  
HETATM   13  C   UNL     1     -11.494  15.824  70.816  1.00  0.00    -0.393 A  
HETATM   14  F   UNL     1     -10.823  16.764  70.133  1.00  0.00    -0.330 F  
HETATM   15  C   UNL     1     -11.995  16.187  72.064  1.00  0.00    -0.607 A  
HETATM   16  C   UNL     1     -12.719  15.263  72.794  1.00  0.00    -0.397 A  
HETATM   17  F   UNL     1     -13.207  15.603  73.993  1.00  0.00    -0.537 F  
HETATM   18  C   UNL     1     -12.945  13.988  72.297  1.00  0.00    -0.463 A  
HETATM   19  C   UNL     1     -12.424  13.625  71.048  1.00  0.00    -0.456 A  
ENDBRANCH  10  12
TORSDOF 1
ENDMDL
MODEL        9
REMARK 921   NORMALIZED FREE ENERGY PREDICTED BY IDOCK:   -6.75 KCAL/MOL
REMARK 922        TOTAL FREE ENERGY PREDICTED BY IDOCK:   -7.51 KCAL/MOL
REMARK 923 INTER-LIGAND FREE ENERGY PREDICTED BY IDOCK:   -7.04 KCAL/MOL
REMARK 924 INTRA-LIGAND FREE ENERGY PREDICTED BY IDOCK:   -0.47 KCAL/MOL
REMARK 927      BINDING AFFINITY PREDICTED BY RF-SCORE:    0.00 PKD
ROOT
HETATM    1  O   UNL     1     -13.773  14.332  72.948  1.00  0.00    -0.629 OA 
HETATM    2  C   UNL     1     -13.378  14.590  71.687  1.00  0.00    -0.363 C  
HETATM    3  O   UNL     1     -13.548  15.693  71.179  1.00  0.00    -0.582 OA 
HETATM    4  C   UNL     1     -12.729  13.491  70.917  1.00  0.00    -0.366 A  
HETATM    5  C   UNL     1     -12.281  13.761  69.614  1.00  0.00    -0.305 A  
HETATM    6  O   UNL     1     -12.398  14.982  69.005  1.00  0.00    -0.567 OA 
HETATM    7  C   UNL     1     -11.689  12.763  68.846  1.00  0.00    -0.370 A  
HETATM    8  C   UNL     1     -11.559  11.469  69.356  1.00  0.00    -0.388 A  
HETATM    9  H   UNL     1     -12.095  15.164  68.123  1.00  0.00     0.000 HD 
HETATM   10  C   UNL     1     -11.994  11.145  70.654  1.00  0.00    -0.459 A  
HETATM   11  C   UNL     1     -12.553  12.191  71.424  1.00  0.00    -0.314 A  
ENDROOT
BRANCH  10  12
HETATM   12  C   UNL     1     -11.886   9.760  71.189  1.00  0.00    -0.466 A  
HETATM   13  C   UNL     1     -13.012   8.921  71.339  1.00  0.00    -0.278 A  
HETATM   14  F   UNL     1     -14.233   9.348  70.981  1.00  0.00    -0.341 F  
HETATM   15  C   UNL     1     -12.921   7.627  71.848  1.00  0.00    -0.299 A  
HETATM   16  C   UNL     1     -11.680   7.131  72.204  1.00  0.00    -0.284 A  
HETATM   17  F   UNL     1     -11.580   5.888  72.690  1.00  0.00    -0.306 F  
HETATM   18  C   UNL     1     -10.539   7.906  72.062  1.00  0.00    -0.296 A  
HETATM   19  C   UNL     1     -10.642   9.212  71.566  1.00  0.00    -0.428 A  
ENDBRANCH  10  12
TORSDOF 1
ENDMDL
MODEL       10
REMARK 921   NORMALIZED FREE ENERGY PREDICTED BY IDOCK:   -6.73 KCAL/MOL
REMARK 922        TOTAL FREE ENERGY PREDICTED BY IDOCK:   -7.49 KCAL/MOL
REMARK 923 INTER-LIGAND FREE ENERGY PREDICTED BY IDOCK:   -7.16 KCAL/MOL
REMARK 924 INTRA-LIGAND FREE ENERGY PREDICTED BY IDOCK:   -0.34 KCAL/MOL
REMARK 927      BINDING AFFINITY PREDICTED BY RF-SCORE:    0.00 PKD
ROOT
HETATM    1  O   UNL     1     -13.145  12.177  63.701  1.00  0.00    -0.787 OA 
HETATM    2  C   UNL     1     -12.488  13.347  63.815  1.00  0.00    -0.246 C  
HETATM    3  O   UNL     1     -12.289  14.063  62.841  1.00  0.00    -0.423 OA 
HETATM    4  C   UNL     1     -12.000  13.748  65.166  1.00  0.00    -0.393 A  
HETATM    5  C   UNL     1     -11.346  14.982  65.301  1.00  0.00    -0.349 A  
HETATM    6  O   UNL     1     -11.132  15.851  64.263  1.00  0.00    -0.876 OA 
HETATM    7  C   UNL     1     -10.852  15.392  66.536  1.00  0.00    -0.298 A  
HETATM    8  C   UNL     1     -10.979  14.563  67.653  1.00  0.00    -0.293 A  
HETATM    9  H   UNL     1     -10.689  16.686  64.355  1.00  0.00     0.000 HD 
HETATM   10  C   UNL     1     -11.623  13.316  67.571  1.00  0.00    -0.388 A  
HETATM   11  C   UNL     1     -12.150  12.946  66.312  1.00  0.00    -0.433 A  
ENDROOT
BRANCH  10  12
HETATM   12  C   UNL     1     -11.732  12.416  68.752  1.00  0.00    -0.379 A  
HETATM   13  C   UNL     1     -12.214  12.867  70.000  1.00  0.00    -0.222 A  
HETATM   14  F   UNL     1     -12.615  14.139  70.157  1.00  0.00    -0.372 F  
HETATM   15  C   UNL     1     -12.310  12.034  71.113  1.00  0.00    -0.282 A  
HETATM   16  C   UNL     1     -11.938  10.708  70.994  1.00  0.00    -0.339 A  
HETATM   17  F   UNL     1     -12.029   9.898  72.055  1.00  0.00    -0.440 F  
HETATM   18  C   UNL     1     -11.471  10.208  69.787  1.00  0.00    -0.288 A  
HETATM   19  C   UNL     1     -11.362  11.056  68.678  1.00  0.00    -0.346 A  
ENDBRANCH  10  12
TORSDOF 1
ENDMDL
MODEL       11
REMARK 921   NORMALIZED FREE ENERGY PREDICTED BY IDOCK:   -6.73 KCAL/MOL
REMARK 922        TOTAL FREE ENERGY PREDICTED BY IDOCK:   -7.49 KCAL/MOL
REMARK 923 INTER-LIGAND FREE ENERGY PREDICTED BY IDOCK:   -7.01 KCAL/MOL
REMARK 924 INTRA-LIGAND FREE ENERGY PREDICTED BY IDOCK:   -0.48 KCAL/MOL
REMARK 927      BINDING AFFINITY PREDICTED BY RF-SCORE:    0.00 PKD
ROOT
HETATM    1  O   UNL     1     -12.449  14.388  63.583  1.00  0.00    -0.805 OA 
HETATM    2  C   UNL     1     -12.360  13.678  64.725  1.00  0.00    -0.390 C  
HETATM    3  O   UNL     1     -13.011  12.654  64.890  1.00  0.00    -0.830 OA 
HETATM    4  C   UNL     1     -11.445  14.178  65.791  1.00  0.00    -0.327 A  
HETATM    5  C   UNL     1     -11.318  13.427  66.969  1.00  0.00    -0.317 A  
HETATM    6  O   UNL     1     -11.981  12.250  67.200  1.00  0.00    -0.564 OA 
HETATM    7  C   UNL     1     -10.495  13.862  68.004  1.00  0.00    -0.243 A  
HETATM    8  C   UNL     1      -9.805  15.072  67.889  1.00  0.00    -0.217 A  
HETATM    9  H   UNL     1     -11.895  11.742  67.997  1.00  0.00     0.000 HD 
HETATM   10  C   UNL     1      -9.900  15.864  66.731  1.00  0.00    -0.254 A  
HETATM   11  C   UNL     1     -10.712  15.374  65.682  1.00  0.00    -0.381 A  
ENDROOT
BRANCH  10  12
HETATM   12  C   UNL     1      -9.192  17.169  66.620  1.00  0.00    -0.280 A  
HETATM   13  C   UNL     1      -9.836  18.399  66.875  1.00  0.00    -0.338 A  
HETATM   14  F   UNL     1     -11.124  18.429  67.252  1.00  0.00    -0.399 F  
HETATM   15  C   UNL     1      -9.182  19.625  66.764  1.00  0.00    -0.438 A  
HETATM   16  C   UNL     1      -7.847  19.645  66.408  1.00  0.00    -0.309 A  
HETATM   17  F   UNL     1      -7.208  20.816  66.301  1.00  0.00    -0.273 F  
HETATM   18  C   UNL     1      -7.161  18.464  66.160  1.00  0.00    -0.298 A  
HETATM   19  C   UNL     1      -7.830  17.238  66.258  1.00  0.00    -0.344 A  
ENDBRANCH  10  12
TORSDOF 1
ENDMDL
MODEL       12
REMARK 921   NORMALIZED FREE ENERGY PREDICTED BY IDOCK:   -6.72 KCAL/MOL
REMARK 922        TOTAL FREE ENERGY PREDICTED BY IDOCK:   -7.48 KCAL/MOL
REMARK 923 INTER-LIGAND FREE ENERGY PREDICTED BY IDOCK:   -7.49 KCAL/MOL
REMARK 924 INTRA-LIGAND FREE ENERGY PREDICTED BY IDOCK:    0.01 KCAL/MOL
REMARK 927      BINDING AFFINITY PREDICTED BY RF-SCORE:    0.00 PKD
ROOT
HETATM    1  O   UNL     1     -12.501  14.034  63.816  1.00  0.00    -0.753 OA 
HETATM    2  C   UNL     1     -12.386  13.264  64.915  1.00  0.00    -0.425 C  
HETATM    3  O   UNL     1     -12.767  12.099  64.919  1.00  0.00    -0.508 OA 
HETATM    4  C   UNL     1     -11.783  13.870  66.136  1.00  0.00    -0.393 A  
HETATM    5  C   UNL     1     -11.626  13.065  67.275  1.00  0.00    -0.356 A  
HETATM    6  O   UNL     1     -11.988  11.745  67.332  1.00  0.00    -0.617 OA 
HETATM    7  C   UNL     1     -11.090  13.589  68.447  1.00  0.00    -0.298 A  
HETATM    8  C   UNL     1     -10.727  14.937  68.511  1.00  0.00    -0.245 A  
HETATM    9  H   UNL     1     -11.881  11.200  68.102  1.00  0.00     0.000 HD 
HETATM   10  C   UNL     1     -10.866  15.788  67.400  1.00  0.00    -0.306 A  
HETATM   11  C   UNL     1     -11.375  15.214  66.212  1.00  0.00    -0.219 A  
ENDROOT
BRANCH  10  12
HETATM   12  C   UNL     1     -10.510  17.231  67.474  1.00  0.00    -0.356 A  
HETATM   13  C   UNL     1     -10.479  18.059  66.330  1.00  0.00    -0.339 A  
HETATM   14  F   UNL     1     -10.794  17.565  65.122  1.00  0.00    -0.389 F  
HETATM   15  C   UNL     1     -10.137  19.408  66.390  1.00  0.00    -0.532 A  
HETATM   16  C   UNL     1      -9.833  19.971  67.616  1.00  0.00    -0.413 A  
HETATM   17  F   UNL     1      -9.506  21.267  67.685  1.00  0.00    -0.450 F  
HETATM   18  C   UNL     1      -9.862  19.207  68.773  1.00  0.00    -0.502 A  
HETATM   19  C   UNL     1     -10.191  17.848  68.702  1.00  0.00    -0.387 A  
ENDBRANCH  10  12
TORSDOF 1
ENDMDL
MODEL       13
REMARK 921   NORMALIZED FREE ENERGY PREDICTED BY IDOCK:   -6.69 KCAL/MOL
REMARK 922        TOTAL FREE ENERGY PREDICTED BY IDOCK:   -7.45 KCAL/MOL
REMARK 923 INTER-LIGAND FREE ENERGY PREDICTED BY IDOCK:   -7.08 KCAL/MOL
REMARK 924 INTRA-LIGAND FREE ENERGY PREDICTED BY IDOCK:   -0.37 KCAL/MOL
REMARK 927      BINDING AFFINITY PREDICTED BY RF-SCORE:    0.00 PKD
ROOT
HETATM    1  O   UNL     1     -13.377  12.541  64.883  1.00  0.00    -0.702 OA 
HETATM    2  C   UNL     1     -12.184  13.125  64.660  1.00  0.00    -0.414 C  
HETATM    3  O   UNL     1     -11.649  13.080  63.558  1.00  0.00    -0.467 OA 
HETATM    4  C   UNL     1     -11.524  13.829  65.796  1.00  0.00    -0.324 A  
HETATM    5  C   UNL     1     -10.298  14.472  65.564  1.00  0.00    -0.359 A  
HETATM    6  O   UNL     1      -9.669  14.499  64.348  1.00  0.00    -0.373 OA 
HETATM    7  C   UNL     1      -9.631  15.123  66.598  1.00  0.00    -0.272 A  
HETATM    8  C   UNL     1     -10.164  15.119  67.889  1.00  0.00    -0.232 A  
HETATM    9  H   UNL     1      -8.840  14.934  64.191  1.00  0.00     0.000 HD 
HETATM   10  C   UNL     1     -11.388  14.488  68.176  1.00  0.00    -0.319 A  
HETATM   11  C   UNL     1     -12.061  13.871  67.096  1.00  0.00    -0.422 A  
ENDROOT
BRANCH  10  12
HETATM   12  C   UNL     1     -11.942  14.455  69.557  1.00  0.00    -0.376 A  
HETATM   13  C   UNL     1     -12.284  13.247  70.202  1.00  0.00    -0.306 A  
HETATM   14  F   UNL     1     -12.098  12.068  69.586  1.00  0.00    -0.332 F  
HETATM   15  C   UNL     1     -12.813  13.208  71.491  1.00  0.00    -0.401 A  
HETATM   16  C   UNL     1     -12.996  14.394  72.178  1.00  0.00    -0.355 A  
HETATM   17  F   UNL     1     -13.500  14.368  73.418  1.00  0.00    -0.494 F  
HETATM   18  C   UNL     1     -12.663  15.609  71.597  1.00  0.00    -0.522 A  
HETATM   19  C   UNL     1     -12.148  15.639  70.295  1.00  0.00    -0.413 A  
ENDBRANCH  10  12
TORSDOF 1
ENDMDL
MODEL       14
REMARK 921   NORMALIZED FREE ENERGY PREDICTED BY IDOCK:   -6.66 KCAL/MOL
REMARK 922        TOTAL FREE ENERGY PREDICTED BY IDOCK:   -7.42 KCAL/MOL
REMARK 923 INTER-LIGAND FREE ENERGY PREDICTED BY IDOCK:   -7.19 KCAL/MOL
REMARK 924 INTRA-LIGAND FREE ENERGY PREDICTED BY IDOCK:   -0.23 KCAL/MOL
REMARK 927      BINDING AFFINITY PREDICTED BY RF-SCORE:    0.00 PKD
ROOT
HETATM    1  O   UNL     1     -12.724  15.510  64.049  1.00  0.00    -0.611 OA 
HETATM    2  C   UNL     1     -12.405  14.202  64.015  1.00  0.00    -0.275 C  
HETATM    3  O   UNL     1     -12.442  13.564  62.969  1.00  0.00    -0.709 OA 
HETATM    4  C   UNL     1     -12.006  13.544  65.292  1.00  0.00    -0.397 A  
HETATM    5  C   UNL     1     -11.636  12.190  65.261  1.00  0.00    -0.322 A  
HETATM    6  O   UNL     1     -11.613  11.432  64.120  1.00  0.00    -0.272 OA 
HETATM    7  C   UNL     1     -11.279  11.525  66.429  1.00  0.00    -0.307 A  
HETATM    8  C   UNL     1     -11.310  12.193  67.655  1.00  0.00    -0.379 A  
HETATM    9  H   UNL     1     -11.363  10.516  64.098  1.00  0.00     0.000 HD 
HETATM   10  C   UNL     1     -11.675  13.549  67.743  1.00  0.00    -0.394 A  
HETATM   11  C   UNL     1     -11.994  14.207  66.533  1.00  0.00    -0.466 A  
ENDROOT
BRANCH  10  12
HETATM   12  C   UNL     1     -11.740  14.255  69.051  1.00  0.00    -0.352 A  
HETATM   13  C   UNL     1     -11.288  15.583  69.213  1.00  0.00    -0.325 A  
HETATM   14  F   UNL     1     -10.794  16.267  68.169  1.00  0.00    -0.287 F  
HETATM   15  C   UNL     1     -11.336  16.248  70.437  1.00  0.00    -0.313 A  
HETATM   16  C   UNL     1     -11.864  15.595  71.536  1.00  0.00    -0.425 A  
HETATM   17  F   UNL     1     -11.918  16.226  72.716  1.00  0.00    -0.511 F  
HETATM   18  C   UNL     1     -12.336  14.296  71.430  1.00  0.00    -0.431 A  
HETATM   19  C   UNL     1     -12.269  13.629  70.200  1.00  0.00    -0.413 A  
ENDBRANCH  10  12
TORSDOF 1
ENDMDL
MODEL       15
REMARK 921   NORMALIZED FREE ENERGY PREDICTED BY IDOCK:   -6.64 KCAL/MOL
REMARK 922        TOTAL FREE ENERGY PREDICTED BY IDOCK:   -7.40 KCAL/MOL
REMARK 923 INTER-LIGAND FREE ENERGY PREDICTED BY IDOCK:   -6.92 KCAL/MOL
REMARK 924 INTRA-LIGAND FREE ENERGY PREDICTED BY IDOCK:   -0.48 KCAL/MOL
REMARK 927      BINDING AFFINITY PREDICTED BY RF-SCORE:    0.00 PKD
ROOT
HETATM    1  O   UNL     1     -13.368  11.974  64.136  1.00  0.00    -0.725 OA 
HETATM    2  C   UNL     1     -12.549  13.042  64.184  1.00  0.00    -0.224 C  
HETATM    3  O   UNL     1     -12.416  13.786  63.220  1.00  0.00    -0.819 OA 
HETATM    4  C   UNL     1     -11.799  13.293  65.448  1.00  0.00    -0.392 A  
HETATM    5  C   UNL     1     -10.971  14.424  65.521  1.00  0.00    -0.329 A  
HETATM    6  O   UNL     1     -10.812  15.321  64.497  1.00  0.00    -0.634 OA 
HETATM    7  C   UNL     1     -10.233  14.691  66.670  1.00  0.00    -0.275 A  
HETATM    8  C   UNL     1     -10.288  13.816  67.758  1.00  0.00    -0.241 A  
HETATM    9  H   UNL     1     -10.252  16.086  64.547  1.00  0.00     0.000 HD 
HETATM   10  C   UNL     1     -11.100  12.668  67.736  1.00  0.00    -0.287 A  
HETATM   11  C   UNL     1     -11.869  12.447  66.570  1.00  0.00    -0.407 A  
ENDROOT
BRANCH  10  12
HETATM   12  C   UNL     1     -11.136  11.718  68.881  1.00  0.00    -0.297 A  
HETATM   13  C   UNL     1     -10.167  10.705  69.050  1.00  0.00    -0.215 A  
HETATM   14  F   UNL     1      -9.154  10.578  68.177  1.00  0.00    -0.132 F  
HETATM   15  C   UNL     1     -10.200   9.805  70.114  1.00  0.00    -0.328 A  
HETATM   16  C   UNL     1     -11.206   9.914  71.055  1.00  0.00    -0.364 A  
HETATM   17  F   UNL     1     -11.245   9.058  72.083  1.00  0.00    -0.406 F  
HETATM   18  C   UNL     1     -12.176  10.900  70.946  1.00  0.00    -0.485 A  
HETATM   19  C   UNL     1     -12.145  11.790  69.865  1.00  0.00    -0.359 A  
ENDBRANCH  10  12
TORSDOF 1
ENDMDL
MODEL       16
REMARK 921   NORMALIZED FREE ENERGY PREDICTED BY IDOCK:   -6.64 KCAL/MOL
REMARK 922        TOTAL FREE ENERGY PREDICTED BY IDOCK:   -7.40 KCAL/MOL
REMARK 923 INTER-LIGAND FREE ENERGY PREDICTED BY IDOCK:   -7.08 KCAL/MOL
REMARK 924 INTRA-LIGAND FREE ENERGY PREDICTED BY IDOCK:   -0.32 KCAL/MOL
REMARK 927      BINDING AFFINITY PREDICTED BY RF-SCORE:    0.00 PKD
ROOT
HETATM    1  O   UNL     1     -11.195  13.868  67.736  1.00  0.00    -0.273 OA 
HETATM    2  C   UNL     1     -11.727  14.604  68.731  1.00  0.00    -0.324 C  
HETATM    3  O   UNL     1     -11.736  15.828  68.683  1.00  0.00    -0.375 OA 
HETATM    4  C   UNL     1     -12.303  13.884  69.903  1.00  0.00    -0.358 A  
HETATM    5  C   UNL     1     -12.893  14.641  70.928  1.00  0.00    -0.365 A  
HETATM    6  O   UNL     1     -12.977  16.008  70.915  1.00  0.00    -0.596 OA 
HETATM    7  C   UNL     1     -13.424  14.019  72.053  1.00  0.00    -0.528 A  
HETATM    8  C   UNL     1     -13.352  12.630  72.187  1.00  0.00    -0.570 A  
HETATM    9  H   UNL     1     -13.376  16.520  71.609  1.00  0.00     0.000 HD 
HETATM   10  C   UNL     1     -12.770  11.826  71.191  1.00  0.00    -0.405 A  
HETATM   11  C   UNL     1     -12.276  12.485  70.041  1.00  0.00    -0.262 A  
ENDROOT
BRANCH  10  12
HETATM   12  C   UNL     1     -12.663  10.349  71.345  1.00  0.00    -0.551 A  
HETATM   13  C   UNL     1     -11.455   9.654  71.117  1.00  0.00    -0.384 A  
HETATM   14  F   UNL     1     -10.342  10.318  70.767  1.00  0.00    -0.277 F  
HETATM   15  C   UNL     1     -11.349   8.271  71.250  1.00  0.00    -0.308 A  
HETATM   16  C   UNL     1     -12.460   7.546  71.638  1.00  0.00    -0.342 A  
HETATM   17  F   UNL     1     -12.369   6.217  71.772  1.00  0.00    -0.377 F  
HETATM   18  C   UNL     1     -13.668   8.180  71.889  1.00  0.00    -0.395 A  
HETATM   19  C   UNL     1     -13.771   9.568  71.737  1.00  0.00    -0.385 A  
ENDBRANCH  10  12
TORSDOF 1
ENDMDL
MODEL       17
REMARK 921   NORMALIZED FREE ENERGY PREDICTED BY IDOCK:   -6.62 KCAL/MOL
REMARK 922        TOTAL FREE ENERGY PREDICTED BY IDOCK:   -7.37 KCAL/MOL
REMARK 923 INTER-LIGAND FREE ENERGY PREDICTED BY IDOCK:   -6.91 KCAL/MOL
REMARK 924 INTRA-LIGAND FREE ENERGY PREDICTED BY IDOCK:   -0.46 KCAL/MOL
REMARK 927      BINDING AFFINITY PREDICTED BY RF-SCORE:    0.00 PKD
ROOT
HETATM    1  O   UNL     1     -13.083  12.530  64.795  1.00  0.00    -0.853 OA 
HETATM    2  C   UNL     1     -12.339  13.595  65.151  1.00  0.00    -0.452 C  
HETATM    3  O   UNL     1     -12.038  14.461  64.338  1.00  0.00    -0.460 OA 
HETATM    4  C   UNL     1     -11.883  13.689  66.567  1.00  0.00    -0.441 A  
HETATM    5  C   UNL     1     -11.137  14.813  66.956  1.00  0.00    -0.333 A  
HETATM    6  O   UNL     1     -10.805  15.839  66.110  1.00  0.00    -0.309 OA 
HETATM    7  C   UNL     1     -10.668  14.938  68.260  1.00  0.00    -0.249 A  
HETATM    8  C   UNL     1     -10.914  13.928  69.193  1.00  0.00    -0.253 A  
HETATM    9  H   UNL     1     -10.301  16.599  66.373  1.00  0.00     0.000 HD 
HETATM   10  C   UNL     1     -11.653  12.780  68.855  1.00  0.00    -0.362 A  
HETATM   11  C   UNL     1     -12.150  12.703  67.534  1.00  0.00    -0.170 A  
ENDROOT
BRANCH  10  12
HETATM   12  C   UNL     1     -11.889  11.688  69.838  1.00  0.00    -0.434 A  
HETATM   13  C   UNL     1     -12.736  11.851  70.957  1.00  0.00    -0.258 A  
HETATM   14  F   UNL     1     -13.380  13.012  71.160  1.00  0.00    -0.298 F  
HETATM   15  C   UNL     1     -12.954  10.837  71.887  1.00  0.00    -0.524 A  
HETATM   16  C   UNL     1     -12.337   9.614  71.704  1.00  0.00    -0.404 A  
HETATM   17  F   UNL     1     -12.542   8.631  72.590  1.00  0.00    -0.435 F  
HETATM   18  C   UNL     1     -11.507   9.393  70.615  1.00  0.00    -0.344 A  
HETATM   19  C   UNL     1     -11.280  10.424  69.694  1.00  0.00    -0.333 A  
ENDBRANCH  10  12
TORSDOF 1
ENDMDL
MODEL       18
REMARK 921   NORMALIZED FREE ENERGY PREDICTED BY IDOCK:   -6.61 KCAL/MOL
REMARK 922        TOTAL FREE ENERGY PREDICTED BY IDOCK:   -7.36 KCAL/MOL
REMARK 923 INTER-LIGAND FREE ENERGY PREDICTED BY IDOCK:   -6.90 KCAL/MOL
REMARK 924 INTRA-LIGAND FREE ENERGY PREDICTED BY IDOCK:   -0.47 KCAL/MOL
REMARK 927      BINDING AFFINITY PREDICTED BY RF-SCORE:    0.00 PKD
ROOT
HETATM    1  O   UNL     1     -12.548  14.831  64.041  1.00  0.00    -0.822 OA 
HETATM    2  C   UNL     1     -11.674  15.731  64.531  1.00  0.00    -0.191 C  
HETATM    3  O   UNL     1     -11.320  16.701  63.870  1.00  0.00    -1.104 OA 
HETATM    4  C   UNL     1     -11.140  15.513  65.905  1.00  0.00    -0.205 A  
HETATM    5  C   UNL     1     -10.256  16.465  66.439  1.00  0.00    -0.316 A  
HETATM    6  O   UNL     1      -9.856  17.593  65.772  1.00  0.00    -0.539 OA 
HETATM    7  C   UNL     1      -9.712  16.296  67.708  1.00  0.00    -0.233 A  
HETATM    8  C   UNL     1     -10.020  15.158  68.457  1.00  0.00    -0.223 A  
HETATM    9  H   UNL     1      -9.258  18.237  66.132  1.00  0.00     0.000 HD 
HETATM   10  C   UNL     1     -10.897  14.173  67.969  1.00  0.00    -0.256 A  
HETATM   11  C   UNL     1     -11.465  14.395  66.694  1.00  0.00    -0.372 A  
ENDROOT
BRANCH  10  12
HETATM   12  C   UNL     1     -11.202  12.945  68.753  1.00  0.00    -0.323 A  
HETATM   13  C   UNL     1     -12.003  12.973  69.915  1.00  0.00    -0.311 A  
HETATM   14  F   UNL     1     -12.538  14.126  70.347  1.00  0.00    -0.365 F  
HETATM   15  C   UNL     1     -12.285  11.829  70.659  1.00  0.00    -0.443 A  
HETATM   16  C   UNL     1     -11.781  10.612  70.239  1.00  0.00    -0.344 A  
HETATM   17  F   UNL     1     -12.049   9.506  70.944  1.00  0.00    -0.315 F  
HETATM   18  C   UNL     1     -11.002  10.525  69.095  1.00  0.00    -0.286 A  
HETATM   19  C   UNL     1     -10.709  11.682  68.362  1.00  0.00    -0.248 A  
ENDBRANCH  10  12
TORSDOF 1
ENDMDL
MODEL       19
REMARK 921   NORMALIZED FREE ENERGY PREDICTED BY IDOCK:   -6.57 KCAL/MOL
REMARK 922        TOTAL FREE ENERGY PREDICTED BY IDOCK:   -7.32 KCAL/MOL
REMARK 923 INTER-LIGAND FREE ENERGY PREDICTED BY IDOCK:   -6.88 KCAL/MOL
REMARK 924 INTRA-LIGAND FREE ENERGY PREDICTED BY IDOCK:   -0.45 KCAL/MOL
REMARK 927      BINDING AFFINITY PREDICTED BY RF-SCORE:    0.00 PKD
ROOT
HETATM    1  O   UNL     1      -8.906  10.181  66.063  1.00  0.00    -0.138 OA 
HETATM    2  C   UNL     1      -9.726  10.566  65.066  1.00  0.00    -0.292 C  
HETATM    3  O   UNL     1      -9.663  10.051  63.955  1.00  0.00    -0.273 OA 
HETATM    4  C   UNL     1     -10.715  11.645  65.348  1.00  0.00    -0.341 A  
HETATM    5  C   UNL     1     -11.598  12.027  64.326  1.00  0.00    -0.358 A  
HETATM    6  O   UNL     1     -11.612  11.462  63.078  1.00  0.00    -0.865 OA 
HETATM    7  C   UNL     1     -12.524  13.045  64.532  1.00  0.00    -0.427 A  
HETATM    8  C   UNL     1     -12.566  13.719  65.755  1.00  0.00    -0.525 A  
HETATM    9  H   UNL     1     -12.209  11.721  62.387  1.00  0.00     0.000 HD 
HETATM   10  C   UNL     1     -11.702  13.377  66.811  1.00  0.00    -0.429 A  
HETATM   11  C   UNL     1     -10.801  12.311  66.584  1.00  0.00    -0.296 A  
ENDROOT
BRANCH  10  12
HETATM   12  C   UNL     1     -11.723  14.113  68.105  1.00  0.00    -0.390 A  
HETATM   13  C   UNL     1     -11.317  15.462  68.209  1.00  0.00    -0.348 A  
HETATM   14  F   UNL     1     -10.911  16.138  67.123  1.00  0.00    -0.317 F  
HETATM   15  C   UNL     1     -11.325  16.155  69.418  1.00  0.00    -0.323 A  
HETATM   16  C   UNL     1     -11.763  15.511  70.560  1.00  0.00    -0.349 A  
HETATM   17  F   UNL     1     -11.778  16.169  71.726  1.00  0.00    -0.439 F  
HETATM   18  C   UNL     1     -12.187  14.192  70.511  1.00  0.00    -0.431 A  
HETATM   19  C   UNL     1     -12.161  13.496  69.295  1.00  0.00    -0.335 A  
ENDBRANCH  10  12
TORSDOF 1
ENDMDL
MODEL       20
REMARK 921   NORMALIZED FREE ENERGY PREDICTED BY IDOCK:   -6.57 KCAL/MOL
REMARK 922        TOTAL FREE ENERGY PREDICTED BY IDOCK:   -7.32 KCAL/MOL
REMARK 923 INTER-LIGAND FREE ENERGY PREDICTED BY IDOCK:   -6.87 KCAL/MOL
REMARK 924 INTRA-LIGAND FREE ENERGY PREDICTED BY IDOCK:   -0.45 KCAL/MOL
REMARK 927      BINDING AFFINITY PREDICTED BY RF-SCORE:    0.00 PKD
ROOT
HETATM    1  O   UNL     1     -11.065  12.989  68.836  1.00  0.00    -0.252 OA 
HETATM    2  C   UNL     1     -11.663  12.809  67.643  1.00  0.00    -0.367 C  
HETATM    3  O   UNL     1     -12.262  11.773  67.380  1.00  0.00    -0.501 OA 
HETATM    4  C   UNL     1     -11.574  13.910  66.642  1.00  0.00    -0.392 A  
HETATM    5  C   UNL     1     -12.225  13.747  65.409  1.00  0.00    -0.440 A  
HETATM    6  O   UNL     1     -12.948  12.634  65.069  1.00  0.00    -0.812 OA 
HETATM    7  C   UNL     1     -12.152  14.735  64.432  1.00  0.00    -0.457 A  
HETATM    8  C   UNL     1     -11.404  15.893  64.659  1.00  0.00    -0.328 A  
HETATM    9  H   UNL     1     -13.388  12.524  64.234  1.00  0.00     0.000 HD 
HETATM   10  C   UNL     1     -10.731  16.105  65.876  1.00  0.00    -0.261 A  
HETATM   11  C   UNL     1     -10.858  15.101  66.863  1.00  0.00    -0.317 A  
ENDROOT
BRANCH  10  12
HETATM   12  C   UNL     1      -9.908  17.323  66.109  1.00  0.00    -0.269 A  
HETATM   13  C   UNL     1      -8.504  17.267  66.250  1.00  0.00    -0.243 A  
HETATM   14  F   UNL     1      -7.856  16.095  66.159  1.00  0.00    -0.299 F  
HETATM   15  C   UNL     1      -7.728  18.401  66.478  1.00  0.00    -0.278 A  
HETATM   16  C   UNL     1      -8.346  19.636  66.551  1.00  0.00    -0.332 A  
HETATM   17  F   UNL     1      -7.609  20.732  66.767  1.00  0.00    -0.319 F  
HETATM   18  C   UNL     1      -9.720  19.750  66.404  1.00  0.00    -0.530 A  
HETATM   19  C   UNL     1     -10.496  18.603  66.192  1.00  0.00    -0.473 A  
ENDBRANCH  10  12
TORSDOF 1
ENDMDL
MODEL       21
REMARK 921   NORMALIZED FREE ENERGY PREDICTED BY IDOCK:   -6.56 KCAL/MOL
REMARK 922        TOTAL FREE ENERGY PREDICTED BY IDOCK:   -7.31 KCAL/MOL
REMARK 923 INTER-LIGAND FREE ENERGY PREDICTED BY IDOCK:   -7.04 KCAL/MOL
REMARK 924 INTRA-LIGAND FREE ENERGY PREDICTED BY IDOCK:   -0.27 KCAL/MOL
REMARK 927      BINDING AFFINITY PREDICTED BY RF-SCORE:    0.00 PKD
ROOT
HETATM    1  O   UNL     1     -10.907   9.491  69.048  1.00  0.00    -0.219 OA 
HETATM    2  C   UNL     1     -10.918  10.246  67.933  1.00  0.00    -0.292 C  
HETATM    3  O   UNL     1     -10.603   9.779  66.845  1.00  0.00    -0.227 OA 
HETATM    4  C   UNL     1     -11.321  11.675  68.059  1.00  0.00    -0.366 A  
HETATM    5  C   UNL     1     -11.371  12.461  66.897  1.00  0.00    -0.333 A  
HETATM    6  O   UNL     1     -11.076  11.991  65.644  1.00  0.00    -0.295 OA 
HETATM    7  C   UNL     1     -11.719  13.807  66.964  1.00  0.00    -0.420 A  
HETATM    8  C   UNL     1     -11.997  14.399  68.198  1.00  0.00    -0.320 A  
HETATM    9  H   UNL     1     -11.109  12.522  64.858  1.00  0.00     0.000 HD 
HETATM   10  C   UNL     1     -11.960  13.657  69.392  1.00  0.00    -0.394 A  
HETATM   11  C   UNL     1     -11.643  12.284  69.286  1.00  0.00    -0.383 A  
ENDROOT
BRANCH  10  12
HETATM   12  C   UNL     1     -12.225  14.293  70.713  1.00  0.00    -0.423 A  
HETATM   13  C   UNL     1     -11.662  15.536  71.076  1.00  0.00    -0.381 A  
HETATM   14  F   UNL     1     -10.872  16.203  70.220  1.00  0.00    -0.293 F  
HETATM   15  C   UNL     1     -11.898  16.132  72.313  1.00  0.00    -0.631 A  
HETATM   16  C   UNL     1     -12.729  15.498  73.218  1.00  0.00    -0.509 A  
HETATM   17  F   UNL     1     -12.965  16.064  74.408  1.00  0.00    -0.539 F  
HETATM   18  C   UNL     1     -13.320  14.283  72.906  1.00  0.00    -0.561 A  
HETATM   19  C   UNL     1     -13.065  13.682  71.667  1.00  0.00    -0.455 A  
ENDBRANCH  10  12
TORSDOF 1
ENDMDL
MODEL       22
REMARK 921   NORMALIZED FREE ENERGY PREDICTED BY IDOCK:   -6.56 KCAL/MOL
REMARK 922        TOTAL FREE ENERGY PREDICTED BY IDOCK:   -7.30 KCAL/MOL
REMARK 923 INTER-LIGAND FREE ENERGY PREDICTED BY IDOCK:   -7.31 KCAL/MOL
REMARK 924 INTRA-LIGAND FREE ENERGY PREDICTED BY IDOCK:    0.00 KCAL/MOL
REMARK 927      BINDING AFFINITY PREDICTED BY RF-SCORE:    0.00 PKD
ROOT
HETATM    1  O   UNL     1     -13.181  14.065  65.299  1.00  0.00    -0.782 OA 
HETATM    2  C   UNL     1     -12.381  13.377  64.461  1.00  0.00    -0.360 C  
HETATM    3  O   UNL     1     -12.325  13.649  63.268  1.00  0.00    -0.743 OA 
HETATM    4  C   UNL     1     -11.563  12.267  65.027  1.00  0.00    -0.394 A  
HETATM    5  C   UNL     1     -10.699  11.568  64.169  1.00  0.00    -0.368 A  
HETATM    6  O   UNL     1     -10.555  11.849  62.837  1.00  0.00    -0.648 OA 
HETATM    7  C   UNL     1      -9.932  10.508  64.644  1.00  0.00    -0.415 A  
HETATM    8  C   UNL     1     -10.035  10.110  65.979  1.00  0.00    -0.322 A  
HETATM    9  H   UNL     1      -9.970  11.377  62.256  1.00  0.00     0.000 HD 
HETATM   10  C   UNL     1     -10.886  10.774  66.879  1.00  0.00    -0.288 A  
HETATM   11  C   UNL     1     -11.622  11.872  66.376  1.00  0.00    -0.315 A  
ENDROOT
BRANCH  10  12
HETATM   12  C   UNL     1     -11.022  10.332  68.294  1.00  0.00    -0.315 A  
HETATM   13  C   UNL     1     -11.703  11.103  69.262  1.00  0.00    -0.331 A  
HETATM   14  F   UNL     1     -12.276  12.269  68.924  1.00  0.00    -0.312 F  
HETATM   15  C   UNL     1     -11.826  10.701  70.590  1.00  0.00    -0.463 A  
HETATM   16  C   UNL     1     -11.278   9.493  70.980  1.00  0.00    -0.362 A  
HETATM   17  F   UNL     1     -11.393   9.095  72.253  1.00  0.00    -0.421 F  
HETATM   18  C   UNL     1     -10.611   8.689  70.067  1.00  0.00    -0.233 A  
HETATM   19  C   UNL     1     -10.478   9.109  68.738  1.00  0.00    -0.236 A  
ENDBRANCH  10  12
TORSDOF 1
ENDMDL
MODEL       23
REMARK 921   NORMALIZED FREE ENERGY PREDICTED BY IDOCK:   -6.52 KCAL/MOL
REMARK 922        TOTAL FREE ENERGY PREDICTED BY IDOCK:   -7.27 KCAL/MOL
REMARK 923 INTER-LIGAND FREE ENERGY PREDICTED BY IDOCK:   -6.98 KCAL/MOL
REMARK 924 INTRA-LIGAND FREE ENERGY PREDICTED BY IDOCK:   -0.29 KCAL/MOL
REMARK 927      BINDING AFFINITY PREDICTED BY RF-SCORE:    0.00 PKD
ROOT
HETATM    1  O   UNL     1     -10.615   9.471  68.830  1.00  0.00    -0.215 OA 
HETATM    2  C   UNL     1     -10.779  10.201  67.710  1.00  0.00    -0.277 C  
HETATM    3  O   UNL     1     -10.521   9.738  66.605  1.00  0.00    -0.218 OA 
HETATM    4  C   UNL     1     -11.279  11.598  67.851  1.00  0.00    -0.334 A  
HETATM    5  C   UNL     1     -11.488  12.355  66.687  1.00  0.00    -0.370 A  
HETATM    6  O   UNL     1     -11.264  11.883  65.420  1.00  0.00    -0.317 OA 
HETATM    7  C   UNL     1     -11.932  13.671  66.766  1.00  0.00    -0.458 A  
HETATM    8  C   UNL     1     -12.151  14.264  68.012  1.00  0.00    -0.289 A  
HETATM    9  H   UNL     1     -11.405  12.395  64.633  1.00  0.00     0.000 HD 
HETATM   10  C   UNL     1     -11.955  13.551  69.208  1.00  0.00    -0.378 A  
HETATM   11  C   UNL     1     -11.543  12.204  69.093  1.00  0.00    -0.374 A  
ENDROOT
BRANCH  10  12
HETATM   12  C   UNL     1     -12.156  14.190  70.538  1.00  0.00    -0.420 A  
HETATM   13  C   UNL     1     -12.875  13.558  71.575  1.00  0.00    -0.352 A  
HETATM   14  F   UNL     1     -13.392  12.331  71.398  1.00  0.00    -0.401 F  
HETATM   15  C   UNL     1     -13.077  14.153  72.819  1.00  0.00    -0.573 A  
HETATM   16  C   UNL     1     -12.539  15.404  73.060  1.00  0.00    -0.434 A  
HETATM   17  F   UNL     1     -12.723  15.983  74.253  1.00  0.00    -0.569 F  
HETATM   18  C   UNL     1     -11.811  16.064  72.081  1.00  0.00    -0.623 A  
HETATM   19  C   UNL     1     -11.628  15.465  70.828  1.00  0.00    -0.381 A  
ENDBRANCH  10  12
TORSDOF 1
ENDMDL
MODEL       24
REMARK 921   NORMALIZED FREE ENERGY PREDICTED BY IDOCK:   -6.52 KCAL/MOL
REMARK 922        TOTAL FREE ENERGY PREDICTED BY IDOCK:   -7.27 KCAL/MOL
REMARK 923 INTER-LIGAND FREE ENERGY PREDICTED BY IDOCK:   -7.22 KCAL/MOL
REMARK 924 INTRA-LIGAND FREE ENERGY PREDICTED BY IDOCK:   -0.05 KCAL/MOL
REMARK 927      BINDING AFFINITY PREDICTED BY RF-SCORE:    0.00 PKD
ROOT
HETATM    1  O   UNL     1     -10.536  17.463  66.329  1.00  0.00    -0.336 OA 
HETATM    2  C   UNL     1     -10.693  16.202  65.883  1.00  0.00    -0.255 C  
HETATM    3  O   UNL     1     -10.546  15.922  64.699  1.00  0.00    -0.525 OA 
HETATM    4  C   UNL     1     -11.059  15.149  66.873  1.00  0.00    -0.314 A  
HETATM    5  C   UNL     1     -11.190  13.826  66.425  1.00  0.00    -0.316 A  
HETATM    6  O   UNL     1     -10.995  13.437  65.126  1.00  0.00    -0.287 OA 
HETATM    7  C   UNL     1     -11.552  12.810  67.305  1.00  0.00    -0.420 A  
HETATM    8  C   UNL     1     -11.817  13.105  68.645  1.00  0.00    -0.363 A  
HETATM    9  H   UNL     1     -11.084  12.542  64.822  1.00  0.00     0.000 HD 
HETATM   10  C   UNL     1     -11.703  14.414  69.144  1.00  0.00    -0.354 A  
HETATM   11  C   UNL     1     -11.293  15.416  68.234  1.00  0.00    -0.354 A  
ENDROOT
BRANCH  10  12
HETATM   12  C   UNL     1     -12.015  14.736  70.564  1.00  0.00    -0.373 A  
HETATM   13  C   UNL     1     -12.795  13.883  71.375  1.00  0.00    -0.361 A  
HETATM   14  F   UNL     1     -13.271  12.726  70.888  1.00  0.00    -0.203 F  
HETATM   15  C   UNL     1     -13.099  14.182  72.702  1.00  0.00    -0.564 A  
HETATM   16  C   UNL     1     -12.606  15.347  73.259  1.00  0.00    -0.499 A  
HETATM   17  F   UNL     1     -12.890  15.642  74.533  1.00  0.00    -0.598 F  
HETATM   18  C   UNL     1     -11.822  16.214  72.512  1.00  0.00    -0.630 A  
HETATM   19  C   UNL     1     -11.535  15.914  71.174  1.00  0.00    -0.471 A  
ENDBRANCH  10  12
TORSDOF 1
ENDMDL
MODEL       25
REMARK 921   NORMALIZED FREE ENERGY PREDICTED BY IDOCK:   -6.49 KCAL/MOL
REMARK 922        TOTAL FREE ENERGY PREDICTED BY IDOCK:   -7.24 KCAL/MOL
REMARK 923 INTER-LIGAND FREE ENERGY PREDICTED BY IDOCK:   -6.80 KCAL/MOL
REMARK 924 INTRA-LIGAND FREE ENERGY PREDICTED BY IDOCK:   -0.44 KCAL/MOL
REMARK 927      BINDING AFFINITY PREDICTED BY RF-SCORE:    0.00 PKD
ROOT
HETATM    1  O   UNL     1     -12.804  14.563  64.181  1.00  0.00    -0.643 OA 
HETATM    2  C   UNL     1     -11.865  15.449  64.567  1.00  0.00    -0.256 C  
HETATM    3  O   UNL     1     -11.422  16.287  63.790  1.00  0.00    -0.888 OA 
HETATM    4  C   UNL     1     -11.372  15.379  65.972  1.00  0.00    -0.089 A  
HETATM    5  C   UNL     1     -10.420  16.320  66.395  1.00  0.00    -0.294 A  
HETATM    6  O   UNL     1      -9.918  17.310  65.592  1.00  0.00    -0.553 OA 
HETATM    7  C   UNL     1      -9.911  16.283  67.689  1.00  0.00    -0.247 A  
HETATM    8  C   UNL     1     -10.325  15.287  68.577  1.00  0.00    -0.231 A  
HETATM    9  H   UNL     1      -9.274  17.947  65.878  1.00  0.00     0.000 HD 
HETATM   10  C   UNL     1     -11.273  14.319  68.204  1.00  0.00    -0.295 A  
HETATM   11  C   UNL     1     -11.802  14.408  66.896  1.00  0.00    -0.433 A  
ENDROOT
BRANCH  10  12
HETATM   12  C   UNL     1     -11.692  13.237  69.138  1.00  0.00    -0.379 A  
HETATM   13  C   UNL     1     -11.417  11.876  68.884  1.00  0.00    -0.301 A  
HETATM   14  F   UNL     1     -10.741  11.510  67.783  1.00  0.00    -0.198 F  
HETATM   15  C   UNL     1     -11.813  10.857  69.748  1.00  0.00    -0.419 A  
HETATM   16  C   UNL     1     -12.487  11.185  70.910  1.00  0.00    -0.409 A  
HETATM   17  F   UNL     1     -12.869  10.215  71.749  1.00  0.00    -0.420 F  
HETATM   18  C   UNL     1     -12.770  12.508  71.216  1.00  0.00    -0.350 A  
HETATM   19  C   UNL     1     -12.382  13.525  70.334  1.00  0.00    -0.397 A  
ENDBRANCH  10  12
TORSDOF 1
ENDMDL
MODEL       26
REMARK 921   NORMALIZED FREE ENERGY PREDICTED BY IDOCK:   -6.46 KCAL/MOL
REMARK 922        TOTAL FREE ENERGY PREDICTED BY IDOCK:   -7.20 KCAL/MOL
REMARK 923 INTER-LIGAND FREE ENERGY PREDICTED BY IDOCK:   -6.77 KCAL/MOL
REMARK 924 INTRA-LIGAND FREE ENERGY PREDICTED BY IDOCK:   -0.44 KCAL/MOL
REMARK 927      BINDING AFFINITY PREDICTED BY RF-SCORE:    0.00 PKD
ROOT
HETATM    1  O   UNL     1     -11.230  11.543  65.739  1.00  0.00    -0.265 OA 
HETATM    2  C   UNL     1     -11.465  12.725  66.340  1.00  0.00    -0.357 C  
HETATM    3  O   UNL     1     -11.454  13.774  65.707  1.00  0.00    -0.310 OA 
HETATM    4  C   UNL     1     -11.736  12.725  67.806  1.00  0.00    -0.412 A  
HETATM    5  C   UNL     1     -12.018  13.948  68.435  1.00  0.00    -0.356 A  
HETATM    6  O   UNL     1     -12.067  15.149  67.778  1.00  0.00    -0.456 OA 
HETATM    7  C   UNL     1     -12.255  14.004  69.804  1.00  0.00    -0.396 A  
HETATM    8  C   UNL     1     -12.187  12.841  70.576  1.00  0.00    -0.389 A  
HETATM    9  H   UNL     1     -12.258  15.977  68.204  1.00  0.00     0.000 HD 
HETATM   10  C   UNL     1     -11.906  11.592  69.997  1.00  0.00    -0.435 A  
HETATM   11  C   UNL     1     -11.711  11.562  68.597  1.00  0.00    -0.389 A  
ENDROOT
BRANCH  10  12
HETATM   12  C   UNL     1     -11.802  10.356  70.822  1.00  0.00    -0.466 A  
HETATM   13  C   UNL     1     -10.592   9.640  70.955  1.00  0.00    -0.316 A  
HETATM   14  F   UNL     1      -9.475  10.069  70.346  1.00  0.00    -0.269 F  
HETATM   15  C   UNL     1     -10.488   8.478  71.717  1.00  0.00    -0.370 A  
HETATM   16  C   UNL     1     -11.604   8.012  72.387  1.00  0.00    -0.390 A  
HETATM   17  F   UNL     1     -11.516   6.899  73.125  1.00  0.00    -0.232 F  
HETATM   18  C   UNL     1     -12.814   8.685  72.303  1.00  0.00    -0.438 A  
HETATM   19  C   UNL     1     -12.914   9.843  71.522  1.00  0.00    -0.523 A  
ENDBRANCH  10  12
TORSDOF 1
ENDMDL
MODEL       27
REMARK 921   NORMALIZED FREE ENERGY PREDICTED BY IDOCK:   -6.45 KCAL/MOL
REMARK 922        TOTAL FREE ENERGY PREDICTED BY IDOCK:   -7.20 KCAL/MOL
REMARK 923 INTER-LIGAND FREE ENERGY PREDICTED BY IDOCK:   -6.74 KCAL/MOL
REMARK 924 INTRA-LIGAND FREE ENERGY PREDICTED BY IDOCK:   -0.46 KCAL/MOL
REMARK 927      BINDING AFFINITY PREDICTED BY RF-SCORE:    0.00 PKD
ROOT
HETATM    1  O   UNL     1     -10.095  16.546  65.598  1.00  0.00    -0.483 OA 
HETATM    2  C   UNL     1     -10.941  15.887  64.783  1.00  0.00    -0.375 C  
HETATM    3  O   UNL     1     -11.562  16.471  63.903  1.00  0.00    -1.175 OA 
HETATM    4  C   UNL     1     -11.106  14.419  64.984  1.00  0.00    -0.385 A  
HETATM    5  C   UNL     1     -11.958  13.717  64.116  1.00  0.00    -0.443 A  
HETATM    6  O   UNL     1     -12.645  14.300  63.085  1.00  0.00    -1.028 OA 
HETATM    7  C   UNL     1     -12.164  12.350  64.276  1.00  0.00    -0.538 A  
HETATM    8  C   UNL     1     -11.544  11.665  65.324  1.00  0.00    -0.105 A  
HETATM    9  H   UNL     1     -13.221  13.825  62.498  1.00  0.00     0.000 HD 
HETATM   10  C   UNL     1     -10.684  12.321  66.223  1.00  0.00    -0.293 A  
HETATM   11  C   UNL     1     -10.463  13.701  66.008  1.00  0.00    -0.300 A  
ENDROOT
BRANCH  10  12
HETATM   12  C   UNL     1     -10.047  11.600  67.359  1.00  0.00    -0.218 A  
HETATM   13  C   UNL     1     -10.790  11.133  68.465  1.00  0.00    -0.203 A  
HETATM   14  F   UNL     1     -12.119  11.312  68.518  1.00  0.00    -0.376 F  
HETATM   15  C   UNL     1     -10.200  10.466  69.537  1.00  0.00    -0.258 A  
HETATM   16  C   UNL     1      -8.837  10.232  69.515  1.00  0.00    -0.148 A  
HETATM   17  F   UNL     1      -8.261   9.589  70.538  1.00  0.00    -0.157 F  
HETATM   18  C   UNL     1      -8.062  10.656  68.446  1.00  0.00    -0.123 A  
HETATM   19  C   UNL     1      -8.660  11.340  67.380  1.00  0.00    -0.136 A  
ENDBRANCH  10  12
TORSDOF 1
ENDMDL
MODEL       28
REMARK 921   NORMALIZED FREE ENERGY PREDICTED BY IDOCK:   -6.43 KCAL/MOL
REMARK 922        TOTAL FREE ENERGY PREDICTED BY IDOCK:   -7.18 KCAL/MOL
REMARK 923 INTER-LIGAND FREE ENERGY PREDICTED BY IDOCK:   -6.72 KCAL/MOL
REMARK 924 INTRA-LIGAND FREE ENERGY PREDICTED BY IDOCK:   -0.45 KCAL/MOL
REMARK 927      BINDING AFFINITY PREDICTED BY RF-SCORE:    0.00 PKD
ROOT
HETATM    1  O   UNL     1      -8.585  10.265  65.851  1.00  0.00    -0.142 OA 
HETATM    2  C   UNL     1      -9.475  10.578  64.890  1.00  0.00    -0.252 C  
HETATM    3  O   UNL     1      -9.424  10.060  63.781  1.00  0.00    -0.280 OA 
HETATM    4  C   UNL     1     -10.529  11.582  65.211  1.00  0.00    -0.336 A  
HETATM    5  C   UNL     1     -11.484  11.889  64.228  1.00  0.00    -0.346 A  
HETATM    6  O   UNL     1     -11.510  11.313  62.986  1.00  0.00    -0.852 OA 
HETATM    7  C   UNL     1     -12.474  12.836  64.471  1.00  0.00    -0.501 A  
HETATM    8  C   UNL     1     -12.512  13.515  65.691  1.00  0.00    -0.528 A  
HETATM    9  H   UNL     1     -12.156  11.521  62.321  1.00  0.00     0.000 HD 
HETATM   10  C   UNL     1     -11.578  13.247  66.709  1.00  0.00    -0.408 A  
HETATM   11  C   UNL     1     -10.610  12.251  66.447  1.00  0.00    -0.272 A  
ENDROOT
BRANCH  10  12
HETATM   12  C   UNL     1     -11.597  13.991  67.998  1.00  0.00    -0.372 A  
HETATM   13  C   UNL     1     -11.952  13.375  69.218  1.00  0.00    -0.317 A  
HETATM   14  F   UNL     1     -12.271  12.071  69.255  1.00  0.00    -0.312 F  
HETATM   15  C   UNL     1     -11.982  14.066  70.427  1.00  0.00    -0.398 A  
HETATM   16  C   UNL     1     -11.633  15.404  70.445  1.00  0.00    -0.324 A  
HETATM   17  F   UNL     1     -11.654  16.077  71.602  1.00  0.00    -0.409 F  
HETATM   18  C   UNL     1     -11.261  16.056  69.278  1.00  0.00    -0.346 A  
HETATM   19  C   UNL     1     -11.250  15.357  68.064  1.00  0.00    -0.326 A  
ENDBRANCH  10  12
TORSDOF 1
ENDMDL
MODEL       29
REMARK 921   NORMALIZED FREE ENERGY PREDICTED BY IDOCK:   -6.43 KCAL/MOL
REMARK 922        TOTAL FREE ENERGY PREDICTED BY IDOCK:   -7.17 KCAL/MOL
REMARK 923 INTER-LIGAND FREE ENERGY PREDICTED BY IDOCK:   -7.13 KCAL/MOL
REMARK 924 INTRA-LIGAND FREE ENERGY PREDICTED BY IDOCK:   -0.05 KCAL/MOL
REMARK 927      BINDING AFFINITY PREDICTED BY RF-SCORE:    0.00 PKD
ROOT
HETATM    1  O   UNL     1     -13.232  14.179  65.531  1.00  0.00    -0.688 OA 
HETATM    2  C   UNL     1     -12.518  13.482  64.626  1.00  0.00    -0.323 C  
HETATM    3  O   UNL     1     -12.568  13.751  63.432  1.00  0.00    -0.842 OA 
HETATM    4  C   UNL     1     -11.665  12.363  65.119  1.00  0.00    -0.430 A  
HETATM    5  C   UNL     1     -10.890  11.653  64.188  1.00  0.00    -0.372 A  
HETATM    6  O   UNL     1     -10.864  11.931  62.847  1.00  0.00    -0.650 OA 
HETATM    7  C   UNL     1     -10.095  10.585  64.594  1.00  0.00    -0.408 A  
HETATM    8  C   UNL     1     -10.081  10.190  65.934  1.00  0.00    -0.325 A  
HETATM    9  H   UNL     1     -10.339  11.451  62.217  1.00  0.00     0.000 HD 
HETATM   10  C   UNL     1     -10.841  10.865  66.905  1.00  0.00    -0.307 A  
HETATM   11  C   UNL     1     -11.606  11.971  66.469  1.00  0.00    -0.384 A  
ENDROOT
BRANCH  10  12
HETATM   12  C   UNL     1     -10.853  10.427  68.328  1.00  0.00    -0.299 A  
HETATM   13  C   UNL     1      -9.859   9.577  68.862  1.00  0.00    -0.174 A  
HETATM   14  F   UNL     1      -8.845   9.147  68.094  1.00  0.00    -0.127 F  
HETATM   15  C   UNL     1      -9.868   9.154  70.190  1.00  0.00    -0.229 A  
HETATM   16  C   UNL     1     -10.876   9.594  71.028  1.00  0.00    -0.342 A  
HETATM   17  F   UNL     1     -10.892   9.197  72.306  1.00  0.00    -0.404 F  
HETATM   18  C   UNL     1     -11.868  10.442  70.560  1.00  0.00    -0.430 A  
HETATM   19  C   UNL     1     -11.861  10.849  69.220  1.00  0.00    -0.395 A  
ENDBRANCH  10  12
TORSDOF 1
ENDMDL
MODEL       30
REMARK 921   NORMALIZED FREE ENERGY PREDICTED BY IDOCK:   -6.42 KCAL/MOL
REMARK 922        TOTAL FREE ENERGY PREDICTED BY IDOCK:   -7.16 KCAL/MOL
REMARK 923 INTER-LIGAND FREE ENERGY PREDICTED BY IDOCK:   -6.83 KCAL/MOL
REMARK 924 INTRA-LIGAND FREE ENERGY PREDICTED BY IDOCK:   -0.33 KCAL/MOL
REMARK 927      BINDING AFFINITY PREDICTED BY RF-SCORE:    0.00 PKD
ROOT
HETATM    1  O   UNL     1     -11.663  10.731  70.269  1.00  0.00    -0.295 OA 
HETATM    2  C   UNL     1     -12.538  11.355  71.080  1.00  0.00    -0.386 C  
HETATM    3  O   UNL     1     -13.236  10.727  71.867  1.00  0.00    -0.469 OA 
HETATM    4  C   UNL     1     -12.639  12.840  70.992  1.00  0.00    -0.362 A  
HETATM    5  C   UNL     1     -13.522  13.503  71.859  1.00  0.00    -0.442 A  
HETATM    6  O   UNL     1     -14.297  12.866  72.792  1.00  0.00    -0.621 OA 
HETATM    7  C   UNL     1     -13.670  14.885  71.801  1.00  0.00    -0.530 A  
HETATM    8  C   UNL     1     -12.958  15.628  70.856  1.00  0.00    -0.471 A  
HETATM    9  H   UNL     1     -14.894  13.315  73.379  1.00  0.00     0.000 HD 
HETATM   10  C   UNL     1     -12.063  15.013  69.962  1.00  0.00    -0.382 A  
HETATM   11  C   UNL     1     -11.904  13.613  70.074  1.00  0.00    -0.378 A  
ENDROOT
BRANCH  10  12
HETATM   12  C   UNL     1     -11.327  15.798  68.933  1.00  0.00    -0.356 A  
HETATM   13  C   UNL     1     -11.310  15.424  67.572  1.00  0.00    -0.269 A  
HETATM   14  F   UNL     1     -11.984  14.341  67.153  1.00  0.00    -0.380 F  
HETATM   15  C   UNL     1     -10.615  16.147  66.604  1.00  0.00    -0.274 A  
HETATM   16  C   UNL     1      -9.930  17.287  66.980  1.00  0.00    -0.289 A  
HETATM   17  F   UNL     1      -9.262  17.992  66.059  1.00  0.00    -0.265 F  
HETATM   18  C   UNL     1      -9.926  17.709  68.302  1.00  0.00    -0.339 A  
HETATM   19  C   UNL     1     -10.613  16.966  69.271  1.00  0.00    -0.325 A  
ENDBRANCH  10  12
TORSDOF 1
ENDMDL
MODEL       31
REMARK 921   NORMALIZED FREE ENERGY PREDICTED BY IDOCK:   -6.38 KCAL/MOL
REMARK 922        TOTAL FREE ENERGY PREDICTED BY IDOCK:   -7.11 KCAL/MOL
REMARK 923 INTER-LIGAND FREE ENERGY PREDICTED BY IDOCK:   -6.88 KCAL/MOL
REMARK 924 INTRA-LIGAND FREE ENERGY PREDICTED BY IDOCK:   -0.23 KCAL/MOL
REMARK 927      BINDING AFFINITY PREDICTED BY RF-SCORE:    0.00 PKD
ROOT
HETATM    1  O   UNL     1      -8.524   8.953  65.680  1.00  0.00    -0.139 OA 
HETATM    2  C   UNL     1      -9.122   9.600  64.661  1.00  0.00    -0.235 C  
HETATM    3  O   UNL     1      -8.826   9.365  63.495  1.00  0.00    -0.223 OA 
HETATM    4  C   UNL     1     -10.157  10.621  64.990  1.00  0.00    -0.388 A  
HETATM    5  C   UNL     1     -10.812  11.275  63.935  1.00  0.00    -0.354 A  
HETATM    6  O   UNL     1     -10.562  11.027  62.611  1.00  0.00    -0.743 OA 
HETATM    7  C   UNL     1     -11.770  12.252  64.190  1.00  0.00    -0.481 A  
HETATM    8  C   UNL     1     -12.071  12.613  65.505  1.00  0.00    -0.515 A  
HETATM    9  H   UNL     1     -11.004  11.469  61.897  1.00  0.00     0.000 HD 
HETATM   10  C   UNL     1     -11.442  11.991  66.599  1.00  0.00    -0.411 A  
HETATM   11  C   UNL     1     -10.505  10.974  66.307  1.00  0.00    -0.310 A  
ENDROOT
BRANCH  10  12
HETATM   12  C   UNL     1     -11.738  12.395  68.001  1.00  0.00    -0.414 A  
HETATM   13  C   UNL     1     -11.905  13.747  68.375  1.00  0.00    -0.376 A  
HETATM   14  F   UNL     1     -11.819  14.724  67.458  1.00  0.00    -0.363 F  
HETATM   15  C   UNL     1     -12.172  14.134  69.686  1.00  0.00    -0.376 A  
HETATM   16  C   UNL     1     -12.299  13.163  70.662  1.00  0.00    -0.326 A  
HETATM   17  F   UNL     1     -12.560  13.524  71.924  1.00  0.00    -0.375 F  
HETATM   18  C   UNL     1     -12.161  11.819  70.346  1.00  0.00    -0.440 A  
HETATM   19  C   UNL     1     -11.875  11.439  69.029  1.00  0.00    -0.415 A  
ENDBRANCH  10  12
TORSDOF 1
ENDMDL
MODEL       32
REMARK 921   NORMALIZED FREE ENERGY PREDICTED BY IDOCK:   -6.33 KCAL/MOL
REMARK 922        TOTAL FREE ENERGY PREDICTED BY IDOCK:   -7.07 KCAL/MOL
REMARK 923 INTER-LIGAND FREE ENERGY PREDICTED BY IDOCK:   -6.64 KCAL/MOL
REMARK 924 INTRA-LIGAND FREE ENERGY PREDICTED BY IDOCK:   -0.43 KCAL/MOL
REMARK 927      BINDING AFFINITY PREDICTED BY RF-SCORE:    0.00 PKD
ROOT
HETATM    1  O   UNL     1      -8.435   8.258  70.997  1.00  0.00    -0.116 OA 
HETATM    2  C   UNL     1      -9.559   8.055  71.711  1.00  0.00    -0.176 C  
HETATM    3  O   UNL     1      -9.648   7.130  72.509  1.00  0.00    -0.145 OA 
HETATM    4  C   UNL     1     -10.702   8.989  71.498  1.00  0.00    -0.421 A  
HETATM    5  C   UNL     1     -11.865   8.808  72.263  1.00  0.00    -0.333 A  
HETATM    6  O   UNL     1     -12.013   7.823  73.204  1.00  0.00    -0.644 OA 
HETATM    7  C   UNL     1     -12.967   9.638  72.086  1.00  0.00    -0.493 A  
HETATM    8  C   UNL     1     -12.937  10.648  71.121  1.00  0.00    -0.483 A  
HETATM    9  H   UNL     1     -12.800   7.701  73.721  1.00  0.00     0.000 HD 
HETATM   10  C   UNL     1     -11.798  10.870  70.326  1.00  0.00    -0.450 A  
HETATM   11  C   UNL     1     -10.680  10.036  70.559  1.00  0.00    -0.352 A  
ENDROOT
BRANCH  10  12
HETATM   12  C   UNL     1     -11.775  11.925  69.276  1.00  0.00    -0.389 A  
HETATM   13  C   UNL     1     -11.905  13.297  69.584  1.00  0.00    -0.327 A  
HETATM   14  F   UNL     1     -12.037  13.700  70.858  1.00  0.00    -0.382 F  
HETATM   15  C   UNL     1     -11.894  14.289  68.606  1.00  0.00    -0.379 A  
HETATM   16  C   UNL     1     -11.730  13.926  67.282  1.00  0.00    -0.386 A  
HETATM   17  F   UNL     1     -11.715  14.871  66.334  1.00  0.00    -0.356 F  
HETATM   18  C   UNL     1     -11.583  12.594  66.925  1.00  0.00    -0.438 A  
HETATM   19  C   UNL     1     -11.612  11.601  67.913  1.00  0.00    -0.369 A  
ENDBRANCH  10  12
TORSDOF 1
ENDMDL
MODEL       33
REMARK 921   NORMALIZED FREE ENERGY PREDICTED BY IDOCK:   -6.32 KCAL/MOL
REMARK 922        TOTAL FREE ENERGY PREDICTED BY IDOCK:   -7.06 KCAL/MOL
REMARK 923 INTER-LIGAND FREE ENERGY PREDICTED BY IDOCK:   -6.61 KCAL/MOL
REMARK 924 INTRA-LIGAND FREE ENERGY PREDICTED BY IDOCK:   -0.45 KCAL/MOL
REMARK 927      BINDING AFFINITY PREDICTED BY RF-SCORE:    0.00 PKD
ROOT
HETATM    1  O   UNL     1     -12.919  12.184  71.443  1.00  0.00    -0.368 OA 
HETATM    2  C   UNL     1     -12.346  11.050  70.994  1.00  0.00    -0.385 C  
HETATM    3  O   UNL     1     -12.230  10.067  71.715  1.00  0.00    -0.384 OA 
HETATM    4  C   UNL     1     -11.849  11.026  69.589  1.00  0.00    -0.414 A  
HETATM    5  C   UNL     1     -11.283   9.837  69.100  1.00  0.00    -0.061 A  
HETATM    6  O   UNL     1     -11.164   8.689  69.838  1.00  0.00    -0.416 OA 
HETATM    7  C   UNL     1     -10.783   9.770  67.803  1.00  0.00    -0.329 A  
HETATM    8  C   UNL     1     -10.816  10.898  66.979  1.00  0.00    -0.323 A  
HETATM    9  H   UNL     1     -10.781   7.886  69.507  1.00  0.00     0.000 HD 
HETATM   10  C   UNL     1     -11.369  12.113  67.420  1.00  0.00    -0.393 A  
HETATM   11  C   UNL     1     -11.905  12.137  68.728  1.00  0.00    -0.356 A  
ENDROOT
BRANCH  10  12
HETATM   12  C   UNL     1     -11.376  13.325  66.556  1.00  0.00    -0.353 A  
HETATM   13  C   UNL     1     -12.157  13.408  65.382  1.00  0.00    -0.421 A  
HETATM   14  F   UNL     1     -12.945  12.385  65.013  1.00  0.00    -0.533 F  
HETATM   15  C   UNL     1     -12.162  14.534  64.563  1.00  0.00    -0.483 A  
HETATM   16  C   UNL     1     -11.389  15.626  64.915  1.00  0.00    -0.315 A  
HETATM   17  F   UNL     1     -11.389  16.715  64.137  1.00  0.00    -0.463 F  
HETATM   18  C   UNL     1     -10.615  15.604  66.066  1.00  0.00    -0.336 A  
HETATM   19  C   UNL     1     -10.603  14.461  66.876  1.00  0.00    -0.278 A  
ENDBRANCH  10  12
TORSDOF 1
ENDMDL
MODEL       34
REMARK 921   NORMALIZED FREE ENERGY PREDICTED BY IDOCK:   -6.31 KCAL/MOL
REMARK 922        TOTAL FREE ENERGY PREDICTED BY IDOCK:   -7.05 KCAL/MOL
REMARK 923 INTER-LIGAND FREE ENERGY PREDICTED BY IDOCK:   -6.61 KCAL/MOL
REMARK 924 INTRA-LIGAND FREE ENERGY PREDICTED BY IDOCK:   -0.44 KCAL/MOL
REMARK 927      BINDING AFFINITY PREDICTED BY RF-SCORE:    0.00 PKD
ROOT
HETATM    1  O   UNL     1      -6.722  18.041  69.360  1.00  0.00    -0.240 OA 
HETATM    2  C   UNL     1      -7.244  19.129  68.763  1.00  0.00    -0.333 C  
HETATM    3  O   UNL     1      -6.829  20.255  69.015  1.00  0.00    -0.250 OA 
HETATM    4  C   UNL     1      -8.349  18.928  67.783  1.00  0.00    -0.305 A  
HETATM    5  C   UNL     1      -8.875  20.053  67.127  1.00  0.00    -0.344 A  
HETATM    6  O   UNL     1      -8.428  21.332  67.329  1.00  0.00    -0.531 OA 
HETATM    7  C   UNL     1      -9.923  19.921  66.222  1.00  0.00    -0.596 A  
HETATM    8  C   UNL     1     -10.483  18.665  65.975  1.00  0.00    -0.456 A  
HETATM    9  H   UNL     1      -8.784  22.092  66.885  1.00  0.00     0.000 HD 
HETATM   10  C   UNL     1      -9.996  17.507  66.607  1.00  0.00    -0.314 A  
HETATM   11  C   UNL     1      -8.904  17.669  67.490  1.00  0.00    -0.231 A  
ENDROOT
BRANCH  10  12
HETATM   12  C   UNL     1     -10.611  16.172  66.369  1.00  0.00    -0.269 A  
HETATM   13  C   UNL     1     -11.282  15.461  67.388  1.00  0.00    -0.287 A  
HETATM   14  F   UNL     1     -11.403  15.985  68.619  1.00  0.00    -0.305 F  
HETATM   15  C   UNL     1     -11.852  14.207  67.177  1.00  0.00    -0.454 A  
HETATM   16  C   UNL     1     -11.779  13.639  65.919  1.00  0.00    -0.354 A  
HETATM   17  F   UNL     1     -12.326  12.437  65.704  1.00  0.00    -0.485 F  
HETATM   18  C   UNL     1     -11.145  14.301  64.878  1.00  0.00    -0.396 A  
HETATM   19  C   UNL     1     -10.560  15.553  65.103  1.00  0.00    -0.455 A  
ENDBRANCH  10  12
TORSDOF 1
ENDMDL
MODEL       35
REMARK 921   NORMALIZED FREE ENERGY PREDICTED BY IDOCK:   -6.31 KCAL/MOL
REMARK 922        TOTAL FREE ENERGY PREDICTED BY IDOCK:   -7.05 KCAL/MOL
REMARK 923 INTER-LIGAND FREE ENERGY PREDICTED BY IDOCK:   -6.71 KCAL/MOL
REMARK 924 INTRA-LIGAND FREE ENERGY PREDICTED BY IDOCK:   -0.34 KCAL/MOL
REMARK 927      BINDING AFFINITY PREDICTED BY RF-SCORE:    0.00 PKD
ROOT
HETATM    1  O   UNL     1     -14.126  15.518  72.235  1.00  0.00    -0.529 OA 
HETATM    2  C   UNL     1     -13.657  14.287  71.955  1.00  0.00    -0.430 C  
HETATM    3  O   UNL     1     -13.986  13.313  72.622  1.00  0.00    -0.741 OA 
HETATM    4  C   UNL     1     -12.715  14.140  70.809  1.00  0.00    -0.414 A  
HETATM    5  C   UNL     1     -12.248  12.856  70.487  1.00  0.00    -0.314 A  
HETATM    6  O   UNL     1     -12.612  11.721  71.161  1.00  0.00    -0.378 OA 
HETATM    7  C   UNL     1     -11.350  12.669  69.441  1.00  0.00    -0.273 A  
HETATM    8  C   UNL     1     -10.880  13.766  68.714  1.00  0.00    -0.281 A  
HETATM    9  H   UNL     1     -12.296  10.852  70.944  1.00  0.00     0.000 HD 
HETATM   10  C   UNL     1     -11.314  15.073  68.997  1.00  0.00    -0.306 A  
HETATM   11  C   UNL     1     -12.258  15.225  70.039  1.00  0.00    -0.385 A  
ENDROOT
BRANCH  10  12
HETATM   12  C   UNL     1     -10.791  16.247  68.246  1.00  0.00    -0.340 A  
HETATM   13  C   UNL     1     -10.767  16.287  66.834  1.00  0.00    -0.217 A  
HETATM   14  F   UNL     1     -11.240  15.257  66.115  1.00  0.00    -0.337 F  
HETATM   15  C   UNL     1     -10.271  17.378  66.124  1.00  0.00    -0.334 A  
HETATM   16  C   UNL     1      -9.799  18.476  66.820  1.00  0.00    -0.342 A  
HETATM   17  F   UNL     1      -9.323  19.531  66.147  1.00  0.00    -0.354 F  
HETATM   18  C   UNL     1      -9.814  18.496  68.207  1.00  0.00    -0.394 A  
HETATM   19  C   UNL     1     -10.299  17.388  68.913  1.00  0.00    -0.340 A  
ENDBRANCH  10  12
TORSDOF 1
ENDMDL
MODEL       36
REMARK 921   NORMALIZED FREE ENERGY PREDICTED BY IDOCK:   -6.30 KCAL/MOL
REMARK 922        TOTAL FREE ENERGY PREDICTED BY IDOCK:   -7.04 KCAL/MOL
REMARK 923 INTER-LIGAND FREE ENERGY PREDICTED BY IDOCK:   -6.63 KCAL/MOL
REMARK 924 INTRA-LIGAND FREE ENERGY PREDICTED BY IDOCK:   -0.41 KCAL/MOL
REMARK 927      BINDING AFFINITY PREDICTED BY RF-SCORE:    0.00 PKD
ROOT
HETATM    1  O   UNL     1      -8.321   8.157  70.908  1.00  0.00    -0.111 OA 
HETATM    2  C   UNL     1      -9.414   7.932  71.661  1.00  0.00    -0.152 C  
HETATM    3  O   UNL     1      -9.459   7.000  72.456  1.00  0.00    -0.142 OA 
HETATM    4  C   UNL     1     -10.578   8.849  71.499  1.00  0.00    -0.399 A  
HETATM    5  C   UNL     1     -11.709   8.645  72.306  1.00  0.00    -0.358 A  
HETATM    6  O   UNL     1     -11.807   7.652  73.244  1.00  0.00    -0.631 OA 
HETATM    7  C   UNL     1     -12.830   9.459  72.176  1.00  0.00    -0.480 A  
HETATM    8  C   UNL     1     -12.851  10.476  71.218  1.00  0.00    -0.532 A  
HETATM    9  H   UNL     1     -12.572   7.514  73.790  1.00  0.00     0.000 HD 
HETATM   10  C   UNL     1     -11.747  10.721  70.383  1.00  0.00    -0.445 A  
HETATM   11  C   UNL     1     -10.608   9.903  70.567  1.00  0.00    -0.359 A  
ENDROOT
BRANCH  10  12
HETATM   12  C   UNL     1     -11.779  11.783  69.340  1.00  0.00    -0.405 A  
HETATM   13  C   UNL     1     -11.621  11.494  67.967  1.00  0.00    -0.300 A  
HETATM   14  F   UNL     1     -11.452  10.229  67.551  1.00  0.00    -0.370 F  
HETATM   15  C   UNL     1     -11.640  12.483  66.986  1.00  0.00    -0.437 A  
HETATM   16  C   UNL     1     -11.840  13.799  67.361  1.00  0.00    -0.396 A  
HETATM   17  F   UNL     1     -11.864  14.757  66.426  1.00  0.00    -0.368 F  
HETATM   18  C   UNL     1     -12.016  14.137  68.695  1.00  0.00    -0.373 A  
HETATM   19  C   UNL     1     -11.979  13.138  69.676  1.00  0.00    -0.370 A  
ENDBRANCH  10  12
TORSDOF 1
ENDMDL
MODEL       37
REMARK 921   NORMALIZED FREE ENERGY PREDICTED BY IDOCK:   -6.29 KCAL/MOL
REMARK 922        TOTAL FREE ENERGY PREDICTED BY IDOCK:   -7.02 KCAL/MOL
REMARK 923 INTER-LIGAND FREE ENERGY PREDICTED BY IDOCK:   -6.60 KCAL/MOL
REMARK 924 INTRA-LIGAND FREE ENERGY PREDICTED BY IDOCK:   -0.43 KCAL/MOL
REMARK 927      BINDING AFFINITY PREDICTED BY RF-SCORE:    0.00 PKD
ROOT
HETATM    1  O   UNL     1      -8.828  10.785  66.083  1.00  0.00    -0.164 OA 
HETATM    2  C   UNL     1      -9.711  10.914  65.074  1.00  0.00    -0.267 C  
HETATM    3  O   UNL     1      -9.880  10.016  64.257  1.00  0.00    -0.280 OA 
HETATM    4  C   UNL     1     -10.479  12.187  64.973  1.00  0.00    -0.326 A  
HETATM    5  C   UNL     1     -11.428  12.317  63.946  1.00  0.00    -0.435 A  
HETATM    6  O   UNL     1     -11.698  11.336  63.029  1.00  0.00    -0.863 OA 
HETATM    7  C   UNL     1     -12.154  13.494  63.795  1.00  0.00    -0.482 A  
HETATM    8  C   UNL     1     -11.925  14.574  64.651  1.00  0.00    -0.478 A  
HETATM    9  H   UNL     1     -12.339  11.424  62.334  1.00  0.00     0.000 HD 
HETATM   10  C   UNL     1     -10.985  14.498  65.694  1.00  0.00    -0.323 A  
HETATM   11  C   UNL     1     -10.293  13.274  65.846  1.00  0.00    -0.293 A  
ENDROOT
BRANCH  10  12
HETATM   12  C   UNL     1     -10.717  15.658  66.588  1.00  0.00    -0.296 A  
HETATM   13  C   UNL     1     -10.990  15.619  67.973  1.00  0.00    -0.318 A  
HETATM   14  F   UNL     1     -11.490  14.509  68.539  1.00  0.00    -0.262 F  
HETATM   15  C   UNL     1     -10.751  16.703  68.815  1.00  0.00    -0.342 A  
HETATM   16  C   UNL     1     -10.208  17.859  68.284  1.00  0.00    -0.388 A  
HETATM   17  F   UNL     1      -9.971  18.906  69.085  1.00  0.00    -0.403 F  
HETATM   18  C   UNL     1      -9.907  17.946  66.933  1.00  0.00    -0.321 A  
HETATM   19  C   UNL     1     -10.166  16.857  66.091  1.00  0.00    -0.352 A  
ENDBRANCH  10  12
TORSDOF 1
ENDMDL
MODEL       38
REMARK 921   NORMALIZED FREE ENERGY PREDICTED BY IDOCK:   -6.28 KCAL/MOL
REMARK 922        TOTAL FREE ENERGY PREDICTED BY IDOCK:   -7.01 KCAL/MOL
REMARK 923 INTER-LIGAND FREE ENERGY PREDICTED BY IDOCK:   -6.54 KCAL/MOL
REMARK 924 INTRA-LIGAND FREE ENERGY PREDICTED BY IDOCK:   -0.47 KCAL/MOL
REMARK 927      BINDING AFFINITY PREDICTED BY RF-SCORE:    0.00 PKD
ROOT
HETATM    1  O   UNL     1      -8.335  18.715  65.706  1.00  0.00    -0.462 OA 
HETATM    2  C   UNL     1      -8.947  18.660  66.904  1.00  0.00    -0.294 C  
HETATM    3  O   UNL     1      -8.800  19.547  67.736  1.00  0.00    -0.304 OA 
HETATM    4  C   UNL     1      -9.811  17.480  67.195  1.00  0.00    -0.297 A  
HETATM    5  C   UNL     1     -10.482  17.430  68.427  1.00  0.00    -0.384 A  
HETATM    6  O   UNL     1     -10.397  18.408  69.382  1.00  0.00    -0.418 OA 
HETATM    7  C   UNL     1     -11.281  16.340  68.757  1.00  0.00    -0.343 A  
HETATM    8  C   UNL     1     -11.403  15.266  67.871  1.00  0.00    -0.339 A  
HETATM    9  H   UNL     1     -10.851  18.374  70.216  1.00  0.00     0.000 HD 
HETATM   10  C   UNL     1     -10.750  15.264  66.626  1.00  0.00    -0.309 A  
HETATM   11  C   UNL     1      -9.979  16.405  66.304  1.00  0.00    -0.341 A  
ENDROOT
BRANCH  10  12
HETATM   12  C   UNL     1     -10.852  14.108  65.694  1.00  0.00    -0.306 A  
HETATM   13  C   UNL     1     -11.683  14.132  64.552  1.00  0.00    -0.413 A  
HETATM   14  F   UNL     1     -12.404  15.226  64.257  1.00  0.00    -0.482 F  
HETATM   15  C   UNL     1     -11.792  13.051  63.680  1.00  0.00    -0.580 A  
HETATM   16  C   UNL     1     -11.046  11.913  63.925  1.00  0.00    -0.412 A  
HETATM   17  F   UNL     1     -11.140  10.869  63.092  1.00  0.00    -0.249 F  
HETATM   18  C   UNL     1     -10.202  11.840  65.024  1.00  0.00    -0.314 A  
HETATM   19  C   UNL     1     -10.112  12.926  65.904  1.00  0.00    -0.295 A  
ENDBRANCH  10  12
TORSDOF 1
ENDMDL
MODEL       39
REMARK 921   NORMALIZED FREE ENERGY PREDICTED BY IDOCK:   -6.27 KCAL/MOL
REMARK 922        TOTAL FREE ENERGY PREDICTED BY IDOCK:   -7.00 KCAL/MOL
REMARK 923 INTER-LIGAND FREE ENERGY PREDICTED BY IDOCK:   -6.71 KCAL/MOL
REMARK 924 INTRA-LIGAND FREE ENERGY PREDICTED BY IDOCK:   -0.29 KCAL/MOL
REMARK 927      BINDING AFFINITY PREDICTED BY RF-SCORE:    0.00 PKD
ROOT
HETATM    1  O   UNL     1      -9.221   7.879  70.663  1.00  0.00    -0.155 OA 
HETATM    2  C   UNL     1     -10.389   7.436  71.166  1.00  0.00    -0.201 C  
HETATM    3  O   UNL     1     -10.553   6.256  71.450  1.00  0.00    -0.223 OA 
HETATM    4  C   UNL     1     -11.486   8.425  71.365  1.00  0.00    -0.328 A  
HETATM    5  C   UNL     1     -12.695   7.980  71.923  1.00  0.00    -0.327 A  
HETATM    6  O   UNL     1     -12.928   6.685  72.304  1.00  0.00    -0.548 OA 
HETATM    7  C   UNL     1     -13.758   8.859  72.107  1.00  0.00    -0.527 A  
HETATM    8  C   UNL     1     -13.641  10.194  71.713  1.00  0.00    -0.304 A  
HETATM    9  H   UNL     1     -13.746   6.384  72.681  1.00  0.00     0.000 HD 
HETATM   10  C   UNL     1     -12.453  10.691  71.147  1.00  0.00    -0.523 A  
HETATM   11  C   UNL     1     -11.378   9.783  71.011  1.00  0.00    -0.460 A  
ENDROOT
BRANCH  10  12
HETATM   12  C   UNL     1     -12.336  12.105  70.697  1.00  0.00    -0.385 A  
HETATM   13  C   UNL     1     -12.800  13.185  71.479  1.00  0.00    -0.307 A  
HETATM   14  F   UNL     1     -13.352  12.967  72.684  1.00  0.00    -0.595 F  
HETATM   15  C   UNL     1     -12.703  14.510  71.061  1.00  0.00    -0.413 A  
HETATM   16  C   UNL     1     -12.115  14.789  69.841  1.00  0.00    -0.332 A  
HETATM   17  F   UNL     1     -12.014  16.059  69.430  1.00  0.00    -0.339 F  
HETATM   18  C   UNL     1     -11.629  13.767  69.038  1.00  0.00    -0.356 A  
HETATM   19  C   UNL     1     -11.745  12.436  69.459  1.00  0.00    -0.388 A  
ENDBRANCH  10  12
TORSDOF 1
ENDMDL
MODEL       40
REMARK 921   NORMALIZED FREE ENERGY PREDICTED BY IDOCK:   -6.26 KCAL/MOL
REMARK 922        TOTAL FREE ENERGY PREDICTED BY IDOCK:   -6.99 KCAL/MOL
REMARK 923 INTER-LIGAND FREE ENERGY PREDICTED BY IDOCK:   -6.63 KCAL/MOL
REMARK 924 INTRA-LIGAND FREE ENERGY PREDICTED BY IDOCK:   -0.36 KCAL/MOL
REMARK 927      BINDING AFFINITY PREDICTED BY RF-SCORE:    0.00 PKD
ROOT
HETATM    1  O   UNL     1     -11.324  11.858  65.830  1.00  0.00    -0.332 OA 
HETATM    2  C   UNL     1     -11.567  12.999  66.504  1.00  0.00    -0.356 C  
HETATM    3  O   UNL     1     -11.595  14.082  65.932  1.00  0.00    -0.329 OA 
HETATM    4  C   UNL     1     -11.798  12.908  67.974  1.00  0.00    -0.390 A  
HETATM    5  C   UNL     1     -12.089  14.087  68.679  1.00  0.00    -0.297 A  
HETATM    6  O   UNL     1     -12.180  15.323  68.095  1.00  0.00    -0.489 OA 
HETATM    7  C   UNL     1     -12.290  14.059  70.056  1.00  0.00    -0.397 A  
HETATM    8  C   UNL     1     -12.177  12.856  70.757  1.00  0.00    -0.348 A  
HETATM    9  H   UNL     1     -12.376  16.120  68.572  1.00  0.00     0.000 HD 
HETATM   10  C   UNL     1     -11.886  11.648  70.099  1.00  0.00    -0.428 A  
HETATM   11  C   UNL     1     -11.728  11.703  68.695  1.00  0.00    -0.386 A  
ENDROOT
BRANCH  10  12
HETATM   12  C   UNL     1     -11.734  10.370  70.848  1.00  0.00    -0.455 A  
HETATM   13  C   UNL     1     -12.730   9.889  71.725  1.00  0.00    -0.428 A  
HETATM   14  F   UNL     1     -13.873  10.572  71.900  1.00  0.00    -0.277 F  
HETATM   15  C   UNL     1     -12.592   8.699  72.437  1.00  0.00    -0.426 A  
HETATM   16  C   UNL     1     -11.445   7.945  72.269  1.00  0.00    -0.348 A  
HETATM   17  F   UNL     1     -11.303   6.798  72.945  1.00  0.00    -0.271 F  
HETATM   18  C   UNL     1     -10.442   8.363  71.408  1.00  0.00    -0.286 A  
HETATM   19  C   UNL     1     -10.581   9.568  70.709  1.00  0.00    -0.387 A  
ENDBRANCH  10  12
TORSDOF 1
ENDMDL
MODEL       41
REMARK 921   NORMALIZED FREE ENERGY PREDICTED BY IDOCK:   -6.26 KCAL/MOL
REMARK 922        TOTAL FREE ENERGY PREDICTED BY IDOCK:   -6.99 KCAL/MOL
REMARK 923 INTER-LIGAND FREE ENERGY PREDICTED BY IDOCK:   -6.85 KCAL/MOL
REMARK 924 INTRA-LIGAND FREE ENERGY PREDICTED BY IDOCK:   -0.14 KCAL/MOL
REMARK 927      BINDING AFFINITY PREDICTED BY RF-SCORE:    0.00 PKD
ROOT
HETATM    1  O   UNL     1     -10.392   8.487  71.383  1.00  0.00    -0.206 OA 
HETATM    2  C   UNL     1     -10.275   8.698  70.058  1.00  0.00    -0.194 C  
HETATM    3  O   UNL     1      -9.707   7.891  69.332  1.00  0.00    -0.167 OA 
HETATM    4  C   UNL     1     -10.853   9.952  69.494  1.00  0.00    -0.274 A  
HETATM    5  C   UNL     1     -10.768  10.164  68.109  1.00  0.00    -0.244 A  
HETATM    6  O   UNL     1     -10.188   9.282  67.236  1.00  0.00    -0.216 OA 
HETATM    7  C   UNL     1     -11.271  11.328  67.537  1.00  0.00    -0.357 A  
HETATM    8  C   UNL     1     -11.845  12.315  68.343  1.00  0.00    -0.358 A  
HETATM    9  H   UNL     1     -10.130   9.425  66.300  1.00  0.00     0.000 HD 
HETATM   10  C   UNL     1     -11.953  12.153  69.736  1.00  0.00    -0.372 A  
HETATM   11  C   UNL     1     -11.469  10.942  70.281  1.00  0.00    -0.391 A  
ENDROOT
BRANCH  10  12
HETATM   12  C   UNL     1     -12.535  13.216  70.601  1.00  0.00    -0.363 A  
HETATM   13  C   UNL     1     -13.221  12.920  71.798  1.00  0.00    -0.384 A  
HETATM   14  F   UNL     1     -13.355  11.649  72.211  1.00  0.00    -0.612 F  
HETATM   15  C   UNL     1     -13.777  13.908  72.608  1.00  0.00    -0.582 A  
HETATM   16  C   UNL     1     -13.640  15.234  72.241  1.00  0.00    -0.481 A  
HETATM   17  F   UNL     1     -14.167  16.191  73.014  1.00  0.00    -0.687 F  
HETATM   18  C   UNL     1     -12.963  15.582  71.082  1.00  0.00    -0.560 A  
HETATM   19  C   UNL     1     -12.421  14.582  70.265  1.00  0.00    -0.405 A  
ENDBRANCH  10  12
TORSDOF 1
ENDMDL
MODEL       42
REMARK 921   NORMALIZED FREE ENERGY PREDICTED BY IDOCK:   -6.20 KCAL/MOL
REMARK 922        TOTAL FREE ENERGY PREDICTED BY IDOCK:   -6.93 KCAL/MOL
REMARK 923 INTER-LIGAND FREE ENERGY PREDICTED BY IDOCK:   -6.45 KCAL/MOL
REMARK 924 INTRA-LIGAND FREE ENERGY PREDICTED BY IDOCK:   -0.48 KCAL/MOL
REMARK 927      BINDING AFFINITY PREDICTED BY RF-SCORE:    0.00 PKD
ROOT
HETATM    1  O   UNL     1     -11.183  13.164  69.353  1.00  0.00    -0.226 OA 
HETATM    2  C   UNL     1     -11.655  12.928  68.115  1.00  0.00    -0.336 C  
HETATM    3  O   UNL     1     -12.264  11.897  67.851  1.00  0.00    -0.508 OA 
HETATM    4  C   UNL     1     -11.412  13.957  67.064  1.00  0.00    -0.367 A  
HETATM    5  C   UNL     1     -11.932  13.737  65.779  1.00  0.00    -0.399 A  
HETATM    6  O   UNL     1     -12.660  12.630  65.429  1.00  0.00    -0.641 OA 
HETATM    7  C   UNL     1     -11.714  14.656  64.757  1.00  0.00    -0.429 A  
HETATM    8  C   UNL     1     -10.948  15.800  64.995  1.00  0.00    -0.431 A  
HETATM    9  H   UNL     1     -13.011  12.481  64.560  1.00  0.00     0.000 HD 
HETATM   10  C   UNL     1     -10.402  16.067  66.263  1.00  0.00    -0.330 A  
HETATM   11  C   UNL     1     -10.677  15.135  67.290  1.00  0.00    -0.305 A  
ENDROOT
BRANCH  10  12
HETATM   12  C   UNL     1      -9.559  17.269  66.511  1.00  0.00    -0.286 A  
HETATM   13  C   UNL     1     -10.099  18.480  66.995  1.00  0.00    -0.360 A  
HETATM   14  F   UNL     1     -11.410  18.581  67.269  1.00  0.00    -0.271 F  
HETATM   15  C   UNL     1      -9.319  19.612  67.221  1.00  0.00    -0.429 A  
HETATM   16  C   UNL     1      -7.959  19.550  66.981  1.00  0.00    -0.268 A  
HETATM   17  F   UNL     1      -7.199  20.630  67.198  1.00  0.00    -0.299 F  
HETATM   18  C   UNL     1      -7.373  18.380  66.519  1.00  0.00    -0.262 A  
HETATM   19  C   UNL     1      -8.167  17.252  66.279  1.00  0.00    -0.302 A  
ENDBRANCH  10  12
TORSDOF 1
ENDMDL
MODEL       43
REMARK 921   NORMALIZED FREE ENERGY PREDICTED BY IDOCK:   -6.19 KCAL/MOL
REMARK 922        TOTAL FREE ENERGY PREDICTED BY IDOCK:   -6.92 KCAL/MOL
REMARK 923 INTER-LIGAND FREE ENERGY PREDICTED BY IDOCK:   -6.45 KCAL/MOL
REMARK 924 INTRA-LIGAND FREE ENERGY PREDICTED BY IDOCK:   -0.47 KCAL/MOL
REMARK 927      BINDING AFFINITY PREDICTED BY RF-SCORE:    0.00 PKD
ROOT
HETATM    1  O   UNL     1     -12.784  14.873  63.708  1.00  0.00    -0.754 OA 
HETATM    2  C   UNL     1     -11.758  15.577  64.223  1.00  0.00    -0.190 C  
HETATM    3  O   UNL     1     -11.539  16.731  63.876  1.00  0.00    -1.122 OA 
HETATM    4  C   UNL     1     -10.886  14.908  65.231  1.00  0.00    -0.398 A  
HETATM    5  C   UNL     1      -9.836  15.645  65.802  1.00  0.00    -0.351 A  
HETATM    6  O   UNL     1      -9.565  16.951  65.492  1.00  0.00    -0.519 OA 
HETATM    7  C   UNL     1      -8.980  15.059  66.730  1.00  0.00    -0.293 A  
HETATM    8  C   UNL     1      -9.142  13.718  67.084  1.00  0.00    -0.243 A  
HETATM    9  H   UNL     1      -8.854  17.450  65.878  1.00  0.00     0.000 HD 
HETATM   10  C   UNL     1     -10.176  12.935  66.541  1.00  0.00    -0.264 A  
HETATM   11  C   UNL     1     -11.053  13.570  65.632  1.00  0.00    -0.299 A  
ENDROOT
BRANCH  10  12
HETATM   12  C   UNL     1     -10.331  11.496  66.893  1.00  0.00    -0.258 A  
HETATM   13  C   UNL     1     -10.834  11.078  68.144  1.00  0.00    -0.226 A  
HETATM   14  F   UNL     1     -11.212  11.981  69.064  1.00  0.00    -0.233 F  
HETATM   15  C   UNL     1     -10.974   9.734  68.485  1.00  0.00    -0.195 A  
HETATM   16  C   UNL     1     -10.626   8.767  67.561  1.00  0.00    -0.228 A  
HETATM   17  F   UNL     1     -10.759   7.473  67.877  1.00  0.00    -0.261 F  
HETATM   18  C   UNL     1     -10.140   9.122  66.311  1.00  0.00    -0.319 A  
HETATM   19  C   UNL     1      -9.988  10.475  65.983  1.00  0.00    -0.295 A  
ENDBRANCH  10  12
TORSDOF 1
ENDMDL
MODEL       44
REMARK 921   NORMALIZED FREE ENERGY PREDICTED BY IDOCK:   -6.13 KCAL/MOL
REMARK 922        TOTAL FREE ENERGY PREDICTED BY IDOCK:   -6.86 KCAL/MOL
REMARK 923 INTER-LIGAND FREE ENERGY PREDICTED BY IDOCK:   -6.49 KCAL/MOL
REMARK 924 INTRA-LIGAND FREE ENERGY PREDICTED BY IDOCK:   -0.37 KCAL/MOL
REMARK 927      BINDING AFFINITY PREDICTED BY RF-SCORE:    0.00 PKD
ROOT
HETATM    1  O   UNL     1     -11.923  15.788  69.754  1.00  0.00    -0.352 OA 
HETATM    2  C   UNL     1     -12.598  15.218  70.770  1.00  0.00    -0.417 C  
HETATM    3  O   UNL     1     -13.187  15.896  71.604  1.00  0.00    -0.448 OA 
HETATM    4  C   UNL     1     -12.607  13.730  70.858  1.00  0.00    -0.428 A  
HETATM    5  C   UNL     1     -13.338  13.125  71.893  1.00  0.00    -0.455 A  
HETATM    6  O   UNL     1     -14.054  13.822  72.830  1.00  0.00    -0.694 OA 
HETATM    7  C   UNL     1     -13.359  11.740  72.032  1.00  0.00    -0.417 A  
HETATM    8  C   UNL     1     -12.627  10.936  71.155  1.00  0.00    -0.532 A  
HETATM    9  H   UNL     1     -14.548  13.413  73.530  1.00  0.00     0.000 HD 
HETATM   10  C   UNL     1     -11.876  11.491  70.103  1.00  0.00    -0.440 A  
HETATM   11  C   UNL     1     -11.909  12.898  69.964  1.00  0.00    -0.356 A  
ENDROOT
BRANCH  10  12
HETATM   12  C   UNL     1     -11.070  10.638  69.187  1.00  0.00    -0.309 A  
HETATM   13  C   UNL     1     -10.085   9.746  69.662  1.00  0.00    -0.229 A  
HETATM   14  F   UNL     1      -9.853   9.623  70.979  1.00  0.00    -0.332 F  
HETATM   15  C   UNL     1      -9.319   8.951  68.810  1.00  0.00    -0.137 A  
HETATM   16  C   UNL     1      -9.541   9.021  67.447  1.00  0.00    -0.152 A  
HETATM   17  F   UNL     1      -8.814   8.259  66.620  1.00  0.00    -0.123 F  
HETATM   18  C   UNL     1     -10.507   9.869  66.928  1.00  0.00    -0.284 A  
HETATM   19  C   UNL     1     -11.260  10.677  67.790  1.00  0.00    -0.383 A  
ENDBRANCH  10  12
TORSDOF 1
ENDMDL
MODEL       45
REMARK 921   NORMALIZED FREE ENERGY PREDICTED BY IDOCK:   -6.12 KCAL/MOL
REMARK 922        TOTAL FREE ENERGY PREDICTED BY IDOCK:   -6.84 KCAL/MOL
REMARK 923 INTER-LIGAND FREE ENERGY PREDICTED BY IDOCK:   -6.44 KCAL/MOL
REMARK 924 INTRA-LIGAND FREE ENERGY PREDICTED BY IDOCK:   -0.39 KCAL/MOL
REMARK 927      BINDING AFFINITY PREDICTED BY RF-SCORE:    0.00 PKD
ROOT
HETATM    1  O   UNL     1     -10.790   8.797  69.582  1.00  0.00    -0.231 OA 
HETATM    2  C   UNL     1     -11.702   8.983  70.556  1.00  0.00    -0.126 C  
HETATM    3  O   UNL     1     -12.174   8.037  71.176  1.00  0.00    -0.302 OA 
HETATM    4  C   UNL     1     -12.128  10.379  70.859  1.00  0.00    -0.477 A  
HETATM    5  C   UNL     1     -13.050  10.587  71.896  1.00  0.00    -0.462 A  
HETATM    6  O   UNL     1     -13.582   9.580  72.658  1.00  0.00    -0.682 OA 
HETATM    7  C   UNL     1     -13.497  11.869  72.203  1.00  0.00    -0.300 A  
HETATM    8  C   UNL     1     -13.051  12.964  71.460  1.00  0.00    -0.390 A  
HETATM    9  H   UNL     1     -14.206   9.720  73.359  1.00  0.00     0.000 HD 
HETATM   10  C   UNL     1     -12.129  12.811  70.409  1.00  0.00    -0.382 A  
HETATM   11  C   UNL     1     -11.663  11.501  70.149  1.00  0.00    -0.395 A  
ENDROOT
BRANCH  10  12
HETATM   12  C   UNL     1     -11.676  13.972  69.595  1.00  0.00    -0.368 A  
HETATM   13  C   UNL     1     -11.050  15.098  70.173  1.00  0.00    -0.274 A  
HETATM   14  F   UNL     1     -10.824  15.149  71.495  1.00  0.00    -0.379 F  
HETATM   15  C   UNL     1     -10.632  16.193  69.419  1.00  0.00    -0.300 A  
HETATM   16  C   UNL     1     -10.816  16.175  68.049  1.00  0.00    -0.333 A  
HETATM   17  F   UNL     1     -10.415  17.220  67.315  1.00  0.00    -0.315 F  
HETATM   18  C   UNL     1     -11.411  15.088  67.427  1.00  0.00    -0.326 A  
HETATM   19  C   UNL     1     -11.844  13.999  68.194  1.00  0.00    -0.402 A  
ENDBRANCH  10  12
TORSDOF 1
ENDMDL
MODEL       46
REMARK 921   NORMALIZED FREE ENERGY PREDICTED BY IDOCK:   -6.09 KCAL/MOL
REMARK 922        TOTAL FREE ENERGY PREDICTED BY IDOCK:   -6.82 KCAL/MOL
REMARK 923 INTER-LIGAND FREE ENERGY PREDICTED BY IDOCK:   -6.52 KCAL/MOL
REMARK 924 INTRA-LIGAND FREE ENERGY PREDICTED BY IDOCK:   -0.29 KCAL/MOL
REMARK 927      BINDING AFFINITY PREDICTED BY RF-SCORE:    0.00 PKD
ROOT
HETATM    1  O   UNL     1     -11.853  16.035  70.007  1.00  0.00    -0.318 OA 
HETATM    2  C   UNL     1     -12.446  15.321  70.983  1.00  0.00    -0.384 C  
HETATM    3  O   UNL     1     -12.946  15.868  71.958  1.00  0.00    -0.449 OA 
HETATM    4  C   UNL     1     -12.472  13.836  70.847  1.00  0.00    -0.451 A  
HETATM    5  C   UNL     1     -13.119  13.085  71.841  1.00  0.00    -0.384 A  
HETATM    6  O   UNL     1     -13.738  13.636  72.932  1.00  0.00    -0.672 OA 
HETATM    7  C   UNL     1     -13.151  11.696  71.772  1.00  0.00    -0.487 A  
HETATM    8  C   UNL     1     -12.514  11.030  70.723  1.00  0.00    -0.491 A  
HETATM    9  H   UNL     1     -14.175  13.128  73.604  1.00  0.00     0.000 HD 
HETATM   10  C   UNL     1     -11.849  11.735  69.703  1.00  0.00    -0.407 A  
HETATM   11  C   UNL     1     -11.870  13.146  69.779  1.00  0.00    -0.386 A  
ENDROOT
BRANCH  10  12
HETATM   12  C   UNL     1     -11.142  11.027  68.601  1.00  0.00    -0.294 A  
HETATM   13  C   UNL     1     -11.300  11.394  67.247  1.00  0.00    -0.275 A  
HETATM   14  F   UNL     1     -12.094  12.424  66.908  1.00  0.00    -0.433 F  
HETATM   15  C   UNL     1     -10.650  10.731  66.208  1.00  0.00    -0.257 A  
HETATM   16  C   UNL     1      -9.799   9.683  66.509  1.00  0.00    -0.235 A  
HETATM   17  F   UNL     1      -9.166   9.041  65.519  1.00  0.00    -0.225 F  
HETATM   18  C   UNL     1      -9.595   9.290  67.823  1.00  0.00    -0.167 A  
HETATM   19  C   UNL     1     -10.266   9.952  68.860  1.00  0.00    -0.209 A  
ENDBRANCH  10  12
TORSDOF 1
ENDMDL
MODEL       47
REMARK 921   NORMALIZED FREE ENERGY PREDICTED BY IDOCK:   -6.08 KCAL/MOL
REMARK 922        TOTAL FREE ENERGY PREDICTED BY IDOCK:   -6.80 KCAL/MOL
REMARK 923 INTER-LIGAND FREE ENERGY PREDICTED BY IDOCK:   -6.34 KCAL/MOL
REMARK 924 INTRA-LIGAND FREE ENERGY PREDICTED BY IDOCK:   -0.46 KCAL/MOL
REMARK 927      BINDING AFFINITY PREDICTED BY RF-SCORE:    0.00 PKD
ROOT
HETATM    1  O   UNL     1     -12.832  11.920  71.345  1.00  0.00    -0.389 OA 
HETATM    2  C   UNL     1     -12.235  10.808  70.877  1.00  0.00    -0.384 C  
HETATM    3  O   UNL     1     -12.088   9.818  71.583  1.00  0.00    -0.378 OA 
HETATM    4  C   UNL     1     -11.748  10.815  69.468  1.00  0.00    -0.384 A  
HETATM    5  C   UNL     1     -11.156   9.648  68.958  1.00  0.00    -0.070 A  
HETATM    6  O   UNL     1     -11.003   8.493  69.679  1.00  0.00    -0.368 OA 
HETATM    7  C   UNL     1     -10.665   9.611  67.657  1.00  0.00    -0.324 A  
HETATM    8  C   UNL     1     -10.732  10.748  66.849  1.00  0.00    -0.309 A  
HETATM    9  H   UNL     1     -10.603   7.704  69.335  1.00  0.00     0.000 HD 
HETATM   10  C   UNL     1     -11.312  11.943  67.311  1.00  0.00    -0.393 A  
HETATM   11  C   UNL     1     -11.839  11.936  68.623  1.00  0.00    -0.365 A  
ENDROOT
BRANCH  10  12
HETATM   12  C   UNL     1     -11.356  13.166  66.463  1.00  0.00    -0.350 A  
HETATM   13  C   UNL     1     -10.560  14.300  66.736  1.00  0.00    -0.278 A  
HETATM   14  F   UNL     1      -9.710  14.303  67.776  1.00  0.00    -0.208 F  
HETATM   15  C   UNL     1     -10.602  15.452  65.954  1.00  0.00    -0.349 A  
HETATM   16  C   UNL     1     -11.440  15.488  64.855  1.00  0.00    -0.279 A  
HETATM   17  F   UNL     1     -11.486  16.588  64.094  1.00  0.00    -0.528 F  
HETATM   18  C   UNL     1     -12.232  14.396  64.531  1.00  0.00    -0.483 A  
HETATM   19  C   UNL     1     -12.196  13.248  65.333  1.00  0.00    -0.501 A  
ENDBRANCH  10  12
TORSDOF 1
ENDMDL
MODEL       48
REMARK 921   NORMALIZED FREE ENERGY PREDICTED BY IDOCK:   -6.05 KCAL/MOL
REMARK 922        TOTAL FREE ENERGY PREDICTED BY IDOCK:   -6.77 KCAL/MOL
REMARK 923 INTER-LIGAND FREE ENERGY PREDICTED BY IDOCK:   -6.29 KCAL/MOL
REMARK 924 INTRA-LIGAND FREE ENERGY PREDICTED BY IDOCK:   -0.48 KCAL/MOL
REMARK 927      BINDING AFFINITY PREDICTED BY RF-SCORE:    0.00 PKD
ROOT
HETATM    1  O   UNL     1      -5.551  18.194  68.784  1.00  0.00    -0.179 OA 
HETATM    2  C   UNL     1      -6.234  19.211  68.224  1.00  0.00    -0.223 C  
HETATM    3  O   UNL     1      -5.674  20.248  67.891  1.00  0.00    -0.198 OA 
HETATM    4  C   UNL     1      -7.702  19.042  68.025  1.00  0.00    -0.304 A  
HETATM    5  C   UNL     1      -8.418  20.081  67.409  1.00  0.00    -0.336 A  
HETATM    6  O   UNL     1      -7.846  21.246  66.971  1.00  0.00    -0.717 OA 
HETATM    7  C   UNL     1      -9.793  19.982  67.221  1.00  0.00    -0.563 A  
HETATM    8  C   UNL     1     -10.483  18.853  67.669  1.00  0.00    -0.514 A  
HETATM    9  H   UNL     1      -8.330  21.949  66.555  1.00  0.00     0.000 HD 
HETATM   10  C   UNL     1      -9.814  17.785  68.294  1.00  0.00    -0.340 A  
HETATM   11  C   UNL     1      -8.412  17.898  68.434  1.00  0.00    -0.300 A  
ENDROOT
BRANCH  10  12
HETATM   12  C   UNL     1     -10.551  16.595  68.802  1.00  0.00    -0.340 A  
HETATM   13  C   UNL     1     -11.010  15.571  67.943  1.00  0.00    -0.316 A  
HETATM   14  F   UNL     1     -10.774  15.632  66.623  1.00  0.00    -0.297 F  
HETATM   15  C   UNL     1     -11.708  14.459  68.409  1.00  0.00    -0.367 A  
HETATM   16  C   UNL     1     -11.950  14.336  69.765  1.00  0.00    -0.339 A  
HETATM   17  F   UNL     1     -12.617  13.270  70.223  1.00  0.00    -0.338 F  
HETATM   18  C   UNL     1     -11.509  15.305  70.654  1.00  0.00    -0.353 A  
HETATM   19  C   UNL     1     -10.822  16.428  70.176  1.00  0.00    -0.265 A  
ENDBRANCH  10  12
TORSDOF 1
ENDMDL
MODEL       49
REMARK 921   NORMALIZED FREE ENERGY PREDICTED BY IDOCK:   -6.04 KCAL/MOL
REMARK 922        TOTAL FREE ENERGY PREDICTED BY IDOCK:   -6.76 KCAL/MOL
REMARK 923 INTER-LIGAND FREE ENERGY PREDICTED BY IDOCK:   -6.38 KCAL/MOL
REMARK 924 INTRA-LIGAND FREE ENERGY PREDICTED BY IDOCK:   -0.38 KCAL/MOL
REMARK 927      BINDING AFFINITY PREDICTED BY RF-SCORE:    0.00 PKD
ROOT
HETATM    1  O   UNL     1     -11.429  16.453  68.633  1.00  0.00    -0.349 OA 
HETATM    2  C   UNL     1     -11.774  15.586  69.604  1.00  0.00    -0.357 C  
HETATM    3  O   UNL     1     -12.050  15.972  70.734  1.00  0.00    -0.380 OA 
HETATM    4  C   UNL     1     -11.808  14.134  69.267  1.00  0.00    -0.381 A  
HETATM    5  C   UNL     1     -12.202  13.226  70.262  1.00  0.00    -0.321 A  
HETATM    6  O   UNL     1     -12.566  13.594  71.530  1.00  0.00    -0.342 OA 
HETATM    7  C   UNL     1     -12.228  11.858  70.005  1.00  0.00    -0.291 A  
HETATM    8  C   UNL     1     -11.834  11.372  68.756  1.00  0.00    -0.388 A  
HETATM    9  H   UNL     1     -12.832  12.979  72.203  1.00  0.00     0.000 HD 
HETATM   10  C   UNL     1     -11.429  12.239  67.725  1.00  0.00    -0.392 A  
HETATM   11  C   UNL     1     -11.453  13.624  68.005  1.00  0.00    -0.345 A  
ENDROOT
BRANCH  10  12
HETATM   12  C   UNL     1     -10.979  11.721  66.404  1.00  0.00    -0.341 A  
HETATM   13  C   UNL     1     -11.582  12.124  65.192  1.00  0.00    -0.317 A  
HETATM   14  F   UNL     1     -12.586  13.016  65.194  1.00  0.00    -0.460 F  
HETATM   15  C   UNL     1     -11.173  11.637  63.953  1.00  0.00    -0.479 A  
HETATM   16  C   UNL     1     -10.124  10.738  63.896  1.00  0.00    -0.333 A  
HETATM   17  F   UNL     1      -9.721  10.267  62.710  1.00  0.00    -0.320 F  
HETATM   18  C   UNL     1      -9.485  10.320  65.054  1.00  0.00    -0.314 A  
HETATM   19  C   UNL     1      -9.914  10.802  66.298  1.00  0.00    -0.272 A  
ENDBRANCH  10  12
TORSDOF 1
ENDMDL
MODEL       50
REMARK 921   NORMALIZED FREE ENERGY PREDICTED BY IDOCK:   -6.00 KCAL/MOL
REMARK 922        TOTAL FREE ENERGY PREDICTED BY IDOCK:   -6.72 KCAL/MOL
REMARK 923 INTER-LIGAND FREE ENERGY PREDICTED BY IDOCK:   -6.24 KCAL/MOL
REMARK 924 INTRA-LIGAND FREE ENERGY PREDICTED BY IDOCK:   -0.48 KCAL/MOL
REMARK 927      BINDING AFFINITY PREDICTED BY RF-SCORE:    0.00 PKD
ROOT
HETATM    1  O   UNL     1      -6.225  18.567  69.522  1.00  0.00    -0.258 OA 
HETATM    2  C   UNL     1      -6.937  19.505  68.868  1.00  0.00    -0.351 C  
HETATM    3  O   UNL     1      -6.496  20.636  68.698  1.00  0.00    -0.296 OA 
HETATM    4  C   UNL     1      -8.286  19.131  68.356  1.00  0.00    -0.384 A  
HETATM    5  C   UNL     1      -9.021  20.090  67.641  1.00  0.00    -0.331 A  
HETATM    6  O   UNL     1      -8.568  21.356  67.377  1.00  0.00    -0.444 OA 
HETATM    7  C   UNL     1     -10.294  19.798  67.163  1.00  0.00    -0.589 A  
HETATM    8  C   UNL     1     -10.868  18.549  67.414  1.00  0.00    -0.342 A  
HETATM    9  H   UNL     1      -9.065  22.005  66.894  1.00  0.00     0.000 HD 
HETATM   10  C   UNL     1     -10.177  17.554  68.126  1.00  0.00    -0.359 A  
HETATM   11  C   UNL     1      -8.869  17.867  68.563  1.00  0.00    -0.293 A  
ENDROOT
BRANCH  10  12
HETATM   12  C   UNL     1     -10.798  16.233  68.422  1.00  0.00    -0.334 A  
HETATM   13  C   UNL     1     -11.343  15.925  69.688  1.00  0.00    -0.342 A  
HETATM   14  F   UNL     1     -11.334  16.836  70.675  1.00  0.00    -0.342 F  
HETATM   15  C   UNL     1     -11.918  14.689  69.976  1.00  0.00    -0.376 A  
HETATM   16  C   UNL     1     -11.977  13.728  68.984  1.00  0.00    -0.360 A  
HETATM   17  F   UNL     1     -12.530  12.538  69.248  1.00  0.00    -0.183 F  
HETATM   18  C   UNL     1     -11.471  13.983  67.718  1.00  0.00    -0.351 A  
HETATM   19  C   UNL     1     -10.880  15.222  67.442  1.00  0.00    -0.304 A  
ENDBRANCH  10  12
TORSDOF 1
ENDMDL
MODEL       51
REMARK 921   NORMALIZED FREE ENERGY PREDICTED BY IDOCK:   -5.96 KCAL/MOL
REMARK 922        TOTAL FREE ENERGY PREDICTED BY IDOCK:   -6.68 KCAL/MOL
REMARK 923 INTER-LIGAND FREE ENERGY PREDICTED BY IDOCK:   -6.40 KCAL/MOL
REMARK 924 INTRA-LIGAND FREE ENERGY PREDICTED BY IDOCK:   -0.27 KCAL/MOL
REMARK 927      BINDING AFFINITY PREDICTED BY RF-SCORE:    0.00 PKD
ROOT
HETATM    1  O   UNL     1      -6.462  18.375  65.063  1.00  0.00    -0.436 OA 
HETATM    2  C   UNL     1      -7.090  19.351  65.748  1.00  0.00    -0.290 C  
HETATM    3  O   UNL     1      -6.623  20.482  65.817  1.00  0.00    -0.228 OA 
HETATM    4  C   UNL     1      -8.373  19.015  66.429  1.00  0.00    -0.315 A  
HETATM    5  C   UNL     1      -9.053  20.034  67.115  1.00  0.00    -0.363 A  
HETATM    6  O   UNL     1      -8.611  21.328  67.192  1.00  0.00    -0.530 OA 
HETATM    7  C   UNL     1     -10.242  19.767  67.786  1.00  0.00    -0.571 A  
HETATM    8  C   UNL     1     -10.760  18.469  67.806  1.00  0.00    -0.378 A  
HETATM    9  H   UNL     1      -9.070  22.017  67.656  1.00  0.00     0.000 HD 
HETATM   10  C   UNL     1     -10.117  17.412  67.138  1.00  0.00    -0.307 A  
HETATM   11  C   UNL     1      -8.933  17.724  66.431  1.00  0.00    -0.252 A  
ENDROOT
BRANCH  10  12
HETATM   12  C   UNL     1     -10.649  16.022  67.184  1.00  0.00    -0.305 A  
HETATM   13  C   UNL     1     -10.737  15.211  66.032  1.00  0.00    -0.329 A  
HETATM   14  F   UNL     1     -10.317  15.669  64.842  1.00  0.00    -0.397 F  
HETATM   15  C   UNL     1     -11.242  13.913  66.065  1.00  0.00    -0.300 A  
HETATM   16  C   UNL     1     -11.660  13.385  67.273  1.00  0.00    -0.360 A  
HETATM   17  F   UNL     1     -12.144  12.138  67.318  1.00  0.00    -0.388 F  
HETATM   18  C   UNL     1     -11.582  14.133  68.439  1.00  0.00    -0.353 A  
HETATM   19  C   UNL     1     -11.088  15.443  68.393  1.00  0.00    -0.301 A  
ENDBRANCH  10  12
TORSDOF 1
ENDMDL
MODEL       52
REMARK 921   NORMALIZED FREE ENERGY PREDICTED BY IDOCK:   -5.96 KCAL/MOL
REMARK 922        TOTAL FREE ENERGY PREDICTED BY IDOCK:   -6.67 KCAL/MOL
REMARK 923 INTER-LIGAND FREE ENERGY PREDICTED BY IDOCK:   -6.19 KCAL/MOL
REMARK 924 INTRA-LIGAND FREE ENERGY PREDICTED BY IDOCK:   -0.48 KCAL/MOL
REMARK 927      BINDING AFFINITY PREDICTED BY RF-SCORE:    0.00 PKD
ROOT
HETATM    1  O   UNL     1     -11.984  16.753  73.165  1.00  0.00    -0.440 OA 
HETATM    2  C   UNL     1     -12.268  15.558  72.612  1.00  0.00    -0.420 C  
HETATM    3  O   UNL     1     -12.780  14.658  73.267  1.00  0.00    -0.477 OA 
HETATM    4  C   UNL     1     -11.935  15.356  71.172  1.00  0.00    -0.414 A  
HETATM    5  C   UNL     1     -12.260  14.127  70.577  1.00  0.00    -0.361 A  
HETATM    6  O   UNL     1     -12.873  13.097  71.239  1.00  0.00    -0.353 OA 
HETATM    7  C   UNL     1     -11.950  13.880  69.243  1.00  0.00    -0.402 A  
HETATM    8  C   UNL     1     -11.284  14.848  68.487  1.00  0.00    -0.292 A  
HETATM    9  H   UNL     1     -13.093  12.265  70.836  1.00  0.00     0.000 HD 
HETATM   10  C   UNL     1     -10.934  16.095  69.036  1.00  0.00    -0.312 A  
HETATM   11  C   UNL     1     -11.300  16.330  70.381  1.00  0.00    -0.313 A  
ENDROOT
BRANCH  10  12
HETATM   12  C   UNL     1     -10.197  17.116  68.242  1.00  0.00    -0.334 A  
HETATM   13  C   UNL     1      -8.798  17.278  68.337  1.00  0.00    -0.269 A  
HETATM   14  F   UNL     1      -8.074  16.488  69.147  1.00  0.00    -0.227 F  
HETATM   15  C   UNL     1      -8.102  18.237  67.605  1.00  0.00    -0.249 A  
HETATM   16  C   UNL     1      -8.799  19.055  66.735  1.00  0.00    -0.310 A  
HETATM   17  F   UNL     1      -8.140  19.978  66.024  1.00  0.00    -0.320 F  
HETATM   18  C   UNL     1     -10.173  18.929  66.591  1.00  0.00    -0.462 A  
HETATM   19  C   UNL     1     -10.867  17.973  67.343  1.00  0.00    -0.236 A  
ENDBRANCH  10  12
TORSDOF 1
ENDMDL
MODEL       53
REMARK 921   NORMALIZED FREE ENERGY PREDICTED BY IDOCK:   -5.94 KCAL/MOL
REMARK 922        TOTAL FREE ENERGY PREDICTED BY IDOCK:   -6.66 KCAL/MOL
REMARK 923 INTER-LIGAND FREE ENERGY PREDICTED BY IDOCK:   -6.20 KCAL/MOL
REMARK 924 INTRA-LIGAND FREE ENERGY PREDICTED BY IDOCK:   -0.46 KCAL/MOL
REMARK 927      BINDING AFFINITY PREDICTED BY RF-SCORE:    0.00 PKD
ROOT
HETATM    1  O   UNL     1     -11.654  15.581  70.684  1.00  0.00    -0.285 OA 
HETATM    2  C   UNL     1     -11.737  15.279  69.374  1.00  0.00    -0.341 C  
HETATM    3  O   UNL     1     -11.900  16.151  68.529  1.00  0.00    -0.300 OA 
HETATM    4  C   UNL     1     -11.632  13.846  68.977  1.00  0.00    -0.351 A  
HETATM    5  C   UNL     1     -11.681  13.524  67.612  1.00  0.00    -0.363 A  
HETATM    6  O   UNL     1     -11.815  14.453  66.614  1.00  0.00    -0.389 OA 
HETATM    7  C   UNL     1     -11.610  12.200  67.191  1.00  0.00    -0.405 A  
HETATM    8  C   UNL     1     -11.515  11.170  68.130  1.00  0.00    -0.373 A  
HETATM    9  H   UNL     1     -11.849  14.236  65.690  1.00  0.00     0.000 HD 
HETATM   10  C   UNL     1     -11.464  11.437  69.510  1.00  0.00    -0.381 A  
HETATM   11  C   UNL     1     -11.498  12.795  69.903  1.00  0.00    -0.141 A  
ENDROOT
BRANCH  10  12
HETATM   12  C   UNL     1     -11.395  10.340  70.514  1.00  0.00    -0.422 A  
HETATM   13  C   UNL     1     -10.252   9.525  70.660  1.00  0.00    -0.297 A  
HETATM   14  F   UNL     1      -9.166   9.730  69.898  1.00  0.00    -0.188 F  
HETATM   15  C   UNL     1     -10.183   8.490  71.591  1.00  0.00    -0.336 A  
HETATM   16  C   UNL     1     -11.265   8.258  72.419  1.00  0.00    -0.381 A  
HETATM   17  F   UNL     1     -11.208   7.268  73.319  1.00  0.00    -0.339 F  
HETATM   18  C   UNL     1     -12.408   9.038  72.328  1.00  0.00    -0.402 A  
HETATM   19  C   UNL     1     -12.475  10.066  71.379  1.00  0.00    -0.510 A  
ENDBRANCH  10  12
TORSDOF 1
ENDMDL
MODEL       54
REMARK 921   NORMALIZED FREE ENERGY PREDICTED BY IDOCK:   -5.93 KCAL/MOL
REMARK 922        TOTAL FREE ENERGY PREDICTED BY IDOCK:   -6.65 KCAL/MOL
REMARK 923 INTER-LIGAND FREE ENERGY PREDICTED BY IDOCK:   -6.17 KCAL/MOL
REMARK 924 INTRA-LIGAND FREE ENERGY PREDICTED BY IDOCK:   -0.48 KCAL/MOL
REMARK 927      BINDING AFFINITY PREDICTED BY RF-SCORE:    0.00 PKD
ROOT
HETATM    1  O   UNL     1      -5.939  16.760  66.380  1.00  0.00    -0.306 OA 
HETATM    2  C   UNL     1      -6.559  17.571  67.258  1.00  0.00    -0.159 C  
HETATM    3  O   UNL     1      -5.939  18.419  67.889  1.00  0.00    -0.176 OA 
HETATM    4  C   UNL     1      -8.029  17.406  67.447  1.00  0.00    -0.212 A  
HETATM    5  C   UNL     1      -8.691  18.271  68.333  1.00  0.00    -0.309 A  
HETATM    6  O   UNL     1      -8.066  19.268  69.035  1.00  0.00    -0.332 OA 
HETATM    7  C   UNL     1     -10.057  18.143  68.562  1.00  0.00    -0.413 A  
HETATM    8  C   UNL     1     -10.782  17.130  67.930  1.00  0.00    -0.355 A  
HETATM    9  H   UNL     1      -8.514  19.853  69.634  1.00  0.00     0.000 HD 
HETATM   10  C   UNL     1     -10.168  16.236  67.036  1.00  0.00    -0.280 A  
HETATM   11  C   UNL     1      -8.787  16.418  66.793  1.00  0.00    -0.255 A  
ENDROOT
BRANCH  10  12
HETATM   12  C   UNL     1     -10.932  15.136  66.385  1.00  0.00    -0.329 A  
HETATM   13  C   UNL     1     -11.440  15.247  65.072  1.00  0.00    -0.300 A  
HETATM   14  F   UNL     1     -11.229  16.360  64.351  1.00  0.00    -0.509 F  
HETATM   15  C   UNL     1     -12.164  14.226  64.460  1.00  0.00    -0.476 A  
HETATM   16  C   UNL     1     -12.382  13.049  65.151  1.00  0.00    -0.484 A  
HETATM   17  F   UNL     1     -13.074  12.060  64.571  1.00  0.00    -0.468 F  
HETATM   18  C   UNL     1     -11.892  12.881  66.438  1.00  0.00    -0.478 A  
HETATM   19  C   UNL     1     -11.180  13.918  67.052  1.00  0.00    -0.327 A  
ENDBRANCH  10  12
TORSDOF 1
ENDMDL
MODEL       55
REMARK 921   NORMALIZED FREE ENERGY PREDICTED BY IDOCK:   -5.86 KCAL/MOL
REMARK 922        TOTAL FREE ENERGY PREDICTED BY IDOCK:   -6.57 KCAL/MOL
REMARK 923 INTER-LIGAND FREE ENERGY PREDICTED BY IDOCK:   -6.09 KCAL/MOL
REMARK 924 INTRA-LIGAND FREE ENERGY PREDICTED BY IDOCK:   -0.48 KCAL/MOL
REMARK 927      BINDING AFFINITY PREDICTED BY RF-SCORE:    0.00 PKD
ROOT
HETATM    1  O   UNL     1      -9.934  18.282  67.044  1.00  0.00    -0.311 OA 
HETATM    2  C   UNL     1     -10.381  17.783  68.212  1.00  0.00    -0.385 C  
HETATM    3  O   UNL     1     -10.363  18.452  69.239  1.00  0.00    -0.193 OA 
HETATM    4  C   UNL     1     -10.897  16.385  68.225  1.00  0.00    -0.347 A  
HETATM    5  C   UNL     1     -11.399  15.868  69.430  1.00  0.00    -0.349 A  
HETATM    6  O   UNL     1     -11.450  16.577  70.602  1.00  0.00    -0.541 OA 
HETATM    7  C   UNL     1     -11.871  14.561  69.500  1.00  0.00    -0.374 A  
HETATM    8  C   UNL     1     -11.824  13.737  68.373  1.00  0.00    -0.411 A  
HETATM    9  H   UNL     1     -11.790  16.227  71.417  1.00  0.00     0.000 HD 
HETATM   10  C   UNL     1     -11.329  14.204  67.143  1.00  0.00    -0.348 A  
HETATM   11  C   UNL     1     -10.895  15.549  67.094  1.00  0.00    -0.316 A  
ENDROOT
BRANCH  10  12
HETATM   12  C   UNL     1     -11.249  13.318  65.948  1.00  0.00    -0.309 A  
HETATM   13  C   UNL     1     -10.055  12.664  65.576  1.00  0.00    -0.265 A  
HETATM   14  F   UNL     1      -8.940  12.807  66.311  1.00  0.00    -0.193 F  
HETATM   15  C   UNL     1      -9.969  11.841  64.454  1.00  0.00    -0.281 A  
HETATM   16  C   UNL     1     -11.097  11.638  63.682  1.00  0.00    -0.425 A  
HETATM   17  F   UNL     1     -11.027  10.847  62.604  1.00  0.00     0.064 F  
HETATM   18  C   UNL     1     -12.300  12.245  64.011  1.00  0.00    -0.569 A  
HETATM   19  C   UNL     1     -12.374  13.083  65.130  1.00  0.00    -0.536 A  
ENDBRANCH  10  12
TORSDOF 1
ENDMDL
MODEL       56
REMARK 921   NORMALIZED FREE ENERGY PREDICTED BY IDOCK:   -5.82 KCAL/MOL
REMARK 922        TOTAL FREE ENERGY PREDICTED BY IDOCK:   -6.52 KCAL/MOL
REMARK 923 INTER-LIGAND FREE ENERGY PREDICTED BY IDOCK:   -6.06 KCAL/MOL
REMARK 924 INTRA-LIGAND FREE ENERGY PREDICTED BY IDOCK:   -0.47 KCAL/MOL
REMARK 927      BINDING AFFINITY PREDICTED BY RF-SCORE:    0.00 PKD
ROOT
HETATM    1  O   UNL     1     -10.993  19.549  66.973  1.00  0.00    -0.477 OA 
HETATM    2  C   UNL     1      -9.805  18.925  66.859  1.00  0.00    -0.329 C  
HETATM    3  O   UNL     1      -8.961  19.304  66.055  1.00  0.00    -0.429 OA 
HETATM    4  C   UNL     1      -9.543  17.750  67.738  1.00  0.00    -0.272 A  
HETATM    5  C   UNL     1      -8.294  17.115  67.652  1.00  0.00    -0.192 A  
HETATM    6  O   UNL     1      -7.291  17.516  66.809  1.00  0.00    -0.181 OA 
HETATM    7  C   UNL     1      -8.009  16.000  68.434  1.00  0.00    -0.151 A  
HETATM    8  C   UNL     1      -8.977  15.483  69.298  1.00  0.00    -0.267 A  
HETATM    9  H   UNL     1      -6.446  17.086  66.751  1.00  0.00     0.000 HD 
HETATM   10  C   UNL     1     -10.245  16.079  69.420  1.00  0.00    -0.270 A  
HETATM   11  C   UNL     1     -10.489  17.235  68.642  1.00  0.00    -0.356 A  
ENDROOT
BRANCH  10  12
HETATM   12  C   UNL     1     -11.290  15.512  70.316  1.00  0.00    -0.348 A  
HETATM   13  C   UNL     1     -11.983  14.321  70.003  1.00  0.00    -0.334 A  
HETATM   14  F   UNL     1     -11.702  13.644  68.879  1.00  0.00    -0.285 F  
HETATM   15  C   UNL     1     -12.969  13.789  70.831  1.00  0.00    -0.287 A  
HETATM   16  C   UNL     1     -13.273  14.434  72.015  1.00  0.00    -0.369 A  
HETATM   17  F   UNL     1     -14.217  13.929  72.820  1.00  0.00    -0.499 F  
HETATM   18  C   UNL     1     -12.613  15.599  72.378  1.00  0.00    -0.510 A  
HETATM   19  C   UNL     1     -11.635  16.137  71.532  1.00  0.00    -0.502 A  
ENDBRANCH  10  12
TORSDOF 1
ENDMDL
MODEL       57
REMARK 921   NORMALIZED FREE ENERGY PREDICTED BY IDOCK:   -5.82 KCAL/MOL
REMARK 922        TOTAL FREE ENERGY PREDICTED BY IDOCK:   -6.52 KCAL/MOL
REMARK 923 INTER-LIGAND FREE ENERGY PREDICTED BY IDOCK:   -6.07 KCAL/MOL
REMARK 924 INTRA-LIGAND FREE ENERGY PREDICTED BY IDOCK:   -0.46 KCAL/MOL
REMARK 927      BINDING AFFINITY PREDICTED BY RF-SCORE:    0.00 PKD
ROOT
HETATM    1  O   UNL     1     -12.730   9.991  70.841  1.00  0.00    -0.329 OA 
HETATM    2  C   UNL     1     -12.778  11.294  71.178  1.00  0.00    -0.390 C  
HETATM    3  O   UNL     1     -13.179  11.653  72.278  1.00  0.00    -0.434 OA 
HETATM    4  C   UNL     1     -12.332  12.296  70.168  1.00  0.00    -0.212 A  
HETATM    5  C   UNL     1     -12.343  13.654  70.522  1.00  0.00    -0.355 A  
HETATM    6  O   UNL     1     -12.736  14.119  71.750  1.00  0.00    -0.325 OA 
HETATM    7  C   UNL     1     -11.958  14.630  69.608  1.00  0.00    -0.368 A  
HETATM    8  C   UNL     1     -11.580  14.268  68.313  1.00  0.00    -0.358 A  
HETATM    9  H   UNL     1     -12.744  15.038  71.989  1.00  0.00     0.000 HD 
HETATM   10  C   UNL     1     -11.553  12.922  67.906  1.00  0.00    -0.391 A  
HETATM   11  C   UNL     1     -11.911  11.952  68.870  1.00  0.00    -0.366 A  
ENDROOT
BRANCH  10  12
HETATM   12  C   UNL     1     -11.181  12.535  66.517  1.00  0.00    -0.356 A  
HETATM   13  C   UNL     1      -9.976  11.862  66.220  1.00  0.00    -0.220 A  
HETATM   14  F   UNL     1      -9.123  11.527  67.202  1.00  0.00    -0.157 F  
HETATM   15  C   UNL     1      -9.616  11.505  64.923  1.00  0.00    -0.212 A  
HETATM   16  C   UNL     1     -10.476  11.802  63.881  1.00  0.00    -0.390 A  
HETATM   17  F   UNL     1     -10.141  11.461  62.630  1.00  0.00    -0.246 F  
HETATM   18  C   UNL     1     -11.680  12.449  64.118  1.00  0.00    -0.476 A  
HETATM   19  C   UNL     1     -12.026  12.819  65.423  1.00  0.00    -0.482 A  
ENDBRANCH  10  12
TORSDOF 1
ENDMDL
MODEL       58
REMARK 921   NORMALIZED FREE ENERGY PREDICTED BY IDOCK:   -5.79 KCAL/MOL
REMARK 922        TOTAL FREE ENERGY PREDICTED BY IDOCK:   -6.50 KCAL/MOL
REMARK 923 INTER-LIGAND FREE ENERGY PREDICTED BY IDOCK:   -6.02 KCAL/MOL
REMARK 924 INTRA-LIGAND FREE ENERGY PREDICTED BY IDOCK:   -0.48 KCAL/MOL
REMARK 927      BINDING AFFINITY PREDICTED BY RF-SCORE:    0.00 PKD
ROOT
HETATM    1  O   UNL     1     -12.756  14.416  63.473  1.00  0.00    -0.742 OA 
HETATM    2  C   UNL     1     -11.790  15.176  64.024  1.00  0.00     0.007 C  
HETATM    3  O   UNL     1     -11.684  16.367  63.753  1.00  0.00    -1.049 OA 
HETATM    4  C   UNL     1     -10.843  14.526  64.974  1.00  0.00    -0.425 A  
HETATM    5  C   UNL     1      -9.855  15.318  65.581  1.00  0.00    -0.348 A  
HETATM    6  O   UNL     1      -9.711  16.662  65.358  1.00  0.00    -0.501 OA 
HETATM    7  C   UNL     1      -8.933  14.755  66.458  1.00  0.00    -0.267 A  
HETATM    8  C   UNL     1      -8.964  13.383  66.722  1.00  0.00    -0.190 A  
HETATM    9  H   UNL     1      -9.043  17.198  65.768  1.00  0.00     0.000 HD 
HETATM   10  C   UNL     1      -9.930  12.545  66.139  1.00  0.00    -0.267 A  
HETATM   11  C   UNL     1     -10.879  13.155  65.285  1.00  0.00    -0.314 A  
ENDROOT
BRANCH  10  12
HETATM   12  C   UNL     1      -9.946  11.078  66.394  1.00  0.00    -0.264 A  
HETATM   13  C   UNL     1      -9.133  10.179  65.670  1.00  0.00    -0.179 A  
HETATM   14  F   UNL     1      -8.292  10.630  64.725  1.00  0.00    -0.171 F  
HETATM   15  C   UNL     1      -9.149   8.805  65.896  1.00  0.00    -0.271 A  
HETATM   16  C   UNL     1      -9.977   8.295  66.880  1.00  0.00    -0.273 A  
HETATM   17  F   UNL     1      -9.998   6.976  67.108  1.00  0.00    -0.174 F  
HETATM   18  C   UNL     1     -10.785   9.135  67.631  1.00  0.00    -0.257 A  
HETATM   19  C   UNL     1     -10.776  10.514  67.386  1.00  0.00    -0.334 A  
ENDBRANCH  10  12
TORSDOF 1
ENDMDL
MODEL       59
REMARK 921   NORMALIZED FREE ENERGY PREDICTED BY IDOCK:   -5.79 KCAL/MOL
REMARK 922        TOTAL FREE ENERGY PREDICTED BY IDOCK:   -6.50 KCAL/MOL
REMARK 923 INTER-LIGAND FREE ENERGY PREDICTED BY IDOCK:   -6.48 KCAL/MOL
REMARK 924 INTRA-LIGAND FREE ENERGY PREDICTED BY IDOCK:   -0.02 KCAL/MOL
REMARK 927      BINDING AFFINITY PREDICTED BY RF-SCORE:    0.00 PKD
ROOT
HETATM    1  O   UNL     1     -13.318  13.341  72.407  1.00  0.00    -0.525 OA 
HETATM    2  C   UNL     1     -13.005  12.234  71.707  1.00  0.00    -0.325 C  
HETATM    3  O   UNL     1     -13.202  11.115  72.165  1.00  0.00    -0.481 OA 
HETATM    4  C   UNL     1     -12.405  12.406  70.353  1.00  0.00    -0.307 A  
HETATM    5  C   UNL     1     -12.109  11.259  69.601  1.00  0.00    -0.322 A  
HETATM    6  O   UNL     1     -12.345   9.981  70.035  1.00  0.00    -0.493 OA 
HETATM    7  C   UNL     1     -11.527  11.365  68.342  1.00  0.00    -0.367 A  
HETATM    8  C   UNL     1     -11.205  12.621  67.822  1.00  0.00    -0.319 A  
HETATM    9  H   UNL     1     -12.145   9.204  69.527  1.00  0.00     0.000 HD 
HETATM   10  C   UNL     1     -11.478  13.802  68.535  1.00  0.00    -0.342 A  
HETATM   11  C   UNL     1     -12.107  13.662  69.793  1.00  0.00    -0.396 A  
ENDROOT
BRANCH  10  12
HETATM   12  C   UNL     1     -11.107  15.140  67.997  1.00  0.00    -0.310 A  
HETATM   13  C   UNL     1     -11.076  16.295  68.809  1.00  0.00    -0.355 A  
HETATM   14  F   UNL     1     -11.367  16.217  70.118  1.00  0.00    -0.317 F  
HETATM   15  C   UNL     1     -10.740  17.553  68.311  1.00  0.00    -0.309 A  
HETATM   16  C   UNL     1     -10.404  17.679  66.976  1.00  0.00    -0.330 A  
HETATM   17  F   UNL     1     -10.075  18.882  66.488  1.00  0.00    -0.326 F  
HETATM   18  C   UNL     1     -10.403  16.575  66.137  1.00  0.00    -0.344 A  
HETATM   19  C   UNL     1     -10.759  15.317  66.642  1.00  0.00    -0.309 A  
ENDBRANCH  10  12
TORSDOF 1
ENDMDL
MODEL       60
REMARK 921   NORMALIZED FREE ENERGY PREDICTED BY IDOCK:   -5.78 KCAL/MOL
REMARK 922        TOTAL FREE ENERGY PREDICTED BY IDOCK:   -6.48 KCAL/MOL
REMARK 923 INTER-LIGAND FREE ENERGY PREDICTED BY IDOCK:   -6.41 KCAL/MOL
REMARK 924 INTRA-LIGAND FREE ENERGY PREDICTED BY IDOCK:   -0.07 KCAL/MOL
REMARK 927      BINDING AFFINITY PREDICTED BY RF-SCORE:    0.00 PKD
ROOT
HETATM    1  O   UNL     1     -12.733  13.778  62.978  1.00  0.00    -0.671 OA 
HETATM    2  C   UNL     1     -11.945  12.845  63.545  1.00  0.00    -0.556 C  
HETATM    3  O   UNL     1     -11.983  11.675  63.184  1.00  0.00    -0.300 OA 
HETATM    4  C   UNL     1     -11.023  13.275  64.635  1.00  0.00    -0.384 A  
HETATM    5  C   UNL     1     -10.172  12.317  65.208  1.00  0.00    -0.278 A  
HETATM    6  O   UNL     1     -10.131  11.004  64.820  1.00  0.00    -0.262 OA 
HETATM    7  C   UNL     1      -9.309  12.663  66.243  1.00  0.00    -0.162 A  
HETATM    8  C   UNL     1      -9.302  13.967  66.744  1.00  0.00    -0.289 A  
HETATM    9  H   UNL     1      -9.555  10.356  65.208  1.00  0.00     0.000 HD 
HETATM   10  C   UNL     1     -10.136  14.964  66.208  1.00  0.00    -0.298 A  
HETATM   11  C   UNL     1     -10.971  14.591  65.130  1.00  0.00    -0.387 A  
ENDROOT
BRANCH  10  12
HETATM   12  C   UNL     1     -10.153  16.346  66.761  1.00  0.00    -0.287 A  
HETATM   13  C   UNL     1     -10.592  17.454  66.004  1.00  0.00    -0.210 A  
HETATM   14  F   UNL     1     -11.034  17.289  64.746  1.00  0.00    -0.377 F  
HETATM   15  C   UNL     1     -10.602  18.752  66.510  1.00  0.00    -0.436 A  
HETATM   16  C   UNL     1     -10.184  18.970  67.810  1.00  0.00    -0.402 A  
HETATM   17  F   UNL     1     -10.192  20.212  68.308  1.00  0.00    -0.512 F  
HETATM   18  C   UNL     1      -9.756  17.915  68.603  1.00  0.00    -0.355 A  
HETATM   19  C   UNL     1      -9.734  16.616  68.081  1.00  0.00    -0.244 A  
ENDBRANCH  10  12
TORSDOF 1
ENDMDL
MODEL       61
REMARK 921   NORMALIZED FREE ENERGY PREDICTED BY IDOCK:   -5.78 KCAL/MOL
REMARK 922        TOTAL FREE ENERGY PREDICTED BY IDOCK:   -6.48 KCAL/MOL
REMARK 923 INTER-LIGAND FREE ENERGY PREDICTED BY IDOCK:   -6.02 KCAL/MOL
REMARK 924 INTRA-LIGAND FREE ENERGY PREDICTED BY IDOCK:   -0.47 KCAL/MOL
REMARK 927      BINDING AFFINITY PREDICTED BY RF-SCORE:    0.00 PKD
ROOT
HETATM    1  O   UNL     1     -12.156  15.982  70.630  1.00  0.00    -0.361 OA 
HETATM    2  C   UNL     1     -12.427  14.837  71.285  1.00  0.00    -0.325 C  
HETATM    3  O   UNL     1     -12.735  14.839  72.471  1.00  0.00    -0.335 OA 
HETATM    4  C   UNL     1     -12.337  13.558  70.525  1.00  0.00    -0.412 A  
HETATM    5  C   UNL     1     -12.653  12.362  71.188  1.00  0.00    -0.251 A  
HETATM    6  O   UNL     1     -13.048  12.297  72.499  1.00  0.00    -0.385 OA 
HETATM    7  C   UNL     1     -12.563  11.139  70.530  1.00  0.00    -0.360 A  
HETATM    8  C   UNL     1     -12.129  11.087  69.203  1.00  0.00    -0.333 A  
HETATM    9  H   UNL     1     -13.261  11.488  72.948  1.00  0.00     0.000 HD 
HETATM   10  C   UNL     1     -11.798  12.255  68.493  1.00  0.00    -0.359 A  
HETATM   11  C   UNL     1     -11.939  13.484  69.178  1.00  0.00    -0.378 A  
ENDROOT
BRANCH  10  12
HETATM   12  C   UNL     1     -11.304  12.200  67.090  1.00  0.00    -0.393 A  
HETATM   13  C   UNL     1     -10.009  11.741  66.765  1.00  0.00    -0.201 A  
HETATM   14  F   UNL     1      -9.175  11.314  67.727  1.00  0.00    -0.146 F  
HETATM   15  C   UNL     1      -9.537  11.696  65.455  1.00  0.00    -0.228 A  
HETATM   16  C   UNL     1     -10.369  12.097  64.426  1.00  0.00    -0.319 A  
HETATM   17  F   UNL     1      -9.926  12.054  63.163  1.00  0.00    -0.403 F  
HETATM   18  C   UNL     1     -11.656  12.542  64.687  1.00  0.00    -0.396 A  
HETATM   19  C   UNL     1     -12.117  12.601  66.008  1.00  0.00    -0.429 A  
ENDBRANCH  10  12
TORSDOF 1
ENDMDL
MODEL       62
REMARK 921   NORMALIZED FREE ENERGY PREDICTED BY IDOCK:   -5.75 KCAL/MOL
REMARK 922        TOTAL FREE ENERGY PREDICTED BY IDOCK:   -6.46 KCAL/MOL
REMARK 923 INTER-LIGAND FREE ENERGY PREDICTED BY IDOCK:   -5.98 KCAL/MOL
REMARK 924 INTRA-LIGAND FREE ENERGY PREDICTED BY IDOCK:   -0.48 KCAL/MOL
REMARK 927      BINDING AFFINITY PREDICTED BY RF-SCORE:    0.00 PKD
ROOT
HETATM    1  O   UNL     1     -13.554   9.346  71.898  1.00  0.00    -0.393 OA 
HETATM    2  C   UNL     1     -12.258   8.981  71.953  1.00  0.00    -0.381 C  
HETATM    3  O   UNL     1     -11.848   8.219  72.821  1.00  0.00    -0.388 OA 
HETATM    4  C   UNL     1     -11.329   9.538  70.929  1.00  0.00    -0.410 A  
HETATM    5  C   UNL     1      -9.985   9.135  70.956  1.00  0.00    -0.297 A  
HETATM    6  O   UNL     1      -9.471   8.252  71.869  1.00  0.00    -0.176 OA 
HETATM    7  C   UNL     1      -9.073   9.643  70.036  1.00  0.00    -0.269 A  
HETATM    8  C   UNL     1      -9.483  10.584  69.088  1.00  0.00    -0.205 A  
HETATM    9  H   UNL     1      -8.561   7.980  71.887  1.00  0.00     0.000 HD 
HETATM   10  C   UNL     1     -10.817  11.022  69.019  1.00  0.00    -0.274 A  
HETATM   11  C   UNL     1     -11.727  10.457  69.941  1.00  0.00    -0.341 A  
ENDROOT
BRANCH  10  12
HETATM   12  C   UNL     1     -11.250  12.048  68.030  1.00  0.00    -0.316 A  
HETATM   13  C   UNL     1     -11.497  13.389  68.396  1.00  0.00    -0.316 A  
HETATM   14  F   UNL     1     -11.328  13.791  69.666  1.00  0.00    -0.282 F  
HETATM   15  C   UNL     1     -11.912  14.352  67.479  1.00  0.00    -0.389 A  
HETATM   16  C   UNL     1     -12.071  13.994  66.154  1.00  0.00    -0.446 A  
HETATM   17  F   UNL     1     -12.466  14.912  65.263  1.00  0.00    -0.263 F  
HETATM   18  C   UNL     1     -11.827  12.694  65.736  1.00  0.00    -0.497 A  
HETATM   19  C   UNL     1     -11.427  11.728  66.668  1.00  0.00    -0.337 A  
ENDBRANCH  10  12
TORSDOF 1
ENDMDL
MODEL       63
REMARK 921   NORMALIZED FREE ENERGY PREDICTED BY IDOCK:   -5.70 KCAL/MOL
REMARK 922        TOTAL FREE ENERGY PREDICTED BY IDOCK:   -6.40 KCAL/MOL
REMARK 923 INTER-LIGAND FREE ENERGY PREDICTED BY IDOCK:   -5.93 KCAL/MOL
REMARK 924 INTRA-LIGAND FREE ENERGY PREDICTED BY IDOCK:   -0.48 KCAL/MOL
REMARK 927      BINDING AFFINITY PREDICTED BY RF-SCORE:    0.00 PKD
ROOT
HETATM    1  O   UNL     1     -10.792  12.412  66.699  1.00  0.00    -0.235 OA 
HETATM    2  C   UNL     1     -11.428  12.464  67.885  1.00  0.00    -0.328 C  
HETATM    3  O   UNL     1     -12.090  11.518  68.295  1.00  0.00    -0.580 OA 
HETATM    4  C   UNL     1     -11.310  13.714  68.689  1.00  0.00    -0.321 A  
HETATM    5  C   UNL     1     -11.939  13.765  69.943  1.00  0.00    -0.347 A  
HETATM    6  O   UNL     1     -12.655  12.727  70.480  1.00  0.00    -0.226 OA 
HETATM    7  C   UNL     1     -11.878  14.916  70.722  1.00  0.00    -0.368 A  
HETATM    8  C   UNL     1     -11.209  16.048  70.249  1.00  0.00    -0.397 A  
HETATM    9  H   UNL     1     -13.080  12.762  71.328  1.00  0.00     0.000 HD 
HETATM   10  C   UNL     1     -10.564  16.051  69.000  1.00  0.00    -0.257 A  
HETATM   11  C   UNL     1     -10.610  14.852  68.251  1.00  0.00    -0.240 A  
ENDROOT
BRANCH  10  12
HETATM   12  C   UNL     1      -9.877  17.265  68.480  1.00  0.00    -0.307 A  
HETATM   13  C   UNL     1      -8.479  17.437  68.573  1.00  0.00    -0.274 A  
HETATM   14  F   UNL     1      -7.710  16.485  69.126  1.00  0.00    -0.217 F  
HETATM   15  C   UNL     1      -7.830  18.575  68.098  1.00  0.00    -0.308 A  
HETATM   16  C   UNL     1      -8.575  19.571  67.494  1.00  0.00    -0.307 A  
HETATM   17  F   UNL     1      -7.962  20.667  67.031  1.00  0.00    -0.348 F  
HETATM   18  C   UNL     1      -9.950  19.447  67.363  1.00  0.00    -0.476 A  
HETATM   19  C   UNL     1     -10.597  18.307  67.858  1.00  0.00    -0.392 A  
ENDBRANCH  10  12
TORSDOF 1
ENDMDL
MODEL       64
REMARK 921   NORMALIZED FREE ENERGY PREDICTED BY IDOCK:   -5.69 KCAL/MOL
REMARK 922        TOTAL FREE ENERGY PREDICTED BY IDOCK:   -6.39 KCAL/MOL
REMARK 923 INTER-LIGAND FREE ENERGY PREDICTED BY IDOCK:   -5.97 KCAL/MOL
REMARK 924 INTRA-LIGAND FREE ENERGY PREDICTED BY IDOCK:   -0.42 KCAL/MOL
REMARK 927      BINDING AFFINITY PREDICTED BY RF-SCORE:    0.00 PKD
ROOT
HETATM    1  O   UNL     1      -9.839   8.361  66.644  1.00  0.00    -0.228 OA 
HETATM    2  C   UNL     1     -10.433   8.490  67.845  1.00  0.00    -0.201 C  
HETATM    3  O   UNL     1     -10.556   7.533  68.601  1.00  0.00    -0.197 OA 
HETATM    4  C   UNL     1     -10.945   9.835  68.233  1.00  0.00    -0.215 A  
HETATM    5  C   UNL     1     -11.534   9.988  69.498  1.00  0.00    -0.120 A  
HETATM    6  O   UNL     1     -11.661   8.972  70.408  1.00  0.00    -0.435 OA 
HETATM    7  C   UNL     1     -12.048  11.218  69.898  1.00  0.00    -0.414 A  
HETATM    8  C   UNL     1     -12.007  12.311  69.029  1.00  0.00    -0.300 A  
HETATM    9  H   UNL     1     -12.059   9.076  71.264  1.00  0.00     0.000 HD 
HETATM   10  C   UNL     1     -11.432  12.211  67.750  1.00  0.00    -0.398 A  
HETATM   11  C   UNL     1     -10.881  10.960  67.390  1.00  0.00    -0.333 A  
ENDROOT
BRANCH  10  12
HETATM   12  C   UNL     1     -11.416  13.366  66.811  1.00  0.00    -0.376 A  
HETATM   13  C   UNL     1     -12.075  13.330  65.563  1.00  0.00    -0.435 A  
HETATM   14  F   UNL     1     -12.764  12.240  65.187  1.00  0.00    -0.487 F  
HETATM   15  C   UNL     1     -12.057  14.402  64.673  1.00  0.00    -0.485 A  
HETATM   16  C   UNL     1     -11.385  15.557  65.027  1.00  0.00    -0.299 A  
HETATM   17  F   UNL     1     -11.364  16.595  64.182  1.00  0.00    -0.463 F  
HETATM   18  C   UNL     1     -10.733  15.653  66.248  1.00  0.00    -0.295 A  
HETATM   19  C   UNL     1     -10.742  14.564  67.129  1.00  0.00    -0.286 A  
ENDBRANCH  10  12
TORSDOF 1
ENDMDL
MODEL       65
REMARK 921   NORMALIZED FREE ENERGY PREDICTED BY IDOCK:   -5.67 KCAL/MOL
REMARK 922        TOTAL FREE ENERGY PREDICTED BY IDOCK:   -6.37 KCAL/MOL
REMARK 923 INTER-LIGAND FREE ENERGY PREDICTED BY IDOCK:   -5.95 KCAL/MOL
REMARK 924 INTRA-LIGAND FREE ENERGY PREDICTED BY IDOCK:   -0.42 KCAL/MOL
REMARK 927      BINDING AFFINITY PREDICTED BY RF-SCORE:    0.00 PKD
ROOT
HETATM    1  O   UNL     1      -8.168  15.915  68.109  1.00  0.00    -0.146 OA 
HETATM    2  C   UNL     1      -8.828  15.789  66.942  1.00  0.00    -0.245 C  
HETATM    3  O   UNL     1      -8.542  16.481  65.971  1.00  0.00    -0.398 OA 
HETATM    4  C   UNL     1      -9.925  14.784  66.862  1.00  0.00    -0.246 A  
HETATM    5  C   UNL     1     -10.595  14.619  65.639  1.00  0.00    -0.332 A  
HETATM    6  O   UNL     1     -10.296  15.326  64.505  1.00  0.00    -0.463 OA 
HETATM    7  C   UNL     1     -11.641  13.710  65.519  1.00  0.00    -0.337 A  
HETATM    8  C   UNL     1     -12.056  12.968  66.627  1.00  0.00    -0.386 A  
HETATM    9  H   UNL     1     -10.749  15.216  63.677  1.00  0.00     0.000 HD 
HETATM   10  C   UNL     1     -11.421  13.096  67.876  1.00  0.00    -0.346 A  
HETATM   11  C   UNL     1     -10.335  13.997  67.954  1.00  0.00    -0.239 A  
ENDROOT
BRANCH  10  12
HETATM   12  C   UNL     1     -11.881  12.329  69.066  1.00  0.00    -0.358 A  
HETATM   13  C   UNL     1     -11.875  10.918  69.101  1.00  0.00    -0.317 A  
HETATM   14  F   UNL     1     -11.428  10.211  68.050  1.00  0.00    -0.330 F  
HETATM   15  C   UNL     1     -12.313  10.193  70.207  1.00  0.00    -0.211 A  
HETATM   16  C   UNL     1     -12.755  10.875  71.325  1.00  0.00    -0.437 A  
HETATM   17  F   UNL     1     -13.175  10.188  72.395  1.00  0.00    -0.500 F  
HETATM   18  C   UNL     1     -12.768  12.261  71.351  1.00  0.00    -0.351 A  
HETATM   19  C   UNL     1     -12.342  12.982  70.228  1.00  0.00    -0.311 A  
ENDBRANCH  10  12
TORSDOF 1
ENDMDL
MODEL       66
REMARK 921   NORMALIZED FREE ENERGY PREDICTED BY IDOCK:   -5.62 KCAL/MOL
REMARK 922        TOTAL FREE ENERGY PREDICTED BY IDOCK:   -6.31 KCAL/MOL
REMARK 923 INTER-LIGAND FREE ENERGY PREDICTED BY IDOCK:   -6.03 KCAL/MOL
REMARK 924 INTRA-LIGAND FREE ENERGY PREDICTED BY IDOCK:   -0.29 KCAL/MOL
REMARK 927      BINDING AFFINITY PREDICTED BY RF-SCORE:    0.00 PKD
ROOT
HETATM    1  O   UNL     1     -12.476   9.699  71.001  1.00  0.00    -0.309 OA 
HETATM    2  C   UNL     1     -11.138   9.554  71.056  1.00  0.00    -0.363 C  
HETATM    3  O   UNL     1     -10.582   9.146  72.069  1.00  0.00    -0.333 OA 
HETATM    4  C   UNL     1     -10.344   9.910  69.845  1.00  0.00    -0.298 A  
HETATM    5  C   UNL     1      -8.952   9.728  69.880  1.00  0.00    -0.229 A  
HETATM    6  O   UNL     1      -8.275   9.233  70.963  1.00  0.00    -0.252 OA 
HETATM    7  C   UNL     1      -8.164  10.066  68.784  1.00  0.00    -0.115 A  
HETATM    8  C   UNL     1      -8.751  10.619  67.643  1.00  0.00    -0.121 A  
HETATM    9  H   UNL     1      -7.333   9.110  70.986  1.00  0.00     0.000 HD 
HETATM   10  C   UNL     1     -10.139  10.825  67.557  1.00  0.00    -0.218 A  
HETATM   11  C   UNL     1     -10.916  10.433  68.671  1.00  0.00    -0.288 A  
ENDROOT
BRANCH  10  12
HETATM   12  C   UNL     1     -10.762  11.443  66.354  1.00  0.00    -0.325 A  
HETATM   13  C   UNL     1     -11.730  12.467  66.451  1.00  0.00    -0.397 A  
HETATM   14  F   UNL     1     -12.110  12.936  67.650  1.00  0.00    -0.392 F  
HETATM   15  C   UNL     1     -12.325  13.044  65.331  1.00  0.00    -0.538 A  
HETATM   16  C   UNL     1     -11.945  12.616  64.072  1.00  0.00    -0.451 A  
HETATM   17  F   UNL     1     -12.508  13.166  62.989  1.00  0.00    -0.559 F  
HETATM   18  C   UNL     1     -10.988  11.623  63.919  1.00  0.00    -0.478 A  
HETATM   19  C   UNL     1     -10.407  11.037  65.051  1.00  0.00    -0.360 A  
ENDBRANCH  10  12
TORSDOF 1
ENDMDL
MODEL       67
REMARK 921   NORMALIZED FREE ENERGY PREDICTED BY IDOCK:   -5.58 KCAL/MOL
REMARK 922        TOTAL FREE ENERGY PREDICTED BY IDOCK:   -6.28 KCAL/MOL
REMARK 923 INTER-LIGAND FREE ENERGY PREDICTED BY IDOCK:   -5.84 KCAL/MOL
REMARK 924 INTRA-LIGAND FREE ENERGY PREDICTED BY IDOCK:   -0.44 KCAL/MOL
REMARK 927      BINDING AFFINITY PREDICTED BY RF-SCORE:    0.00 PKD
ROOT
HETATM    1  O   UNL     1     -12.590  14.074  66.836  1.00  0.00    -0.262 OA 
HETATM    2  C   UNL     1     -12.360  13.776  65.543  1.00  0.00    -0.475 C  
HETATM    3  O   UNL     1     -12.822  14.462  64.639  1.00  0.00    -0.643 OA 
HETATM    4  C   UNL     1     -11.529  12.577  65.237  1.00  0.00    -0.374 A  
HETATM    5  C   UNL     1     -11.254  12.278  63.893  1.00  0.00    -0.421 A  
HETATM    6  O   UNL     1     -11.700  13.029  62.838  1.00  0.00    -0.772 OA 
HETATM    7  C   UNL     1     -10.501  11.158  63.554  1.00  0.00    -0.422 A  
HETATM    8  C   UNL     1     -10.033  10.299  64.552  1.00  0.00    -0.359 A  
HETATM    9  H   UNL     1     -11.514  12.827  61.929  1.00  0.00     0.000 HD 
HETATM   10  C   UNL     1     -10.283  10.551  65.913  1.00  0.00    -0.311 A  
HETATM   11  C   UNL     1     -11.014  11.719  66.226  1.00  0.00    -0.346 A  
ENDROOT
BRANCH  10  12
HETATM   12  C   UNL     1      -9.812   9.621  66.976  1.00  0.00    -0.249 A  
HETATM   13  C   UNL     1      -8.836   9.995  67.926  1.00  0.00    -0.125 A  
HETATM   14  F   UNL     1      -8.308  11.230  67.910  1.00  0.00    -0.117 F  
HETATM   15  C   UNL     1      -8.383   9.128  68.918  1.00  0.00    -0.124 A  
HETATM   16  C   UNL     1      -8.919   7.856  68.993  1.00  0.00    -0.145 A  
HETATM   17  F   UNL     1      -8.494   7.015  69.945  1.00  0.00    -0.131 F  
HETATM   18  C   UNL     1      -9.891   7.441  68.095  1.00  0.00    -0.174 A  
HETATM   19  C   UNL     1     -10.328   8.313  67.091  1.00  0.00    -0.387 A  
ENDBRANCH  10  12
TORSDOF 1
ENDMDL
MODEL       68
REMARK 921   NORMALIZED FREE ENERGY PREDICTED BY IDOCK:   -5.56 KCAL/MOL
REMARK 922        TOTAL FREE ENERGY PREDICTED BY IDOCK:   -6.25 KCAL/MOL
REMARK 923 INTER-LIGAND FREE ENERGY PREDICTED BY IDOCK:   -5.92 KCAL/MOL
REMARK 924 INTRA-LIGAND FREE ENERGY PREDICTED BY IDOCK:   -0.33 KCAL/MOL
REMARK 927      BINDING AFFINITY PREDICTED BY RF-SCORE:    0.00 PKD
ROOT
HETATM    1  O   UNL     1     -12.943  12.699  64.341  1.00  0.00    -0.740 OA 
HETATM    2  C   UNL     1     -12.348  13.907  64.313  1.00  0.00    -0.348 C  
HETATM    3  O   UNL     1     -12.762  14.803  63.587  1.00  0.00    -0.713 OA 
HETATM    4  C   UNL     1     -11.163  14.125  65.189  1.00  0.00    -0.337 A  
HETATM    5  C   UNL     1     -10.558  15.392  65.194  1.00  0.00    -0.434 A  
HETATM    6  O   UNL     1     -10.997  16.450  64.442  1.00  0.00    -1.045 OA 
HETATM    7  C   UNL     1      -9.435  15.640  65.977  1.00  0.00    -0.390 A  
HETATM    8  C   UNL     1      -8.879  14.618  66.750  1.00  0.00    -0.269 A  
HETATM    9  H   UNL     1     -10.588  17.307  64.445  1.00  0.00     0.000 HD 
HETATM   10  C   UNL     1      -9.444  13.331  66.780  1.00  0.00    -0.257 A  
HETATM   11  C   UNL     1     -10.608  13.122  66.005  1.00  0.00    -0.291 A  
ENDROOT
BRANCH  10  12
HETATM   12  C   UNL     1      -8.835  12.231  67.578  1.00  0.00    -0.182 A  
HETATM   13  C   UNL     1      -9.589  11.452  68.483  1.00  0.00    -0.189 A  
HETATM   14  F   UNL     1     -10.904  11.671  68.640  1.00  0.00    -0.186 F  
HETATM   15  C   UNL     1      -9.025  10.427  69.240  1.00  0.00    -0.176 A  
HETATM   16  C   UNL     1      -7.680  10.144  69.092  1.00  0.00    -0.112 A  
HETATM   17  F   UNL     1      -7.128   9.159  69.812  1.00  0.00    -0.052 F  
HETATM   18  C   UNL     1      -6.896  10.868  68.206  1.00  0.00    -0.067 A  
HETATM   19  C   UNL     1      -7.467  11.907  67.460  1.00  0.00    -0.136 A  
ENDBRANCH  10  12
TORSDOF 1
ENDMDL
MODEL       69
REMARK 921   NORMALIZED FREE ENERGY PREDICTED BY IDOCK:   -5.56 KCAL/MOL
REMARK 922        TOTAL FREE ENERGY PREDICTED BY IDOCK:   -6.25 KCAL/MOL
REMARK 923 INTER-LIGAND FREE ENERGY PREDICTED BY IDOCK:   -5.87 KCAL/MOL
REMARK 924 INTRA-LIGAND FREE ENERGY PREDICTED BY IDOCK:   -0.38 KCAL/MOL
REMARK 927      BINDING AFFINITY PREDICTED BY RF-SCORE:    0.00 PKD
ROOT
HETATM    1  O   UNL     1     -13.381  12.348  64.400  1.00  0.00    -0.789 OA 
HETATM    2  C   UNL     1     -12.508  13.282  64.824  1.00  0.00    -0.383 C  
HETATM    3  O   UNL     1     -12.443  14.382  64.288  1.00  0.00    -0.659 OA 
HETATM    4  C   UNL     1     -11.614  12.939  65.966  1.00  0.00    -0.424 A  
HETATM    5  C   UNL     1     -10.726  13.919  66.439  1.00  0.00    -0.281 A  
HETATM    6  O   UNL     1     -10.635  15.181  65.915  1.00  0.00    -0.305 OA 
HETATM    7  C   UNL     1      -9.855  13.641  67.488  1.00  0.00    -0.227 A  
HETATM    8  C   UNL     1      -9.837  12.369  68.066  1.00  0.00    -0.205 A  
HETATM    9  H   UNL     1     -10.034  15.844  66.235  1.00  0.00     0.000 HD 
HETATM   10  C   UNL     1     -10.703  11.352  67.629  1.00  0.00    -0.261 A  
HETATM   11  C   UNL     1     -11.604  11.678  66.589  1.00  0.00    -0.194 A  
ENDROOT
BRANCH  10  12
HETATM   12  C   UNL     1     -10.663   9.987  68.222  1.00  0.00    -0.280 A  
HETATM   13  C   UNL     1     -10.464   8.830  67.437  1.00  0.00    -0.279 A  
HETATM   14  F   UNL     1     -10.282   8.930  66.110  1.00  0.00    -0.367 F  
HETATM   15  C   UNL     1     -10.435   7.549  67.982  1.00  0.00    -0.253 A  
HETATM   16  C   UNL     1     -10.588   7.396  69.348  1.00  0.00    -0.226 A  
HETATM   17  F   UNL     1     -10.559   6.170  69.884  1.00  0.00    -0.227 F  
HETATM   18  C   UNL     1     -10.772   8.499  70.169  1.00  0.00    -0.240 A  
HETATM   19  C   UNL     1     -10.817   9.783  69.610  1.00  0.00    -0.274 A  
ENDBRANCH  10  12
TORSDOF 1
ENDMDL
MODEL       70
REMARK 921   NORMALIZED FREE ENERGY PREDICTED BY IDOCK:   -5.51 KCAL/MOL
REMARK 922        TOTAL FREE ENERGY PREDICTED BY IDOCK:   -6.20 KCAL/MOL
REMARK 923 INTER-LIGAND FREE ENERGY PREDICTED BY IDOCK:   -5.76 KCAL/MOL
REMARK 924 INTRA-LIGAND FREE ENERGY PREDICTED BY IDOCK:   -0.44 KCAL/MOL
REMARK 927      BINDING AFFINITY PREDICTED BY RF-SCORE:    0.00 PKD
ROOT
HETATM    1  O   UNL     1     -11.270  16.799  64.250  1.00  0.00    -1.163 OA 
HETATM    2  C   UNL     1     -10.891  17.421  65.383  1.00  0.00     0.020 C  
HETATM    3  O   UNL     1     -10.701  18.631  65.413  1.00  0.00    -0.572 OA 
HETATM    4  C   UNL     1     -10.704  16.592  66.608  1.00  0.00    -0.150 A  
HETATM    5  C   UNL     1     -10.345  17.235  67.803  1.00  0.00    -0.356 A  
HETATM    6  O   UNL     1     -10.162  18.588  67.916  1.00  0.00    -0.347 OA 
HETATM    7  C   UNL     1     -10.136  16.503  68.968  1.00  0.00    -0.279 A  
HETATM    8  C   UNL     1     -10.255  15.111  68.953  1.00  0.00    -0.236 A  
HETATM    9  H   UNL     1      -9.919  19.023  68.724  1.00  0.00     0.000 HD 
HETATM   10  C   UNL     1     -10.610  14.418  67.782  1.00  0.00    -0.246 A  
HETATM   11  C   UNL     1     -10.856  15.193  66.626  1.00  0.00    -0.318 A  
ENDROOT
BRANCH  10  12
HETATM   12  C   UNL     1     -10.706  12.932  67.756  1.00  0.00    -0.238 A  
HETATM   13  C   UNL     1      -9.832  12.135  66.986  1.00  0.00    -0.203 A  
HETATM   14  F   UNL     1      -8.857  12.701  66.257  1.00  0.00    -0.169 F  
HETATM   15  C   UNL     1      -9.921  10.745  66.948  1.00  0.00    -0.240 A  
HETATM   16  C   UNL     1     -10.890  10.113  67.706  1.00  0.00    -0.292 A  
HETATM   17  F   UNL     1     -10.984   8.778  67.680  1.00  0.00    -0.282 F  
HETATM   18  C   UNL     1     -11.766  10.847  68.492  1.00  0.00    -0.307 A  
HETATM   19  C   UNL     1     -11.680  12.245  68.511  1.00  0.00    -0.381 A  
ENDBRANCH  10  12
TORSDOF 1
ENDMDL
MODEL       71
REMARK 921   NORMALIZED FREE ENERGY PREDICTED BY IDOCK:   -5.50 KCAL/MOL
REMARK 922        TOTAL FREE ENERGY PREDICTED BY IDOCK:   -6.18 KCAL/MOL
REMARK 923 INTER-LIGAND FREE ENERGY PREDICTED BY IDOCK:   -5.95 KCAL/MOL
REMARK 924 INTRA-LIGAND FREE ENERGY PREDICTED BY IDOCK:   -0.23 KCAL/MOL
REMARK 927      BINDING AFFINITY PREDICTED BY RF-SCORE:    0.00 PKD
ROOT
HETATM    1  O   UNL     1     -11.641  11.800  63.955  1.00  0.00    -0.390 OA 
HETATM    2  C   UNL     1     -11.825  13.128  63.829  1.00  0.00    -0.486 C  
HETATM    3  O   UNL     1     -12.601  13.587  62.999  1.00  0.00    -0.716 OA 
HETATM    4  C   UNL     1     -11.051  14.031  64.727  1.00  0.00    -0.391 A  
HETATM    5  C   UNL     1     -11.263  15.415  64.628  1.00  0.00    -0.364 A  
HETATM    6  O   UNL     1     -12.148  15.991  63.756  1.00  0.00    -1.318 OA 
HETATM    7  C   UNL     1     -10.548  16.302  65.428  1.00  0.00    -0.371 A  
HETATM    8  C   UNL     1      -9.588  15.822  66.323  1.00  0.00    -0.343 A  
HETATM    9  H   UNL     1     -12.291  16.928  63.688  1.00  0.00     0.000 HD 
HETATM   10  C   UNL     1      -9.336  14.445  66.459  1.00  0.00    -0.300 A  
HETATM   11  C   UNL     1     -10.107  13.569  65.662  1.00  0.00    -0.292 A  
ENDROOT
BRANCH  10  12
HETATM   12  C   UNL     1      -8.292  13.933  67.389  1.00  0.00    -0.208 A  
HETATM   13  C   UNL     1      -8.490  12.783  68.183  1.00  0.00    -0.177 A  
HETATM   14  F   UNL     1      -9.639  12.092  68.108  1.00  0.00    -0.174 F  
HETATM   15  C   UNL     1      -7.522  12.302  69.063  1.00  0.00     0.058 A  
HETATM   16  C   UNL     1      -6.310  12.962  69.154  1.00  0.00    -0.105 A  
HETATM   17  F   UNL     1      -5.371  12.508  69.993  1.00  0.00    -0.076 F  
HETATM   18  C   UNL     1      -6.057  14.089  68.386  1.00  0.00    -0.100 A  
HETATM   19  C   UNL     1      -7.042  14.575  67.516  1.00  0.00    -0.199 A  
ENDBRANCH  10  12
TORSDOF 1
ENDMDL
MODEL       72
REMARK 921   NORMALIZED FREE ENERGY PREDICTED BY IDOCK:   -5.47 KCAL/MOL
REMARK 922        TOTAL FREE ENERGY PREDICTED BY IDOCK:   -6.16 KCAL/MOL
REMARK 923 INTER-LIGAND FREE ENERGY PREDICTED BY IDOCK:   -5.69 KCAL/MOL
REMARK 924 INTRA-LIGAND FREE ENERGY PREDICTED BY IDOCK:   -0.47 KCAL/MOL
REMARK 927      BINDING AFFINITY PREDICTED BY RF-SCORE:    0.00 PKD
ROOT
HETATM    1  O   UNL     1      -9.981   8.313  68.323  1.00  0.00    -0.177 OA 
HETATM    2  C   UNL     1     -10.655   8.677  69.430  1.00  0.00    -0.199 C  
HETATM    3  O   UNL     1     -10.871   7.880  70.335  1.00  0.00    -0.238 OA 
HETATM    4  C   UNL     1     -11.139  10.084  69.526  1.00  0.00    -0.279 A  
HETATM    5  C   UNL     1     -11.810  10.483  70.692  1.00  0.00    -0.360 A  
HETATM    6  O   UNL     1     -12.045   9.655  71.758  1.00  0.00    -0.378 OA 
HETATM    7  C   UNL     1     -12.302  11.778  70.820  1.00  0.00    -0.433 A  
HETATM    8  C   UNL     1     -12.155  12.692  69.773  1.00  0.00    -0.301 A  
HETATM    9  H   UNL     1     -12.499   9.925  72.547  1.00  0.00     0.000 HD 
HETATM   10  C   UNL     1     -11.492  12.343  68.583  1.00  0.00    -0.348 A  
HETATM   11  C   UNL     1     -10.969  11.032  68.500  1.00  0.00    -0.276 A  
ENDROOT
BRANCH  10  12
HETATM   12  C   UNL     1     -11.362  13.304  67.454  1.00  0.00    -0.337 A  
HETATM   13  C   UNL     1     -10.465  14.394  67.493  1.00  0.00    -0.252 A  
HETATM   14  F   UNL     1      -9.675  14.589  68.561  1.00  0.00    -0.198 F  
HETATM   15  C   UNL     1     -10.344  15.303  66.444  1.00  0.00    -0.296 A  
HETATM   16  C   UNL     1     -11.114  15.128  65.310  1.00  0.00    -0.383 A  
HETATM   17  F   UNL     1     -11.004  15.993  64.295  1.00  0.00    -0.391 F  
HETATM   18  C   UNL     1     -12.001  14.065  65.212  1.00  0.00    -0.384 A  
HETATM   19  C   UNL     1     -12.129  13.165  66.278  1.00  0.00    -0.460 A  
ENDBRANCH  10  12
TORSDOF 1
ENDMDL
MODEL       73
REMARK 921   NORMALIZED FREE ENERGY PREDICTED BY IDOCK:   -5.46 KCAL/MOL
REMARK 922        TOTAL FREE ENERGY PREDICTED BY IDOCK:   -6.14 KCAL/MOL
REMARK 923 INTER-LIGAND FREE ENERGY PREDICTED BY IDOCK:   -5.90 KCAL/MOL
REMARK 924 INTRA-LIGAND FREE ENERGY PREDICTED BY IDOCK:   -0.24 KCAL/MOL
REMARK 927      BINDING AFFINITY PREDICTED BY RF-SCORE:    0.00 PKD
ROOT
HETATM    1  O   UNL     1     -11.125  19.459  67.277  1.00  0.00    -0.458 OA 
HETATM    2  C   UNL     1      -9.983  18.999  66.731  1.00  0.00    -0.360 C  
HETATM    3  O   UNL     1      -9.318  19.691  65.969  1.00  0.00    -0.364 OA 
HETATM    4  C   UNL     1      -9.550  17.615  67.076  1.00  0.00    -0.276 A  
HETATM    5  C   UNL     1      -8.342  17.140  66.541  1.00  0.00    -0.274 A  
HETATM    6  O   UNL     1      -7.528  17.876  65.721  1.00  0.00    -0.520 OA 
HETATM    7  C   UNL     1      -7.905  15.847  66.814  1.00  0.00    -0.273 A  
HETATM    8  C   UNL     1      -8.681  14.996  67.605  1.00  0.00    -0.182 A  
HETATM    9  H   UNL     1      -6.712  17.554  65.359  1.00  0.00     0.000 HD 
HETATM   10  C   UNL     1      -9.899  15.422  68.163  1.00  0.00    -0.213 A  
HETATM   11  C   UNL     1     -10.295  16.754  67.901  1.00  0.00    -0.319 A  
ENDROOT
BRANCH  10  12
HETATM   12  C   UNL     1     -10.743  14.507  68.980  1.00  0.00    -0.258 A  
HETATM   13  C   UNL     1     -11.393  14.935  70.159  1.00  0.00    -0.260 A  
HETATM   14  F   UNL     1     -11.282  16.207  70.575  1.00  0.00    -0.312 F  
HETATM   15  C   UNL     1     -12.176  14.083  70.935  1.00  0.00    -0.436 A  
HETATM   16  C   UNL     1     -12.344  12.771  70.531  1.00  0.00    -0.275 A  
HETATM   17  F   UNL     1     -13.098  11.945  71.267  1.00  0.00    -0.436 F  
HETATM   18  C   UNL     1     -11.741  12.303  69.374  1.00  0.00    -0.392 A  
HETATM   19  C   UNL     1     -10.942  13.161  68.609  1.00  0.00    -0.296 A  
ENDBRANCH  10  12
TORSDOF 1
ENDMDL
MODEL       74
REMARK 921   NORMALIZED FREE ENERGY PREDICTED BY IDOCK:   -5.44 KCAL/MOL
REMARK 922        TOTAL FREE ENERGY PREDICTED BY IDOCK:   -6.12 KCAL/MOL
REMARK 923 INTER-LIGAND FREE ENERGY PREDICTED BY IDOCK:   -5.64 KCAL/MOL
REMARK 924 INTRA-LIGAND FREE ENERGY PREDICTED BY IDOCK:   -0.48 KCAL/MOL
REMARK 927      BINDING AFFINITY PREDICTED BY RF-SCORE:    0.00 PKD
ROOT
HETATM    1  O   UNL     1     -11.772  13.383  63.789  1.00  0.00    -0.418 OA 
HETATM    2  C   UNL     1     -11.086  12.649  64.685  1.00  0.00    -0.313 C  
HETATM    3  O   UNL     1     -11.118  11.424  64.663  1.00  0.00    -0.290 OA 
HETATM    4  C   UNL     1     -10.286  13.369  65.716  1.00  0.00    -0.300 A  
HETATM    5  C   UNL     1      -9.538  12.613  66.633  1.00  0.00    -0.249 A  
HETATM    6  O   UNL     1      -9.493  11.244  66.634  1.00  0.00    -0.179 OA 
HETATM    7  C   UNL     1      -8.793  13.238  67.628  1.00  0.00    -0.200 A  
HETATM    8  C   UNL     1      -8.803  14.630  67.742  1.00  0.00    -0.177 A  
HETATM    9  H   UNL     1      -8.988  10.732  67.254  1.00  0.00     0.000 HD 
HETATM   10  C   UNL     1      -9.536  15.434  66.852  1.00  0.00    -0.239 A  
HETATM   11  C   UNL     1     -10.250  14.771  65.827  1.00  0.00    -0.359 A  
ENDROOT
BRANCH  10  12
HETATM   12  C   UNL     1      -9.574  16.916  66.991  1.00  0.00    -0.252 A  
HETATM   13  C   UNL     1     -10.570  17.576  67.743  1.00  0.00    -0.375 A  
HETATM   14  F   UNL     1     -11.519  16.874  68.383  1.00  0.00    -0.309 F  
HETATM   15  C   UNL     1     -10.618  18.963  67.870  1.00  0.00    -0.425 A  
HETATM   16  C   UNL     1      -9.646  19.728  67.254  1.00  0.00    -0.359 A  
HETATM   17  F   UNL     1      -9.680  21.061  67.373  1.00  0.00    -0.607 F  
HETATM   18  C   UNL     1      -8.635  19.131  66.515  1.00  0.00    -0.330 A  
HETATM   19  C   UNL     1      -8.604  17.737  66.379  1.00  0.00    -0.260 A  
ENDBRANCH  10  12
TORSDOF 1
ENDMDL
MODEL       75
REMARK 921   NORMALIZED FREE ENERGY PREDICTED BY IDOCK:   -5.44 KCAL/MOL
REMARK 922        TOTAL FREE ENERGY PREDICTED BY IDOCK:   -6.12 KCAL/MOL
REMARK 923 INTER-LIGAND FREE ENERGY PREDICTED BY IDOCK:   -5.64 KCAL/MOL
REMARK 924 INTRA-LIGAND FREE ENERGY PREDICTED BY IDOCK:   -0.48 KCAL/MOL
REMARK 927      BINDING AFFINITY PREDICTED BY RF-SCORE:    0.00 PKD
ROOT
HETATM    1  O   UNL     1     -10.812   8.706  69.510  1.00  0.00    -0.215 OA 
HETATM    2  C   UNL     1     -11.686   9.221  70.396  1.00  0.00    -0.114 C  
HETATM    3  O   UNL     1     -12.281   8.505  71.193  1.00  0.00    -0.292 OA 
HETATM    4  C   UNL     1     -11.917  10.693  70.378  1.00  0.00    -0.436 A  
HETATM    5  C   UNL     1     -12.799  11.244  71.321  1.00  0.00    -0.389 A  
HETATM    6  O   UNL     1     -13.460  10.507  72.268  1.00  0.00    -0.588 OA 
HETATM    7  C   UNL     1     -13.065  12.609  71.331  1.00  0.00    -0.308 A  
HETATM    8  C   UNL     1     -12.476  13.446  70.381  1.00  0.00    -0.322 A  
HETATM    9  H   UNL     1     -14.057  10.880  72.906  1.00  0.00     0.000 HD 
HETATM   10  C   UNL     1     -11.588  12.946  69.413  1.00  0.00    -0.363 A  
HETATM   11  C   UNL     1     -11.305  11.561  69.455  1.00  0.00    -0.355 A  
ENDROOT
BRANCH  10  12
HETATM   12  C   UNL     1     -10.983  13.830  68.379  1.00  0.00    -0.275 A  
HETATM   13  C   UNL     1     -11.529  13.955  67.083  1.00  0.00    -0.347 A  
HETATM   14  F   UNL     1     -12.641  13.283  66.743  1.00  0.00    -0.335 F  
HETATM   15  C   UNL     1     -10.964  14.773  66.106  1.00  0.00    -0.332 A  
HETATM   16  C   UNL     1      -9.835  15.508  66.417  1.00  0.00    -0.278 A  
HETATM   17  F   UNL     1      -9.285  16.300  65.488  1.00  0.00    -0.283 F  
HETATM   18  C   UNL     1      -9.266  15.435  67.679  1.00  0.00    -0.187 A  
HETATM   19  C   UNL     1      -9.830  14.597  68.650  1.00  0.00    -0.224 A  
ENDBRANCH  10  12
TORSDOF 1
ENDMDL
MODEL       76
REMARK 921   NORMALIZED FREE ENERGY PREDICTED BY IDOCK:   -5.42 KCAL/MOL
REMARK 922        TOTAL FREE ENERGY PREDICTED BY IDOCK:   -6.10 KCAL/MOL
REMARK 923 INTER-LIGAND FREE ENERGY PREDICTED BY IDOCK:   -5.68 KCAL/MOL
REMARK 924 INTRA-LIGAND FREE ENERGY PREDICTED BY IDOCK:   -0.42 KCAL/MOL
REMARK 927      BINDING AFFINITY PREDICTED BY RF-SCORE:    0.00 PKD
ROOT
HETATM    1  O   UNL     1     -11.254   6.287  67.555  1.00  0.00    -0.328 OA 
HETATM    2  C   UNL     1     -10.552   6.864  68.550  1.00  0.00    -0.212 C  
HETATM    3  O   UNL     1     -10.191   6.223  69.529  1.00  0.00    -0.173 OA 
HETATM    4  C   UNL     1     -10.229   8.314  68.429  1.00  0.00    -0.242 A  
HETATM    5  C   UNL     1      -9.467   8.916  69.442  1.00  0.00    -0.161 A  
HETATM    6  O   UNL     1      -8.993   8.248  70.540  1.00  0.00    -0.141 OA 
HETATM    7  C   UNL     1      -9.157  10.272  69.388  1.00  0.00    -0.203 A  
HETATM    8  C   UNL     1      -9.628  11.057  68.332  1.00  0.00    -0.181 A  
HETATM    9  H   UNL     1      -8.478   8.655  71.226  1.00  0.00     0.000 HD 
HETATM   10  C   UNL     1     -10.397  10.504  67.293  1.00  0.00    -0.275 A  
HETATM   11  C   UNL     1     -10.659   9.116  67.356  1.00  0.00    -0.315 A  
ENDROOT
BRANCH  10  12
HETATM   12  C   UNL     1     -10.926  11.344  66.183  1.00  0.00    -0.294 A  
HETATM   13  C   UNL     1     -11.844  12.393  66.406  1.00  0.00    -0.354 A  
HETATM   14  F   UNL     1     -12.262  12.682  67.649  1.00  0.00    -0.387 F  
HETATM   15  C   UNL     1     -12.352  13.177  65.372  1.00  0.00    -0.532 A  
HETATM   16  C   UNL     1     -11.929  12.938  64.077  1.00  0.00    -0.451 A  
HETATM   17  F   UNL     1     -12.407  13.688  63.077  1.00  0.00    -0.565 F  
HETATM   18  C   UNL     1     -11.016  11.930  63.804  1.00  0.00    -0.494 A  
HETATM   19  C   UNL     1     -10.524  11.135  64.847  1.00  0.00    -0.372 A  
ENDBRANCH  10  12
TORSDOF 1
ENDMDL
MODEL       77
REMARK 921   NORMALIZED FREE ENERGY PREDICTED BY IDOCK:   -5.41 KCAL/MOL
REMARK 922        TOTAL FREE ENERGY PREDICTED BY IDOCK:   -6.09 KCAL/MOL
REMARK 923 INTER-LIGAND FREE ENERGY PREDICTED BY IDOCK:   -5.87 KCAL/MOL
REMARK 924 INTRA-LIGAND FREE ENERGY PREDICTED BY IDOCK:   -0.22 KCAL/MOL
REMARK 927      BINDING AFFINITY PREDICTED BY RF-SCORE:    0.00 PKD
ROOT
HETATM    1  O   UNL     1     -14.045  13.908  72.888  1.00  0.00    -0.573 OA 
HETATM    2  C   UNL     1     -13.610  14.555  71.790  1.00  0.00    -0.391 C  
HETATM    3  O   UNL     1     -13.926  15.718  71.569  1.00  0.00    -0.485 OA 
HETATM    4  C   UNL     1     -12.733  13.812  70.840  1.00  0.00    -0.394 A  
HETATM    5  C   UNL     1     -12.245  14.489  69.711  1.00  0.00    -0.312 A  
HETATM    6  O   UNL     1     -12.522  15.801  69.429  1.00  0.00    -0.540 OA 
HETATM    7  C   UNL     1     -11.442  13.834  68.783  1.00  0.00    -0.338 A  
HETATM    8  C   UNL     1     -11.134  12.482  68.952  1.00  0.00    -0.309 A  
HETATM    9  H   UNL     1     -12.192  16.258  68.665  1.00  0.00     0.000 HD 
HETATM   10  C   UNL     1     -11.599  11.757  70.064  1.00  0.00    -0.318 A  
HETATM   11  C   UNL     1     -12.378  12.462  71.010  1.00  0.00    -0.309 A  
ENDROOT
BRANCH  10  12
HETATM   12  C   UNL     1     -11.298  10.308  70.231  1.00  0.00    -0.398 A  
HETATM   13  C   UNL     1     -10.046   9.755  69.884  1.00  0.00    -0.251 A  
HETATM   14  F   UNL     1      -9.065  10.535  69.403  1.00  0.00    -0.188 F  
HETATM   15  C   UNL     1      -9.761   8.398  70.028  1.00  0.00    -0.176 A  
HETATM   16  C   UNL     1     -10.728   7.559  70.547  1.00  0.00    -0.235 A  
HETATM   17  F   UNL     1     -10.464   6.255  70.693  1.00  0.00    -0.223 F  
HETATM   18  C   UNL     1     -11.970   8.053  70.918  1.00  0.00    -0.201 A  
HETATM   19  C   UNL     1     -12.255   9.414  70.755  1.00  0.00    -0.228 A  
ENDBRANCH  10  12
TORSDOF 1
ENDMDL
MODEL       78
REMARK 921   NORMALIZED FREE ENERGY PREDICTED BY IDOCK:   -5.41 KCAL/MOL
REMARK 922        TOTAL FREE ENERGY PREDICTED BY IDOCK:   -6.09 KCAL/MOL
REMARK 923 INTER-LIGAND FREE ENERGY PREDICTED BY IDOCK:   -5.65 KCAL/MOL
REMARK 924 INTRA-LIGAND FREE ENERGY PREDICTED BY IDOCK:   -0.44 KCAL/MOL
REMARK 927      BINDING AFFINITY PREDICTED BY RF-SCORE:    0.00 PKD
ROOT
HETATM    1  O   UNL     1      -7.823  15.100  67.696  1.00  0.00    -0.133 OA 
HETATM    2  C   UNL     1      -8.708  15.009  66.685  1.00  0.00    -0.254 C  
HETATM    3  O   UNL     1      -8.672  15.785  65.737  1.00  0.00    -0.151 OA 
HETATM    4  C   UNL     1      -9.742  13.938  66.753  1.00  0.00    -0.282 A  
HETATM    5  C   UNL     1     -10.646  13.813  65.686  1.00  0.00    -0.298 A  
HETATM    6  O   UNL     1     -10.633  14.615  64.576  1.00  0.00    -0.594 OA 
HETATM    7  C   UNL     1     -11.645  12.844  65.711  1.00  0.00    -0.411 A  
HETATM    8  C   UNL     1     -11.774  11.999  66.817  1.00  0.00    -0.339 A  
HETATM    9  H   UNL     1     -11.245  14.531  63.855  1.00  0.00     0.000 HD 
HETATM   10  C   UNL     1     -10.897  12.084  67.912  1.00  0.00    -0.254 A  
HETATM   11  C   UNL     1      -9.868  13.052  67.838  1.00  0.00    -0.224 A  
ENDROOT
BRANCH  10  12
HETATM   12  C   UNL     1     -11.052  11.207  69.105  1.00  0.00    -0.306 A  
HETATM   13  C   UNL     1     -10.101  10.219  69.442  1.00  0.00    -0.235 A  
HETATM   14  F   UNL     1      -8.999  10.051  68.695  1.00  0.00    -0.121 F  
HETATM   15  C   UNL     1     -10.244   9.388  70.551  1.00  0.00    -0.332 A  
HETATM   16  C   UNL     1     -11.348   9.543  71.369  1.00  0.00    -0.392 A  
HETATM   17  F   UNL     1     -11.494   8.752  72.440  1.00  0.00    -0.422 F  
HETATM   18  C   UNL     1     -12.306  10.508  71.094  1.00  0.00    -0.510 A  
HETATM   19  C   UNL     1     -12.163  11.328  69.967  1.00  0.00    -0.389 A  
ENDBRANCH  10  12
TORSDOF 1
ENDMDL
MODEL       79
REMARK 921   NORMALIZED FREE ENERGY PREDICTED BY IDOCK:   -5.38 KCAL/MOL
REMARK 922        TOTAL FREE ENERGY PREDICTED BY IDOCK:   -6.06 KCAL/MOL
REMARK 923 INTER-LIGAND FREE ENERGY PREDICTED BY IDOCK:   -5.97 KCAL/MOL
REMARK 924 INTRA-LIGAND FREE ENERGY PREDICTED BY IDOCK:   -0.08 KCAL/MOL
REMARK 927      BINDING AFFINITY PREDICTED BY RF-SCORE:    0.00 PKD
ROOT
HETATM    1  O   UNL     1     -10.006   7.433  68.389  1.00  0.00    -0.155 OA 
HETATM    2  C   UNL     1      -9.930   8.161  67.259  1.00  0.00    -0.218 C  
HETATM    3  O   UNL     1      -9.410   7.711  66.245  1.00  0.00    -0.176 OA 
HETATM    4  C   UNL     1     -10.496   9.540  67.275  1.00  0.00    -0.328 A  
HETATM    5  C   UNL     1     -10.454  10.294  66.092  1.00  0.00    -0.130 A  
HETATM    6  O   UNL     1      -9.929   9.835  64.913  1.00  0.00    -0.412 OA 
HETATM    7  C   UNL     1     -10.948  11.595  66.061  1.00  0.00    -0.338 A  
HETATM    8  C   UNL     1     -11.468  12.176  67.220  1.00  0.00    -0.413 A  
HETATM    9  H   UNL     1      -9.901  10.345  64.112  1.00  0.00     0.000 HD 
HETATM   10  C   UNL     1     -11.530  11.465  68.432  1.00  0.00    -0.367 A  
HETATM   11  C   UNL     1     -11.058  10.133  68.421  1.00  0.00    -0.273 A  
ENDROOT
BRANCH  10  12
HETATM   12  C   UNL     1     -12.054  12.093  69.677  1.00  0.00    -0.283 A  
HETATM   13  C   UNL     1     -12.047  13.491  69.875  1.00  0.00    -0.341 A  
HETATM   14  F   UNL     1     -11.577  14.313  68.923  1.00  0.00    -0.262 F  
HETATM   15  C   UNL     1     -12.526  14.085  71.041  1.00  0.00    -0.444 A  
HETATM   16  C   UNL     1     -13.048  13.282  72.039  1.00  0.00    -0.377 A  
HETATM   17  F   UNL     1     -13.514  13.843  73.162  1.00  0.00    -0.557 F  
HETATM   18  C   UNL     1     -13.093  11.904  71.890  1.00  0.00    -0.474 A  
HETATM   19  C   UNL     1     -12.593  11.314  70.722  1.00  0.00    -0.425 A  
ENDBRANCH  10  12
TORSDOF 1
ENDMDL
MODEL       80
REMARK 921   NORMALIZED FREE ENERGY PREDICTED BY IDOCK:   -5.32 KCAL/MOL
REMARK 922        TOTAL FREE ENERGY PREDICTED BY IDOCK:   -6.00 KCAL/MOL
REMARK 923 INTER-LIGAND FREE ENERGY PREDICTED BY IDOCK:   -5.79 KCAL/MOL
REMARK 924 INTRA-LIGAND FREE ENERGY PREDICTED BY IDOCK:   -0.21 KCAL/MOL
REMARK 927      BINDING AFFINITY PREDICTED BY RF-SCORE:    0.00 PKD
ROOT
HETATM    1  O   UNL     1     -12.116  13.733  68.500  1.00  0.00    -0.363 OA 
HETATM    2  C   UNL     1     -11.504  13.765  67.302  1.00  0.00    -0.341 C  
HETATM    3  O   UNL     1     -11.465  14.792  66.634  1.00  0.00    -0.355 OA 
HETATM    4  C   UNL     1     -10.875  12.510  66.802  1.00  0.00    -0.281 A  
HETATM    5  C   UNL     1     -10.202  12.543  65.570  1.00  0.00    -0.275 A  
HETATM    6  O   UNL     1     -10.083  13.667  64.796  1.00  0.00    -0.574 OA 
HETATM    7  C   UNL     1      -9.618  11.392  65.049  1.00  0.00    -0.250 A  
HETATM    8  C   UNL     1      -9.719  10.181  65.738  1.00  0.00    -0.307 A  
HETATM    9  H   UNL     1      -9.628  13.689  63.962  1.00  0.00     0.000 HD 
HETATM   10  C   UNL     1     -10.383  10.093  66.974  1.00  0.00    -0.303 A  
HETATM   11  C   UNL     1     -10.930  11.287  67.496  1.00  0.00    -0.319 A  
ENDROOT
BRANCH  10  12
HETATM   12  C   UNL     1     -10.519   8.797  67.695  1.00  0.00    -0.310 A  
HETATM   13  C   UNL     1     -10.424   8.704  69.100  1.00  0.00    -0.211 A  
HETATM   14  F   UNL     1     -10.224   9.804  69.845  1.00  0.00    -0.207 F  
HETATM   15  C   UNL     1     -10.540   7.494  69.782  1.00  0.00    -0.245 A  
HETATM   16  C   UNL     1     -10.777   6.338  69.062  1.00  0.00    -0.302 A  
HETATM   17  F   UNL     1     -10.894   5.170  69.706  1.00  0.00    -0.356 F  
HETATM   18  C   UNL     1     -10.893   6.374  67.680  1.00  0.00    -0.425 A  
HETATM   19  C   UNL     1     -10.758   7.592  67.002  1.00  0.00    -0.367 A  
ENDBRANCH  10  12
TORSDOF 1
ENDMDL
MODEL       81
REMARK 921   NORMALIZED FREE ENERGY PREDICTED BY IDOCK:   -5.31 KCAL/MOL
REMARK 922        TOTAL FREE ENERGY PREDICTED BY IDOCK:   -5.98 KCAL/MOL
REMARK 923 INTER-LIGAND FREE ENERGY PREDICTED BY IDOCK:   -5.62 KCAL/MOL
REMARK 924 INTRA-LIGAND FREE ENERGY PREDICTED BY IDOCK:   -0.36 KCAL/MOL
REMARK 927      BINDING AFFINITY PREDICTED BY RF-SCORE:    0.00 PKD
ROOT
HETATM    1  O   UNL     1      -8.463  16.629  67.972  1.00  0.00    -0.184 OA 
HETATM    2  C   UNL     1      -9.331  17.065  67.039  1.00  0.00    -0.241 C  
HETATM    3  O   UNL     1      -9.600  18.255  66.925  1.00  0.00    -0.276 OA 
HETATM    4  C   UNL     1      -9.964  16.054  66.145  1.00  0.00    -0.347 A  
HETATM    5  C   UNL     1     -10.843  16.502  65.145  1.00  0.00    -0.233 A  
HETATM    6  O   UNL     1     -11.151  17.820  64.935  1.00  0.00    -0.821 OA 
HETATM    7  C   UNL     1     -11.477  15.597  64.300  1.00  0.00    -0.199 A  
HETATM    8  C   UNL     1     -11.266  14.224  64.456  1.00  0.00    -0.331 A  
HETATM    9  H   UNL     1     -11.745  18.123  64.259  1.00  0.00     0.000 HD 
HETATM   10  C   UNL     1     -10.398  13.723  65.443  1.00  0.00    -0.347 A  
HETATM   11  C   UNL     1      -9.737  14.670  66.258  1.00  0.00    -0.329 A  
ENDROOT
BRANCH  10  12
HETATM   12  C   UNL     1     -10.196  12.260  65.632  1.00  0.00    -0.287 A  
HETATM   13  C   UNL     1      -9.810  11.411  64.572  1.00  0.00    -0.260 A  
HETATM   14  F   UNL     1      -9.592  11.908  63.344  1.00  0.00    -0.317 F  
HETATM   15  C   UNL     1      -9.628  10.039  64.739  1.00  0.00    -0.374 A  
HETATM   16  C   UNL     1      -9.812   9.484  65.991  1.00  0.00    -0.283 A  
HETATM   17  F   UNL     1      -9.636   8.168  66.164  1.00  0.00    -0.254 F  
HETATM   18  C   UNL     1     -10.176  10.275  67.071  1.00  0.00    -0.282 A  
HETATM   19  C   UNL     1     -10.373  11.650  66.891  1.00  0.00    -0.253 A  
ENDBRANCH  10  12
TORSDOF 1
ENDMDL
MODEL       82
REMARK 921   NORMALIZED FREE ENERGY PREDICTED BY IDOCK:   -5.30 KCAL/MOL
REMARK 922        TOTAL FREE ENERGY PREDICTED BY IDOCK:   -5.97 KCAL/MOL
REMARK 923 INTER-LIGAND FREE ENERGY PREDICTED BY IDOCK:   -5.50 KCAL/MOL
REMARK 924 INTRA-LIGAND FREE ENERGY PREDICTED BY IDOCK:   -0.47 KCAL/MOL
REMARK 927      BINDING AFFINITY PREDICTED BY RF-SCORE:    0.00 PKD
ROOT
HETATM    1  O   UNL     1     -11.214   9.932  69.273  1.00  0.00    -0.211 OA 
HETATM    2  C   UNL     1     -10.633   9.186  68.314  1.00  0.00    -0.174 C  
HETATM    3  O   UNL     1     -10.314   8.021  68.519  1.00  0.00    -0.204 OA 
HETATM    4  C   UNL     1     -10.380   9.822  66.990  1.00  0.00    -0.305 A  
HETATM    5  C   UNL     1      -9.807   9.043  65.972  1.00  0.00    -0.242 A  
HETATM    6  O   UNL     1      -9.470   7.723  66.120  1.00  0.00    -0.342 OA 
HETATM    7  C   UNL     1      -9.530   9.595  64.725  1.00  0.00    -0.256 A  
HETATM    8  C   UNL     1      -9.796  10.945  64.482  1.00  0.00    -0.356 A  
HETATM    9  H   UNL     1      -9.083   7.196  65.431  1.00  0.00     0.000 HD 
HETATM   10  C   UNL     1     -10.366  11.770  65.467  1.00  0.00    -0.304 A  
HETATM   11  C   UNL     1     -10.674  11.169  66.709  1.00  0.00    -0.326 A  
ENDROOT
BRANCH  10  12
HETATM   12  C   UNL     1     -10.620  13.216  65.221  1.00  0.00    -0.325 A  
HETATM   13  C   UNL     1     -11.688  13.666  64.414  1.00  0.00    -0.411 A  
HETATM   14  F   UNL     1     -12.533  12.788  63.849  1.00  0.00    -0.457 F  
HETATM   15  C   UNL     1     -11.927  15.017  64.170  1.00  0.00    -0.221 A  
HETATM   16  C   UNL     1     -11.103  15.961  64.753  1.00  0.00    -0.384 A  
HETATM   17  F   UNL     1     -11.325  17.262  64.529  1.00  0.00    -0.281 F  
HETATM   18  C   UNL     1     -10.048  15.575  65.568  1.00  0.00    -0.406 A  
HETATM   19  C   UNL     1      -9.805  14.215  65.794  1.00  0.00    -0.297 A  
ENDBRANCH  10  12
TORSDOF 1
ENDMDL
MODEL       83
REMARK 921   NORMALIZED FREE ENERGY PREDICTED BY IDOCK:   -5.28 KCAL/MOL
REMARK 922        TOTAL FREE ENERGY PREDICTED BY IDOCK:   -5.95 KCAL/MOL
REMARK 923 INTER-LIGAND FREE ENERGY PREDICTED BY IDOCK:   -5.48 KCAL/MOL
REMARK 924 INTRA-LIGAND FREE ENERGY PREDICTED BY IDOCK:   -0.47 KCAL/MOL
REMARK 927      BINDING AFFINITY PREDICTED BY RF-SCORE:    0.00 PKD
ROOT
HETATM    1  O   UNL     1      -9.454   8.485  66.033  1.00  0.00    -0.223 OA 
HETATM    2  C   UNL     1     -10.138   9.636  66.175  1.00  0.00    -0.258 C  
HETATM    3  O   UNL     1     -10.272  10.417  65.241  1.00  0.00    -0.299 OA 
HETATM    4  C   UNL     1     -10.726   9.941  67.511  1.00  0.00    -0.333 A  
HETATM    5  C   UNL     1     -11.471  11.122  67.661  1.00  0.00    -0.250 A  
HETATM    6  O   UNL     1     -11.698  12.014  66.646  1.00  0.00    -0.522 OA 
HETATM    7  C   UNL     1     -12.021  11.463  68.892  1.00  0.00    -0.371 A  
HETATM    8  C   UNL     1     -11.813  10.643  70.005  1.00  0.00    -0.403 A  
HETATM    9  H   UNL     1     -12.201  12.813  66.748  1.00  0.00     0.000 HD 
HETATM   10  C   UNL     1     -11.073   9.451  69.910  1.00  0.00    -0.223 A  
HETATM   11  C   UNL     1     -10.562   9.112  68.636  1.00  0.00    -0.207 A  
ENDROOT
BRANCH  10  12
HETATM   12  C   UNL     1     -10.824   8.592  71.100  1.00  0.00    -0.320 A  
HETATM   13  C   UNL     1     -11.557   7.410  71.342  1.00  0.00    -0.275 A  
HETATM   14  F   UNL     1     -12.505   7.007  70.480  1.00  0.00    -0.358 F  
HETATM   15  C   UNL     1     -11.337   6.606  72.458  1.00  0.00    -0.290 A  
HETATM   16  C   UNL     1     -10.350   6.962  73.359  1.00  0.00    -0.308 A  
HETATM   17  F   UNL     1     -10.127   6.195  74.433  1.00  0.00    -0.210 F  
HETATM   18  C   UNL     1      -9.590   8.106  73.162  1.00  0.00    -0.307 A  
HETATM   19  C   UNL     1      -9.829   8.917  72.046  1.00  0.00    -0.325 A  
ENDBRANCH  10  12
TORSDOF 1
ENDMDL
MODEL       84
REMARK 921   NORMALIZED FREE ENERGY PREDICTED BY IDOCK:   -5.28 KCAL/MOL
REMARK 922        TOTAL FREE ENERGY PREDICTED BY IDOCK:   -5.95 KCAL/MOL
REMARK 923 INTER-LIGAND FREE ENERGY PREDICTED BY IDOCK:   -5.49 KCAL/MOL
REMARK 924 INTRA-LIGAND FREE ENERGY PREDICTED BY IDOCK:   -0.46 KCAL/MOL
REMARK 927      BINDING AFFINITY PREDICTED BY RF-SCORE:    0.00 PKD
ROOT
HETATM    1  O   UNL     1      -9.310   7.328  72.335  1.00  0.00    -0.137 OA 
HETATM    2  C   UNL     1     -10.555   7.719  72.666  1.00  0.00    -0.317 C  
HETATM    3  O   UNL     1     -11.117   7.280  73.663  1.00  0.00    -0.221 OA 
HETATM    4  C   UNL     1     -11.240   8.703  71.779  1.00  0.00    -0.396 A  
HETATM    5  C   UNL     1     -12.524   9.144  72.135  1.00  0.00    -0.366 A  
HETATM    6  O   UNL     1     -13.189   8.729  73.258  1.00  0.00    -0.845 OA 
HETATM    7  C   UNL     1     -13.215  10.044  71.329  1.00  0.00    -0.469 A  
HETATM    8  C   UNL     1     -12.645  10.498  70.137  1.00  0.00    -0.246 A  
HETATM    9  H   UNL     1     -14.058   9.027  73.499  1.00  0.00     0.000 HD 
HETATM   10  C   UNL     1     -11.363  10.085  69.733  1.00  0.00    -0.281 A  
HETATM   11  C   UNL     1     -10.670   9.203  70.594  1.00  0.00    -0.313 A  
ENDROOT
BRANCH  10  12
HETATM   12  C   UNL     1     -10.766  10.543  68.448  1.00  0.00    -0.262 A  
HETATM   13  C   UNL     1     -10.595   9.676  67.346  1.00  0.00    -0.268 A  
HETATM   14  F   UNL     1     -10.990   8.395  67.419  1.00  0.00    -0.315 F  
HETATM   15  C   UNL     1     -10.029  10.094  66.144  1.00  0.00    -0.310 A  
HETATM   16  C   UNL     1      -9.633  11.412  66.010  1.00  0.00    -0.221 A  
HETATM   17  F   UNL     1      -9.091  11.826  64.857  1.00  0.00    -0.103 F  
HETATM   18  C   UNL     1      -9.792  12.310  67.055  1.00  0.00    -0.211 A  
HETATM   19  C   UNL     1     -10.347  11.878  68.266  1.00  0.00    -0.211 A  
ENDBRANCH  10  12
TORSDOF 1
ENDMDL
MODEL       85
REMARK 921   NORMALIZED FREE ENERGY PREDICTED BY IDOCK:   -5.24 KCAL/MOL
REMARK 922        TOTAL FREE ENERGY PREDICTED BY IDOCK:   -5.91 KCAL/MOL
REMARK 923 INTER-LIGAND FREE ENERGY PREDICTED BY IDOCK:   -5.44 KCAL/MOL
REMARK 924 INTRA-LIGAND FREE ENERGY PREDICTED BY IDOCK:   -0.47 KCAL/MOL
REMARK 927      BINDING AFFINITY PREDICTED BY RF-SCORE:    0.00 PKD
ROOT
HETATM    1  O   UNL     1     -12.518   9.667  70.985  1.00  0.00    -0.309 OA 
HETATM    2  C   UNL     1     -11.181   9.523  71.044  1.00  0.00    -0.362 C  
HETATM    3  O   UNL     1     -10.643   8.938  71.976  1.00  0.00    -0.341 OA 
HETATM    4  C   UNL     1     -10.364  10.105  69.940  1.00  0.00    -0.308 A  
HETATM    5  C   UNL     1      -8.972   9.929  69.973  1.00  0.00    -0.169 A  
HETATM    6  O   UNL     1      -8.313   9.247  70.961  1.00  0.00    -0.255 OA 
HETATM    7  C   UNL     1      -8.164  10.472  68.979  1.00  0.00    -0.145 A  
HETATM    8  C   UNL     1      -8.731  11.224  67.947  1.00  0.00    -0.138 A  
HETATM    9  H   UNL     1      -7.371   9.129  70.984  1.00  0.00     0.000 HD 
HETATM   10  C   UNL     1     -10.119  11.432  67.868  1.00  0.00    -0.198 A  
HETATM   11  C   UNL     1     -10.917  10.833  68.870  1.00  0.00    -0.289 A  
ENDROOT
BRANCH  10  12
HETATM   12  C   UNL     1     -10.723  12.258  66.787  1.00  0.00    -0.272 A  
HETATM   13  C   UNL     1     -10.863  11.783  65.465  1.00  0.00    -0.297 A  
HETATM   14  F   UNL     1     -10.467  10.541  65.141  1.00  0.00    -0.360 F  
HETATM   15  C   UNL     1     -11.418  12.554  64.445  1.00  0.00    -0.406 A  
HETATM   16  C   UNL     1     -11.868  13.828  64.735  1.00  0.00    -0.391 A  
HETATM   17  F   UNL     1     -12.406  14.576  63.765  1.00  0.00    -0.486 F  
HETATM   18  C   UNL     1     -11.769  14.340  66.021  1.00  0.00    -0.384 A  
HETATM   19  C   UNL     1     -11.194  13.565  67.036  1.00  0.00    -0.330 A  
ENDBRANCH  10  12
TORSDOF 1
ENDMDL
MODEL       86
REMARK 921   NORMALIZED FREE ENERGY PREDICTED BY IDOCK:   -5.24 KCAL/MOL
REMARK 922        TOTAL FREE ENERGY PREDICTED BY IDOCK:   -5.91 KCAL/MOL
REMARK 923 INTER-LIGAND FREE ENERGY PREDICTED BY IDOCK:   -5.43 KCAL/MOL
REMARK 924 INTRA-LIGAND FREE ENERGY PREDICTED BY IDOCK:   -0.48 KCAL/MOL
REMARK 927      BINDING AFFINITY PREDICTED BY RF-SCORE:    0.00 PKD
ROOT
HETATM    1  O   UNL     1      -6.623  11.684  68.742  1.00  0.00    -0.061 OA 
HETATM    2  C   UNL     1      -7.206  11.528  67.539  1.00  0.00    -0.111 C  
HETATM    3  O   UNL     1      -6.540  11.327  66.530  1.00  0.00    -0.134 OA 
HETATM    4  C   UNL     1      -8.693  11.610  67.464  1.00  0.00    -0.156 A  
HETATM    5  C   UNL     1      -9.312  11.412  66.220  1.00  0.00    -0.212 A  
HETATM    6  O   UNL     1      -8.630  11.139  65.063  1.00  0.00    -0.372 OA 
HETATM    7  C   UNL     1     -10.695  11.501  66.093  1.00  0.00    -0.324 A  
HETATM    8  C   UNL     1     -11.482  11.818  67.202  1.00  0.00    -0.366 A  
HETATM    9  H   UNL     1      -9.049  11.005  64.221  1.00  0.00     0.000 HD 
HETATM   10  C   UNL     1     -10.912  12.028  68.470  1.00  0.00    -0.280 A  
HETATM   11  C   UNL     1      -9.509  11.890  68.575  1.00  0.00    -0.151 A  
ENDROOT
BRANCH  10  12
HETATM   12  C   UNL     1     -11.745  12.397  69.648  1.00  0.00    -0.377 A  
HETATM   13  C   UNL     1     -12.174  13.722  69.882  1.00  0.00    -0.321 A  
HETATM   14  F   UNL     1     -11.852  14.704  69.024  1.00  0.00    -0.296 F  
HETATM   15  C   UNL     1     -12.946  14.076  70.986  1.00  0.00    -0.378 A  
HETATM   16  C   UNL     1     -13.327  13.095  71.883  1.00  0.00    -0.455 A  
HETATM   17  F   UNL     1     -14.072  13.424  72.946  1.00  0.00    -0.504 F  
HETATM   18  C   UNL     1     -12.947  11.775  71.693  1.00  0.00    -0.467 A  
HETATM   19  C   UNL     1     -12.157  11.430  70.589  1.00  0.00    -0.469 A  
ENDBRANCH  10  12
TORSDOF 1
ENDMDL
MODEL       87
REMARK 921   NORMALIZED FREE ENERGY PREDICTED BY IDOCK:   -5.23 KCAL/MOL
REMARK 922        TOTAL FREE ENERGY PREDICTED BY IDOCK:   -5.90 KCAL/MOL
REMARK 923 INTER-LIGAND FREE ENERGY PREDICTED BY IDOCK:   -5.43 KCAL/MOL
REMARK 924 INTRA-LIGAND FREE ENERGY PREDICTED BY IDOCK:   -0.48 KCAL/MOL
REMARK 927      BINDING AFFINITY PREDICTED BY RF-SCORE:    0.00 PKD
ROOT
HETATM    1  O   UNL     1      -8.457   8.313  65.176  1.00  0.00    -0.169 OA 
HETATM    2  C   UNL     1      -9.101   8.098  66.340  1.00  0.00    -0.183 C  
HETATM    3  O   UNL     1      -9.060   7.008  66.899  1.00  0.00    -0.130 OA 
HETATM    4  C   UNL     1      -9.873   9.228  66.932  1.00  0.00    -0.276 A  
HETATM    5  C   UNL     1     -10.517   9.025  68.163  1.00  0.00    -0.207 A  
HETATM    6  O   UNL     1     -10.474   7.847  68.862  1.00  0.00    -0.214 OA 
HETATM    7  C   UNL     1     -11.269  10.040  68.746  1.00  0.00    -0.173 A  
HETATM    8  C   UNL     1     -11.414  11.268  68.096  1.00  0.00    -0.376 A  
HETATM    9  H   UNL     1     -10.910   7.710  69.694  1.00  0.00     0.000 HD 
HETATM   10  C   UNL     1     -10.792  11.522  66.861  1.00  0.00    -0.331 A  
HETATM   11  C   UNL     1     -10.001  10.485  66.315  1.00  0.00    -0.276 A  
ENDROOT
BRANCH  10  12
HETATM   12  C   UNL     1     -10.970  12.819  66.151  1.00  0.00    -0.310 A  
HETATM   13  C   UNL     1     -10.022  13.861  66.239  1.00  0.00    -0.306 A  
HETATM   14  F   UNL     1      -8.902  13.706  66.963  1.00  0.00    -0.207 F  
HETATM   15  C   UNL     1     -10.186  15.081  65.586  1.00  0.00    -0.386 A  
HETATM   16  C   UNL     1     -11.309  15.279  64.803  1.00  0.00    -0.391 A  
HETATM   17  F   UNL     1     -11.475  16.445  64.168  1.00  0.00    -0.534 F  
HETATM   18  C   UNL     1     -12.264  14.282  64.670  1.00  0.00    -0.470 A  
HETATM   19  C   UNL     1     -12.100  13.066  65.343  1.00  0.00    -0.490 A  
ENDBRANCH  10  12
TORSDOF 1
ENDMDL
MODEL       88
REMARK 921   NORMALIZED FREE ENERGY PREDICTED BY IDOCK:   -5.23 KCAL/MOL
REMARK 922        TOTAL FREE ENERGY PREDICTED BY IDOCK:   -5.90 KCAL/MOL
REMARK 923 INTER-LIGAND FREE ENERGY PREDICTED BY IDOCK:   -5.91 KCAL/MOL
REMARK 924 INTRA-LIGAND FREE ENERGY PREDICTED BY IDOCK:    0.01 KCAL/MOL
REMARK 927      BINDING AFFINITY PREDICTED BY RF-SCORE:    0.00 PKD
ROOT
HETATM    1  O   UNL     1     -13.066  12.901  64.833  1.00  0.00    -0.799 OA 
HETATM    2  C   UNL     1     -12.490  14.097  64.603  1.00  0.00    -0.350 C  
HETATM    3  O   UNL     1     -12.981  14.899  63.817  1.00  0.00    -0.496 OA 
HETATM    4  C   UNL     1     -11.229  14.419  65.329  1.00  0.00    -0.345 A  
HETATM    5  C   UNL     1     -10.641  15.677  65.123  1.00  0.00    -0.424 A  
HETATM    6  O   UNL     1     -11.161  16.636  64.295  1.00  0.00    -1.314 OA 
HETATM    7  C   UNL     1      -9.451  16.017  65.760  1.00  0.00    -0.283 A  
HETATM    8  C   UNL     1      -8.813  15.096  66.594  1.00  0.00    -0.321 A  
HETATM    9  H   UNL     1     -10.763  17.486  64.155  1.00  0.00     0.000 HD 
HETATM   10  C   UNL     1      -9.359  13.822  66.833  1.00  0.00    -0.267 A  
HETATM   11  C   UNL     1     -10.589  13.522  66.203  1.00  0.00    -0.290 A  
ENDROOT
BRANCH  10  12
HETATM   12  C   UNL     1      -8.665  12.826  67.696  1.00  0.00    -0.180 A  
HETATM   13  C   UNL     1      -7.356  13.035  68.183  1.00  0.00    -0.118 A  
HETATM   14  F   UNL     1      -6.693  14.167  67.893  1.00  0.00    -0.102 F  
HETATM   15  C   UNL     1      -6.697  12.105  68.983  1.00  0.00    -0.103 A  
HETATM   16  C   UNL     1      -7.349  10.937  69.333  1.00  0.00    -0.116 A  
HETATM   17  F   UNL     1      -6.726  10.038  70.104  1.00  0.00    -0.066 F  
HETATM   18  C   UNL     1      -8.641  10.688  68.895  1.00  0.00    -0.158 A  
HETATM   19  C   UNL     1      -9.291  11.621  68.077  1.00  0.00    -0.178 A  
ENDBRANCH  10  12
TORSDOF 1
ENDMDL
MODEL       89
REMARK 921   NORMALIZED FREE ENERGY PREDICTED BY IDOCK:   -5.21 KCAL/MOL
REMARK 922        TOTAL FREE ENERGY PREDICTED BY IDOCK:   -5.88 KCAL/MOL
REMARK 923 INTER-LIGAND FREE ENERGY PREDICTED BY IDOCK:   -5.40 KCAL/MOL
REMARK 924 INTRA-LIGAND FREE ENERGY PREDICTED BY IDOCK:   -0.48 KCAL/MOL
REMARK 927      BINDING AFFINITY PREDICTED BY RF-SCORE:    0.00 PKD
ROOT
HETATM    1  O   UNL     1     -11.096  12.578  68.938  1.00  0.00    -0.246 OA 
HETATM    2  C   UNL     1     -11.925  12.482  69.995  1.00  0.00    -0.299 C  
HETATM    3  O   UNL     1     -12.530  13.460  70.420  1.00  0.00    -0.310 OA 
HETATM    4  C   UNL     1     -12.084  11.149  70.643  1.00  0.00    -0.477 A  
HETATM    5  C   UNL     1     -12.974  11.032  71.722  1.00  0.00    -0.438 A  
HETATM    6  O   UNL     1     -13.715  12.073  72.217  1.00  0.00    -0.476 OA 
HETATM    7  C   UNL     1     -13.141   9.815  72.376  1.00  0.00    -0.344 A  
HETATM    8  C   UNL     1     -12.401   8.698  71.979  1.00  0.00    -0.435 A  
HETATM    9  H   UNL     1     -14.316  11.994  72.948  1.00  0.00     0.000 HD 
HETATM   10  C   UNL     1     -11.495   8.762  70.905  1.00  0.00    -0.330 A  
HETATM   11  C   UNL     1     -11.379  10.002  70.236  1.00  0.00    -0.376 A  
ENDROOT
BRANCH  10  12
HETATM   12  C   UNL     1     -10.682   7.582  70.500  1.00  0.00    -0.244 A  
HETATM   13  C   UNL     1      -9.328   7.438  70.872  1.00  0.00    -0.155 A  
HETATM   14  F   UNL     1      -8.727   8.368  71.632  1.00  0.00    -0.151 F  
HETATM   15  C   UNL     1      -8.558   6.342  70.490  1.00  0.00    -0.143 A  
HETATM   16  C   UNL     1      -9.140   5.343  69.732  1.00  0.00    -0.128 A  
HETATM   17  F   UNL     1      -8.410   4.284  69.361  1.00  0.00    -0.065 F  
HETATM   18  C   UNL     1     -10.471   5.427  69.351  1.00  0.00    -0.331 A  
HETATM   19  C   UNL     1     -11.234   6.540  69.726  1.00  0.00    -0.456 A  
ENDBRANCH  10  12
TORSDOF 1
ENDMDL
MODEL       90
REMARK 921   NORMALIZED FREE ENERGY PREDICTED BY IDOCK:   -5.17 KCAL/MOL
REMARK 922        TOTAL FREE ENERGY PREDICTED BY IDOCK:   -5.84 KCAL/MOL
REMARK 923 INTER-LIGAND FREE ENERGY PREDICTED BY IDOCK:   -5.65 KCAL/MOL
REMARK 924 INTRA-LIGAND FREE ENERGY PREDICTED BY IDOCK:   -0.19 KCAL/MOL
REMARK 927      BINDING AFFINITY PREDICTED BY RF-SCORE:    0.00 PKD
ROOT
HETATM    1  O   UNL     1     -12.538  13.291  65.898  1.00  0.00    -0.406 OA 
HETATM    2  C   UNL     1     -11.288  12.824  65.714  1.00  0.00    -0.320 C  
HETATM    3  O   UNL     1     -10.652  13.088  64.700  1.00  0.00    -0.334 OA 
HETATM    4  C   UNL     1     -10.696  11.966  66.780  1.00  0.00    -0.282 A  
HETATM    5  C   UNL     1      -9.381  11.505  66.615  1.00  0.00    -0.189 A  
HETATM    6  O   UNL     1      -8.599  11.800  65.529  1.00  0.00    -0.384 OA 
HETATM    7  C   UNL     1      -8.791  10.683  67.570  1.00  0.00    -0.132 A  
HETATM    8  C   UNL     1      -9.516  10.285  68.697  1.00  0.00    -0.169 A  
HETATM    9  H   UNL     1      -7.710  11.488  65.417  1.00  0.00     0.000 HD 
HETATM   10  C   UNL     1     -10.837  10.717  68.910  1.00  0.00    -0.269 A  
HETATM   11  C   UNL     1     -11.393  11.584  67.941  1.00  0.00    -0.372 A  
ENDROOT
BRANCH  10  12
HETATM   12  C   UNL     1     -11.622  10.270  70.093  1.00  0.00    -0.376 A  
HETATM   13  C   UNL     1     -11.508   8.966  70.622  1.00  0.00    -0.242 A  
HETATM   14  F   UNL     1     -10.658   8.080  70.077  1.00  0.00    -0.221 F  
HETATM   15  C   UNL     1     -12.246   8.536  71.723  1.00  0.00    -0.388 A  
HETATM   16  C   UNL     1     -13.112   9.420  72.338  1.00  0.00    -0.379 A  
HETATM   17  F   UNL     1     -13.824   9.019  73.399  1.00  0.00    -0.183 F  
HETATM   18  C   UNL     1     -13.252  10.718  71.869  1.00  0.00    -0.524 A  
HETATM   19  C   UNL     1     -12.519  11.137  70.751  1.00  0.00    -0.479 A  
ENDBRANCH  10  12
TORSDOF 1
ENDMDL
MODEL       91
REMARK 921   NORMALIZED FREE ENERGY PREDICTED BY IDOCK:   -5.14 KCAL/MOL
REMARK 922        TOTAL FREE ENERGY PREDICTED BY IDOCK:   -5.81 KCAL/MOL
REMARK 923 INTER-LIGAND FREE ENERGY PREDICTED BY IDOCK:   -5.73 KCAL/MOL
REMARK 924 INTRA-LIGAND FREE ENERGY PREDICTED BY IDOCK:   -0.08 KCAL/MOL
REMARK 927      BINDING AFFINITY PREDICTED BY RF-SCORE:    0.00 PKD
ROOT
HETATM    1  O   UNL     1      -8.782   8.791  64.689  1.00  0.00    -0.160 OA 
HETATM    2  C   UNL     1      -9.156  10.052  64.398  1.00  0.00    -0.247 C  
HETATM    3  O   UNL     1      -8.862  10.572  63.329  1.00  0.00    -0.178 OA 
HETATM    4  C   UNL     1      -9.937  10.804  65.421  1.00  0.00    -0.330 A  
HETATM    5  C   UNL     1     -10.362  12.106  65.113  1.00  0.00    -0.279 A  
HETATM    6  O   UNL     1     -10.107  12.730  63.920  1.00  0.00    -0.558 OA 
HETATM    7  C   UNL     1     -11.075  12.859  66.041  1.00  0.00    -0.308 A  
HETATM    8  C   UNL     1     -11.352  12.333  67.306  1.00  0.00    -0.392 A  
HETATM    9  H   UNL     1     -10.395  13.611  63.712  1.00  0.00     0.000 HD 
HETATM   10  C   UNL     1     -10.946  11.036  67.666  1.00  0.00    -0.332 A  
HETATM   11  C   UNL     1     -10.261  10.282  66.686  1.00  0.00    -0.294 A  
ENDROOT
BRANCH  10  12
HETATM   12  C   UNL     1     -11.212  10.485  69.024  1.00  0.00    -0.316 A  
HETATM   13  C   UNL     1     -10.441   9.440  69.576  1.00  0.00    -0.218 A  
HETATM   14  F   UNL     1      -9.413   8.914  68.890  1.00  0.00    -0.148 F  
HETATM   15  C   UNL     1     -10.689   8.912  70.842  1.00  0.00    -0.292 A  
HETATM   16  C   UNL     1     -11.718   9.440  71.600  1.00  0.00    -0.398 A  
HETATM   17  F   UNL     1     -11.963   8.944  72.818  1.00  0.00    -0.362 F  
HETATM   18  C   UNL     1     -12.498  10.478  71.112  1.00  0.00    -0.517 A  
HETATM   19  C   UNL     1     -12.252  10.991  69.832  1.00  0.00    -0.408 A  
ENDBRANCH  10  12
TORSDOF 1
ENDMDL
MODEL       92
REMARK 921   NORMALIZED FREE ENERGY PREDICTED BY IDOCK:   -5.14 KCAL/MOL
REMARK 922        TOTAL FREE ENERGY PREDICTED BY IDOCK:   -5.80 KCAL/MOL
REMARK 923 INTER-LIGAND FREE ENERGY PREDICTED BY IDOCK:   -5.37 KCAL/MOL
REMARK 924 INTRA-LIGAND FREE ENERGY PREDICTED BY IDOCK:   -0.43 KCAL/MOL
REMARK 927      BINDING AFFINITY PREDICTED BY RF-SCORE:    0.00 PKD
ROOT
HETATM    1  O   UNL     1     -11.916  11.770  70.559  1.00  0.00    -0.356 OA 
HETATM    2  C   UNL     1     -12.655  10.949  71.329  1.00  0.00    -0.421 C  
HETATM    3  O   UNL     1     -13.493  11.389  72.107  1.00  0.00    -0.397 OA 
HETATM    4  C   UNL     1     -12.422   9.481  71.213  1.00  0.00    -0.432 A  
HETATM    5  C   UNL     1     -13.213   8.615  71.985  1.00  0.00    -0.386 A  
HETATM    6  O   UNL     1     -14.196   9.038  72.840  1.00  0.00    -1.042 OA 
HETATM    7  C   UNL     1     -13.019   7.238  71.931  1.00  0.00    -0.291 A  
HETATM    8  C   UNL     1     -12.012   6.703  71.123  1.00  0.00    -0.412 A  
HETATM    9  H   UNL     1     -14.731   8.452  73.362  1.00  0.00     0.000 HD 
HETATM   10  C   UNL     1     -11.191   7.526  70.332  1.00  0.00    -0.270 A  
HETATM   11  C   UNL     1     -11.440   8.917  70.378  1.00  0.00    -0.182 A  
ENDROOT
BRANCH  10  12
HETATM   12  C   UNL     1     -10.097   6.961  69.495  1.00  0.00    -0.183 A  
HETATM   13  C   UNL     1     -10.114   7.034  68.085  1.00  0.00    -0.169 A  
HETATM   14  F   UNL     1     -11.126   7.643  67.445  1.00  0.00    -0.295 F  
HETATM   15  C   UNL     1      -9.099   6.500  67.294  1.00  0.00    -0.117 A  
HETATM   16  C   UNL     1      -8.021   5.888  67.906  1.00  0.00    -0.105 A  
HETATM   17  F   UNL     1      -7.039   5.374  67.156  1.00  0.00    -0.063 F  
HETATM   18  C   UNL     1      -7.946   5.802  69.289  1.00  0.00    -0.101 A  
HETATM   19  C   UNL     1      -8.979   6.327  70.076  1.00  0.00    -0.149 A  
ENDBRANCH  10  12
TORSDOF 1
ENDMDL
MODEL       93
REMARK 921   NORMALIZED FREE ENERGY PREDICTED BY IDOCK:   -5.09 KCAL/MOL
REMARK 922        TOTAL FREE ENERGY PREDICTED BY IDOCK:   -5.76 KCAL/MOL
REMARK 923 INTER-LIGAND FREE ENERGY PREDICTED BY IDOCK:   -5.34 KCAL/MOL
REMARK 924 INTRA-LIGAND FREE ENERGY PREDICTED BY IDOCK:   -0.42 KCAL/MOL
REMARK 927      BINDING AFFINITY PREDICTED BY RF-SCORE:    0.00 PKD
ROOT
HETATM    1  O   UNL     1     -12.547  12.948  63.439  1.00  0.00    -0.709 OA 
HETATM    2  C   UNL     1     -12.616  13.432  64.693  1.00  0.00    -0.265 C  
HETATM    3  O   UNL     1     -13.156  14.506  64.933  1.00  0.00    -0.515 OA 
HETATM    4  C   UNL     1     -12.009  12.625  65.790  1.00  0.00    -0.503 A  
HETATM    5  C   UNL     1     -12.107  13.104  67.106  1.00  0.00    -0.286 A  
HETATM    6  O   UNL     1     -12.736  14.272  67.448  1.00  0.00    -0.421 OA 
HETATM    7  C   UNL     1     -11.537  12.400  68.162  1.00  0.00    -0.395 A  
HETATM    8  C   UNL     1     -10.834  11.217  67.918  1.00  0.00    -0.285 A  
HETATM    9  H   UNL     1     -12.803  14.595  68.338  1.00  0.00     0.000 HD 
HETATM   10  C   UNL     1     -10.704  10.695  66.619  1.00  0.00    -0.246 A  
HETATM   11  C   UNL     1     -11.329  11.412  65.573  1.00  0.00    -0.067 A  
ENDROOT
BRANCH  10  12
HETATM   12  C   UNL     1      -9.929   9.452  66.353  1.00  0.00    -0.346 A  
HETATM   13  C   UNL     1      -8.784   9.442  65.527  1.00  0.00    -0.163 A  
HETATM   14  F   UNL     1      -8.340  10.577  64.962  1.00  0.00    -0.157 F  
HETATM   15  C   UNL     1      -8.059   8.282  65.265  1.00  0.00    -0.142 A  
HETATM   16  C   UNL     1      -8.459   7.093  65.847  1.00  0.00    -0.147 A  
HETATM   17  F   UNL     1      -7.767   5.973  65.605  1.00  0.00    -0.083 F  
HETATM   18  C   UNL     1      -9.568   7.049  66.679  1.00  0.00    -0.220 A  
HETATM   19  C   UNL     1     -10.301   8.217  66.924  1.00  0.00    -0.391 A  
ENDBRANCH  10  12
TORSDOF 1
ENDMDL
MODEL       94
REMARK 921   NORMALIZED FREE ENERGY PREDICTED BY IDOCK:   -5.08 KCAL/MOL
REMARK 922        TOTAL FREE ENERGY PREDICTED BY IDOCK:   -5.74 KCAL/MOL
REMARK 923 INTER-LIGAND FREE ENERGY PREDICTED BY IDOCK:   -5.26 KCAL/MOL
REMARK 924 INTRA-LIGAND FREE ENERGY PREDICTED BY IDOCK:   -0.48 KCAL/MOL
REMARK 927      BINDING AFFINITY PREDICTED BY RF-SCORE:    0.00 PKD
ROOT
HETATM    1  O   UNL     1      -8.407  11.302  66.076  1.00  0.00    -0.153 OA 
HETATM    2  C   UNL     1      -9.552  11.057  66.741  1.00  0.00    -0.190 C  
HETATM    3  O   UNL     1     -10.014   9.925  66.818  1.00  0.00    -0.192 OA 
HETATM    4  C   UNL     1     -10.249  12.209  67.382  1.00  0.00    -0.211 A  
HETATM    5  C   UNL     1     -11.424  11.959  68.109  1.00  0.00    -0.320 A  
HETATM    6  O   UNL     1     -11.969  10.713  68.272  1.00  0.00    -0.793 OA 
HETATM    7  C   UNL     1     -12.125  13.002  68.706  1.00  0.00    -0.197 A  
HETATM    8  C   UNL     1     -11.679  14.318  68.564  1.00  0.00    -0.376 A  
HETATM    9  H   UNL     1     -12.764  10.544  68.764  1.00  0.00     0.000 HD 
HETATM   10  C   UNL     1     -10.510  14.623  67.845  1.00  0.00    -0.242 A  
HETATM   11  C   UNL     1      -9.798  13.538  67.285  1.00  0.00    -0.237 A  
ENDROOT
BRANCH  10  12
HETATM   12  C   UNL     1     -10.049  16.028  67.666  1.00  0.00    -0.245 A  
HETATM   13  C   UNL     1     -10.274  16.747  66.472  1.00  0.00    -0.316 A  
HETATM   14  F   UNL     1     -10.937  16.182  65.450  1.00  0.00    -0.336 F  
HETATM   15  C   UNL     1      -9.838  18.058  66.293  1.00  0.00    -0.310 A  
HETATM   16  C   UNL     1      -9.176  18.694  67.327  1.00  0.00    -0.287 A  
HETATM   17  F   UNL     1      -8.755  19.954  67.167  1.00  0.00    -0.314 F  
HETATM   18  C   UNL     1      -8.942  18.039  68.527  1.00  0.00    -0.297 A  
HETATM   19  C   UNL     1      -9.369  16.715  68.693  1.00  0.00    -0.247 A  
ENDBRANCH  10  12
TORSDOF 1
ENDMDL
MODEL       95
REMARK 921   NORMALIZED FREE ENERGY PREDICTED BY IDOCK:   -5.06 KCAL/MOL
REMARK 922        TOTAL FREE ENERGY PREDICTED BY IDOCK:   -5.72 KCAL/MOL
REMARK 923 INTER-LIGAND FREE ENERGY PREDICTED BY IDOCK:   -5.48 KCAL/MOL
REMARK 924 INTRA-LIGAND FREE ENERGY PREDICTED BY IDOCK:   -0.24 KCAL/MOL
REMARK 927      BINDING AFFINITY PREDICTED BY RF-SCORE:    0.00 PKD
ROOT
HETATM    1  O   UNL     1      -8.435  10.488  65.052  1.00  0.00    -0.173 OA 
HETATM    2  C   UNL     1      -9.313  10.079  65.988  1.00  0.00    -0.174 C  
HETATM    3  O   UNL     1      -9.501   8.888  66.207  1.00  0.00    -0.200 OA 
HETATM    4  C   UNL     1     -10.059  11.119  66.752  1.00  0.00    -0.255 A  
HETATM    5  C   UNL     1     -10.950  10.703  67.754  1.00  0.00    -0.306 A  
HETATM    6  O   UNL     1     -11.173   9.392  68.081  1.00  0.00    -0.507 OA 
HETATM    7  C   UNL     1     -11.687  11.634  68.480  1.00  0.00    -0.378 A  
HETATM    8  C   UNL     1     -11.568  12.997  68.198  1.00  0.00    -0.379 A  
HETATM    9  H   UNL     1     -11.775   9.110  68.758  1.00  0.00     0.000 HD 
HETATM   10  C   UNL     1     -10.692  13.467  67.203  1.00  0.00    -0.268 A  
HETATM   11  C   UNL     1      -9.927  12.499  66.512  1.00  0.00    -0.252 A  
ENDROOT
BRANCH  10  12
HETATM   12  C   UNL     1     -10.586  14.916  66.878  1.00  0.00    -0.300 A  
HETATM   13  C   UNL     1     -10.493  15.385  65.550  1.00  0.00    -0.380 A  
HETATM   14  F   UNL     1     -10.516  14.525  64.519  1.00  0.00    -0.422 F  
HETATM   15  C   UNL     1     -10.384  16.739  65.239  1.00  0.00    -0.077 A  
HETATM   16  C   UNL     1     -10.385  17.667  66.264  1.00  0.00    -0.342 A  
HETATM   17  F   UNL     1     -10.285  18.970  65.976  1.00  0.00    -0.398 F  
HETATM   18  C   UNL     1     -10.490  17.262  67.586  1.00  0.00    -0.363 A  
HETATM   19  C   UNL     1     -10.582  15.898  67.891  1.00  0.00    -0.300 A  
ENDBRANCH  10  12
TORSDOF 1
ENDMDL
MODEL       96
REMARK 921   NORMALIZED FREE ENERGY PREDICTED BY IDOCK:   -5.04 KCAL/MOL
REMARK 922        TOTAL FREE ENERGY PREDICTED BY IDOCK:   -5.70 KCAL/MOL
REMARK 923 INTER-LIGAND FREE ENERGY PREDICTED BY IDOCK:   -5.30 KCAL/MOL
REMARK 924 INTRA-LIGAND FREE ENERGY PREDICTED BY IDOCK:   -0.40 KCAL/MOL
REMARK 927      BINDING AFFINITY PREDICTED BY RF-SCORE:    0.00 PKD
ROOT
HETATM    1  O   UNL     1      -7.276   9.451  68.203  1.00  0.00    -0.076 OA 
HETATM    2  C   UNL     1      -8.159   9.182  69.184  1.00  0.00    -0.105 C  
HETATM    3  O   UNL     1      -7.905   8.369  70.065  1.00  0.00    -0.097 OA 
HETATM    4  C   UNL     1      -9.465   9.900  69.168  1.00  0.00    -0.201 A  
HETATM    5  C   UNL     1     -10.378   9.654  70.206  1.00  0.00    -0.280 A  
HETATM    6  O   UNL     1     -10.138   8.792  71.244  1.00  0.00    -0.218 OA 
HETATM    7  C   UNL     1     -11.619  10.282  70.224  1.00  0.00    -0.396 A  
HETATM    8  C   UNL     1     -11.983  11.147  69.190  1.00  0.00    -0.413 A  
HETATM    9  H   UNL     1     -10.755   8.625  71.946  1.00  0.00     0.000 HD 
HETATM   10  C   UNL     1     -11.108  11.427  68.125  1.00  0.00    -0.306 A  
HETATM   11  C   UNL     1      -9.838  10.806  68.157  1.00  0.00    -0.171 A  
ENDROOT
BRANCH  10  12
HETATM   12  C   UNL     1     -11.504  12.325  67.006  1.00  0.00    -0.419 A  
HETATM   13  C   UNL     1     -11.887  13.667  67.217  1.00  0.00    -0.391 A  
HETATM   14  F   UNL     1     -11.886  14.190  68.453  1.00  0.00    -0.320 F  
HETATM   15  C   UNL     1     -12.269  14.511  66.176  1.00  0.00    -0.268 A  
HETATM   16  C   UNL     1     -12.258  14.027  64.880  1.00  0.00    -0.437 A  
HETATM   17  F   UNL     1     -12.619  14.830  63.872  1.00  0.00    -0.463 F  
HETATM   18  C   UNL     1     -11.876  12.720  64.615  1.00  0.00    -0.428 A  
HETATM   19  C   UNL     1     -11.509  11.874  65.669  1.00  0.00    -0.314 A  
ENDBRANCH  10  12
TORSDOF 1
ENDMDL
MODEL       97
REMARK 921   NORMALIZED FREE ENERGY PREDICTED BY IDOCK:   -5.02 KCAL/MOL
REMARK 922        TOTAL FREE ENERGY PREDICTED BY IDOCK:   -5.68 KCAL/MOL
REMARK 923 INTER-LIGAND FREE ENERGY PREDICTED BY IDOCK:   -5.28 KCAL/MOL
REMARK 924 INTRA-LIGAND FREE ENERGY PREDICTED BY IDOCK:   -0.41 KCAL/MOL
REMARK 927      BINDING AFFINITY PREDICTED BY RF-SCORE:    0.00 PKD
ROOT
HETATM    1  O   UNL     1      -8.416  11.310  66.086  1.00  0.00    -0.173 OA 
HETATM    2  C   UNL     1      -9.485  10.946  66.820  1.00  0.00    -0.177 C  
HETATM    3  O   UNL     1      -9.811   9.770  66.931  1.00  0.00    -0.181 OA 
HETATM    4  C   UNL     1     -10.272  12.019  67.493  1.00  0.00    -0.211 A  
HETATM    5  C   UNL     1     -11.366  11.646  68.289  1.00  0.00    -0.285 A  
HETATM    6  O   UNL     1     -11.756  10.349  68.492  1.00  0.00    -0.607 OA 
HETATM    7  C   UNL     1     -12.146  12.611  68.920  1.00  0.00    -0.164 A  
HETATM    8  C   UNL     1     -11.862  13.967  68.745  1.00  0.00    -0.396 A  
HETATM    9  H   UNL     1     -12.497  10.097  69.030  1.00  0.00     0.000 HD 
HETATM   10  C   UNL     1     -10.778  14.394  67.956  1.00  0.00    -0.244 A  
HETATM   11  C   UNL     1      -9.981  13.389  67.362  1.00  0.00    -0.230 A  
ENDROOT
BRANCH  10  12
HETATM   12  C   UNL     1     -10.492  15.839  67.742  1.00  0.00    -0.283 A  
HETATM   13  C   UNL     1     -10.218  16.719  68.812  1.00  0.00    -0.299 A  
HETATM   14  F   UNL     1     -10.188  16.267  70.076  1.00  0.00    -0.251 F  
HETATM   15  C   UNL     1      -9.959  18.074  68.621  1.00  0.00    -0.396 A  
HETATM   16  C   UNL     1      -9.950  18.582  67.336  1.00  0.00    -0.330 A  
HETATM   17  F   UNL     1      -9.698  19.883  67.140  1.00  0.00    -0.400 F  
HETATM   18  C   UNL     1     -10.197  17.760  66.246  1.00  0.00    -0.364 A  
HETATM   19  C   UNL     1     -10.474  16.402  66.449  1.00  0.00    -0.288 A  
ENDBRANCH  10  12
TORSDOF 1
ENDMDL
MODEL       98
REMARK 921   NORMALIZED FREE ENERGY PREDICTED BY IDOCK:   -5.01 KCAL/MOL
REMARK 922        TOTAL FREE ENERGY PREDICTED BY IDOCK:   -5.67 KCAL/MOL
REMARK 923 INTER-LIGAND FREE ENERGY PREDICTED BY IDOCK:   -5.20 KCAL/MOL
REMARK 924 INTRA-LIGAND FREE ENERGY PREDICTED BY IDOCK:   -0.47 KCAL/MOL
REMARK 927      BINDING AFFINITY PREDICTED BY RF-SCORE:    0.00 PKD
ROOT
HETATM    1  O   UNL     1     -11.975  12.174  67.384  1.00  0.00    -0.563 OA 
HETATM    2  C   UNL     1     -11.275  11.439  66.498  1.00  0.00    -0.209 C  
HETATM    3  O   UNL     1     -11.181  11.776  65.324  1.00  0.00    -0.307 OA 
HETATM    4  C   UNL     1     -10.616  10.194  66.986  1.00  0.00    -0.290 A  
HETATM    5  C   UNL     1      -9.853   9.441  66.080  1.00  0.00    -0.296 A  
HETATM    6  O   UNL     1      -9.670   9.785  64.766  1.00  0.00    -0.389 OA 
HETATM    7  C   UNL     1      -9.237   8.259  66.480  1.00  0.00    -0.236 A  
HETATM    8  C   UNL     1      -9.394   7.794  67.788  1.00  0.00    -0.155 A  
HETATM    9  H   UNL     1      -9.155   9.276  64.153  1.00  0.00     0.000 HD 
HETATM   10  C   UNL     1     -10.149   8.509  68.735  1.00  0.00    -0.210 A  
HETATM   11  C   UNL     1     -10.728   9.726  68.308  1.00  0.00    -0.277 A  
ENDROOT
BRANCH  10  12
HETATM   12  C   UNL     1     -10.345   8.000  70.120  1.00  0.00    -0.215 A  
HETATM   13  C   UNL     1      -9.686   8.569  71.231  1.00  0.00    -0.208 A  
HETATM   14  F   UNL     1      -8.863   9.618  71.072  1.00  0.00    -0.230 F  
HETATM   15  C   UNL     1      -9.856   8.093  72.530  1.00  0.00    -0.363 A  
HETATM   16  C   UNL     1     -10.717   7.033  72.749  1.00  0.00    -0.274 A  
HETATM   17  F   UNL     1     -10.890   6.569  73.993  1.00  0.00    -0.280 F  
HETATM   18  C   UNL     1     -11.401   6.445  71.695  1.00  0.00    -0.339 A  
HETATM   19  C   UNL     1     -11.211   6.920  70.391  1.00  0.00    -0.359 A  
ENDBRANCH  10  12
TORSDOF 1
ENDMDL
MODEL       99
REMARK 921   NORMALIZED FREE ENERGY PREDICTED BY IDOCK:   -4.97 KCAL/MOL
REMARK 922        TOTAL FREE ENERGY PREDICTED BY IDOCK:   -5.63 KCAL/MOL
REMARK 923 INTER-LIGAND FREE ENERGY PREDICTED BY IDOCK:   -5.17 KCAL/MOL
REMARK 924 INTRA-LIGAND FREE ENERGY PREDICTED BY IDOCK:   -0.46 KCAL/MOL
REMARK 927      BINDING AFFINITY PREDICTED BY RF-SCORE:    0.00 PKD
ROOT
HETATM    1  O   UNL     1     -11.931  12.821  68.978  1.00  0.00    -0.292 OA 
HETATM    2  C   UNL     1     -10.701  12.363  68.676  1.00  0.00    -0.232 C  
HETATM    3  O   UNL     1     -10.411  11.181  68.812  1.00  0.00    -0.191 OA 
HETATM    4  C   UNL     1      -9.693  13.340  68.173  1.00  0.00    -0.227 A  
HETATM    5  C   UNL     1      -8.420  12.867  67.822  1.00  0.00    -0.185 A  
HETATM    6  O   UNL     1      -8.044  11.552  67.906  1.00  0.00    -0.120 OA 
HETATM    7  C   UNL     1      -7.437  13.742  67.369  1.00  0.00    -0.142 A  
HETATM    8  C   UNL     1      -7.701  15.111  67.286  1.00  0.00    -0.241 A  
HETATM    9  H   UNL     1      -7.183  11.232  67.668  1.00  0.00     0.000 HD 
HETATM   10  C   UNL     1      -8.959  15.638  67.628  1.00  0.00    -0.183 A  
HETATM   11  C   UNL     1      -9.949  14.718  68.045  1.00  0.00    -0.218 A  
ENDROOT
BRANCH  10  12
HETATM   12  C   UNL     1      -9.233  17.100  67.571  1.00  0.00    -0.233 A  
HETATM   13  C   UNL     1     -10.072  17.670  66.589  1.00  0.00    -0.335 A  
HETATM   14  F   UNL     1     -10.674  16.895  65.672  1.00  0.00    -0.346 F  
HETATM   15  C   UNL     1     -10.327  19.039  66.522  1.00  0.00    -0.512 A  
HETATM   16  C   UNL     1      -9.753  19.875  67.462  1.00  0.00    -0.392 A  
HETATM   17  F   UNL     1      -9.993  21.191  67.410  1.00  0.00    -0.594 F  
HETATM   18  C   UNL     1      -8.933  19.366  68.458  1.00  0.00    -0.418 A  
HETATM   19  C   UNL     1      -8.669  17.991  68.508  1.00  0.00    -0.304 A  
ENDBRANCH  10  12
TORSDOF 1
ENDMDL
MODEL      100
REMARK 921   NORMALIZED FREE ENERGY PREDICTED BY IDOCK:   -4.96 KCAL/MOL
REMARK 922        TOTAL FREE ENERGY PREDICTED BY IDOCK:   -5.61 KCAL/MOL
REMARK 923 INTER-LIGAND FREE ENERGY PREDICTED BY IDOCK:   -5.14 KCAL/MOL
REMARK 924 INTRA-LIGAND FREE ENERGY PREDICTED BY IDOCK:   -0.47 KCAL/MOL
REMARK 927      BINDING AFFINITY PREDICTED BY RF-SCORE:    0.00 PKD
ROOT
HETATM    1  O   UNL     1      -9.600  11.638  68.006  1.00  0.00    -0.172 OA 
HETATM    2  C   UNL     1     -10.579  12.302  68.649  1.00  0.00    -0.224 C  
HETATM    3  O   UNL     1     -10.888  13.445  68.333  1.00  0.00    -0.247 OA 
HETATM    4  C   UNL     1     -11.279  11.608  69.768  1.00  0.00    -0.203 A  
HETATM    5  C   UNL     1     -12.326  12.279  70.420  1.00  0.00    -0.228 A  
HETATM    6  O   UNL     1     -12.751  13.537  70.087  1.00  0.00    -0.166 OA 
HETATM    7  C   UNL     1     -12.996  11.683  71.485  1.00  0.00    -0.463 A  
HETATM    8  C   UNL     1     -12.613  10.417  71.934  1.00  0.00    -0.387 A  
HETATM    9  H   UNL     1     -13.459  13.991  70.529  1.00  0.00     0.000 HD 
HETATM   10  C   UNL     1     -11.570   9.703  71.317  1.00  0.00    -0.466 A  
HETATM   11  C   UNL     1     -10.937  10.318  70.213  1.00  0.00    -0.375 A  
ENDROOT
BRANCH  10  12
HETATM   12  C   UNL     1     -11.140   8.368  71.814  1.00  0.00    -0.358 A  
HETATM   13  C   UNL     1     -11.902   7.200  71.591  1.00  0.00    -0.306 A  
HETATM   14  F   UNL     1     -13.050   7.258  70.896  1.00  0.00    -0.347 F  
HETATM   15  C   UNL     1     -11.512   5.948  72.061  1.00  0.00    -0.311 A  
HETATM   16  C   UNL     1     -10.323   5.833  72.757  1.00  0.00    -0.192 A  
HETATM   17  F   UNL     1      -9.936   4.634  73.210  1.00  0.00    -0.154 F  
HETATM   18  C   UNL     1      -9.527   6.944  72.991  1.00  0.00    -0.168 A  
HETATM   19  C   UNL     1      -9.936   8.202  72.530  1.00  0.00    -0.372 A  
ENDBRANCH  10  12
TORSDOF 1
ENDMDL
MODEL      101
REMARK 921   NORMALIZED FREE ENERGY PREDICTED BY IDOCK:   -4.93 KCAL/MOL
REMARK 922        TOTAL FREE ENERGY PREDICTED BY IDOCK:   -5.59 KCAL/MOL
REMARK 923 INTER-LIGAND FREE ENERGY PREDICTED BY IDOCK:   -5.11 KCAL/MOL
REMARK 924 INTRA-LIGAND FREE ENERGY PREDICTED BY IDOCK:   -0.48 KCAL/MOL
REMARK 927      BINDING AFFINITY PREDICTED BY RF-SCORE:    0.00 PKD
ROOT
HETATM    1  O   UNL     1     -11.272   8.825  70.155  1.00  0.00    -0.237 OA 
HETATM    2  C   UNL     1     -10.026   9.299  70.344  1.00  0.00    -0.237 C  
HETATM    3  O   UNL     1      -9.382   9.016  71.348  1.00  0.00    -0.251 OA 
HETATM    4  C   UNL     1      -9.448  10.189  69.296  1.00  0.00    -0.231 A  
HETATM    5  C   UNL     1      -8.136  10.659  69.467  1.00  0.00    -0.043 A  
HETATM    6  O   UNL     1      -7.346  10.344  70.541  1.00  0.00    -0.449 OA 
HETATM    7  C   UNL     1      -7.560  11.510  68.529  1.00  0.00    -0.130 A  
HETATM    8  C   UNL     1      -8.294  11.929  67.417  1.00  0.00    -0.163 A  
HETATM    9  H   UNL     1      -6.459  10.662  70.657  1.00  0.00     0.000 HD 
HETATM   10  C   UNL     1      -9.612  11.489  67.200  1.00  0.00    -0.189 A  
HETATM   11  C   UNL     1     -10.154  10.593  68.149  1.00  0.00    -0.179 A  
ENDROOT
BRANCH  10  12
HETATM   12  C   UNL     1     -10.407  11.958  66.032  1.00  0.00    -0.268 A  
HETATM   13  C   UNL     1     -10.561  11.180  64.864  1.00  0.00    -0.289 A  
HETATM   14  F   UNL     1     -10.000   9.963  64.777  1.00  0.00    -0.382 F  
HETATM   15  C   UNL     1     -11.296  11.615  63.764  1.00  0.00    -0.482 A  
HETATM   16  C   UNL     1     -11.917  12.850  63.816  1.00  0.00    -0.512 A  
HETATM   17  F   UNL     1     -12.628  13.277  62.766  1.00  0.00    -0.370 F  
HETATM   18  C   UNL     1     -11.811  13.649  64.944  1.00  0.00    -0.398 A  
HETATM   19  C   UNL     1     -11.057  13.211  66.040  1.00  0.00    -0.299 A  
ENDBRANCH  10  12
TORSDOF 1
ENDMDL
MODEL      102
REMARK 921   NORMALIZED FREE ENERGY PREDICTED BY IDOCK:   -4.93 KCAL/MOL
REMARK 922        TOTAL FREE ENERGY PREDICTED BY IDOCK:   -5.58 KCAL/MOL
REMARK 923 INTER-LIGAND FREE ENERGY PREDICTED BY IDOCK:   -5.15 KCAL/MOL
REMARK 924 INTRA-LIGAND FREE ENERGY PREDICTED BY IDOCK:   -0.44 KCAL/MOL
REMARK 927      BINDING AFFINITY PREDICTED BY RF-SCORE:    0.00 PKD
ROOT
HETATM    1  O   UNL     1     -10.424  11.375  68.677  1.00  0.00    -0.188 OA 
HETATM    2  C   UNL     1     -11.292  11.484  69.701  1.00  0.00    -0.256 C  
HETATM    3  O   UNL     1     -11.841  12.548  69.960  1.00  0.00    -0.331 OA 
HETATM    4  C   UNL     1     -11.565  10.268  70.520  1.00  0.00    -0.424 A  
HETATM    5  C   UNL     1     -12.496  10.362  71.567  1.00  0.00    -0.404 A  
HETATM    6  O   UNL     1     -13.178  11.508  71.881  1.00  0.00    -0.485 OA 
HETATM    7  C   UNL     1     -12.769   9.263  72.374  1.00  0.00    -0.383 A  
HETATM    8  C   UNL     1     -12.097   8.056  72.167  1.00  0.00    -0.391 A  
HETATM    9  H   UNL     1     -13.807  11.572  72.589  1.00  0.00     0.000 HD 
HETATM   10  C   UNL     1     -11.154   7.909  71.134  1.00  0.00    -0.278 A  
HETATM   11  C   UNL     1     -10.929   9.032  70.306  1.00  0.00    -0.274 A  
ENDROOT
BRANCH  10  12
HETATM   12  C   UNL     1     -10.413   6.634  70.931  1.00  0.00    -0.249 A  
HETATM   13  C   UNL     1     -10.582   5.841  69.775  1.00  0.00    -0.318 A  
HETATM   14  F   UNL     1     -11.416   6.230  68.798  1.00  0.00    -0.415 F  
HETATM   15  C   UNL     1      -9.899   4.642  69.582  1.00  0.00    -0.293 A  
HETATM   16  C   UNL     1      -9.006   4.213  70.547  1.00  0.00    -0.095 A  
HETATM   17  F   UNL     1      -8.343   3.064  70.370  1.00  0.00    -0.054 F  
HETATM   18  C   UNL     1      -8.791   4.961  71.695  1.00  0.00    -0.146 A  
HETATM   19  C   UNL     1      -9.493   6.157  71.889  1.00  0.00    -0.160 A  
ENDBRANCH  10  12
TORSDOF 1
ENDMDL
MODEL      103
REMARK 921   NORMALIZED FREE ENERGY PREDICTED BY IDOCK:   -4.93 KCAL/MOL
REMARK 922        TOTAL FREE ENERGY PREDICTED BY IDOCK:   -5.58 KCAL/MOL
REMARK 923 INTER-LIGAND FREE ENERGY PREDICTED BY IDOCK:   -5.11 KCAL/MOL
REMARK 924 INTRA-LIGAND FREE ENERGY PREDICTED BY IDOCK:   -0.47 KCAL/MOL
REMARK 927      BINDING AFFINITY PREDICTED BY RF-SCORE:    0.00 PKD
ROOT
HETATM    1  O   UNL     1      -5.991  15.974  69.147  1.00  0.00    -0.118 OA 
HETATM    2  C   UNL     1      -6.638  16.996  68.556  1.00  0.00    -0.168 C  
HETATM    3  O   UNL     1      -6.031  17.965  68.115  1.00  0.00    -0.166 OA 
HETATM    4  C   UNL     1      -8.123  16.920  68.455  1.00  0.00    -0.244 A  
HETATM    5  C   UNL     1      -8.805  17.963  67.808  1.00  0.00    -0.251 A  
HETATM    6  O   UNL     1      -8.184  19.051  67.254  1.00  0.00    -0.269 OA 
HETATM    7  C   UNL     1     -10.192  17.951  67.708  1.00  0.00    -0.372 A  
HETATM    8  C   UNL     1     -10.927  16.908  68.278  1.00  0.00    -0.298 A  
HETATM    9  H   UNL     1      -8.644  19.757  66.816  1.00  0.00     0.000 HD 
HETATM   10  C   UNL     1     -10.295  15.840  68.939  1.00  0.00    -0.224 A  
HETATM   11  C   UNL     1      -8.882  15.861  68.988  1.00  0.00    -0.243 A  
ENDROOT
BRANCH  10  12
HETATM   12  C   UNL     1     -11.077  14.744  69.575  1.00  0.00    -0.302 A  
HETATM   13  C   UNL     1     -11.761  14.919  70.797  1.00  0.00    -0.311 A  
HETATM   14  F   UNL     1     -11.743  16.105  71.425  1.00  0.00    -0.402 F  
HETATM   15  C   UNL     1     -12.487  13.896  71.403  1.00  0.00    -0.424 A  
HETATM   16  C   UNL     1     -12.561  12.664  70.780  1.00  0.00    -0.217 A  
HETATM   17  F   UNL     1     -13.259  11.674  71.351  1.00  0.00    -0.459 F  
HETATM   18  C   UNL     1     -11.920  12.441  69.570  1.00  0.00    -0.324 A  
HETATM   19  C   UNL     1     -11.178  13.471  68.976  1.00  0.00    -0.314 A  
ENDBRANCH  10  12
TORSDOF 1
ENDMDL
MODEL      104
REMARK 921   NORMALIZED FREE ENERGY PREDICTED BY IDOCK:   -4.92 KCAL/MOL
REMARK 922        TOTAL FREE ENERGY PREDICTED BY IDOCK:   -5.58 KCAL/MOL
REMARK 923 INTER-LIGAND FREE ENERGY PREDICTED BY IDOCK:   -5.18 KCAL/MOL
REMARK 924 INTRA-LIGAND FREE ENERGY PREDICTED BY IDOCK:   -0.40 KCAL/MOL
REMARK 927      BINDING AFFINITY PREDICTED BY RF-SCORE:    0.00 PKD
ROOT
HETATM    1  O   UNL     1      -9.802   8.572  68.851  1.00  0.00    -0.168 OA 
HETATM    2  C   UNL     1      -9.070   8.019  67.866  1.00  0.00    -0.132 C  
HETATM    3  O   UNL     1      -8.376   7.029  68.067  1.00  0.00    -0.118 OA 
HETATM    4  C   UNL     1      -9.122   8.649  66.516  1.00  0.00    -0.206 A  
HETATM    5  C   UNL     1      -8.391   8.058  65.473  1.00  0.00    -0.147 A  
HETATM    6  O   UNL     1      -7.632   6.927  65.619  1.00  0.00    -0.081 OA 
HETATM    7  C   UNL     1      -8.388   8.620  64.200  1.00  0.00    -0.133 A  
HETATM    8  C   UNL     1      -9.094   9.800  63.953  1.00  0.00    -0.275 A  
HETATM    9  H   UNL     1      -7.137   6.527  64.913  1.00  0.00     0.000 HD 
HETATM   10  C   UNL     1      -9.841  10.434  64.963  1.00  0.00    -0.384 A  
HETATM   11  C   UNL     1      -9.856   9.815  66.234  1.00  0.00    -0.315 A  
ENDROOT
BRANCH  10  12
HETATM   12  C   UNL     1     -10.569  11.708  64.711  1.00  0.00    -0.358 A  
HETATM   13  C   UNL     1     -10.303  12.884  65.444  1.00  0.00    -0.296 A  
HETATM   14  F   UNL     1      -9.356  12.895  66.396  1.00  0.00    -0.237 F  
HETATM   15  C   UNL     1     -10.986  14.078  65.221  1.00  0.00    -0.335 A  
HETATM   16  C   UNL     1     -11.951  14.125  64.232  1.00  0.00    -0.435 A  
HETATM   17  F   UNL     1     -12.611  15.268  64.006  1.00  0.00    -0.473 F  
HETATM   18  C   UNL     1     -12.241  13.003  63.470  1.00  0.00    -0.580 A  
HETATM   19  C   UNL     1     -11.561  11.802  63.713  1.00  0.00    -0.508 A  
ENDBRANCH  10  12
TORSDOF 1
ENDMDL
MODEL      105
REMARK 921   NORMALIZED FREE ENERGY PREDICTED BY IDOCK:   -4.92 KCAL/MOL
REMARK 922        TOTAL FREE ENERGY PREDICTED BY IDOCK:   -5.57 KCAL/MOL
REMARK 923 INTER-LIGAND FREE ENERGY PREDICTED BY IDOCK:   -5.12 KCAL/MOL
REMARK 924 INTRA-LIGAND FREE ENERGY PREDICTED BY IDOCK:   -0.45 KCAL/MOL
REMARK 927      BINDING AFFINITY PREDICTED BY RF-SCORE:    0.00 PKD
ROOT
HETATM    1  O   UNL     1     -10.329   8.388  68.574  1.00  0.00    -0.206 OA 
HETATM    2  C   UNL     1     -10.264   8.761  67.281  1.00  0.00    -0.263 C  
HETATM    3  O   UNL     1     -10.015   7.951  66.396  1.00  0.00    -0.217 OA 
HETATM    4  C   UNL     1     -10.500  10.197  66.954  1.00  0.00    -0.286 A  
HETATM    5  C   UNL     1     -10.470  10.589  65.606  1.00  0.00    -0.143 A  
HETATM    6  O   UNL     1     -10.243   9.728  64.566  1.00  0.00    -0.344 OA 
HETATM    7  C   UNL     1     -10.661  11.921  65.250  1.00  0.00    -0.320 A  
HETATM    8  C   UNL     1     -10.858  12.889  66.238  1.00  0.00    -0.295 A  
HETATM    9  H   UNL     1     -10.222   9.993  63.654  1.00  0.00     0.000 HD 
HETATM   10  C   UNL     1     -10.894  12.550  67.602  1.00  0.00    -0.255 A  
HETATM   11  C   UNL     1     -10.738  11.183  67.928  1.00  0.00    -0.261 A  
ENDROOT
BRANCH  10  12
HETATM   12  C   UNL     1     -11.072  13.585  68.657  1.00  0.00    -0.299 A  
HETATM   13  C   UNL     1     -10.073  14.538  68.954  1.00  0.00    -0.224 A  
HETATM   14  F   UNL     1      -8.919  14.552  68.267  1.00  0.00    -0.159 F  
HETATM   15  C   UNL     1     -10.228  15.503  69.946  1.00  0.00    -0.305 A  
HETATM   16  C   UNL     1     -11.411  15.548  70.661  1.00  0.00    -0.343 A  
HETATM   17  F   UNL     1     -11.572  16.473  71.615  1.00  0.00    -0.482 F  
HETATM   18  C   UNL     1     -12.432  14.646  70.401  1.00  0.00    -0.410 A  
HETATM   19  C   UNL     1     -12.261  13.668  69.413  1.00  0.00    -0.307 A  
ENDBRANCH  10  12
TORSDOF 1
ENDMDL
MODEL      106
REMARK 921   NORMALIZED FREE ENERGY PREDICTED BY IDOCK:   -4.92 KCAL/MOL
REMARK 922        TOTAL FREE ENERGY PREDICTED BY IDOCK:   -5.57 KCAL/MOL
REMARK 923 INTER-LIGAND FREE ENERGY PREDICTED BY IDOCK:   -5.10 KCAL/MOL
REMARK 924 INTRA-LIGAND FREE ENERGY PREDICTED BY IDOCK:   -0.47 KCAL/MOL
REMARK 927      BINDING AFFINITY PREDICTED BY RF-SCORE:    0.00 PKD
ROOT
HETATM    1  O   UNL     1     -11.255  19.753  67.060  1.00  0.00    -0.276 OA 
HETATM    2  C   UNL     1      -9.911  19.834  67.029  1.00  0.00    -0.392 C  
HETATM    3  O   UNL     1      -9.334  20.906  67.164  1.00  0.00    -0.341 OA 
HETATM    4  C   UNL     1      -9.138  18.576  66.819  1.00  0.00    -0.297 A  
HETATM    5  C   UNL     1      -7.736  18.644  66.821  1.00  0.00    -0.242 A  
HETATM    6  O   UNL     1      -7.029  19.802  67.012  1.00  0.00    -0.206 OA 
HETATM    7  C   UNL     1      -6.969  17.503  66.607  1.00  0.00    -0.264 A  
HETATM    8  C   UNL     1      -7.591  16.277  66.359  1.00  0.00    -0.131 A  
HETATM    9  H   UNL     1      -6.080  19.848  67.014  1.00  0.00     0.000 HD 
HETATM   10  C   UNL     1      -8.992  16.154  66.343  1.00  0.00    -0.353 A  
HETATM   11  C   UNL     1      -9.742  17.324  66.605  1.00  0.00    -0.295 A  
ENDROOT
BRANCH  10  12
HETATM   12  C   UNL     1      -9.657  14.855  66.048  1.00  0.00    -0.346 A  
HETATM   13  C   UNL     1      -9.651  13.781  66.964  1.00  0.00    -0.251 A  
HETATM   14  F   UNL     1      -9.051  13.907  68.159  1.00  0.00    -0.167 F  
HETATM   15  C   UNL     1     -10.263  12.559  66.692  1.00  0.00    -0.243 A  
HETATM   16  C   UNL     1     -10.919  12.390  65.487  1.00  0.00    -0.293 A  
HETATM   17  F   UNL     1     -11.513  11.222  65.215  1.00  0.00    -0.222 F  
HETATM   18  C   UNL     1     -10.969  13.418  64.556  1.00  0.00    -0.404 A  
HETATM   19  C   UNL     1     -10.337  14.637  64.831  1.00  0.00    -0.382 A  
ENDBRANCH  10  12
TORSDOF 1
ENDMDL
MODEL      107
REMARK 921   NORMALIZED FREE ENERGY PREDICTED BY IDOCK:   -4.92 KCAL/MOL
REMARK 922        TOTAL FREE ENERGY PREDICTED BY IDOCK:   -5.57 KCAL/MOL
REMARK 923 INTER-LIGAND FREE ENERGY PREDICTED BY IDOCK:   -5.21 KCAL/MOL
REMARK 924 INTRA-LIGAND FREE ENERGY PREDICTED BY IDOCK:   -0.36 KCAL/MOL
REMARK 927      BINDING AFFINITY PREDICTED BY RF-SCORE:    0.00 PKD
ROOT
HETATM    1  O   UNL     1      -9.924   8.845  72.003  1.00  0.00    -0.329 OA 
HETATM    2  C   UNL     1     -10.149   7.658  71.409  1.00  0.00    -0.182 C  
HETATM    3  O   UNL     1     -10.153   6.615  72.052  1.00  0.00    -0.184 OA 
HETATM    4  C   UNL     1     -10.390   7.644  69.938  1.00  0.00    -0.225 A  
HETATM    5  C   UNL     1     -10.661   6.416  69.315  1.00  0.00    -0.259 A  
HETATM    6  O   UNL     1     -10.725   5.221  69.981  1.00  0.00    -0.287 OA 
HETATM    7  C   UNL     1     -10.870   6.347  67.941  1.00  0.00    -0.404 A  
HETATM    8  C   UNL     1     -10.784   7.502  67.160  1.00  0.00    -0.379 A  
HETATM    9  H   UNL     1     -10.908   4.389  69.560  1.00  0.00     0.000 HD 
HETATM   10  C   UNL     1     -10.513   8.757  67.733  1.00  0.00    -0.292 A  
HETATM   11  C   UNL     1     -10.346   8.800  69.136  1.00  0.00    -0.227 A  
ENDROOT
BRANCH  10  12
HETATM   12  C   UNL     1     -10.390   9.984  66.899  1.00  0.00    -0.297 A  
HETATM   13  C   UNL     1     -11.147  11.147  67.155  1.00  0.00    -0.287 A  
HETATM   14  F   UNL     1     -12.003  11.190  68.189  1.00  0.00    -0.358 F  
HETATM   15  C   UNL     1     -11.045  12.296  66.374  1.00  0.00    -0.345 A  
HETATM   16  C   UNL     1     -10.156  12.312  65.315  1.00  0.00    -0.271 A  
HETATM   17  F   UNL     1     -10.047  13.412  64.560  1.00  0.00    -0.385 F  
HETATM   18  C   UNL     1      -9.376  11.202  65.027  1.00  0.00    -0.232 A  
HETATM   19  C   UNL     1      -9.497  10.045  65.808  1.00  0.00    -0.270 A  
ENDBRANCH  10  12
TORSDOF 1
ENDMDL
MODEL      108
REMARK 921   NORMALIZED FREE ENERGY PREDICTED BY IDOCK:   -4.83 KCAL/MOL
REMARK 922        TOTAL FREE ENERGY PREDICTED BY IDOCK:   -5.47 KCAL/MOL
REMARK 923 INTER-LIGAND FREE ENERGY PREDICTED BY IDOCK:   -5.43 KCAL/MOL
REMARK 924 INTRA-LIGAND FREE ENERGY PREDICTED BY IDOCK:   -0.04 KCAL/MOL
REMARK 927      BINDING AFFINITY PREDICTED BY RF-SCORE:    0.00 PKD
ROOT
HETATM    1  O   UNL     1     -11.718   7.862  73.057  1.00  0.00    -0.305 OA 
HETATM    2  C   UNL     1     -11.199   7.331  71.933  1.00  0.00    -0.248 C  
HETATM    3  O   UNL     1     -10.843   6.160  71.887  1.00  0.00    -0.230 OA 
HETATM    4  C   UNL     1     -11.064   8.214  70.739  1.00  0.00    -0.275 A  
HETATM    5  C   UNL     1     -10.558   7.661  69.552  1.00  0.00    -0.227 A  
HETATM    6  O   UNL     1     -10.185   6.350  69.419  1.00  0.00    -0.174 OA 
HETATM    7  C   UNL     1     -10.391   8.449  68.417  1.00  0.00    -0.239 A  
HETATM    8  C   UNL     1     -10.701   9.811  68.456  1.00  0.00    -0.252 A  
HETATM    9  H   UNL     1      -9.842   5.976  68.616  1.00  0.00     0.000 HD 
HETATM   10  C   UNL     1     -11.208  10.414  69.620  1.00  0.00    -0.333 A  
HETATM   11  C   UNL     1     -11.405   9.579  70.743  1.00  0.00    -0.387 A  
ENDROOT
BRANCH  10  12
HETATM   12  C   UNL     1     -11.509  11.872  69.674  1.00  0.00    -0.337 A  
HETATM   13  C   UNL     1     -12.352  12.430  70.659  1.00  0.00    -0.279 A  
HETATM   14  F   UNL     1     -12.903  11.652  71.606  1.00  0.00    -0.473 F  
HETATM   15  C   UNL     1     -12.647  13.791  70.711  1.00  0.00    -0.410 A  
HETATM   16  C   UNL     1     -12.080  14.637  69.776  1.00  0.00    -0.324 A  
HETATM   17  F   UNL     1     -12.354  15.947  69.818  1.00  0.00    -0.357 F  
HETATM   18  C   UNL     1     -11.232  14.144  68.795  1.00  0.00    -0.294 A  
HETATM   19  C   UNL     1     -10.955  12.772  68.740  1.00  0.00    -0.289 A  
ENDBRANCH  10  12
TORSDOF 1
ENDMDL
MODEL      109
REMARK 921   NORMALIZED FREE ENERGY PREDICTED BY IDOCK:   -4.82 KCAL/MOL
REMARK 922        TOTAL FREE ENERGY PREDICTED BY IDOCK:   -5.47 KCAL/MOL
REMARK 923 INTER-LIGAND FREE ENERGY PREDICTED BY IDOCK:   -5.22 KCAL/MOL
REMARK 924 INTRA-LIGAND FREE ENERGY PREDICTED BY IDOCK:   -0.25 KCAL/MOL
REMARK 927      BINDING AFFINITY PREDICTED BY RF-SCORE:    0.00 PKD
ROOT
HETATM    1  O   UNL     1      -9.195  12.777  66.335  1.00  0.00    -0.221 OA 
HETATM    2  C   UNL     1     -10.232  12.873  67.190  1.00  0.00    -0.239 C  
HETATM    3  O   UNL     1     -10.941  11.906  67.441  1.00  0.00    -0.235 OA 
HETATM    4  C   UNL     1     -10.499  14.197  67.822  1.00  0.00    -0.246 A  
HETATM    5  C   UNL     1     -11.554  14.298  68.742  1.00  0.00    -0.322 A  
HETATM    6  O   UNL     1     -12.356  13.247  69.102  1.00  0.00    -0.197 OA 
HETATM    7  C   UNL     1     -11.859  15.516  69.342  1.00  0.00    -0.392 A  
HETATM    8  C   UNL     1     -11.130  16.662  69.012  1.00  0.00    -0.234 A  
HETATM    9  H   UNL     1     -13.070  13.316  69.724  1.00  0.00     0.000 HD 
HETATM   10  C   UNL     1     -10.065  16.615  68.096  1.00  0.00    -0.267 A  
HETATM   11  C   UNL     1      -9.754  15.355  67.535  1.00  0.00    -0.208 A  
ENDROOT
BRANCH  10  12
HETATM   12  C   UNL     1      -9.307  17.841  67.719  1.00  0.00    -0.257 A  
HETATM   13  C   UNL     1      -9.948  19.071  67.457  1.00  0.00    -0.349 A  
HETATM   14  F   UNL     1     -11.282  19.180  67.560  1.00  0.00    -0.505 F  
HETATM   15  C   UNL     1      -9.247  20.220  67.095  1.00  0.00    -0.519 A  
HETATM   16  C   UNL     1      -7.869  20.165  67.005  1.00  0.00    -0.319 A  
HETATM   17  F   UNL     1      -7.185  21.264  66.661  1.00  0.00    -0.270 F  
HETATM   18  C   UNL     1      -7.187  18.986  67.266  1.00  0.00    -0.228 A  
HETATM   19  C   UNL     1      -7.900  17.832  67.614  1.00  0.00    -0.212 A  
ENDBRANCH  10  12
TORSDOF 1
ENDMDL
MODEL      110
REMARK 921   NORMALIZED FREE ENERGY PREDICTED BY IDOCK:   -4.81 KCAL/MOL
REMARK 922        TOTAL FREE ENERGY PREDICTED BY IDOCK:   -5.46 KCAL/MOL
REMARK 923 INTER-LIGAND FREE ENERGY PREDICTED BY IDOCK:   -5.37 KCAL/MOL
REMARK 924 INTRA-LIGAND FREE ENERGY PREDICTED BY IDOCK:   -0.09 KCAL/MOL
REMARK 927      BINDING AFFINITY PREDICTED BY RF-SCORE:    0.00 PKD
ROOT
HETATM    1  O   UNL     1      -8.363   7.435  69.954  1.00  0.00    -0.130 OA 
HETATM    2  C   UNL     1      -9.337   7.876  70.772  1.00  0.00    -0.157 C  
HETATM    3  O   UNL     1      -9.499   7.394  71.887  1.00  0.00    -0.144 OA 
HETATM    4  C   UNL     1     -10.223   8.969  70.281  1.00  0.00    -0.235 A  
HETATM    5  C   UNL     1     -11.219   9.461  71.139  1.00  0.00    -0.357 A  
HETATM    6  O   UNL     1     -11.424   8.999  72.413  1.00  0.00    -0.251 OA 
HETATM    7  C   UNL     1     -12.086  10.465  70.720  1.00  0.00    -0.463 A  
HETATM    8  C   UNL     1     -11.991  10.977  69.424  1.00  0.00    -0.408 A  
HETATM    9  H   UNL     1     -12.098   9.332  72.994  1.00  0.00     0.000 HD 
HETATM   10  C   UNL     1     -11.014  10.518  68.523  1.00  0.00    -0.300 A  
HETATM   11  C   UNL     1     -10.122   9.527  68.993  1.00  0.00    -0.201 A  
ENDROOT
BRANCH  10  12
HETATM   12  C   UNL     1     -10.931  11.040  67.131  1.00  0.00    -0.344 A  
HETATM   13  C   UNL     1     -10.352  10.294  66.081  1.00  0.00    -0.183 A  
HETATM   14  F   UNL     1      -9.867   9.062  66.306  1.00  0.00    -0.272 F  
HETATM   15  C   UNL     1     -10.262  10.779  64.778  1.00  0.00    -0.403 A  
HETATM   16  C   UNL     1     -10.774  12.030  64.489  1.00  0.00    -0.312 A  
HETATM   17  F   UNL     1     -10.695  12.504  63.240  1.00  0.00    -0.445 F  
HETATM   18  C   UNL     1     -11.367  12.799  65.479  1.00  0.00    -0.347 A  
HETATM   19  C   UNL     1     -11.438  12.311  66.790  1.00  0.00    -0.421 A  
ENDBRANCH  10  12
TORSDOF 1
ENDMDL
MODEL      111
REMARK 921   NORMALIZED FREE ENERGY PREDICTED BY IDOCK:   -4.81 KCAL/MOL
REMARK 922        TOTAL FREE ENERGY PREDICTED BY IDOCK:   -5.46 KCAL/MOL
REMARK 923 INTER-LIGAND FREE ENERGY PREDICTED BY IDOCK:   -4.98 KCAL/MOL
REMARK 924 INTRA-LIGAND FREE ENERGY PREDICTED BY IDOCK:   -0.48 KCAL/MOL
REMARK 927      BINDING AFFINITY PREDICTED BY RF-SCORE:    0.00 PKD
ROOT
HETATM    1  O   UNL     1      -6.715  13.252  68.864  1.00  0.00    -0.100 OA 
HETATM    2  C   UNL     1      -7.529  13.669  67.874  1.00  0.00    -0.158 C  
HETATM    3  O   UNL     1      -7.187  14.554  67.099  1.00  0.00    -0.132 OA 
HETATM    4  C   UNL     1      -8.867  13.024  67.749  1.00  0.00    -0.188 A  
HETATM    5  C   UNL     1      -9.708  13.425  66.699  1.00  0.00    -0.275 A  
HETATM    6  O   UNL     1      -9.370  14.375  65.772  1.00  0.00    -0.521 OA 
HETATM    7  C   UNL     1     -10.975  12.870  66.553  1.00  0.00    -0.300 A  
HETATM    8  C   UNL     1     -11.437  11.923  67.470  1.00  0.00    -0.396 A  
HETATM    9  H   UNL     1      -9.938  14.647  65.062  1.00  0.00     0.000 HD 
HETATM   10  C   UNL     1     -10.636  11.488  68.541  1.00  0.00    -0.236 A  
HETATM   11  C   UNL     1      -9.338  12.040  68.638  1.00  0.00    -0.056 A  
ENDROOT
BRANCH  10  12
HETATM   12  C   UNL     1     -11.137  10.502  69.538  1.00  0.00    -0.320 A  
HETATM   13  C   UNL     1     -11.970  10.877  70.614  1.00  0.00    -0.368 A  
HETATM   14  F   UNL     1     -12.359  12.154  70.763  1.00  0.00    -0.422 F  
HETATM   15  C   UNL     1     -12.435   9.963  71.557  1.00  0.00    -0.506 A  
HETATM   16  C   UNL     1     -12.087   8.631  71.430  1.00  0.00    -0.303 A  
HETATM   17  F   UNL     1     -12.531   7.743  72.328  1.00  0.00    -0.306 F  
HETATM   18  C   UNL     1     -11.283   8.205  70.383  1.00  0.00    -0.221 A  
HETATM   19  C   UNL     1     -10.806   9.134  69.449  1.00  0.00    -0.165 A  
ENDBRANCH  10  12
TORSDOF 1
ENDMDL
MODEL      112
REMARK 921   NORMALIZED FREE ENERGY PREDICTED BY IDOCK:   -4.79 KCAL/MOL
REMARK 922        TOTAL FREE ENERGY PREDICTED BY IDOCK:   -5.43 KCAL/MOL
REMARK 923 INTER-LIGAND FREE ENERGY PREDICTED BY IDOCK:   -5.41 KCAL/MOL
REMARK 924 INTRA-LIGAND FREE ENERGY PREDICTED BY IDOCK:   -0.02 KCAL/MOL
REMARK 927      BINDING AFFINITY PREDICTED BY RF-SCORE:    0.00 PKD
ROOT
HETATM    1  O   UNL     1     -10.861  19.449  66.957  1.00  0.00    -0.476 OA 
HETATM    2  C   UNL     1     -10.883  18.403  66.109  1.00  0.00     0.010 C  
HETATM    3  O   UNL     1     -10.725  18.558  64.903  1.00  0.00    -0.334 OA 
HETATM    4  C   UNL     1     -11.111  17.044  66.677  1.00  0.00     0.337 A  
HETATM    5  C   UNL     1     -11.100  15.944  65.806  1.00  0.00    -0.076 A  
HETATM    6  O   UNL     1     -10.884  16.041  64.457  1.00  0.00    -0.843 OA 
HETATM    7  C   UNL     1     -11.331  14.658  66.284  1.00  0.00    -0.347 A  
HETATM    8  C   UNL     1     -11.605  14.451  67.638  1.00  0.00    -0.396 A  
HETATM    9  H   UNL     1     -10.876  15.297  63.867  1.00  0.00     0.000 HD 
HETATM   10  C   UNL     1     -11.630  15.519  68.553  1.00  0.00    -0.379 A  
HETATM   11  C   UNL     1     -11.351  16.808  68.043  1.00  0.00     0.009 A  
ENDROOT
BRANCH  10  12
HETATM   12  C   UNL     1     -11.953  15.305  69.991  1.00  0.00    -0.375 A  
HETATM   13  C   UNL     1     -11.675  16.277  70.976  1.00  0.00    -0.277 A  
HETATM   14  F   UNL     1     -11.119  17.452  70.639  1.00  0.00     0.104 F  
HETATM   15  C   UNL     1     -11.965  16.082  72.325  1.00  0.00    -0.633 A  
HETATM   16  C   UNL     1     -12.565  14.900  72.719  1.00  0.00    -0.385 A  
HETATM   17  F   UNL     1     -12.852  14.703  74.012  1.00  0.00    -0.528 F  
HETATM   18  C   UNL     1     -12.874  13.918  71.790  1.00  0.00    -0.421 A  
HETATM   19  C   UNL     1     -12.564  14.116  70.438  1.00  0.00    -0.397 A  
ENDBRANCH  10  12
TORSDOF 1
ENDMDL
MODEL      113
REMARK 921   NORMALIZED FREE ENERGY PREDICTED BY IDOCK:   -4.76 KCAL/MOL
REMARK 922        TOTAL FREE ENERGY PREDICTED BY IDOCK:   -5.40 KCAL/MOL
REMARK 923 INTER-LIGAND FREE ENERGY PREDICTED BY IDOCK:   -4.93 KCAL/MOL
REMARK 924 INTRA-LIGAND FREE ENERGY PREDICTED BY IDOCK:   -0.48 KCAL/MOL
REMARK 927      BINDING AFFINITY PREDICTED BY RF-SCORE:    0.00 PKD
ROOT
HETATM    1  O   UNL     1      -6.920  18.310  65.523  1.00  0.00    -0.494 OA 
HETATM    2  C   UNL     1      -6.331  17.642  66.533  1.00  0.00    -0.217 C  
HETATM    3  O   UNL     1      -5.272  18.025  67.018  1.00  0.00    -0.120 OA 
HETATM    4  C   UNL     1      -7.001  16.414  67.046  1.00  0.00    -0.254 A  
HETATM    5  C   UNL     1      -6.414  15.731  68.123  1.00  0.00    -0.130 A  
HETATM    6  O   UNL     1      -5.257  16.130  68.739  1.00  0.00    -0.102 OA 
HETATM    7  C   UNL     1      -6.988  14.566  68.624  1.00  0.00    -0.103 A  
HETATM    8  C   UNL     1      -8.146  14.048  68.039  1.00  0.00    -0.152 A  
HETATM    9  H   UNL     1      -4.859  15.667  69.467  1.00  0.00     0.000 HD 
HETATM   10  C   UNL     1      -8.774  14.692  66.958  1.00  0.00    -0.258 A  
HETATM   11  C   UNL     1      -8.189  15.894  66.499  1.00  0.00    -0.307 A  
ENDROOT
BRANCH  10  12
HETATM   12  C   UNL     1      -9.990  14.125  66.313  1.00  0.00    -0.315 A  
HETATM   13  C   UNL     1     -11.291  14.560  66.647  1.00  0.00    -0.356 A  
HETATM   14  F   UNL     1     -11.473  15.529  67.559  1.00  0.00    -0.338 F  
HETATM   15  C   UNL     1     -12.435  14.028  66.056  1.00  0.00    -0.489 A  
HETATM   16  C   UNL     1     -12.298  13.049  65.089  1.00  0.00    -0.484 A  
HETATM   17  F   UNL     1     -13.390  12.533  64.512  1.00  0.00    -0.378 F  
HETATM   18  C   UNL     1     -11.043  12.595  64.712  1.00  0.00    -0.335 A  
HETATM   19  C   UNL     1      -9.899  13.123  65.324  1.00  0.00    -0.096 A  
ENDBRANCH  10  12
TORSDOF 1
ENDMDL
MODEL      114
REMARK 921   NORMALIZED FREE ENERGY PREDICTED BY IDOCK:   -4.75 KCAL/MOL
REMARK 922        TOTAL FREE ENERGY PREDICTED BY IDOCK:   -5.39 KCAL/MOL
REMARK 923 INTER-LIGAND FREE ENERGY PREDICTED BY IDOCK:   -5.16 KCAL/MOL
REMARK 924 INTRA-LIGAND FREE ENERGY PREDICTED BY IDOCK:   -0.24 KCAL/MOL
REMARK 927      BINDING AFFINITY PREDICTED BY RF-SCORE:    0.00 PKD
ROOT
HETATM    1  O   UNL     1     -10.458   8.716  69.976  1.00  0.00    -0.212 OA 
HETATM    2  C   UNL     1     -10.175   8.348  68.712  1.00  0.00    -0.207 C  
HETATM    3  O   UNL     1      -9.909   7.186  68.432  1.00  0.00    -0.147 OA 
HETATM    4  C   UNL     1     -10.189   9.401  67.656  1.00  0.00    -0.281 A  
HETATM    5  C   UNL     1      -9.931   9.021  66.329  1.00  0.00    -0.281 A  
HETATM    6  O   UNL     1      -9.672   7.733  65.941  1.00  0.00    -0.437 OA 
HETATM    7  C   UNL     1      -9.910   9.969  65.311  1.00  0.00    -0.388 A  
HETATM    8  C   UNL     1     -10.120  11.318  65.604  1.00  0.00    -0.295 A  
HETATM    9  H   UNL     1      -9.497   7.476  65.044  1.00  0.00     0.000 HD 
HETATM   10  C   UNL     1     -10.380  11.752  66.916  1.00  0.00    -0.247 A  
HETATM   11  C   UNL     1     -10.436  10.760  67.922  1.00  0.00    -0.233 A  
ENDROOT
BRANCH  10  12
HETATM   12  C   UNL     1     -10.573  13.194  67.237  1.00  0.00    -0.250 A  
HETATM   13  C   UNL     1     -11.561  13.638  68.142  1.00  0.00    -0.332 A  
HETATM   14  F   UNL     1     -12.359  12.757  68.767  1.00  0.00    -0.272 F  
HETATM   15  C   UNL     1     -11.754  14.985  68.440  1.00  0.00    -0.341 A  
HETATM   16  C   UNL     1     -10.938  15.929  67.844  1.00  0.00    -0.327 A  
HETATM   17  F   UNL     1     -11.112  17.226  68.125  1.00  0.00    -0.371 F  
HETATM   18  C   UNL     1      -9.941  15.546  66.958  1.00  0.00    -0.240 A  
HETATM   19  C   UNL     1      -9.765  14.191  66.652  1.00  0.00    -0.297 A  
ENDBRANCH  10  12
TORSDOF 1
ENDMDL
MODEL      115
REMARK 921   NORMALIZED FREE ENERGY PREDICTED BY IDOCK:   -4.73 KCAL/MOL
REMARK 922        TOTAL FREE ENERGY PREDICTED BY IDOCK:   -5.38 KCAL/MOL
REMARK 923 INTER-LIGAND FREE ENERGY PREDICTED BY IDOCK:   -4.91 KCAL/MOL
REMARK 924 INTRA-LIGAND FREE ENERGY PREDICTED BY IDOCK:   -0.47 KCAL/MOL
REMARK 927      BINDING AFFINITY PREDICTED BY RF-SCORE:    0.00 PKD
ROOT
HETATM    1  O   UNL     1      -6.648  17.399  69.236  1.00  0.00    -0.236 OA 
HETATM    2  C   UNL     1      -7.369  18.266  68.499  1.00  0.00    -0.286 C  
HETATM    3  O   UNL     1      -7.109  19.463  68.489  1.00  0.00    -0.287 OA 
HETATM    4  C   UNL     1      -8.503  17.727  67.695  1.00  0.00    -0.229 A  
HETATM    5  C   UNL     1      -9.238  18.617  66.896  1.00  0.00    -0.304 A  
HETATM    6  O   UNL     1      -8.972  19.958  66.803  1.00  0.00    -0.328 OA 
HETATM    7  C   UNL     1     -10.320  18.169  66.145  1.00  0.00    -0.394 A  
HETATM    8  C   UNL     1     -10.704  16.827  66.200  1.00  0.00    -0.116 A  
HETATM    9  H   UNL     1      -9.469  20.560  66.263  1.00  0.00     0.000 HD 
HETATM   10  C   UNL     1     -10.004  15.895  66.986  1.00  0.00    -0.248 A  
HETATM   11  C   UNL     1      -8.885  16.373  67.705  1.00  0.00    -0.189 A  
ENDROOT
BRANCH  10  12
HETATM   12  C   UNL     1     -10.430  14.471  67.071  1.00  0.00    -0.268 A  
HETATM   13  C   UNL     1     -10.236  13.562  66.008  1.00  0.00    -0.305 A  
HETATM   14  F   UNL     1      -9.632  13.957  64.875  1.00  0.00    -0.185 F  
HETATM   15  C   UNL     1     -10.640  12.230  66.076  1.00  0.00    -0.287 A  
HETATM   16  C   UNL     1     -11.240  11.768  67.233  1.00  0.00    -0.305 A  
HETATM   17  F   UNL     1     -11.629  10.490  67.311  1.00  0.00    -0.304 F  
HETATM   18  C   UNL     1     -11.442  12.615  68.314  1.00  0.00    -0.356 A  
HETATM   19  C   UNL     1     -11.047  13.956  68.231  1.00  0.00    -0.280 A  
ENDBRANCH  10  12
TORSDOF 1
ENDMDL
MODEL      116
REMARK 921   NORMALIZED FREE ENERGY PREDICTED BY IDOCK:   -4.72 KCAL/MOL
REMARK 922        TOTAL FREE ENERGY PREDICTED BY IDOCK:   -5.37 KCAL/MOL
REMARK 923 INTER-LIGAND FREE ENERGY PREDICTED BY IDOCK:   -5.38 KCAL/MOL
REMARK 924 INTRA-LIGAND FREE ENERGY PREDICTED BY IDOCK:    0.02 KCAL/MOL
REMARK 927      BINDING AFFINITY PREDICTED BY RF-SCORE:    0.00 PKD
ROOT
HETATM    1  O   UNL     1     -10.359   9.738  68.054  1.00  0.00    -0.183 OA 
HETATM    2  C   UNL     1     -10.313   9.845  66.713  1.00  0.00    -0.217 C  
HETATM    3  O   UNL     1     -10.210   8.855  65.998  1.00  0.00    -0.199 OA 
HETATM    4  C   UNL     1     -10.386  11.209  66.116  1.00  0.00    -0.302 A  
HETATM    5  C   UNL     1     -10.376  11.328  64.717  1.00  0.00    -0.307 A  
HETATM    6  O   UNL     1     -10.309  10.261  63.860  1.00  0.00    -0.451 OA 
HETATM    7  C   UNL     1     -10.419  12.580  64.111  1.00  0.00    -0.429 A  
HETATM    8  C   UNL     1     -10.446  13.738  64.893  1.00  0.00    -0.437 A  
HETATM    9  H   UNL     1     -10.301  10.342  62.914  1.00  0.00     0.000 HD 
HETATM   10  C   UNL     1     -10.455  13.674  66.298  1.00  0.00    -0.291 A  
HETATM   11  C   UNL     1     -10.452  12.387  66.882  1.00  0.00    -0.243 A  
ENDROOT
BRANCH  10  12
HETATM   12  C   UNL     1     -10.452  14.906  67.133  1.00  0.00    -0.271 A  
HETATM   13  C   UNL     1     -10.502  16.199  66.568  1.00  0.00    -0.297 A  
HETATM   14  F   UNL     1     -10.574  16.359  65.237  1.00  0.00    -0.370 F  
HETATM   15  C   UNL     1     -10.489  17.357  67.343  1.00  0.00    -0.336 A  
HETATM   16  C   UNL     1     -10.445  17.244  68.720  1.00  0.00    -0.340 A  
HETATM   17  F   UNL     1     -10.436  18.350  69.474  1.00  0.00    -0.222 F  
HETATM   18  C   UNL     1     -10.410  15.998  69.328  1.00  0.00    -0.251 A  
HETATM   19  C   UNL     1     -10.406  14.839  68.542  1.00  0.00    -0.237 A  
ENDBRANCH  10  12
TORSDOF 1
ENDMDL
MODEL      117
REMARK 921   NORMALIZED FREE ENERGY PREDICTED BY IDOCK:   -4.69 KCAL/MOL
REMARK 922        TOTAL FREE ENERGY PREDICTED BY IDOCK:   -5.33 KCAL/MOL
REMARK 923 INTER-LIGAND FREE ENERGY PREDICTED BY IDOCK:   -4.90 KCAL/MOL
REMARK 924 INTRA-LIGAND FREE ENERGY PREDICTED BY IDOCK:   -0.43 KCAL/MOL
REMARK 927      BINDING AFFINITY PREDICTED BY RF-SCORE:    0.00 PKD
ROOT
HETATM    1  O   UNL     1     -11.176   6.499  68.118  1.00  0.00    -0.275 OA 
HETATM    2  C   UNL     1      -9.973   6.494  67.512  1.00  0.00    -0.137 C  
HETATM    3  O   UNL     1      -9.218   5.533  67.603  1.00  0.00    -0.111 OA 
HETATM    4  C   UNL     1      -9.580   7.698  66.726  1.00  0.00    -0.269 A  
HETATM    5  C   UNL     1      -8.344   7.688  66.060  1.00  0.00    -0.135 A  
HETATM    6  O   UNL     1      -7.474   6.630  66.083  1.00  0.00    -0.078 OA 
HETATM    7  C   UNL     1      -7.920   8.796  65.333  1.00  0.00    -0.112 A  
HETATM    8  C   UNL     1      -8.713   9.945  65.280  1.00  0.00    -0.181 A  
HETATM    9  H   UNL     1      -6.637   6.624  65.633  1.00  0.00     0.000 HD 
HETATM   10  C   UNL     1      -9.958  10.008  65.930  1.00  0.00    -0.339 A  
HETATM   11  C   UNL     1     -10.378   8.852  66.627  1.00  0.00    -0.294 A  
ENDROOT
BRANCH  10  12
HETATM   12  C   UNL     1     -10.790  11.243  65.901  1.00  0.00    -0.264 A  
HETATM   13  C   UNL     1     -11.337  11.754  64.704  1.00  0.00    -0.256 A  
HETATM   14  F   UNL     1     -11.135  11.121  63.537  1.00  0.00    -0.437 F  
HETATM   15  C   UNL     1     -12.108  12.913  64.667  1.00  0.00    -0.474 A  
HETATM   16  C   UNL     1     -12.369  13.585  65.847  1.00  0.00    -0.456 A  
HETATM   17  F   UNL     1     -13.113  14.698  65.824  1.00  0.00    -0.300 F  
HETATM   18  C   UNL     1     -11.870  13.118  67.054  1.00  0.00    -0.435 A  
HETATM   19  C   UNL     1     -11.081  11.961  67.080  1.00  0.00    -0.347 A  
ENDBRANCH  10  12
TORSDOF 1
ENDMDL
MODEL      118
REMARK 921   NORMALIZED FREE ENERGY PREDICTED BY IDOCK:   -4.66 KCAL/MOL
REMARK 922        TOTAL FREE ENERGY PREDICTED BY IDOCK:   -5.30 KCAL/MOL
REMARK 923 INTER-LIGAND FREE ENERGY PREDICTED BY IDOCK:   -4.96 KCAL/MOL
REMARK 924 INTRA-LIGAND FREE ENERGY PREDICTED BY IDOCK:   -0.34 KCAL/MOL
REMARK 927      BINDING AFFINITY PREDICTED BY RF-SCORE:    0.00 PKD
ROOT
HETATM    1  O   UNL     1      -9.564  16.900  65.757  1.00  0.00    -0.515 OA 
HETATM    2  C   UNL     1     -10.058  16.466  66.933  1.00  0.00    -0.281 C  
HETATM    3  O   UNL     1     -10.301  17.244  67.847  1.00  0.00    -0.327 OA 
HETATM    4  C   UNL     1     -10.298  15.003  67.095  1.00  0.00    -0.257 A  
HETATM    5  C   UNL     1     -10.846  14.545  68.303  1.00  0.00    -0.241 A  
HETATM    6  O   UNL     1     -11.183  15.366  69.348  1.00  0.00    -0.257 OA 
HETATM    7  C   UNL     1     -11.068  13.188  68.513  1.00  0.00    -0.296 A  
HETATM    8  C   UNL     1     -10.719  12.260  67.528  1.00  0.00    -0.255 A  
HETATM    9  H   UNL     1     -11.554  15.056  70.165  1.00  0.00     0.000 HD 
HETATM   10  C   UNL     1     -10.165  12.665  66.302  1.00  0.00    -0.264 A  
HETATM   11  C   UNL     1      -9.990  14.054  66.103  1.00  0.00    -0.325 A  
ENDROOT
BRANCH  10  12
HETATM   12  C   UNL     1      -9.763  11.676  65.263  1.00  0.00    -0.255 A  
HETATM   13  C   UNL     1      -8.914  10.586  65.551  1.00  0.00    -0.183 A  
HETATM   14  F   UNL     1      -8.450  10.393  66.796  1.00  0.00    -0.122 F  
HETATM   15  C   UNL     1      -8.526   9.662  64.583  1.00  0.00    -0.183 A  
HETATM   16  C   UNL     1      -9.002   9.800  63.293  1.00  0.00    -0.252 A  
HETATM   17  F   UNL     1      -8.638   8.916  62.355  1.00  0.00    -0.180 F  
HETATM   18  C   UNL     1      -9.851  10.845  62.958  1.00  0.00    -0.358 A  
HETATM   19  C   UNL     1     -10.223  11.779  63.933  1.00  0.00    -0.411 A  
ENDBRANCH  10  12
TORSDOF 1
ENDMDL
MODEL      119
REMARK 921   NORMALIZED FREE ENERGY PREDICTED BY IDOCK:   -4.64 KCAL/MOL
REMARK 922        TOTAL FREE ENERGY PREDICTED BY IDOCK:   -5.27 KCAL/MOL
REMARK 923 INTER-LIGAND FREE ENERGY PREDICTED BY IDOCK:   -4.79 KCAL/MOL
REMARK 924 INTRA-LIGAND FREE ENERGY PREDICTED BY IDOCK:   -0.48 KCAL/MOL
REMARK 927      BINDING AFFINITY PREDICTED BY RF-SCORE:    0.00 PKD
ROOT
HETATM    1  O   UNL     1     -11.081   8.922  72.130  1.00  0.00    -0.362 OA 
HETATM    2  C   UNL     1     -10.886   7.983  71.185  1.00  0.00    -0.238 C  
HETATM    3  O   UNL     1     -10.791   6.796  71.475  1.00  0.00    -0.228 OA 
HETATM    4  C   UNL     1     -10.784   8.429  69.766  1.00  0.00    -0.211 A  
HETATM    5  C   UNL     1     -10.617   7.455  68.769  1.00  0.00    -0.168 A  
HETATM    6  O   UNL     1     -10.548   6.110  69.020  1.00  0.00    -0.217 OA 
HETATM    7  C   UNL     1     -10.493   7.821  67.432  1.00  0.00    -0.362 A  
HETATM    8  C   UNL     1     -10.506   9.170  67.070  1.00  0.00    -0.311 A  
HETATM    9  H   UNL     1     -10.435   5.451  68.346  1.00  0.00     0.000 HD 
HETATM   10  C   UNL     1     -10.668  10.186  68.029  1.00  0.00    -0.305 A  
HETATM   11  C   UNL     1     -10.833   9.779  69.374  1.00  0.00    -0.256 A  
ENDROOT
BRANCH  10  12
HETATM   12  C   UNL     1     -10.651  11.625  67.650  1.00  0.00    -0.237 A  
HETATM   13  C   UNL     1      -9.467  12.394  67.667  1.00  0.00    -0.190 A  
HETATM   14  F   UNL     1      -8.296  11.835  68.012  1.00  0.00    -0.126 F  
HETATM   15  C   UNL     1      -9.444  13.744  67.323  1.00  0.00    -0.236 A  
HETATM   16  C   UNL     1     -10.619  14.358  66.932  1.00  0.00    -0.278 A  
HETATM   17  F   UNL     1     -10.609  15.653  66.596  1.00  0.00    -0.287 F  
HETATM   18  C   UNL     1     -11.809  13.646  66.883  1.00  0.00    -0.451 A  
HETATM   19  C   UNL     1     -11.826  12.293  67.246  1.00  0.00    -0.330 A  
ENDBRANCH  10  12
TORSDOF 1
ENDMDL
MODEL      120
REMARK 921   NORMALIZED FREE ENERGY PREDICTED BY IDOCK:   -4.63 KCAL/MOL
REMARK 922        TOTAL FREE ENERGY PREDICTED BY IDOCK:   -5.27 KCAL/MOL
REMARK 923 INTER-LIGAND FREE ENERGY PREDICTED BY IDOCK:   -4.79 KCAL/MOL
REMARK 924 INTRA-LIGAND FREE ENERGY PREDICTED BY IDOCK:   -0.48 KCAL/MOL
REMARK 927      BINDING AFFINITY PREDICTED BY RF-SCORE:    0.00 PKD
ROOT
HETATM    1  O   UNL     1     -11.228  16.811  64.259  1.00  0.00    -1.163 OA 
HETATM    2  C   UNL     1     -10.819  17.642  65.238  1.00  0.00     0.194 C  
HETATM    3  O   UNL     1     -10.895  18.858  65.113  1.00  0.00    -0.497 OA 
HETATM    4  C   UNL     1     -10.263  17.038  66.482  1.00  0.00    -0.321 A  
HETATM    5  C   UNL     1      -9.867  17.894  67.522  1.00  0.00    -0.309 A  
HETATM    6  O   UNL     1      -9.967  19.259  67.466  1.00  0.00    -0.331 OA 
HETATM    7  C   UNL     1      -9.320  17.382  68.694  1.00  0.00    -0.267 A  
HETATM    8  C   UNL     1      -9.134  16.004  68.838  1.00  0.00    -0.235 A  
HETATM    9  H   UNL     1      -9.699  19.838  68.169  1.00  0.00     0.000 HD 
HETATM   10  C   UNL     1      -9.511  15.104  67.826  1.00  0.00    -0.194 A  
HETATM   11  C   UNL     1     -10.101  15.652  66.664  1.00  0.00    -0.280 A  
ENDROOT
BRANCH  10  12
HETATM   12  C   UNL     1      -9.284  13.639  67.963  1.00  0.00    -0.197 A  
HETATM   13  C   UNL     1     -10.196  12.796  68.635  1.00  0.00    -0.152 A  
HETATM   14  F   UNL     1     -11.325  13.295  69.163  1.00  0.00    -0.271 F  
HETATM   15  C   UNL     1      -9.987  11.425  68.776  1.00  0.00    -0.188 A  
HETATM   16  C   UNL     1      -8.853  10.858  68.224  1.00  0.00    -0.140 A  
HETATM   17  F   UNL     1      -8.644   9.542  68.351  1.00  0.00    -0.116 F  
HETATM   18  C   UNL     1      -7.931  11.637  67.541  1.00  0.00    -0.141 A  
HETATM   19  C   UNL     1      -8.141  13.017  67.418  1.00  0.00    -0.180 A  
ENDBRANCH  10  12
TORSDOF 1
ENDMDL
MODEL      121
REMARK 921   NORMALIZED FREE ENERGY PREDICTED BY IDOCK:   -4.63 KCAL/MOL
REMARK 922        TOTAL FREE ENERGY PREDICTED BY IDOCK:   -5.26 KCAL/MOL
REMARK 923 INTER-LIGAND FREE ENERGY PREDICTED BY IDOCK:   -5.22 KCAL/MOL
REMARK 924 INTRA-LIGAND FREE ENERGY PREDICTED BY IDOCK:   -0.04 KCAL/MOL
REMARK 927      BINDING AFFINITY PREDICTED BY RF-SCORE:    0.00 PKD
ROOT
HETATM    1  O   UNL     1      -9.542   4.898  68.760  1.00  0.00    -0.136 OA 
HETATM    2  C   UNL     1      -9.877   4.589  70.027  1.00  0.00    -0.226 C  
HETATM    3  O   UNL     1      -9.759   3.447  70.457  1.00  0.00    -0.177 OA 
HETATM    4  C   UNL     1     -10.402   5.678  70.899  1.00  0.00    -0.303 A  
HETATM    5  C   UNL     1     -10.720   5.375  72.232  1.00  0.00    -0.231 A  
HETATM    6  O   UNL     1     -10.569   4.132  72.788  1.00  0.00    -0.177 OA 
HETATM    7  C   UNL     1     -11.235   6.351  73.079  1.00  0.00    -0.176 A  
HETATM    8  C   UNL     1     -11.469   7.643  72.601  1.00  0.00    -0.403 A  
HETATM    9  H   UNL     1     -10.784   3.926  73.690  1.00  0.00     0.000 HD 
HETATM   10  C   UNL     1     -11.171   7.999  71.274  1.00  0.00    -0.287 A  
HETATM   11  C   UNL     1     -10.610   6.996  70.450  1.00  0.00    -0.244 A  
ENDROOT
BRANCH  10  12
HETATM   12  C   UNL     1     -11.448   9.366  70.753  1.00  0.00    -0.364 A  
HETATM   13  C   UNL     1     -12.340  10.250  71.398  1.00  0.00    -0.401 A  
HETATM   14  F   UNL     1     -12.961   9.886  72.531  1.00  0.00    -0.437 F  
HETATM   15  C   UNL     1     -12.612  11.527  70.912  1.00  0.00    -0.438 A  
HETATM   16  C   UNL     1     -11.974  11.959  69.764  1.00  0.00    -0.307 A  
HETATM   17  F   UNL     1     -12.226  13.186  69.289  1.00  0.00    -0.328 F  
HETATM   18  C   UNL     1     -11.077  11.137  69.098  1.00  0.00    -0.306 A  
HETATM   19  C   UNL     1     -10.822   9.848  69.584  1.00  0.00    -0.281 A  
ENDBRANCH  10  12
TORSDOF 1
ENDMDL
MODEL      122
REMARK 921   NORMALIZED FREE ENERGY PREDICTED BY IDOCK:   -4.62 KCAL/MOL
REMARK 922        TOTAL FREE ENERGY PREDICTED BY IDOCK:   -5.26 KCAL/MOL
REMARK 923 INTER-LIGAND FREE ENERGY PREDICTED BY IDOCK:   -4.81 KCAL/MOL
REMARK 924 INTRA-LIGAND FREE ENERGY PREDICTED BY IDOCK:   -0.45 KCAL/MOL
REMARK 927      BINDING AFFINITY PREDICTED BY RF-SCORE:    0.00 PKD
ROOT
HETATM    1  O   UNL     1     -11.373  14.447  68.567  1.00  0.00    -0.255 OA 
HETATM    2  C   UNL     1     -11.449  13.714  67.440  1.00  0.00    -0.336 C  
HETATM    3  O   UNL     1     -11.793  14.216  66.376  1.00  0.00    -0.386 OA 
HETATM    4  C   UNL     1     -11.107  12.265  67.522  1.00  0.00    -0.326 A  
HETATM    5  C   UNL     1     -11.149  11.500  66.346  1.00  0.00    -0.269 A  
HETATM    6  O   UNL     1     -11.480  12.008  65.117  1.00  0.00    -0.324 OA 
HETATM    7  C   UNL     1     -10.861  10.140  66.373  1.00  0.00     0.006 A  
HETATM    8  C   UNL     1     -10.552   9.512  67.583  1.00  0.00    -0.329 A  
HETATM    9  H   UNL     1     -11.509  11.491  64.321  1.00  0.00     0.000 HD 
HETATM   10  C   UNL     1     -10.499  10.231  68.790  1.00  0.00    -0.222 A  
HETATM   11  C   UNL     1     -10.757  11.620  68.722  1.00  0.00    -0.254 A  
ENDROOT
BRANCH  10  12
HETATM   12  C   UNL     1     -10.202   9.559  70.085  1.00  0.00    -0.291 A  
HETATM   13  C   UNL     1      -8.935   9.008  70.373  1.00  0.00    -0.205 A  
HETATM   14  F   UNL     1      -7.936   9.091  69.479  1.00  0.00    -0.087 F  
HETATM   15  C   UNL     1      -8.651   8.369  71.578  1.00  0.00    -0.215 A  
HETATM   16  C   UNL     1      -9.638   8.284  72.542  1.00  0.00    -0.295 A  
HETATM   17  F   UNL     1      -9.376   7.675  73.705  1.00  0.00    -0.262 F  
HETATM   18  C   UNL     1     -10.897   8.822  72.318  1.00  0.00    -0.328 A  
HETATM   19  C   UNL     1     -11.178   9.448  71.097  1.00  0.00    -0.427 A  
ENDBRANCH  10  12
TORSDOF 1
ENDMDL
MODEL      123
REMARK 921   NORMALIZED FREE ENERGY PREDICTED BY IDOCK:   -4.61 KCAL/MOL
REMARK 922        TOTAL FREE ENERGY PREDICTED BY IDOCK:   -5.25 KCAL/MOL
REMARK 923 INTER-LIGAND FREE ENERGY PREDICTED BY IDOCK:   -4.87 KCAL/MOL
REMARK 924 INTRA-LIGAND FREE ENERGY PREDICTED BY IDOCK:   -0.38 KCAL/MOL
REMARK 927      BINDING AFFINITY PREDICTED BY RF-SCORE:    0.00 PKD
ROOT
HETATM    1  O   UNL     1     -11.079  12.149  69.680  1.00  0.00    -0.128 OA 
HETATM    2  C   UNL     1     -11.265  12.170  68.346  1.00  0.00    -0.265 C  
HETATM    3  O   UNL     1     -11.842  11.256  67.769  1.00  0.00    -0.610 OA 
HETATM    4  C   UNL     1     -10.742  13.340  67.584  1.00  0.00    -0.250 A  
HETATM    5  C   UNL     1     -10.963  13.389  66.198  1.00  0.00    -0.276 A  
HETATM    6  O   UNL     1     -11.639  12.424  65.499  1.00  0.00    -0.352 OA 
HETATM    7  C   UNL     1     -10.476  14.447  65.439  1.00  0.00    -0.391 A  
HETATM    8  C   UNL     1      -9.734  15.464  66.046  1.00  0.00    -0.370 A  
HETATM    9  H   UNL     1     -11.788  12.457  64.562  1.00  0.00     0.000 HD 
HETATM   10  C   UNL     1      -9.483  15.462  67.430  1.00  0.00    -0.207 A  
HETATM   11  C   UNL     1     -10.026  14.394  68.180  1.00  0.00    -0.223 A  
ENDROOT
BRANCH  10  12
HETATM   12  C   UNL     1      -8.667  16.527  68.075  1.00  0.00    -0.189 A  
HETATM   13  C   UNL     1      -7.513  16.235  68.834  1.00  0.00    -0.209 A  
HETATM   14  F   UNL     1      -7.098  14.967  68.985  1.00  0.00    -0.100 F  
HETATM   15  C   UNL     1      -6.749  17.225  69.449  1.00  0.00    -0.193 A  
HETATM   16  C   UNL     1      -7.118  18.549  69.299  1.00  0.00    -0.148 A  
HETATM   17  F   UNL     1      -6.390  19.509  69.882  1.00  0.00    -0.313 F  
HETATM   18  C   UNL     1      -8.235  18.894  68.551  1.00  0.00    -0.388 A  
HETATM   19  C   UNL     1      -9.006  17.891  67.950  1.00  0.00    -0.264 A  
ENDBRANCH  10  12
TORSDOF 1
ENDMDL
MODEL      124
REMARK 921   NORMALIZED FREE ENERGY PREDICTED BY IDOCK:   -4.58 KCAL/MOL
REMARK 922        TOTAL FREE ENERGY PREDICTED BY IDOCK:   -5.22 KCAL/MOL
REMARK 923 INTER-LIGAND FREE ENERGY PREDICTED BY IDOCK:   -4.74 KCAL/MOL
REMARK 924 INTRA-LIGAND FREE ENERGY PREDICTED BY IDOCK:   -0.48 KCAL/MOL
REMARK 927      BINDING AFFINITY PREDICTED BY RF-SCORE:    0.00 PKD
ROOT
HETATM    1  O   UNL     1     -13.017   6.897  70.978  1.00  0.00    -0.305 OA 
HETATM    2  C   UNL     1     -11.791   7.021  71.522  1.00  0.00    -0.314 C  
HETATM    3  O   UNL     1     -11.448   6.341  72.482  1.00  0.00    -0.276 OA 
HETATM    4  C   UNL     1     -10.857   8.018  70.925  1.00  0.00    -0.248 A  
HETATM    5  C   UNL     1      -9.564   8.129  71.461  1.00  0.00    -0.173 A  
HETATM    6  O   UNL     1      -9.103   7.369  72.503  1.00  0.00    -0.134 OA 
HETATM    7  C   UNL     1      -8.663   9.060  70.954  1.00  0.00    -0.280 A  
HETATM    8  C   UNL     1      -9.046   9.916  69.919  1.00  0.00    -0.241 A  
HETATM    9  H   UNL     1      -8.228   7.444  72.866  1.00  0.00     0.000 HD 
HETATM   10  C   UNL     1     -10.330   9.848  69.348  1.00  0.00    -0.238 A  
HETATM   11  C   UNL     1     -11.208   8.864  69.857  1.00  0.00    -0.076 A  
ENDROOT
BRANCH  10  12
HETATM   12  C   UNL     1     -10.751  10.780  68.266  1.00  0.00    -0.253 A  
HETATM   13  C   UNL     1     -10.341  10.613  66.925  1.00  0.00    -0.236 A  
HETATM   14  F   UNL     1      -9.559   9.578  66.576  1.00  0.00    -0.191 F  
HETATM   15  C   UNL     1     -10.723  11.486  65.909  1.00  0.00    -0.325 A  
HETATM   16  C   UNL     1     -11.552  12.550  66.214  1.00  0.00    -0.394 A  
HETATM   17  F   UNL     1     -11.929  13.393  65.244  1.00  0.00    -0.338 F  
HETATM   18  C   UNL     1     -11.998  12.753  67.511  1.00  0.00    -0.342 A  
HETATM   19  C   UNL     1     -11.595  11.880  68.530  1.00  0.00    -0.375 A  
ENDBRANCH  10  12
TORSDOF 1
ENDMDL
MODEL      125
REMARK 921   NORMALIZED FREE ENERGY PREDICTED BY IDOCK:   -4.56 KCAL/MOL
REMARK 922        TOTAL FREE ENERGY PREDICTED BY IDOCK:   -5.19 KCAL/MOL
REMARK 923 INTER-LIGAND FREE ENERGY PREDICTED BY IDOCK:   -5.02 KCAL/MOL
REMARK 924 INTRA-LIGAND FREE ENERGY PREDICTED BY IDOCK:   -0.17 KCAL/MOL
REMARK 927      BINDING AFFINITY PREDICTED BY RF-SCORE:    0.00 PKD
ROOT
HETATM    1  O   UNL     1     -11.583   6.585  70.400  1.00  0.00    -0.375 OA 
HETATM    2  C   UNL     1     -10.827   6.311  69.320  1.00  0.00    -0.342 C  
HETATM    3  O   UNL     1     -10.364   5.191  69.135  1.00  0.00    -0.213 OA 
HETATM    4  C   UNL     1     -10.564   7.412  68.351  1.00  0.00    -0.192 A  
HETATM    5  C   UNL     1      -9.808   7.127  67.203  1.00  0.00    -0.181 A  
HETATM    6  O   UNL     1      -9.299   5.888  66.913  1.00  0.00    -0.123 OA 
HETATM    7  C   UNL     1      -9.514   8.125  66.279  1.00  0.00    -0.259 A  
HETATM    8  C   UNL     1      -9.949   9.435  66.500  1.00  0.00    -0.339 A  
HETATM    9  H   UNL     1      -8.787   5.695  66.136  1.00  0.00     0.000 HD 
HETATM   10  C   UNL     1     -10.707   9.775  67.634  1.00  0.00    -0.334 A  
HETATM   11  C   UNL     1     -11.023   8.729  68.533  1.00  0.00     0.096 A  
ENDROOT
BRANCH  10  12
HETATM   12  C   UNL     1     -11.145  11.175  67.888  1.00  0.00    -0.331 A  
HETATM   13  C   UNL     1     -11.244  11.708  69.192  1.00  0.00    -0.263 A  
HETATM   14  F   UNL     1     -10.923  10.960  70.261  1.00  0.00    -0.316 F  
HETATM   15  C   UNL     1     -11.661  13.014  69.439  1.00  0.00    -0.386 A  
HETATM   16  C   UNL     1     -11.975  13.832  68.370  1.00  0.00    -0.360 A  
HETATM   17  F   UNL     1     -12.374  15.090  68.595  1.00  0.00    -0.245 F  
HETATM   18  C   UNL     1     -11.880  13.365  67.067  1.00  0.00    -0.443 A  
HETATM   19  C   UNL     1     -11.476  12.046  66.829  1.00  0.00    -0.410 A  
ENDBRANCH  10  12
TORSDOF 1
ENDMDL
MODEL      126
REMARK 921   NORMALIZED FREE ENERGY PREDICTED BY IDOCK:   -4.51 KCAL/MOL
REMARK 922        TOTAL FREE ENERGY PREDICTED BY IDOCK:   -5.14 KCAL/MOL
REMARK 923 INTER-LIGAND FREE ENERGY PREDICTED BY IDOCK:   -5.16 KCAL/MOL
REMARK 924 INTRA-LIGAND FREE ENERGY PREDICTED BY IDOCK:    0.02 KCAL/MOL
REMARK 927      BINDING AFFINITY PREDICTED BY RF-SCORE:    0.00 PKD
ROOT
HETATM    1  O   UNL     1      -7.599   7.457  64.692  1.00  0.00    -0.090 OA 
HETATM    2  C   UNL     1      -8.019   8.466  63.905  1.00  0.00    -0.158 C  
HETATM    3  O   UNL     1      -7.613   8.589  62.756  1.00  0.00    -0.102 OA 
HETATM    4  C   UNL     1      -8.994   9.439  64.474  1.00  0.00    -0.227 A  
HETATM    5  C   UNL     1      -9.466  10.473  63.650  1.00  0.00    -0.304 A  
HETATM    6  O   UNL     1      -9.088  10.641  62.344  1.00  0.00    -0.249 OA 
HETATM    7  C   UNL     1     -10.359  11.421  64.141  1.00  0.00    -0.400 A  
HETATM    8  C   UNL     1     -10.777  11.367  65.473  1.00  0.00    -0.313 A  
HETATM    9  H   UNL     1      -9.407  11.340  61.787  1.00  0.00     0.000 HD 
HETATM   10  C   UNL     1     -10.333  10.354  66.341  1.00  0.00    -0.278 A  
HETATM   11  C   UNL     1      -9.458   9.383  65.801  1.00  0.00    -0.325 A  
ENDROOT
BRANCH  10  12
HETATM   12  C   UNL     1     -10.751  10.313  67.770  1.00  0.00    -0.324 A  
HETATM   13  C   UNL     1     -11.550  11.323  68.349  1.00  0.00    -0.308 A  
HETATM   14  F   UNL     1     -11.980  12.360  67.611  1.00  0.00    -0.395 F  
HETATM   15  C   UNL     1     -11.938  11.298  69.687  1.00  0.00    -0.423 A  
HETATM   16  C   UNL     1     -11.544  10.236  70.480  1.00  0.00    -0.338 A  
HETATM   17  F   UNL     1     -11.914  10.199  71.766  1.00  0.00    -0.442 F  
HETATM   18  C   UNL     1     -10.772   9.209  69.959  1.00  0.00    -0.254 A  
HETATM   19  C   UNL     1     -10.372   9.251  68.617  1.00  0.00    -0.229 A  
ENDBRANCH  10  12
TORSDOF 1
ENDMDL
MODEL      127
REMARK 921   NORMALIZED FREE ENERGY PREDICTED BY IDOCK:   -4.47 KCAL/MOL
REMARK 922        TOTAL FREE ENERGY PREDICTED BY IDOCK:   -5.10 KCAL/MOL
REMARK 923 INTER-LIGAND FREE ENERGY PREDICTED BY IDOCK:   -4.85 KCAL/MOL
REMARK 924 INTRA-LIGAND FREE ENERGY PREDICTED BY IDOCK:   -0.26 KCAL/MOL
REMARK 927      BINDING AFFINITY PREDICTED BY RF-SCORE:    0.00 PKD
ROOT
HETATM    1  O   UNL     1      -9.377  13.966  66.851  1.00  0.00    -0.239 OA 
HETATM    2  C   UNL     1     -10.308  14.372  67.735  1.00  0.00    -0.238 C  
HETATM    3  O   UNL     1     -10.625  15.552  67.830  1.00  0.00    -0.260 OA 
HETATM    4  C   UNL     1     -10.944  13.342  68.605  1.00  0.00    -0.294 A  
HETATM    5  C   UNL     1     -11.941  13.749  69.505  1.00  0.00    -0.345 A  
HETATM    6  O   UNL     1     -12.374  15.043  69.630  1.00  0.00    -0.481 OA 
HETATM    7  C   UNL     1     -12.549  12.831  70.355  1.00  0.00    -0.126 A  
HETATM    8  C   UNL     1     -12.152  11.491  70.340  1.00  0.00    -0.471 A  
HETATM    9  H   UNL     1     -13.049  15.319  70.239  1.00  0.00     0.000 HD 
HETATM   10  C   UNL     1     -11.156  11.031  69.460  1.00  0.00    -0.322 A  
HETATM   11  C   UNL     1     -10.587  11.981  68.581  1.00  0.00    -0.253 A  
ENDROOT
BRANCH  10  12
HETATM   12  C   UNL     1     -10.708   9.611  69.464  1.00  0.00    -0.252 A  
HETATM   13  C   UNL     1     -10.475   8.899  70.661  1.00  0.00    -0.221 A  
HETATM   14  F   UNL     1     -10.672   9.485  71.853  1.00  0.00    -0.409 F  
HETATM   15  C   UNL     1     -10.046   7.573  70.673  1.00  0.00    -0.187 A  
HETATM   16  C   UNL     1      -9.858   6.917  69.471  1.00  0.00    -0.159 A  
HETATM   17  F   UNL     1      -9.450   5.642  69.471  1.00  0.00    -0.136 F  
HETATM   18  C   UNL     1     -10.087   7.564  68.266  1.00  0.00    -0.209 A  
HETATM   19  C   UNL     1     -10.502   8.902  68.262  1.00  0.00    -0.243 A  
ENDBRANCH  10  12
TORSDOF 1
ENDMDL
MODEL      128
REMARK 921   NORMALIZED FREE ENERGY PREDICTED BY IDOCK:   -4.44 KCAL/MOL
REMARK 922        TOTAL FREE ENERGY PREDICTED BY IDOCK:   -5.06 KCAL/MOL
REMARK 923 INTER-LIGAND FREE ENERGY PREDICTED BY IDOCK:   -4.59 KCAL/MOL
REMARK 924 INTRA-LIGAND FREE ENERGY PREDICTED BY IDOCK:   -0.47 KCAL/MOL
REMARK 927      BINDING AFFINITY PREDICTED BY RF-SCORE:    0.00 PKD
ROOT
HETATM    1  O   UNL     1      -6.849   8.132  72.472  1.00  0.00    -0.076 OA 
HETATM    2  C   UNL     1      -7.835   7.287  72.830  1.00  0.00    -0.094 C  
HETATM    3  O   UNL     1      -7.605   6.286  73.498  1.00  0.00    -0.094 OA 
HETATM    4  C   UNL     1      -9.223   7.600  72.384  1.00  0.00    -0.201 A  
HETATM    5  C   UNL     1     -10.263   6.745  72.782  1.00  0.00    -0.189 A  
HETATM    6  O   UNL     1     -10.081   5.636  73.566  1.00  0.00    -0.171 OA 
HETATM    7  C   UNL     1     -11.572   6.981  72.373  1.00  0.00    -0.284 A  
HETATM    8  C   UNL     1     -11.861   8.061  71.536  1.00  0.00    -0.328 A  
HETATM    9  H   UNL     1     -10.784   5.058  73.835  1.00  0.00     0.000 HD 
HETATM   10  C   UNL     1     -10.857   8.946  71.106  1.00  0.00    -0.352 A  
HETATM   11  C   UNL     1      -9.544   8.703  71.572  1.00  0.00    -0.327 A  
ENDROOT
BRANCH  10  12
HETATM   12  C   UNL     1     -11.157  10.079  70.188  1.00  0.00    -0.371 A  
HETATM   13  C   UNL     1     -10.789  10.061  68.825  1.00  0.00    -0.219 A  
HETATM   14  F   UNL     1     -10.162   8.996  68.302  1.00  0.00    -0.190 F  
HETATM   15  C   UNL     1     -11.058  11.121  67.962  1.00  0.00    -0.334 A  
HETATM   16  C   UNL     1     -11.728  12.229  68.446  1.00  0.00    -0.337 A  
HETATM   17  F   UNL     1     -11.995  13.252  67.625  1.00  0.00    -0.357 F  
HETATM   18  C   UNL     1     -12.126  12.293  69.773  1.00  0.00    -0.298 A  
HETATM   19  C   UNL     1     -11.837  11.230  70.638  1.00  0.00    -0.368 A  
ENDBRANCH  10  12
TORSDOF 1
ENDMDL
MODEL      129
REMARK 921   NORMALIZED FREE ENERGY PREDICTED BY IDOCK:   -4.42 KCAL/MOL
REMARK 922        TOTAL FREE ENERGY PREDICTED BY IDOCK:   -5.04 KCAL/MOL
REMARK 923 INTER-LIGAND FREE ENERGY PREDICTED BY IDOCK:   -4.56 KCAL/MOL
REMARK 924 INTRA-LIGAND FREE ENERGY PREDICTED BY IDOCK:   -0.48 KCAL/MOL
REMARK 927      BINDING AFFINITY PREDICTED BY RF-SCORE:    0.00 PKD
ROOT
HETATM    1  O   UNL     1     -11.594   9.517  71.723  1.00  0.00    -0.385 OA 
HETATM    2  C   UNL     1     -11.820  10.507  70.839  1.00  0.00    -0.355 C  
HETATM    3  O   UNL     1     -12.442  11.515  71.157  1.00  0.00    -0.376 OA 
HETATM    4  C   UNL     1     -11.295  10.344  69.454  1.00  0.00    -0.310 A  
HETATM    5  C   UNL     1     -11.494  11.387  68.535  1.00  0.00    -0.297 A  
HETATM    6  O   UNL     1     -12.140  12.556  68.837  1.00  0.00    -0.264 OA 
HETATM    7  C   UNL     1     -11.043  11.273  67.224  1.00  0.00    -0.367 A  
HETATM    8  C   UNL     1     -10.409  10.103  66.799  1.00  0.00    -0.285 A  
HETATM    9  H   UNL     1     -12.274  13.262  68.216  1.00  0.00     0.000 HD 
HETATM   10  C   UNL     1     -10.187   9.028  67.677  1.00  0.00    -0.300 A  
HETATM   11  C   UNL     1     -10.620   9.191  69.014  1.00  0.00    -0.219 A  
ENDROOT
BRANCH  10  12
HETATM   12  C   UNL     1      -9.540   7.768  67.219  1.00  0.00    -0.207 A  
HETATM   13  C   UNL     1     -10.289   6.642  66.814  1.00  0.00    -0.210 A  
HETATM   14  F   UNL     1     -11.631   6.680  66.811  1.00  0.00    -0.407 F  
HETATM   15  C   UNL     1      -9.692   5.455  66.393  1.00  0.00    -0.183 A  
HETATM   16  C   UNL     1      -8.312   5.376  66.350  1.00  0.00    -0.110 A  
HETATM   17  F   UNL     1      -7.727   4.243  65.943  1.00  0.00    -0.085 F  
HETATM   18  C   UNL     1      -7.528   6.458  66.722  1.00  0.00    -0.087 A  
HETATM   19  C   UNL     1      -8.136   7.641  67.160  1.00  0.00    -0.118 A  
ENDBRANCH  10  12
TORSDOF 1
ENDMDL
MODEL      130
REMARK 921   NORMALIZED FREE ENERGY PREDICTED BY IDOCK:   -4.37 KCAL/MOL
REMARK 922        TOTAL FREE ENERGY PREDICTED BY IDOCK:   -4.99 KCAL/MOL
REMARK 923 INTER-LIGAND FREE ENERGY PREDICTED BY IDOCK:   -4.55 KCAL/MOL
REMARK 924 INTRA-LIGAND FREE ENERGY PREDICTED BY IDOCK:   -0.44 KCAL/MOL
REMARK 927      BINDING AFFINITY PREDICTED BY RF-SCORE:    0.00 PKD
ROOT
HETATM    1  O   UNL     1      -9.282  10.804  63.787  1.00  0.00    -0.214 OA 
HETATM    2  C   UNL     1     -10.000  11.723  64.460  1.00  0.00    -0.242 C  
HETATM    3  O   UNL     1     -10.186  12.845  64.004  1.00  0.00    -0.397 OA 
HETATM    4  C   UNL     1     -10.564  11.338  65.785  1.00  0.00    -0.306 A  
HETATM    5  C   UNL     1     -11.345  12.276  66.479  1.00  0.00    -0.351 A  
HETATM    6  O   UNL     1     -11.628  13.530  66.006  1.00  0.00    -0.318 OA 
HETATM    7  C   UNL     1     -11.874  11.974  67.729  1.00  0.00    -0.308 A  
HETATM    8  C   UNL     1     -11.610  10.737  68.323  1.00  0.00    -0.297 A  
HETATM    9  H   UNL     1     -12.156  14.165  66.475  1.00  0.00     0.000 HD 
HETATM   10  C   UNL     1     -10.832   9.763  67.673  1.00  0.00    -0.301 A  
HETATM   11  C   UNL     1     -10.343  10.085  66.386  1.00  0.00    -0.249 A  
ENDROOT
BRANCH  10  12
HETATM   12  C   UNL     1     -10.523   8.456  68.316  1.00  0.00    -0.214 A  
HETATM   13  C   UNL     1      -9.725   8.360  69.477  1.00  0.00    -0.177 A  
HETATM   14  F   UNL     1      -9.228   9.464  70.058  1.00  0.00    -0.161 F  
HETATM   15  C   UNL     1      -9.423   7.140  70.080  1.00  0.00    -0.161 A  
HETATM   16  C   UNL     1      -9.936   5.977  69.537  1.00  0.00    -0.178 A  
HETATM   17  F   UNL     1      -9.655   4.800  70.110  1.00  0.00    -0.186 F  
HETATM   18  C   UNL     1     -10.737   6.015  68.406  1.00  0.00    -0.351 A  
HETATM   19  C   UNL     1     -11.022   7.244  67.797  1.00  0.00    -0.141 A  
ENDBRANCH  10  12
TORSDOF 1
ENDMDL
MODEL      131
REMARK 921   NORMALIZED FREE ENERGY PREDICTED BY IDOCK:   -4.33 KCAL/MOL
REMARK 922        TOTAL FREE ENERGY PREDICTED BY IDOCK:   -4.95 KCAL/MOL
REMARK 923 INTER-LIGAND FREE ENERGY PREDICTED BY IDOCK:   -4.50 KCAL/MOL
REMARK 924 INTRA-LIGAND FREE ENERGY PREDICTED BY IDOCK:   -0.45 KCAL/MOL
REMARK 927      BINDING AFFINITY PREDICTED BY RF-SCORE:    0.00 PKD
ROOT
HETATM    1  O   UNL     1      -8.883   8.957  73.048  1.00  0.00    -0.253 OA 
HETATM    2  C   UNL     1      -9.498   7.766  72.916  1.00  0.00    -0.234 C  
HETATM    3  O   UNL     1      -9.548   6.969  73.845  1.00  0.00    -0.214 OA 
HETATM    4  C   UNL     1     -10.117   7.439  71.600  1.00  0.00    -0.200 A  
HETATM    5  C   UNL     1     -10.793   6.217  71.463  1.00  0.00    -0.261 A  
HETATM    6  O   UNL     1     -10.925   5.301  72.474  1.00  0.00    -0.236 OA 
HETATM    7  C   UNL     1     -11.368   5.855  70.249  1.00  0.00    -0.232 A  
HETATM    8  C   UNL     1     -11.255   6.697  69.140  1.00  0.00    -0.305 A  
HETATM    9  H   UNL     1     -11.382   4.474  72.381  1.00  0.00     0.000 HD 
HETATM   10  C   UNL     1     -10.586   7.932  69.222  1.00  0.00    -0.195 A  
HETATM   11  C   UNL     1     -10.049   8.289  70.480  1.00  0.00    -0.210 A  
ENDROOT
BRANCH  10  12
HETATM   12  C   UNL     1     -10.436   8.817  68.035  1.00  0.00    -0.260 A  
HETATM   13  C   UNL     1     -11.080  10.071  67.945  1.00  0.00    -0.195 A  
HETATM   14  F   UNL     1     -11.844  10.519  68.953  1.00  0.00    -0.315 F  
HETATM   15  C   UNL     1     -10.952  10.901  66.833  1.00  0.00    -0.286 A  
HETATM   16  C   UNL     1     -10.152  10.497  65.781  1.00  0.00    -0.265 A  
HETATM   17  F   UNL     1     -10.020  11.288  64.709  1.00  0.00    -0.249 F  
HETATM   18  C   UNL     1      -9.485   9.281  65.823  1.00  0.00    -0.329 A  
HETATM   19  C   UNL     1      -9.632   8.446  66.937  1.00  0.00    -0.264 A  
ENDBRANCH  10  12
TORSDOF 1
ENDMDL
MODEL      132
REMARK 921   NORMALIZED FREE ENERGY PREDICTED BY IDOCK:   -4.31 KCAL/MOL
REMARK 922        TOTAL FREE ENERGY PREDICTED BY IDOCK:   -4.93 KCAL/MOL
REMARK 923 INTER-LIGAND FREE ENERGY PREDICTED BY IDOCK:   -4.46 KCAL/MOL
REMARK 924 INTRA-LIGAND FREE ENERGY PREDICTED BY IDOCK:   -0.47 KCAL/MOL
REMARK 927      BINDING AFFINITY PREDICTED BY RF-SCORE:    0.00 PKD
ROOT
HETATM    1  O   UNL     1      -5.840  13.953  70.263  1.00  0.00    -0.126 OA 
HETATM    2  C   UNL     1      -6.469  13.046  69.491  1.00  0.00    -0.075 C  
HETATM    3  O   UNL     1      -6.175  11.858  69.538  1.00  0.00    -0.093 OA 
HETATM    4  C   UNL     1      -7.535  13.530  68.568  1.00  0.00    -0.122 A  
HETATM    5  C   UNL     1      -8.221  12.588  67.786  1.00  0.00    -0.166 A  
HETATM    6  O   UNL     1      -7.975  11.241  67.823  1.00  0.00    -0.111 OA 
HETATM    7  C   UNL     1      -9.209  12.991  66.893  1.00  0.00    -0.236 A  
HETATM    8  C   UNL     1      -9.509  14.348  66.745  1.00  0.00    -0.280 A  
HETATM    9  H   UNL     1      -8.439  10.604  67.294  1.00  0.00     0.000 HD 
HETATM   10  C   UNL     1      -8.850  15.332  67.502  1.00  0.00    -0.188 A  
HETATM   11  C   UNL     1      -7.881  14.887  68.430  1.00  0.00    -0.121 A  
ENDROOT
BRANCH  10  12
HETATM   12  C   UNL     1      -9.146  16.780  67.323  1.00  0.00    -0.228 A  
HETATM   13  C   UNL     1     -10.345  17.366  67.786  1.00  0.00    -0.358 A  
HETATM   14  F   UNL     1     -11.262  16.626  68.430  1.00  0.00    -0.349 F  
HETATM   15  C   UNL     1     -10.634  18.718  67.615  1.00  0.00    -0.481 A  
HETATM   16  C   UNL     1      -9.708  19.529  66.984  1.00  0.00    -0.347 A  
HETATM   17  F   UNL     1      -9.973  20.830  66.817  1.00  0.00    -0.570 F  
HETATM   18  C   UNL     1      -8.507  19.009  66.523  1.00  0.00    -0.320 A  
HETATM   19  C   UNL     1      -8.232  17.645  66.685  1.00  0.00    -0.291 A  
ENDBRANCH  10  12
TORSDOF 1
ENDMDL
MODEL      133
REMARK 921   NORMALIZED FREE ENERGY PREDICTED BY IDOCK:   -4.30 KCAL/MOL
REMARK 922        TOTAL FREE ENERGY PREDICTED BY IDOCK:   -4.92 KCAL/MOL
REMARK 923 INTER-LIGAND FREE ENERGY PREDICTED BY IDOCK:   -4.44 KCAL/MOL
REMARK 924 INTRA-LIGAND FREE ENERGY PREDICTED BY IDOCK:   -0.48 KCAL/MOL
REMARK 927      BINDING AFFINITY PREDICTED BY RF-SCORE:    0.00 PKD
ROOT
HETATM    1  O   UNL     1     -11.880  15.629  69.442  1.00  0.00    -0.355 OA 
HETATM    2  C   UNL     1     -12.375  14.631  70.199  1.00  0.00    -0.336 C  
HETATM    3  O   UNL     1     -13.228  14.843  71.053  1.00  0.00    -0.371 OA 
HETATM    4  C   UNL     1     -11.851  13.254  69.974  1.00  0.00    -0.365 A  
HETATM    5  C   UNL     1     -12.387  12.201  70.732  1.00  0.00    -0.297 A  
HETATM    6  O   UNL     1     -13.373  12.362  71.670  1.00  0.00    -0.351 OA 
HETATM    7  C   UNL     1     -11.916  10.901  70.576  1.00  0.00    -0.466 A  
HETATM    8  C   UNL     1     -10.880  10.634  69.676  1.00  0.00    -0.318 A  
HETATM    9  H   UNL     1     -13.735  11.650  72.183  1.00  0.00     0.000 HD 
HETATM   10  C   UNL     1     -10.307  11.652  68.894  1.00  0.00    -0.175 A  
HETATM   11  C   UNL     1     -10.836  12.954  69.047  1.00  0.00    -0.188 A  
ENDROOT
BRANCH  10  12
HETATM   12  C   UNL     1      -9.183  11.375  67.958  1.00  0.00    -0.171 A  
HETATM   13  C   UNL     1      -9.396  10.913  66.641  1.00  0.00    -0.171 A  
HETATM   14  F   UNL     1     -10.642  10.723  66.178  1.00  0.00    -0.298 F  
HETATM   15  C   UNL     1      -8.349  10.643  65.762  1.00  0.00    -0.162 A  
HETATM   16  C   UNL     1      -7.048  10.851  66.182  1.00  0.00    -0.097 A  
HETATM   17  F   UNL     1      -6.035  10.598  65.345  1.00  0.00    -0.107 F  
HETATM   18  C   UNL     1      -6.782  11.318  67.461  1.00  0.00    -0.074 A  
HETATM   19  C   UNL     1      -7.840  11.572  68.343  1.00  0.00    -0.136 A  
ENDBRANCH  10  12
TORSDOF 1
ENDMDL
MODEL      134
REMARK 921   NORMALIZED FREE ENERGY PREDICTED BY IDOCK:   -4.28 KCAL/MOL
REMARK 922        TOTAL FREE ENERGY PREDICTED BY IDOCK:   -4.89 KCAL/MOL
REMARK 923 INTER-LIGAND FREE ENERGY PREDICTED BY IDOCK:   -4.89 KCAL/MOL
REMARK 924 INTRA-LIGAND FREE ENERGY PREDICTED BY IDOCK:    0.00 KCAL/MOL
REMARK 927      BINDING AFFINITY PREDICTED BY RF-SCORE:    0.00 PKD
ROOT
HETATM    1  O   UNL     1     -10.565   6.843  73.901  1.00  0.00    -0.369 OA 
HETATM    2  C   UNL     1     -10.352   5.989  72.881  1.00  0.00    -0.197 C  
HETATM    3  O   UNL     1      -9.999   4.833  73.081  1.00  0.00    -0.143 OA 
HETATM    4  C   UNL     1     -10.553   6.493  71.492  1.00  0.00    -0.265 A  
HETATM    5  C   UNL     1     -10.369   5.601  70.424  1.00  0.00    -0.260 A  
HETATM    6  O   UNL     1     -10.019   4.286  70.580  1.00  0.00    -0.209 OA 
HETATM    7  C   UNL     1     -10.522   6.028  69.108  1.00  0.00    -0.321 A  
HETATM    8  C   UNL     1     -10.836   7.362  68.835  1.00  0.00    -0.088 A  
HETATM    9  H   UNL     1      -9.895   3.682  69.857  1.00  0.00     0.000 HD 
HETATM   10  C   UNL     1     -11.028   8.296  69.868  1.00  0.00    -0.166 A  
HETATM   11  C   UNL     1     -10.906   7.822  71.195  1.00  0.00    -0.254 A  
ENDROOT
BRANCH  10  12
HETATM   12  C   UNL     1     -11.331   9.725  69.580  1.00  0.00    -0.127 A  
HETATM   13  C   UNL     1     -11.238  10.266  68.279  1.00  0.00    -0.232 A  
HETATM   14  F   UNL     1     -10.886   9.490  67.241  1.00  0.00    -0.330 F  
HETATM   15  C   UNL     1     -11.511  11.604  68.002  1.00  0.00    -0.385 A  
HETATM   16  C   UNL     1     -11.906  12.437  69.032  1.00  0.00    -0.300 A  
HETATM   17  F   UNL     1     -12.174  13.723  68.777  1.00  0.00    -0.377 F  
HETATM   18  C   UNL     1     -12.029  11.954  70.327  1.00  0.00    -0.416 A  
HETATM   19  C   UNL     1     -11.737  10.611  70.599  1.00  0.00    -0.454 A  
ENDBRANCH  10  12
TORSDOF 1
ENDMDL
MODEL      135
REMARK 921   NORMALIZED FREE ENERGY PREDICTED BY IDOCK:   -4.25 KCAL/MOL
REMARK 922        TOTAL FREE ENERGY PREDICTED BY IDOCK:   -4.86 KCAL/MOL
REMARK 923 INTER-LIGAND FREE ENERGY PREDICTED BY IDOCK:   -4.38 KCAL/MOL
REMARK 924 INTRA-LIGAND FREE ENERGY PREDICTED BY IDOCK:   -0.48 KCAL/MOL
REMARK 927      BINDING AFFINITY PREDICTED BY RF-SCORE:    0.00 PKD
ROOT
HETATM    1  O   UNL     1      -5.640  18.856  71.691  1.00  0.00    -0.232 OA 
HETATM    2  C   UNL     1      -5.712  19.697  70.642  1.00  0.00    -0.252 C  
HETATM    3  O   UNL     1      -5.233  20.823  70.694  1.00  0.00    -0.401 OA 
HETATM    4  C   UNL     1      -6.400  19.220  69.408  1.00  0.00    -0.337 A  
HETATM    5  C   UNL     1      -6.449  20.075  68.296  1.00  0.00    -0.276 A  
HETATM    6  O   UNL     1      -5.894  21.328  68.272  1.00  0.00    -0.326 OA 
HETATM    7  C   UNL     1      -7.099  19.686  67.129  1.00  0.00    -0.229 A  
HETATM    8  C   UNL     1      -7.736  18.444  67.061  1.00  0.00    -0.234 A  
HETATM    9  H   UNL     1      -5.928  21.906  67.520  1.00  0.00     0.000 HD 
HETATM   10  C   UNL     1      -7.719  17.551  68.147  1.00  0.00    -0.231 A  
HETATM   11  C   UNL     1      -7.015  17.959  69.304  1.00  0.00    -0.146 A  
ENDROOT
BRANCH  10  12
HETATM   12  C   UNL     1      -8.424  16.241  68.089  1.00  0.00    -0.174 A  
HETATM   13  C   UNL     1      -9.804  16.117  68.357  1.00  0.00    -0.222 A  
HETATM   14  F   UNL     1     -10.541  17.198  68.658  1.00  0.00    -0.304 F  
HETATM   15  C   UNL     1     -10.469  14.893  68.314  1.00  0.00    -0.239 A  
HETATM   16  C   UNL     1      -9.760  13.754  67.979  1.00  0.00    -0.232 A  
HETATM   17  F   UNL     1     -10.390  12.574  67.932  1.00  0.00    -0.198 F  
HETATM   18  C   UNL     1      -8.405  13.821  67.692  1.00  0.00    -0.183 A  
HETATM   19  C   UNL     1      -7.741  15.053  67.754  1.00  0.00    -0.168 A  
ENDBRANCH  10  12
TORSDOF 1
ENDMDL
MODEL      136
REMARK 921   NORMALIZED FREE ENERGY PREDICTED BY IDOCK:   -4.23 KCAL/MOL
REMARK 922        TOTAL FREE ENERGY PREDICTED BY IDOCK:   -4.85 KCAL/MOL
REMARK 923 INTER-LIGAND FREE ENERGY PREDICTED BY IDOCK:   -4.38 KCAL/MOL
REMARK 924 INTRA-LIGAND FREE ENERGY PREDICTED BY IDOCK:   -0.47 KCAL/MOL
REMARK 927      BINDING AFFINITY PREDICTED BY RF-SCORE:    0.00 PKD
ROOT
HETATM    1  O   UNL     1      -9.296  10.922  63.991  1.00  0.00    -0.217 OA 
HETATM    2  C   UNL     1     -10.222  11.799  64.424  1.00  0.00    -0.289 C  
HETATM    3  O   UNL     1     -10.772  12.577  63.653  1.00  0.00    -0.430 OA 
HETATM    4  C   UNL     1     -10.560  11.801  65.876  1.00  0.00    -0.314 A  
HETATM    5  C   UNL     1     -11.551  12.686  66.331  1.00  0.00    -0.384 A  
HETATM    6  O   UNL     1     -12.235  13.549  65.516  1.00  0.00    -0.395 OA 
HETATM    7  C   UNL     1     -11.887  12.743  67.680  1.00  0.00    -0.396 A  
HETATM    8  C   UNL     1     -11.219  11.935  68.604  1.00  0.00    -0.311 A  
HETATM    9  H   UNL     1     -12.905  14.148  65.824  1.00  0.00     0.000 HD 
HETATM   10  C   UNL     1     -10.218  11.034  68.201  1.00  0.00    -0.201 A  
HETATM   11  C   UNL     1      -9.929  10.970  66.819  1.00  0.00    -0.240 A  
ENDROOT
BRANCH  10  12
HETATM   12  C   UNL     1      -9.483  10.194  69.187  1.00  0.00    -0.215 A  
HETATM   13  C   UNL     1      -8.148  10.465  69.559  1.00  0.00    -0.136 A  
HETATM   14  F   UNL     1      -7.495  11.517  69.039  1.00  0.00    -0.105 F  
HETATM   15  C   UNL     1      -7.450   9.679  70.473  1.00  0.00    -0.147 A  
HETATM   16  C   UNL     1      -8.088   8.602  71.058  1.00  0.00    -0.140 A  
HETATM   17  F   UNL     1      -7.429   7.842  71.941  1.00  0.00    -0.064 F  
HETATM   18  C   UNL     1      -9.404   8.299  70.741  1.00  0.00    -0.183 A  
HETATM   19  C   UNL     1     -10.093   9.085  69.808  1.00  0.00    -0.209 A  
ENDBRANCH  10  12
TORSDOF 1
ENDMDL
MODEL      137
REMARK 921   NORMALIZED FREE ENERGY PREDICTED BY IDOCK:   -4.21 KCAL/MOL
REMARK 922        TOTAL FREE ENERGY PREDICTED BY IDOCK:   -4.82 KCAL/MOL
REMARK 923 INTER-LIGAND FREE ENERGY PREDICTED BY IDOCK:   -4.49 KCAL/MOL
REMARK 924 INTRA-LIGAND FREE ENERGY PREDICTED BY IDOCK:   -0.33 KCAL/MOL
REMARK 927      BINDING AFFINITY PREDICTED BY RF-SCORE:    0.00 PKD
ROOT
HETATM    1  O   UNL     1     -11.322  12.226  65.743  1.00  0.00    -0.326 OA 
HETATM    2  C   UNL     1     -10.133  11.858  66.259  1.00  0.00    -0.220 C  
HETATM    3  O   UNL     1      -9.806  10.679  66.328  1.00  0.00    -0.198 OA 
HETATM    4  C   UNL     1      -9.221  12.930  66.751  1.00  0.00    -0.230 A  
HETATM    5  C   UNL     1      -7.965  12.560  67.256  1.00  0.00    -0.173 A  
HETATM    6  O   UNL     1      -7.519  11.266  67.320  1.00  0.00    -0.112 OA 
HETATM    7  C   UNL     1      -7.087  13.520  67.749  1.00  0.00    -0.163 A  
HETATM    8  C   UNL     1      -7.460  14.867  67.770  1.00  0.00    -0.179 A  
HETATM    9  H   UNL     1      -6.670  11.016  67.662  1.00  0.00     0.000 HD 
HETATM   10  C   UNL     1      -8.707  15.290  67.278  1.00  0.00    -0.216 A  
HETATM   11  C   UNL     1      -9.560  14.296  66.747  1.00  0.00    -0.290 A  
ENDROOT
BRANCH  10  12
HETATM   12  C   UNL     1      -9.119  16.720  67.329  1.00  0.00    -0.228 A  
HETATM   13  C   UNL     1      -9.046  17.483  68.515  1.00  0.00    -0.277 A  
HETATM   14  F   UNL     1      -8.576  16.938  69.648  1.00  0.00     0.025 F  
HETATM   15  C   UNL     1      -9.439  18.818  68.573  1.00  0.00    -0.400 A  
HETATM   16  C   UNL     1      -9.902  19.433  67.424  1.00  0.00    -0.345 A  
HETATM   17  F   UNL     1     -10.279  20.717  67.467  1.00  0.00    -0.528 F  
HETATM   18  C   UNL     1      -9.980  18.735  66.228  1.00  0.00    -0.418 A  
HETATM   19  C   UNL     1      -9.599  17.388  66.183  1.00  0.00    -0.213 A  
ENDBRANCH  10  12
TORSDOF 1
ENDMDL
MODEL      138
REMARK 921   NORMALIZED FREE ENERGY PREDICTED BY IDOCK:   -4.20 KCAL/MOL
REMARK 922        TOTAL FREE ENERGY PREDICTED BY IDOCK:   -4.81 KCAL/MOL
REMARK 923 INTER-LIGAND FREE ENERGY PREDICTED BY IDOCK:   -4.49 KCAL/MOL
REMARK 924 INTRA-LIGAND FREE ENERGY PREDICTED BY IDOCK:   -0.32 KCAL/MOL
REMARK 927      BINDING AFFINITY PREDICTED BY RF-SCORE:    0.00 PKD
ROOT
HETATM    1  O   UNL     1      -8.656   6.779  73.035  1.00  0.00    -0.120 OA 
HETATM    2  C   UNL     1      -9.916   7.253  73.054  1.00  0.00    -0.227 C  
HETATM    3  O   UNL     1     -10.742   6.836  73.858  1.00  0.00    -0.310 OA 
HETATM    4  C   UNL     1     -10.285   8.301  72.061  1.00  0.00    -0.339 A  
HETATM    5  C   UNL     1     -11.586   8.828  72.096  1.00  0.00    -0.364 A  
HETATM    6  O   UNL     1     -12.542   8.440  72.997  1.00  0.00    -0.676 OA 
HETATM    7  C   UNL     1     -11.987   9.792  71.176  1.00  0.00    -0.463 A  
HETATM    8  C   UNL     1     -11.102  10.228  70.186  1.00  0.00    -0.385 A  
HETATM    9  H   UNL     1     -13.422   8.796  73.020  1.00  0.00     0.000 HD 
HETATM   10  C   UNL     1      -9.789   9.731  70.105  1.00  0.00    -0.306 A  
HETATM   11  C   UNL     1      -9.400   8.783  71.079  1.00  0.00    -0.280 A  
ENDROOT
BRANCH  10  12
HETATM   12  C   UNL     1      -8.855  10.170  69.032  1.00  0.00    -0.166 A  
HETATM   13  C   UNL     1      -7.543  10.610  69.311  1.00  0.00    -0.138 A  
HETATM   14  F   UNL     1      -7.083  10.629  70.572  1.00  0.00    -0.134 F  
HETATM   15  C   UNL     1      -6.665  11.032  68.314  1.00  0.00    -0.059 A  
HETATM   16  C   UNL     1      -7.082  11.003  66.996  1.00  0.00    -0.118 A  
HETATM   17  F   UNL     1      -6.247  11.402  66.029  1.00  0.00    -0.119 F  
HETATM   18  C   UNL     1      -8.356  10.565  66.664  1.00  0.00    -0.131 A  
HETATM   19  C   UNL     1      -9.237  10.159  67.674  1.00  0.00    -0.151 A  
ENDBRANCH  10  12
TORSDOF 1
ENDMDL
MODEL      139
REMARK 921   NORMALIZED FREE ENERGY PREDICTED BY IDOCK:   -4.18 KCAL/MOL
REMARK 922        TOTAL FREE ENERGY PREDICTED BY IDOCK:   -4.79 KCAL/MOL
REMARK 923 INTER-LIGAND FREE ENERGY PREDICTED BY IDOCK:   -4.46 KCAL/MOL
REMARK 924 INTRA-LIGAND FREE ENERGY PREDICTED BY IDOCK:   -0.33 KCAL/MOL
REMARK 927      BINDING AFFINITY PREDICTED BY RF-SCORE:    0.00 PKD
ROOT
HETATM    1  O   UNL     1      -7.669   8.773  69.002  1.00  0.00    -0.088 OA 
HETATM    2  C   UNL     1      -7.237   9.952  69.488  1.00  0.00    -0.095 C  
HETATM    3  O   UNL     1      -6.475  10.005  70.446  1.00  0.00    -0.097 OA 
HETATM    4  C   UNL     1      -7.716  11.200  68.829  1.00  0.00    -0.136 A  
HETATM    5  C   UNL     1      -7.242  12.433  69.305  1.00  0.00     0.143 A  
HETATM    6  O   UNL     1      -6.355  12.561  70.341  1.00  0.00    -0.427 OA 
HETATM    7  C   UNL     1      -7.677  13.627  68.739  1.00  0.00    -0.064 A  
HETATM    8  C   UNL     1      -8.615  13.613  67.703  1.00  0.00    -0.185 A  
HETATM    9  H   UNL     1      -6.035  13.394  70.664  1.00  0.00     0.000 HD 
HETATM   10  C   UNL     1      -9.123  12.406  67.191  1.00  0.00    -0.199 A  
HETATM   11  C   UNL     1      -8.631  11.209  67.760  1.00  0.00    -0.131 A  
ENDROOT
BRANCH  10  12
HETATM   12  C   UNL     1     -10.146  12.388  66.109  1.00  0.00    -0.265 A  
HETATM   13  C   UNL     1     -11.340  13.137  66.190  1.00  0.00    -0.312 A  
HETATM   14  F   UNL     1     -11.585  13.916  67.256  1.00  0.00    -0.310 F  
HETATM   15  C   UNL     1     -12.306  13.118  65.187  1.00  0.00    -0.525 A  
HETATM   16  C   UNL     1     -12.086  12.354  64.056  1.00  0.00    -0.475 A  
HETATM   17  F   UNL     1     -13.007  12.331  63.084  1.00  0.00    -0.524 F  
HETATM   18  C   UNL     1     -10.923  11.611  63.917  1.00  0.00    -0.478 A  
HETATM   19  C   UNL     1      -9.965  11.622  64.938  1.00  0.00    -0.293 A  
ENDBRANCH  10  12
TORSDOF 1
ENDMDL
MODEL      140
REMARK 921   NORMALIZED FREE ENERGY PREDICTED BY IDOCK:   -4.16 KCAL/MOL
REMARK 922        TOTAL FREE ENERGY PREDICTED BY IDOCK:   -4.76 KCAL/MOL
REMARK 923 INTER-LIGAND FREE ENERGY PREDICTED BY IDOCK:   -4.54 KCAL/MOL
REMARK 924 INTRA-LIGAND FREE ENERGY PREDICTED BY IDOCK:   -0.23 KCAL/MOL
REMARK 927      BINDING AFFINITY PREDICTED BY RF-SCORE:    0.00 PKD
ROOT
HETATM    1  O   UNL     1     -12.225  11.771  64.161  1.00  0.00    -0.286 OA 
HETATM    2  C   UNL     1     -12.390  12.713  65.110  1.00  0.00    -0.484 C  
HETATM    3  O   UNL     1     -13.120  13.679  64.928  1.00  0.00    -0.713 OA 
HETATM    4  C   UNL     1     -11.652  12.550  66.395  1.00  0.00    -0.449 A  
HETATM    5  C   UNL     1     -11.845  13.506  67.404  1.00  0.00    -0.384 A  
HETATM    6  O   UNL     1     -12.681  14.585  67.283  1.00  0.00    -0.376 OA 
HETATM    7  C   UNL     1     -11.162  13.412  68.613  1.00  0.00    -0.304 A  
HETATM    8  C   UNL     1     -10.252  12.373  68.825  1.00  0.00    -0.103 A  
HETATM    9  H   UNL     1     -12.812  15.232  67.965  1.00  0.00     0.000 HD 
HETATM   10  C   UNL     1     -10.019  11.391  67.846  1.00  0.00    -0.190 A  
HETATM   11  C   UNL     1     -10.759  11.491  66.646  1.00  0.00    -0.311 A  
ENDROOT
BRANCH  10  12
HETATM   12  C   UNL     1      -9.026  10.301  68.057  1.00  0.00    -0.132 A  
HETATM   13  C   UNL     1      -9.267   8.973  67.642  1.00  0.00    -0.136 A  
HETATM   14  F   UNL     1     -10.411   8.651  67.016  1.00  0.00    -0.282 F  
HETATM   15  C   UNL     1      -8.348   7.946  67.844  1.00  0.00    -0.126 A  
HETATM   16  C   UNL     1      -7.142   8.234  68.457  1.00  0.00    -0.077 A  
HETATM   17  F   UNL     1      -6.250   7.255  68.653  1.00  0.00    -0.027 F  
HETATM   18  C   UNL     1      -6.848   9.524  68.872  1.00  0.00    -0.055 A  
HETATM   19  C   UNL     1      -7.785  10.548  68.680  1.00  0.00    -0.106 A  
ENDBRANCH  10  12
TORSDOF 1
ENDMDL
MODEL      141
REMARK 921   NORMALIZED FREE ENERGY PREDICTED BY IDOCK:   -4.15 KCAL/MOL
REMARK 922        TOTAL FREE ENERGY PREDICTED BY IDOCK:   -4.76 KCAL/MOL
REMARK 923 INTER-LIGAND FREE ENERGY PREDICTED BY IDOCK:   -4.36 KCAL/MOL
REMARK 924 INTRA-LIGAND FREE ENERGY PREDICTED BY IDOCK:   -0.40 KCAL/MOL
REMARK 927      BINDING AFFINITY PREDICTED BY RF-SCORE:    0.00 PKD
ROOT
HETATM    1  O   UNL     1      -7.640   9.544  68.825  1.00  0.00    -0.074 OA 
HETATM    2  C   UNL     1      -8.935   9.424  69.173  1.00  0.00    -0.147 C  
HETATM    3  O   UNL     1      -9.384   8.367  69.602  1.00  0.00    -0.159 OA 
HETATM    4  C   UNL     1      -9.817  10.616  69.018  1.00  0.00    -0.218 A  
HETATM    5  C   UNL     1     -11.160  10.511  69.412  1.00  0.00    -0.258 A  
HETATM    6  O   UNL     1     -11.713   9.375  69.941  1.00  0.00    -0.451 OA 
HETATM    7  C   UNL     1     -12.029  11.588  69.266  1.00  0.00    -0.397 A  
HETATM    8  C   UNL     1     -11.578  12.781  68.697  1.00  0.00    -0.352 A  
HETATM    9  H   UNL     1     -12.622   9.303  70.208  1.00  0.00     0.000 HD 
HETATM   10  C   UNL     1     -10.243  12.938  68.283  1.00  0.00    -0.245 A  
HETATM   11  C   UNL     1      -9.375  11.840  68.483  1.00  0.00    -0.158 A  
ENDROOT
BRANCH  10  12
HETATM   12  C   UNL     1      -9.768  14.198  67.648  1.00  0.00    -0.228 A  
HETATM   13  C   UNL     1      -8.726  14.974  68.202  1.00  0.00    -0.165 A  
HETATM   14  F   UNL     1      -8.109  14.582  69.329  1.00  0.00    -0.143 F  
HETATM   15  C   UNL     1      -8.282  16.159  67.619  1.00  0.00    -0.161 A  
HETATM   16  C   UNL     1      -8.865  16.588  66.442  1.00  0.00    -0.310 A  
HETATM   17  F   UNL     1      -8.444  17.724  65.871  1.00  0.00    -0.220 F  
HETATM   18  C   UNL     1      -9.882  15.857  65.846  1.00  0.00    -0.383 A  
HETATM   19  C   UNL     1     -10.334  14.676  66.448  1.00  0.00    -0.293 A  
ENDBRANCH  10  12
TORSDOF 1
ENDMDL
MODEL      142
REMARK 921   NORMALIZED FREE ENERGY PREDICTED BY IDOCK:   -4.06 KCAL/MOL
REMARK 922        TOTAL FREE ENERGY PREDICTED BY IDOCK:   -4.66 KCAL/MOL
REMARK 923 INTER-LIGAND FREE ENERGY PREDICTED BY IDOCK:   -4.26 KCAL/MOL
REMARK 924 INTRA-LIGAND FREE ENERGY PREDICTED BY IDOCK:   -0.41 KCAL/MOL
REMARK 927      BINDING AFFINITY PREDICTED BY RF-SCORE:    0.00 PKD
ROOT
HETATM    1  O   UNL     1      -6.764   8.435  64.925  1.00  0.00    -0.066 OA 
HETATM    2  C   UNL     1      -7.475   9.552  64.678  1.00  0.00    -0.113 C  
HETATM    3  O   UNL     1      -7.131  10.346  63.811  1.00  0.00    -0.092 OA 
HETATM    4  C   UNL     1      -8.696   9.801  65.496  1.00  0.00    -0.171 A  
HETATM    5  C   UNL     1      -9.464  10.943  65.222  1.00  0.00    -0.217 A  
HETATM    6  O   UNL     1      -9.162  11.847  64.237  1.00  0.00    -0.423 OA 
HETATM    7  C   UNL     1     -10.599  11.233  65.972  1.00  0.00    -0.314 A  
HETATM    8  C   UNL     1     -10.973  10.399  67.029  1.00  0.00    -0.222 A  
HETATM    9  H   UNL     1      -9.681  12.620  64.052  1.00  0.00     0.000 HD 
HETATM   10  C   UNL     1     -10.238   9.243  67.347  1.00  0.00    -0.304 A  
HETATM   11  C   UNL     1      -9.113   8.955  66.540  1.00  0.00    -0.206 A  
ENDROOT
BRANCH  10  12
HETATM   12  C   UNL     1     -10.616   8.370  68.492  1.00  0.00    -0.149 A  
HETATM   13  C   UNL     1     -10.970   7.014  68.320  1.00  0.00    -0.083 A  
HETATM   14  F   UNL     1     -10.958   6.456  67.099  1.00  0.00    -0.327 F  
HETATM   15  C   UNL     1     -11.334   6.193  69.385  1.00  0.00    -0.401 A  
HETATM   16  C   UNL     1     -11.333   6.714  70.666  1.00  0.00    -0.347 A  
HETATM   17  F   UNL     1     -11.678   5.933  71.697  1.00  0.00    -0.332 F  
HETATM   18  C   UNL     1     -10.979   8.035  70.894  1.00  0.00    -0.260 A  
HETATM   19  C   UNL     1     -10.630   8.858  69.816  1.00  0.00    -0.230 A  
ENDBRANCH  10  12
TORSDOF 1
ENDMDL
MODEL      143
REMARK 921   NORMALIZED FREE ENERGY PREDICTED BY IDOCK:   -4.05 KCAL/MOL
REMARK 922        TOTAL FREE ENERGY PREDICTED BY IDOCK:   -4.66 KCAL/MOL
REMARK 923 INTER-LIGAND FREE ENERGY PREDICTED BY IDOCK:   -4.19 KCAL/MOL
REMARK 924 INTRA-LIGAND FREE ENERGY PREDICTED BY IDOCK:   -0.46 KCAL/MOL
REMARK 927      BINDING AFFINITY PREDICTED BY RF-SCORE:    0.00 PKD
ROOT
HETATM    1  O   UNL     1     -11.892  14.636  69.815  1.00  0.00    -0.280 OA 
HETATM    2  C   UNL     1     -12.563  13.894  70.717  1.00  0.00    -0.354 C  
HETATM    3  O   UNL     1     -13.421  14.390  71.438  1.00  0.00    -0.342 OA 
HETATM    4  C   UNL     1     -12.227  12.445  70.821  1.00  0.00    -0.336 A  
HETATM    5  C   UNL     1     -12.946  11.656  71.733  1.00  0.00    -0.377 A  
HETATM    6  O   UNL     1     -13.947  12.136  72.535  1.00  0.00    -0.366 OA 
HETATM    7  C   UNL     1     -12.655  10.303  71.884  1.00  0.00    -0.414 A  
HETATM    8  C   UNL     1     -11.622   9.721  71.146  1.00  0.00    -0.469 A  
HETATM    9  H   UNL     1     -14.433  11.603  73.152  1.00  0.00     0.000 HD 
HETATM   10  C   UNL     1     -10.871  10.467  70.221  1.00  0.00    -0.308 A  
HETATM   11  C   UNL     1     -11.217  11.828  70.061  1.00  0.00    -0.004 A  
ENDROOT
BRANCH  10  12
HETATM   12  C   UNL     1      -9.749   9.856  69.456  1.00  0.00    -0.238 A  
HETATM   13  C   UNL     1      -9.965   8.914  68.427  1.00  0.00    -0.178 A  
HETATM   14  F   UNL     1     -11.211   8.547  68.089  1.00  0.00    -0.012 F  
HETATM   15  C   UNL     1      -8.920   8.330  67.713  1.00  0.00    -0.139 A  
HETATM   16  C   UNL     1      -7.620   8.698  68.004  1.00  0.00    -0.098 A  
HETATM   17  F   UNL     1      -6.608   8.146  67.322  1.00  0.00    -0.053 F  
HETATM   18  C   UNL     1      -7.351   9.631  68.995  1.00  0.00    -0.073 A  
HETATM   19  C   UNL     1      -8.406  10.199  69.719  1.00  0.00    -0.154 A  
ENDBRANCH  10  12
TORSDOF 1
ENDMDL
MODEL      144
REMARK 921   NORMALIZED FREE ENERGY PREDICTED BY IDOCK:   -4.04 KCAL/MOL
REMARK 922        TOTAL FREE ENERGY PREDICTED BY IDOCK:   -4.64 KCAL/MOL
REMARK 923 INTER-LIGAND FREE ENERGY PREDICTED BY IDOCK:   -4.26 KCAL/MOL
REMARK 924 INTRA-LIGAND FREE ENERGY PREDICTED BY IDOCK:   -0.38 KCAL/MOL
REMARK 927      BINDING AFFINITY PREDICTED BY RF-SCORE:    0.00 PKD
ROOT
HETATM    1  O   UNL     1      -6.365   8.449  67.485  1.00  0.00    -0.054 OA 
HETATM    2  C   UNL     1      -6.994   7.369  66.983  1.00  0.00    -0.082 C  
HETATM    3  O   UNL     1      -6.461   6.658  66.139  1.00  0.00    -0.041 OA 
HETATM    4  C   UNL     1      -8.365   7.062  67.480  1.00  0.00    -0.119 A  
HETATM    5  C   UNL     1      -9.014   5.918  66.989  1.00  0.00    -0.116 A  
HETATM    6  O   UNL     1      -8.458   5.056  66.081  1.00  0.00    -0.112 OA 
HETATM    7  C   UNL     1     -10.303   5.600  67.404  1.00  0.00    -0.284 A  
HETATM    8  C   UNL     1     -10.979   6.436  68.297  1.00  0.00    -0.396 A  
HETATM    9  H   UNL     1      -8.897   4.282  65.749  1.00  0.00     0.000 HD 
HETATM   10  C   UNL     1     -10.376   7.595  68.816  1.00  0.00    -0.218 A  
HETATM   11  C   UNL     1      -9.051   7.868  68.407  1.00  0.00    -0.135 A  
ENDROOT
BRANCH  10  12
HETATM   12  C   UNL     1     -11.105   8.504  69.743  1.00  0.00    -0.067 A  
HETATM   13  C   UNL     1     -11.670   8.049  70.955  1.00  0.00    -0.251 A  
HETATM   14  F   UNL     1     -11.547   6.763  71.323  1.00  0.00    -0.291 F  
HETATM   15  C   UNL     1     -12.362   8.891  71.822  1.00  0.00    -0.424 A  
HETATM   16  C   UNL     1     -12.489  10.229  71.501  1.00  0.00    -0.422 A  
HETATM   17  F   UNL     1     -13.149  11.048  72.329  1.00  0.00    -0.575 F  
HETATM   18  C   UNL     1     -11.941  10.733  70.331  1.00  0.00    -0.448 A  
HETATM   19  C   UNL     1     -11.261   9.876  69.456  1.00  0.00    -0.220 A  
ENDBRANCH  10  12
TORSDOF 1
ENDMDL
MODEL      145
REMARK 921   NORMALIZED FREE ENERGY PREDICTED BY IDOCK:   -4.03 KCAL/MOL
REMARK 922        TOTAL FREE ENERGY PREDICTED BY IDOCK:   -4.63 KCAL/MOL
REMARK 923 INTER-LIGAND FREE ENERGY PREDICTED BY IDOCK:   -4.61 KCAL/MOL
REMARK 924 INTRA-LIGAND FREE ENERGY PREDICTED BY IDOCK:   -0.02 KCAL/MOL
REMARK 927      BINDING AFFINITY PREDICTED BY RF-SCORE:    0.00 PKD
ROOT
HETATM    1  O   UNL     1     -10.235   9.125  70.279  1.00  0.00    -0.189 OA 
HETATM    2  C   UNL     1      -8.965   9.570  70.331  1.00  0.00    -0.243 C  
HETATM    3  O   UNL     1      -8.161   9.112  71.135  1.00  0.00    -0.240 OA 
HETATM    4  C   UNL     1      -8.561  10.645  69.381  1.00  0.00    -0.046 A  
HETATM    5  C   UNL     1      -7.229  11.091  69.402  1.00  0.00    -0.114 A  
HETATM    6  O   UNL     1      -6.271  10.590  70.242  1.00  0.00    -0.100 OA 
HETATM    7  C   UNL     1      -6.808  12.108  68.551  1.00  0.00    -0.086 A  
HETATM    8  C   UNL     1      -7.716  12.718  67.683  1.00  0.00    -0.162 A  
HETATM    9  H   UNL     1      -5.370  10.892  70.257  1.00  0.00     0.000 HD 
HETATM   10  C   UNL     1      -9.061  12.312  67.624  1.00  0.00    -0.184 A  
HETATM   11  C   UNL     1      -9.448  11.248  68.471  1.00  0.00    -0.191 A  
ENDROOT
BRANCH  10  12
HETATM   12  C   UNL     1     -10.039  12.981  66.722  1.00  0.00    -0.247 A  
HETATM   13  C   UNL     1     -11.291  12.408  66.412  1.00  0.00    -0.342 A  
HETATM   14  F   UNL     1     -11.653  11.230  66.946  1.00  0.00    -0.355 F  
HETATM   15  C   UNL     1     -12.208  13.023  65.562  1.00  0.00    -0.521 A  
HETATM   16  C   UNL     1     -11.893  14.251  65.010  1.00  0.00    -0.396 A  
HETATM   17  F   UNL     1     -12.768  14.853  64.195  1.00  0.00    -0.463 F  
HETATM   18  C   UNL     1     -10.683  14.867  65.293  1.00  0.00    -0.409 A  
HETATM   19  C   UNL     1      -9.760  14.234  66.136  1.00  0.00    -0.325 A  
ENDBRANCH  10  12
TORSDOF 1
ENDMDL
MODEL      146
REMARK 921   NORMALIZED FREE ENERGY PREDICTED BY IDOCK:   -4.02 KCAL/MOL
REMARK 922        TOTAL FREE ENERGY PREDICTED BY IDOCK:   -4.62 KCAL/MOL
REMARK 923 INTER-LIGAND FREE ENERGY PREDICTED BY IDOCK:   -4.17 KCAL/MOL
REMARK 924 INTRA-LIGAND FREE ENERGY PREDICTED BY IDOCK:   -0.45 KCAL/MOL
REMARK 927      BINDING AFFINITY PREDICTED BY RF-SCORE:    0.00 PKD
ROOT
HETATM    1  O   UNL     1     -11.104  14.688  70.702  1.00  0.00    -0.135 OA 
HETATM    2  C   UNL     1     -11.581  14.767  69.445  1.00  0.00    -0.310 C  
HETATM    3  O   UNL     1     -12.045  15.812  69.005  1.00  0.00    -0.349 OA 
HETATM    4  C   UNL     1     -11.535  13.540  68.600  1.00  0.00    -0.343 A  
HETATM    5  C   UNL     1     -11.996  13.622  67.276  1.00  0.00    -0.381 A  
HETATM    6  O   UNL     1     -12.484  14.769  66.708  1.00  0.00    -0.350 OA 
HETATM    7  C   UNL     1     -11.995  12.499  66.454  1.00  0.00    -0.386 A  
HETATM    8  C   UNL     1     -11.558  11.268  66.948  1.00  0.00     0.003 A  
HETATM    9  H   UNL     1     -12.796  14.824  65.813  1.00  0.00     0.000 HD 
HETATM   10  C   UNL     1     -11.089  11.131  68.266  1.00  0.00    -0.310 A  
HETATM   11  C   UNL     1     -11.064  12.298  69.063  1.00  0.00    -0.289 A  
ENDROOT
BRANCH  10  12
HETATM   12  C   UNL     1     -10.652   9.813  68.805  1.00  0.00    -0.244 A  
HETATM   13  C   UNL     1     -11.365   9.143  69.823  1.00  0.00     0.030 A  
HETATM   14  F   UNL     1     -12.488   9.675  70.333  1.00  0.00    -0.228 F  
HETATM   15  C   UNL     1     -10.958   7.915  70.339  1.00  0.00    -0.251 A  
HETATM   16  C   UNL     1      -9.824   7.313  69.827  1.00  0.00    -0.177 A  
HETATM   17  F   UNL     1      -9.425   6.131  70.313  1.00  0.00    -0.155 F  
HETATM   18  C   UNL     1      -9.094   7.920  68.815  1.00  0.00    -0.140 A  
HETATM   19  C   UNL     1      -9.501   9.162  68.313  1.00  0.00    -0.152 A  
ENDBRANCH  10  12
TORSDOF 1
ENDMDL
MODEL      147
REMARK 921   NORMALIZED FREE ENERGY PREDICTED BY IDOCK:   -3.98 KCAL/MOL
REMARK 922        TOTAL FREE ENERGY PREDICTED BY IDOCK:   -4.58 KCAL/MOL
REMARK 923 INTER-LIGAND FREE ENERGY PREDICTED BY IDOCK:   -4.37 KCAL/MOL
REMARK 924 INTRA-LIGAND FREE ENERGY PREDICTED BY IDOCK:   -0.21 KCAL/MOL
REMARK 927      BINDING AFFINITY PREDICTED BY RF-SCORE:    0.00 PKD
ROOT
HETATM    1  O   UNL     1      -8.749   6.012  68.753  1.00  0.00    -0.111 OA 
HETATM    2  C   UNL     1      -9.391   6.016  69.937  1.00  0.00    -0.148 C  
HETATM    3  O   UNL     1      -9.496   4.996  70.608  1.00  0.00    -0.151 OA 
HETATM    4  C   UNL     1      -9.978   7.302  70.411  1.00  0.00    -0.192 A  
HETATM    5  C   UNL     1     -10.617   7.325  71.661  1.00  0.00    -0.206 A  
HETATM    6  O   UNL     1     -10.730   6.233  72.480  1.00  0.00    -0.208 OA 
HETATM    7  C   UNL     1     -11.202   8.494  72.138  1.00  0.00    -0.432 A  
HETATM    8  C   UNL     1     -11.182   9.655  71.362  1.00  0.00    -0.426 A  
HETATM    9  H   UNL     1     -11.162   6.248  73.326  1.00  0.00     0.000 HD 
HETATM   10  C   UNL     1     -10.557   9.686  70.103  1.00  0.00    -0.320 A  
HETATM   11  C   UNL     1      -9.937   8.493  69.664  1.00  0.00    -0.192 A  
ENDROOT
BRANCH  10  12
HETATM   12  C   UNL     1     -10.562  10.913  69.260  1.00  0.00    -0.251 A  
HETATM   13  C   UNL     1     -11.686  11.764  69.176  1.00  0.00    -0.325 A  
HETATM   14  F   UNL     1     -12.797  11.497  69.881  1.00  0.00    -0.133 F  
HETATM   15  C   UNL     1     -11.702  12.909  68.383  1.00  0.00    -0.382 A  
HETATM   16  C   UNL     1     -10.571  13.243  67.661  1.00  0.00    -0.236 A  
HETATM   17  F   UNL     1     -10.573  14.343  66.898  1.00  0.00    -0.269 F  
HETATM   18  C   UNL     1      -9.433  12.450  67.719  1.00  0.00    -0.199 A  
HETATM   19  C   UNL     1      -9.432  11.292  68.506  1.00  0.00    -0.191 A  
ENDBRANCH  10  12
TORSDOF 1
ENDMDL
MODEL      148
REMARK 921   NORMALIZED FREE ENERGY PREDICTED BY IDOCK:   -3.98 KCAL/MOL
REMARK 922        TOTAL FREE ENERGY PREDICTED BY IDOCK:   -4.58 KCAL/MOL
REMARK 923 INTER-LIGAND FREE ENERGY PREDICTED BY IDOCK:   -4.12 KCAL/MOL
REMARK 924 INTRA-LIGAND FREE ENERGY PREDICTED BY IDOCK:   -0.45 KCAL/MOL
REMARK 927      BINDING AFFINITY PREDICTED BY RF-SCORE:    0.00 PKD
ROOT
HETATM    1  O   UNL     1      -9.558  11.887  67.000  1.00  0.00    -0.185 OA 
HETATM    2  C   UNL     1      -8.265  11.887  67.373  1.00  0.00    -0.164 C  
HETATM    3  O   UNL     1      -7.663  10.841  67.585  1.00  0.00    -0.102 OA 
HETATM    4  C   UNL     1      -7.580  13.202  67.527  1.00  0.00    -0.166 A  
HETATM    5  C   UNL     1      -6.221  13.212  67.880  1.00  0.00    -0.140 A  
HETATM    6  O   UNL     1      -5.479  12.080  68.087  1.00  0.00    -0.047 OA 
HETATM    7  C   UNL     1      -5.543  14.414  68.059  1.00  0.00    -0.128 A  
HETATM    8  C   UNL     1      -6.217  15.628  67.914  1.00  0.00    -0.163 A  
HETATM    9  H   UNL     1      -4.560  12.086  68.327  1.00  0.00     0.000 HD 
HETATM   10  C   UNL     1      -7.578  15.675  67.564  1.00  0.00    -0.200 A  
HETATM   11  C   UNL     1      -8.229  14.438  67.349  1.00  0.00    -0.215 A  
ENDROOT
BRANCH  10  12
HETATM   12  C   UNL     1      -8.307  16.967  67.440  1.00  0.00    -0.201 A  
HETATM   13  C   UNL     1      -8.035  17.888  66.405  1.00  0.00    -0.267 A  
HETATM   14  F   UNL     1      -7.107  17.614  65.474  1.00  0.00    -0.284 F  
HETATM   15  C   UNL     1      -8.706  19.104  66.288  1.00  0.00    -0.304 A  
HETATM   16  C   UNL     1      -9.691  19.419  67.205  1.00  0.00    -0.334 A  
HETATM   17  F   UNL     1     -10.345  20.583  67.100  1.00  0.00    -0.540 F  
HETATM   18  C   UNL     1     -10.009  18.544  68.233  1.00  0.00    -0.409 A  
HETATM   19  C   UNL     1      -9.319  17.331  68.354  1.00  0.00    -0.275 A  
ENDBRANCH  10  12
TORSDOF 1
ENDMDL
MODEL      149
REMARK 921   NORMALIZED FREE ENERGY PREDICTED BY IDOCK:   -3.97 KCAL/MOL
REMARK 922        TOTAL FREE ENERGY PREDICTED BY IDOCK:   -4.57 KCAL/MOL
REMARK 923 INTER-LIGAND FREE ENERGY PREDICTED BY IDOCK:   -4.18 KCAL/MOL
REMARK 924 INTRA-LIGAND FREE ENERGY PREDICTED BY IDOCK:   -0.39 KCAL/MOL
REMARK 927      BINDING AFFINITY PREDICTED BY RF-SCORE:    0.00 PKD
ROOT
HETATM    1  O   UNL     1     -12.671   9.051  71.608  1.00  0.00    -0.324 OA 
HETATM    2  C   UNL     1     -12.861  10.368  71.401  1.00  0.00    -0.452 C  
HETATM    3  O   UNL     1     -13.613  11.023  72.114  1.00  0.00    -0.283 OA 
HETATM    4  C   UNL     1     -12.133  11.012  70.271  1.00  0.00    -0.448 A  
HETATM    5  C   UNL     1     -12.297  12.392  70.069  1.00  0.00    -0.085 A  
HETATM    6  O   UNL     1     -13.085  13.190  70.855  1.00  0.00    -0.126 OA 
HETATM    7  C   UNL     1     -11.658  13.036  69.014  1.00  0.00    -0.367 A  
HETATM    8  C   UNL     1     -10.863  12.307  68.125  1.00  0.00    -0.258 A  
HETATM    9  H   UNL     1     -13.196  14.123  70.719  1.00  0.00     0.000 HD 
HETATM   10  C   UNL     1     -10.668  10.923  68.281  1.00  0.00    -0.244 A  
HETATM   11  C   UNL     1     -11.298  10.306  69.386  1.00  0.00    -0.279 A  
ENDROOT
BRANCH  10  12
HETATM   12  C   UNL     1      -9.848  10.139  67.317  1.00  0.00    -0.226 A  
HETATM   13  C   UNL     1      -8.713   9.402  67.719  1.00  0.00    -0.116 A  
HETATM   14  F   UNL     1      -8.343   9.371  69.010  1.00  0.00    -0.111 F  
HETATM   15  C   UNL     1      -7.935   8.674  66.822  1.00  0.00    -0.094 A  
HETATM   16  C   UNL     1      -8.293   8.651  65.487  1.00  0.00    -0.150 A  
HETATM   17  F   UNL     1      -7.554   7.951  64.617  1.00  0.00    -0.082 F  
HETATM   18  C   UNL     1      -9.408   9.344  65.039  1.00  0.00    -0.258 A  
HETATM   19  C   UNL     1     -10.175  10.088  65.945  1.00  0.00    -0.275 A  
ENDBRANCH  10  12
TORSDOF 1
ENDMDL
MODEL      150
REMARK 921   NORMALIZED FREE ENERGY PREDICTED BY IDOCK:   -3.95 KCAL/MOL
REMARK 922        TOTAL FREE ENERGY PREDICTED BY IDOCK:   -4.55 KCAL/MOL
REMARK 923 INTER-LIGAND FREE ENERGY PREDICTED BY IDOCK:   -4.10 KCAL/MOL
REMARK 924 INTRA-LIGAND FREE ENERGY PREDICTED BY IDOCK:   -0.45 KCAL/MOL
REMARK 927      BINDING AFFINITY PREDICTED BY RF-SCORE:    0.00 PKD
ROOT
HETATM    1  O   UNL     1     -13.727   7.000  70.979  1.00  0.00    -0.177 OA 
HETATM    2  C   UNL     1     -12.591   7.494  71.507  1.00  0.00    -0.355 C  
HETATM    3  O   UNL     1     -12.615   8.281  72.447  1.00  0.00    -0.331 OA 
HETATM    4  C   UNL     1     -11.295   7.061  70.912  1.00  0.00    -0.334 A  
HETATM    5  C   UNL     1     -10.104   7.542  71.478  1.00  0.00    -0.181 A  
HETATM    6  O   UNL     1     -10.058   8.386  72.557  1.00  0.00    -0.295 OA 
HETATM    7  C   UNL     1      -8.869   7.186  70.945  1.00  0.00    -0.150 A  
HETATM    8  C   UNL     1      -8.803   6.363  69.818  1.00  0.00    -0.142 A  
HETATM    9  H   UNL     1      -9.253   8.711  72.940  1.00  0.00     0.000 HD 
HETATM   10  C   UNL     1      -9.965   5.856  69.210  1.00  0.00    -0.224 A  
HETATM   11  C   UNL     1     -11.202   6.203  69.800  1.00  0.00    -0.494 A  
ENDROOT
BRANCH  10  12
HETATM   12  C   UNL     1      -9.899   5.006  67.990  1.00  0.00    -0.202 A  
HETATM   13  C   UNL     1      -9.329   3.714  68.004  1.00  0.00    -0.183 A  
HETATM   14  F   UNL     1      -8.839   3.196  69.142  1.00  0.00    -0.099 F  
HETATM   15  C   UNL     1      -9.254   2.915  66.864  1.00  0.00    -0.161 A  
HETATM   16  C   UNL     1      -9.772   3.392  65.674  1.00  0.00    -0.014 A  
HETATM   17  F   UNL     1      -9.709   2.632  64.574  1.00  0.00    -0.149 F  
HETATM   18  C   UNL     1     -10.357   4.648  65.608  1.00  0.00    -0.266 A  
HETATM   19  C   UNL     1     -10.413   5.451  66.754  1.00  0.00    -0.347 A  
ENDBRANCH  10  12
TORSDOF 1
ENDMDL
MODEL      151
REMARK 921   NORMALIZED FREE ENERGY PREDICTED BY IDOCK:   -3.95 KCAL/MOL
REMARK 922        TOTAL FREE ENERGY PREDICTED BY IDOCK:   -4.55 KCAL/MOL
REMARK 923 INTER-LIGAND FREE ENERGY PREDICTED BY IDOCK:   -4.20 KCAL/MOL
REMARK 924 INTRA-LIGAND FREE ENERGY PREDICTED BY IDOCK:   -0.35 KCAL/MOL
REMARK 927      BINDING AFFINITY PREDICTED BY RF-SCORE:    0.00 PKD
ROOT
HETATM    1  O   UNL     1      -8.955   8.896  64.461  1.00  0.00    -0.113 OA 
HETATM    2  C   UNL     1      -8.677   8.853  65.778  1.00  0.00    -0.176 C  
HETATM    3  O   UNL     1      -8.349   7.808  66.326  1.00  0.00    -0.118 OA 
HETATM    4  C   UNL     1      -8.784  10.120  66.558  1.00  0.00    -0.139 A  
HETATM    5  C   UNL     1      -8.460  10.093  67.924  1.00  0.00    -0.118 A  
HETATM    6  O   UNL     1      -8.044   8.970  68.588  1.00  0.00    -0.104 OA 
HETATM    7  C   UNL     1      -8.566  11.243  68.701  1.00  0.00    -0.139 A  
HETATM    8  C   UNL     1      -9.023  12.435  68.132  1.00  0.00    -0.196 A  
HETATM    9  H   UNL     1      -7.826   8.952  69.512  1.00  0.00     0.000 HD 
HETATM   10  C   UNL     1      -9.362  12.514  66.769  1.00  0.00    -0.230 A  
HETATM   11  C   UNL     1      -9.205  11.340  65.998  1.00  0.00    -0.224 A  
ENDROOT
BRANCH  10  12
HETATM   12  C   UNL     1      -9.879  13.774  66.168  1.00  0.00    -0.310 A  
HETATM   13  C   UNL     1     -11.085  13.819  65.435  1.00  0.00    -0.302 A  
HETATM   14  F   UNL     1     -11.825  12.710  65.271  1.00  0.00    -0.364 F  
HETATM   15  C   UNL     1     -11.571  14.991  64.860  1.00  0.00    -0.374 A  
HETATM   16  C   UNL     1     -10.860  16.166  65.026  1.00  0.00    -0.363 A  
HETATM   17  F   UNL     1     -11.319  17.299  64.482  1.00  0.00    -0.281 F  
HETATM   18  C   UNL     1      -9.677  16.182  65.750  1.00  0.00    -0.325 A  
HETATM   19  C   UNL     1      -9.187  14.995  66.310  1.00  0.00    -0.324 A  
ENDBRANCH  10  12
TORSDOF 1
ENDMDL
MODEL      152
REMARK 921   NORMALIZED FREE ENERGY PREDICTED BY IDOCK:   -3.92 KCAL/MOL
REMARK 922        TOTAL FREE ENERGY PREDICTED BY IDOCK:   -4.52 KCAL/MOL
REMARK 923 INTER-LIGAND FREE ENERGY PREDICTED BY IDOCK:   -4.53 KCAL/MOL
REMARK 924 INTRA-LIGAND FREE ENERGY PREDICTED BY IDOCK:    0.02 KCAL/MOL
REMARK 927      BINDING AFFINITY PREDICTED BY RF-SCORE:    0.00 PKD
ROOT
HETATM    1  O   UNL     1     -12.598   9.607  70.142  1.00  0.00     0.156 OA 
HETATM    2  C   UNL     1     -12.200   8.986  71.269  1.00  0.00    -0.312 C  
HETATM    3  O   UNL     1     -12.375   9.492  72.371  1.00  0.00    -0.241 OA 
HETATM    4  C   UNL     1     -11.533   7.659  71.140  1.00  0.00    -0.296 A  
HETATM    5  C   UNL     1     -11.147   6.987  72.311  1.00  0.00    -0.252 A  
HETATM    6  O   UNL     1     -11.354   7.475  73.574  1.00  0.00    -0.620 OA 
HETATM    7  C   UNL     1     -10.501   5.757  72.243  1.00  0.00    -0.253 A  
HETATM    8  C   UNL     1     -10.203   5.188  71.002  1.00  0.00    -0.295 A  
HETATM    9  H   UNL     1     -11.093   7.020  74.366  1.00  0.00     0.000 HD 
HETATM   10  C   UNL     1     -10.564   5.821  69.799  1.00  0.00    -0.388 A  
HETATM   11  C   UNL     1     -11.257   7.049  69.902  1.00  0.00    -0.286 A  
ENDROOT
BRANCH  10  12
HETATM   12  C   UNL     1     -10.220   5.233  68.475  1.00  0.00    -0.214 A  
HETATM   13  C   UNL     1     -10.684   5.787  67.262  1.00  0.00    -0.261 A  
HETATM   14  F   UNL     1     -11.448   6.891  67.265  1.00  0.00    -0.369 F  
HETATM   15  C   UNL     1     -10.375   5.237  66.020  1.00  0.00    -0.176 A  
HETATM   16  C   UNL     1      -9.567   4.116  65.963  1.00  0.00    -0.194 A  
HETATM   17  F   UNL     1      -9.260   3.582  64.775  1.00  0.00    -0.120 F  
HETATM   18  C   UNL     1      -9.071   3.540  67.124  1.00  0.00    -0.191 A  
HETATM   19  C   UNL     1      -9.401   4.089  68.369  1.00  0.00    -0.218 A  
ENDBRANCH  10  12
TORSDOF 1
ENDMDL
MODEL      153
REMARK 921   NORMALIZED FREE ENERGY PREDICTED BY IDOCK:   -3.90 KCAL/MOL
REMARK 922        TOTAL FREE ENERGY PREDICTED BY IDOCK:   -4.50 KCAL/MOL
REMARK 923 INTER-LIGAND FREE ENERGY PREDICTED BY IDOCK:   -4.11 KCAL/MOL
REMARK 924 INTRA-LIGAND FREE ENERGY PREDICTED BY IDOCK:   -0.39 KCAL/MOL
REMARK 927      BINDING AFFINITY PREDICTED BY RF-SCORE:    0.00 PKD
ROOT
HETATM    1  O   UNL     1      -8.470   5.457  66.141  1.00  0.00    -0.114 OA 
HETATM    2  C   UNL     1      -8.636   6.741  65.772  1.00  0.00    -0.137 C  
HETATM    3  O   UNL     1      -8.379   7.116  64.634  1.00  0.00    -0.071 OA 
HETATM    4  C   UNL     1      -9.139   7.704  66.794  1.00  0.00    -0.181 A  
HETATM    5  C   UNL     1      -9.350   9.038  66.410  1.00  0.00    -0.206 A  
HETATM    6  O   UNL     1      -9.126   9.511  65.144  1.00  0.00    -0.201 OA 
HETATM    7  C   UNL     1      -9.796   9.980  67.331  1.00  0.00    -0.226 A  
HETATM    8  C   UNL     1     -10.014   9.612  68.661  1.00  0.00    -0.179 A  
HETATM    9  H   UNL     1      -9.269  10.414  64.884  1.00  0.00     0.000 HD 
HETATM   10  C   UNL     1      -9.816   8.290  69.099  1.00  0.00    -0.179 A  
HETATM   11  C   UNL     1      -9.402   7.348  68.129  1.00  0.00    -0.135 A  
ENDROOT
BRANCH  10  12
HETATM   12  C   UNL     1     -10.017   7.902  70.522  1.00  0.00    -0.191 A  
HETATM   13  C   UNL     1     -10.927   6.892  70.905  1.00  0.00    -0.253 A  
HETATM   14  F   UNL     1     -11.637   6.227  69.980  1.00  0.00    -0.432 F  
HETATM   15  C   UNL     1     -11.128   6.530  72.236  1.00  0.00    -0.297 A  
HETATM   16  C   UNL     1     -10.398   7.166  73.223  1.00  0.00    -0.327 A  
HETATM   17  F   UNL     1     -10.581   6.823  74.504  1.00  0.00    -0.345 F  
HETATM   18  C   UNL     1      -9.480   8.155  72.901  1.00  0.00    -0.345 A  
HETATM   19  C   UNL     1      -9.296   8.524  71.563  1.00  0.00    -0.289 A  
ENDBRANCH  10  12
TORSDOF 1
ENDMDL
MODEL      154
REMARK 921   NORMALIZED FREE ENERGY PREDICTED BY IDOCK:   -3.90 KCAL/MOL
REMARK 922        TOTAL FREE ENERGY PREDICTED BY IDOCK:   -4.49 KCAL/MOL
REMARK 923 INTER-LIGAND FREE ENERGY PREDICTED BY IDOCK:   -4.12 KCAL/MOL
REMARK 924 INTRA-LIGAND FREE ENERGY PREDICTED BY IDOCK:   -0.37 KCAL/MOL
REMARK 927      BINDING AFFINITY PREDICTED BY RF-SCORE:    0.00 PKD
ROOT
HETATM    1  O   UNL     1     -12.665  12.931  65.583  1.00  0.00    -0.537 OA 
HETATM    2  C   UNL     1     -11.880  13.237  66.633  1.00  0.00    -0.395 C  
HETATM    3  O   UNL     1     -12.157  14.164  67.386  1.00  0.00    -0.402 OA 
HETATM    4  C   UNL     1     -10.655  12.417  66.856  1.00  0.00    -0.251 A  
HETATM    5  C   UNL     1      -9.850  12.706  67.969  1.00  0.00    -0.218 A  
HETATM    6  O   UNL     1     -10.126  13.696  68.874  1.00  0.00    -0.387 OA 
HETATM    7  C   UNL     1      -8.684  11.985  68.208  1.00  0.00    -0.178 A  
HETATM    8  C   UNL     1      -8.287  10.979  67.323  1.00  0.00    -0.125 A  
HETATM    9  H   UNL     1      -9.581  13.892  69.627  1.00  0.00     0.000 HD 
HETATM   10  C   UNL     1      -9.056  10.653  66.192  1.00  0.00    -0.190 A  
HETATM   11  C   UNL     1     -10.255  11.375  65.999  1.00  0.00    -0.289 A  
ENDROOT
BRANCH  10  12
HETATM   12  C   UNL     1      -8.619   9.604  65.229  1.00  0.00    -0.169 A  
HETATM   13  C   UNL     1      -8.472   9.863  63.849  1.00  0.00    -0.181 A  
HETATM   14  F   UNL     1      -8.708  11.089  63.357  1.00  0.00    -0.175 F  
HETATM   15  C   UNL     1      -8.073   8.884  62.941  1.00  0.00    -0.174 A  
HETATM   16  C   UNL     1      -7.790   7.613  63.404  1.00  0.00    -0.125 A  
HETATM   17  F   UNL     1      -7.402   6.666  62.541  1.00  0.00    -0.049 F  
HETATM   18  C   UNL     1      -7.902   7.308  64.752  1.00  0.00    -0.126 A  
HETATM   19  C   UNL     1      -8.320   8.293  65.656  1.00  0.00    -0.154 A  
ENDBRANCH  10  12
TORSDOF 1
ENDMDL
MODEL      155
REMARK 921   NORMALIZED FREE ENERGY PREDICTED BY IDOCK:   -3.89 KCAL/MOL
REMARK 922        TOTAL FREE ENERGY PREDICTED BY IDOCK:   -4.48 KCAL/MOL
REMARK 923 INTER-LIGAND FREE ENERGY PREDICTED BY IDOCK:   -4.03 KCAL/MOL
REMARK 924 INTRA-LIGAND FREE ENERGY PREDICTED BY IDOCK:   -0.46 KCAL/MOL
REMARK 927      BINDING AFFINITY PREDICTED BY RF-SCORE:    0.00 PKD
ROOT
HETATM    1  O   UNL     1      -7.043   7.780  71.696  1.00  0.00    -0.060 OA 
HETATM    2  C   UNL     1      -8.302   7.986  72.126  1.00  0.00    -0.143 C  
HETATM    3  O   UNL     1      -8.529   8.609  73.157  1.00  0.00    -0.398 OA 
HETATM    4  C   UNL     1      -9.420   7.429  71.313  1.00  0.00    -0.159 A  
HETATM    5  C   UNL     1     -10.738   7.670  71.733  1.00  0.00    -0.216 A  
HETATM    6  O   UNL     1     -11.062   8.395  72.849  1.00  0.00    -0.252 OA 
HETATM    7  C   UNL     1     -11.816   7.152  71.021  1.00  0.00    -0.373 A  
HETATM    8  C   UNL     1     -11.595   6.361  69.891  1.00  0.00    -0.422 A  
HETATM    9  H   UNL     1     -11.954   8.558  73.133  1.00  0.00     0.000 HD 
HETATM   10  C   UNL     1     -10.296   6.088  69.429  1.00  0.00    -0.298 A  
HETATM   11  C   UNL     1      -9.224   6.662  70.150  1.00  0.00    -0.155 A  
ENDROOT
BRANCH  10  12
HETATM   12  C   UNL     1     -10.057   5.219  68.244  1.00  0.00    -0.219 A  
HETATM   13  C   UNL     1      -9.472   3.939  68.354  1.00  0.00    -0.147 A  
HETATM   14  F   UNL     1      -9.125   3.449  69.555  1.00  0.00    -0.134 F  
HETATM   15  C   UNL     1      -9.236   3.124  67.249  1.00  0.00    -0.219 A  
HETATM   16  C   UNL     1      -9.604   3.571  65.994  1.00  0.00    -0.094 A  
HETATM   17  F   UNL     1      -9.385   2.795  64.925  1.00  0.00    -0.139 F  
HETATM   18  C   UNL     1     -10.196   4.815  65.829  1.00  0.00    -0.251 A  
HETATM   19  C   UNL     1     -10.414   5.634  66.944  1.00  0.00    -0.349 A  
ENDBRANCH  10  12
TORSDOF 1
ENDMDL
MODEL      156
REMARK 921   NORMALIZED FREE ENERGY PREDICTED BY IDOCK:   -3.88 KCAL/MOL
REMARK 922        TOTAL FREE ENERGY PREDICTED BY IDOCK:   -4.48 KCAL/MOL
REMARK 923 INTER-LIGAND FREE ENERGY PREDICTED BY IDOCK:   -4.05 KCAL/MOL
REMARK 924 INTRA-LIGAND FREE ENERGY PREDICTED BY IDOCK:   -0.42 KCAL/MOL
REMARK 927      BINDING AFFINITY PREDICTED BY RF-SCORE:    0.00 PKD
ROOT
HETATM    1  O   UNL     1     -10.361  13.603  64.874  1.00  0.00    -0.377 OA 
HETATM    2  C   UNL     1      -9.893  12.982  65.973  1.00  0.00    -0.255 C  
HETATM    3  O   UNL     1     -10.174  11.813  66.212  1.00  0.00    -0.211 OA 
HETATM    4  C   UNL     1      -9.022  13.759  66.900  1.00  0.00    -0.234 A  
HETATM    5  C   UNL     1      -8.499  13.109  68.030  1.00  0.00    -0.181 A  
HETATM    6  O   UNL     1      -8.737  11.794  68.332  1.00  0.00    -0.162 OA 
HETATM    7  C   UNL     1      -7.700  13.796  68.938  1.00  0.00    -0.021 A  
HETATM    8  C   UNL     1      -7.430  15.154  68.748  1.00  0.00    -0.132 A  
HETATM    9  H   UNL     1      -8.384  11.355  69.096  1.00  0.00     0.000 HD 
HETATM   10  C   UNL     1      -7.931  15.853  67.635  1.00  0.00    -0.163 A  
HETATM   11  C   UNL     1      -8.705  15.116  66.709  1.00  0.00    -0.307 A  
ENDROOT
BRANCH  10  12
HETATM   12  C   UNL     1      -7.671  17.307  67.447  1.00  0.00    -0.194 A  
HETATM   13  C   UNL     1      -8.137  18.279  68.359  1.00  0.00    -0.307 A  
HETATM   14  F   UNL     1      -8.825  17.913  69.453  1.00  0.00    -0.003 F  
HETATM   15  C   UNL     1      -7.907  19.642  68.185  1.00  0.00    -0.346 A  
HETATM   16  C   UNL     1      -7.179  20.066  67.089  1.00  0.00    -0.249 A  
HETATM   17  F   UNL     1      -6.949  21.373  66.913  1.00  0.00    -0.381 F  
HETATM   18  C   UNL     1      -6.684  19.152  66.169  1.00  0.00    -0.243 A  
HETATM   19  C   UNL     1      -6.934  17.785  66.343  1.00  0.00    -0.288 A  
ENDBRANCH  10  12
TORSDOF 1
ENDMDL
MODEL      157
REMARK 921   NORMALIZED FREE ENERGY PREDICTED BY IDOCK:   -3.82 KCAL/MOL
REMARK 922        TOTAL FREE ENERGY PREDICTED BY IDOCK:   -4.41 KCAL/MOL
REMARK 923 INTER-LIGAND FREE ENERGY PREDICTED BY IDOCK:   -4.30 KCAL/MOL
REMARK 924 INTRA-LIGAND FREE ENERGY PREDICTED BY IDOCK:   -0.10 KCAL/MOL
REMARK 927      BINDING AFFINITY PREDICTED BY RF-SCORE:    0.00 PKD
ROOT
HETATM    1  O   UNL     1     -12.066  12.715  65.039  1.00  0.00    -0.394 OA 
HETATM    2  C   UNL     1     -12.008  13.995  64.625  1.00  0.00    -0.430 C  
HETATM    3  O   UNL     1     -12.736  14.409  63.730  1.00  0.00    -0.785 OA 
HETATM    4  C   UNL     1     -11.024  14.900  65.284  1.00  0.00    -0.389 A  
HETATM    5  C   UNL     1     -10.980  16.245  64.885  1.00  0.00    -0.307 A  
HETATM    6  O   UNL     1     -11.796  16.783  63.925  1.00  0.00    -1.146 OA 
HETATM    7  C   UNL     1     -10.064  17.125  65.453  1.00  0.00     0.157 A  
HETATM    8  C   UNL     1      -9.156  16.670  66.412  1.00  0.00    -0.325 A  
HETATM    9  H   UNL     1     -11.766  17.693  63.654  1.00  0.00     0.000 HD 
HETATM   10  C   UNL     1      -9.156  15.332  66.845  1.00  0.00    -0.263 A  
HETATM   11  C   UNL     1     -10.126  14.473  66.279  1.00  0.00    -0.308 A  
ENDROOT
BRANCH  10  12
HETATM   12  C   UNL     1      -8.169  14.837  67.844  1.00  0.00    -0.154 A  
HETATM   13  C   UNL     1      -6.900  15.434  68.008  1.00  0.00    -0.140 A  
HETATM   14  F   UNL     1      -6.546  16.498  67.269  1.00  0.00    -0.139 F  
HETATM   15  C   UNL     1      -5.967  14.971  68.933  1.00  0.00    -0.089 A  
HETATM   16  C   UNL     1      -6.296  13.897  69.739  1.00  0.00    -0.125 A  
HETATM   17  F   UNL     1      -5.408  13.445  70.634  1.00  0.00    -0.099 F  
HETATM   18  C   UNL     1      -7.534  13.282  69.630  1.00  0.00     0.689 A  
HETATM   19  C   UNL     1      -8.460  13.743  68.686  1.00  0.00    -0.056 A  
ENDBRANCH  10  12
TORSDOF 1
ENDMDL
MODEL      158
REMARK 921   NORMALIZED FREE ENERGY PREDICTED BY IDOCK:   -3.78 KCAL/MOL
REMARK 922        TOTAL FREE ENERGY PREDICTED BY IDOCK:   -4.37 KCAL/MOL
REMARK 923 INTER-LIGAND FREE ENERGY PREDICTED BY IDOCK:   -4.18 KCAL/MOL
REMARK 924 INTRA-LIGAND FREE ENERGY PREDICTED BY IDOCK:   -0.18 KCAL/MOL
REMARK 927      BINDING AFFINITY PREDICTED BY RF-SCORE:    0.00 PKD
ROOT
HETATM    1  O   UNL     1      -8.487  12.200  67.313  1.00  0.00    -0.163 OA 
HETATM    2  C   UNL     1      -9.478  12.809  67.991  1.00  0.00    -0.213 C  
HETATM    3  O   UNL     1      -9.594  14.029  67.990  1.00  0.00    -0.204 OA 
HETATM    4  C   UNL     1     -10.433  11.955  68.753  1.00  0.00    -0.207 A  
HETATM    5  C   UNL     1     -11.492  12.578  69.434  1.00  0.00    -0.263 A  
HETATM    6  O   UNL     1     -11.706  13.931  69.436  1.00  0.00    -0.273 OA 
HETATM    7  C   UNL     1     -12.397  11.828  70.178  1.00  0.00    -0.272 A  
HETATM    8  C   UNL     1     -12.245  10.443  70.278  1.00  0.00    -0.349 A  
HETATM    9  H   UNL     1     -12.421  14.353  69.896  1.00  0.00     0.000 HD 
HETATM   10  C   UNL     1     -11.201   9.770  69.619  1.00  0.00    -0.216 A  
HETATM   11  C   UNL     1     -10.323  10.555  68.837  1.00  0.00    -0.226 A  
ENDROOT
BRANCH  10  12
HETATM   12  C   UNL     1     -11.018   8.298  69.749  1.00  0.00    -0.132 A  
HETATM   13  C   UNL     1     -10.552   7.500  68.682  1.00  0.00    -0.142 A  
HETATM   14  F   UNL     1     -10.236   8.057  67.501  1.00  0.00    -0.220 F  
HETATM   15  C   UNL     1     -10.387   6.121  68.793  1.00  0.00    -0.256 A  
HETATM   16  C   UNL     1     -10.671   5.505  69.998  1.00  0.00    -0.286 A  
HETATM   17  F   UNL     1     -10.513   4.181  70.117  1.00  0.00    -0.119 F  
HETATM   18  C   UNL     1     -11.118   6.243  71.084  1.00  0.00    -0.356 A  
HETATM   19  C   UNL     1     -11.297   7.627  70.958  1.00  0.00    -0.289 A  
ENDBRANCH  10  12
TORSDOF 1
ENDMDL
MODEL      159
REMARK 921   NORMALIZED FREE ENERGY PREDICTED BY IDOCK:   -3.76 KCAL/MOL
REMARK 922        TOTAL FREE ENERGY PREDICTED BY IDOCK:   -4.34 KCAL/MOL
REMARK 923 INTER-LIGAND FREE ENERGY PREDICTED BY IDOCK:   -3.87 KCAL/MOL
REMARK 924 INTRA-LIGAND FREE ENERGY PREDICTED BY IDOCK:   -0.48 KCAL/MOL
REMARK 927      BINDING AFFINITY PREDICTED BY RF-SCORE:    0.00 PKD
ROOT
HETATM    1  O   UNL     1     -12.020   6.506  70.331  1.00  0.00    -0.397 OA 
HETATM    2  C   UNL     1     -10.719   6.212  70.521  1.00  0.00    -0.278 C  
HETATM    3  O   UNL     1     -10.363   5.437  71.401  1.00  0.00    -0.213 OA 
HETATM    4  C   UNL     1      -9.716   6.863  69.630  1.00  0.00    -0.157 A  
HETATM    5  C   UNL     1      -8.361   6.536  69.797  1.00  0.00    -0.127 A  
HETATM    6  O   UNL     1      -7.901   5.644  70.729  1.00  0.00    -0.089 OA 
HETATM    7  C   UNL     1      -7.385   7.133  69.006  1.00  0.00    -0.092 A  
HETATM    8  C   UNL     1      -7.742   8.089  68.052  1.00  0.00    -0.118 A  
HETATM    9  H   UNL     1      -6.984   5.423  70.842  1.00  0.00     0.000 HD 
HETATM   10  C   UNL     1      -9.084   8.455  67.847  1.00  0.00    -0.137 A  
HETATM   11  C   UNL     1     -10.056   7.800  68.638  1.00  0.00    -0.211 A  
ENDROOT
BRANCH  10  12
HETATM   12  C   UNL     1      -9.465   9.496  66.853  1.00  0.00    -0.204 A  
HETATM   13  C   UNL     1      -9.839  10.803  67.238  1.00  0.00    -0.179 A  
HETATM   14  F   UNL     1      -9.844  11.157  68.534  1.00  0.00    -0.169 F  
HETATM   15  C   UNL     1     -10.206  11.780  66.316  1.00  0.00    -0.255 A  
HETATM   16  C   UNL     1     -10.187  11.473  64.968  1.00  0.00    -0.280 A  
HETATM   17  F   UNL     1     -10.534  12.405  64.072  1.00  0.00    -0.316 F  
HETATM   18  C   UNL     1      -9.814  10.210  64.534  1.00  0.00    -0.334 A  
HETATM   19  C   UNL     1      -9.462   9.228  65.469  1.00  0.00    -0.309 A  
ENDBRANCH  10  12
TORSDOF 1
ENDMDL
MODEL      160
REMARK 921   NORMALIZED FREE ENERGY PREDICTED BY IDOCK:   -3.74 KCAL/MOL
REMARK 922        TOTAL FREE ENERGY PREDICTED BY IDOCK:   -4.32 KCAL/MOL
REMARK 923 INTER-LIGAND FREE ENERGY PREDICTED BY IDOCK:   -3.84 KCAL/MOL
REMARK 924 INTRA-LIGAND FREE ENERGY PREDICTED BY IDOCK:   -0.48 KCAL/MOL
REMARK 927      BINDING AFFINITY PREDICTED BY RF-SCORE:    0.00 PKD
ROOT
HETATM    1  O   UNL     1     -11.222  14.579  68.219  1.00  0.00    -0.256 OA 
HETATM    2  C   UNL     1     -11.116  14.321  66.902  1.00  0.00    -0.312 C  
HETATM    3  O   UNL     1     -11.562  15.095  66.063  1.00  0.00    -0.236 OA 
HETATM    4  C   UNL     1     -10.440  13.058  66.487  1.00  0.00    -0.284 A  
HETATM    5  C   UNL     1     -10.292  12.797  65.116  1.00  0.00    -0.295 A  
HETATM    6  O   UNL     1     -10.727  13.640  64.128  1.00  0.00    -0.565 OA 
HETATM    7  C   UNL     1      -9.689  11.622  64.678  1.00  0.00    -0.210 A  
HETATM    8  C   UNL     1      -9.248  10.673  65.603  1.00  0.00    -0.227 A  
HETATM    9  H   UNL     1     -10.627  13.464  63.200  1.00  0.00     0.000 HD 
HETATM   10  C   UNL     1      -9.375  10.884  66.988  1.00  0.00    -0.180 A  
HETATM   11  C   UNL     1      -9.954  12.105  67.401  1.00  0.00    -0.206 A  
ENDROOT
BRANCH  10  12
HETATM   12  C   UNL     1      -8.934   9.860  67.975  1.00  0.00    -0.121 A  
HETATM   13  C   UNL     1      -9.716   8.724  68.281  1.00  0.00    -0.158 A  
HETATM   14  F   UNL     1     -10.892   8.520  67.666  1.00  0.00    -0.296 F  
HETATM   15  C   UNL     1      -9.315   7.767  69.211  1.00  0.00    -0.148 A  
HETATM   16  C   UNL     1      -8.098   7.918  69.849  1.00  0.00    -0.118 A  
HETATM   17  F   UNL     1      -7.702   7.002  70.742  1.00  0.00    -0.087 F  
HETATM   18  C   UNL     1      -7.284   9.007  69.575  1.00  0.00    -0.060 A  
HETATM   19  C   UNL     1      -7.702   9.973  68.652  1.00  0.00    -0.086 A  
ENDBRANCH  10  12
TORSDOF 1
ENDMDL
MODEL      161
REMARK 921   NORMALIZED FREE ENERGY PREDICTED BY IDOCK:   -3.72 KCAL/MOL
REMARK 922        TOTAL FREE ENERGY PREDICTED BY IDOCK:   -4.30 KCAL/MOL
REMARK 923 INTER-LIGAND FREE ENERGY PREDICTED BY IDOCK:   -3.86 KCAL/MOL
REMARK 924 INTRA-LIGAND FREE ENERGY PREDICTED BY IDOCK:   -0.44 KCAL/MOL
REMARK 927      BINDING AFFINITY PREDICTED BY RF-SCORE:    0.00 PKD
ROOT
HETATM    1  O   UNL     1     -12.036  10.249  70.705  1.00  0.00    -0.291 OA 
HETATM    2  C   UNL     1     -12.132   9.095  71.392  1.00  0.00    -0.337 C  
HETATM    3  O   UNL     1     -12.739   9.035  72.455  1.00  0.00    -0.392 OA 
HETATM    4  C   UNL     1     -11.470   7.885  70.826  1.00  0.00    -0.273 A  
HETATM    5  C   UNL     1     -11.595   6.669  71.516  1.00  0.00    -0.309 A  
HETATM    6  O   UNL     1     -12.298   6.523  72.683  1.00  0.00    -0.495 OA 
HETATM    7  C   UNL     1     -10.978   5.516  71.041  1.00  0.00    -0.193 A  
HETATM    8  C   UNL     1     -10.201   5.563  69.881  1.00  0.00    -0.338 A  
HETATM    9  H   UNL     1     -12.382   5.700  73.150  1.00  0.00     0.000 HD 
HETATM   10  C   UNL     1     -10.041   6.756  69.153  1.00  0.00    -0.180 A  
HETATM   11  C   UNL     1     -10.715   7.900  69.639  1.00  0.00    -0.218 A  
ENDROOT
BRANCH  10  12
HETATM   12  C   UNL     1      -9.188   6.817  67.934  1.00  0.00    -0.112 A  
HETATM   13  C   UNL     1      -7.997   7.574  67.886  1.00  0.00    -0.119 A  
HETATM   14  F   UNL     1      -7.581   8.259  68.963  1.00  0.00    -0.081 F  
HETATM   15  C   UNL     1      -7.199   7.644  66.746  1.00  0.00    -0.088 A  
HETATM   16  C   UNL     1      -7.570   6.932  65.621  1.00  0.00    -0.089 A  
HETATM   17  F   UNL     1      -6.808   6.989  64.521  1.00  0.00    -0.045 F  
HETATM   18  C   UNL     1      -8.722   6.160  65.618  1.00  0.00    -0.133 A  
HETATM   19  C   UNL     1      -9.528   6.108  66.763  1.00  0.00    -0.164 A  
ENDBRANCH  10  12
TORSDOF 1
ENDMDL
MODEL      162
REMARK 921   NORMALIZED FREE ENERGY PREDICTED BY IDOCK:   -3.71 KCAL/MOL
REMARK 922        TOTAL FREE ENERGY PREDICTED BY IDOCK:   -4.30 KCAL/MOL
REMARK 923 INTER-LIGAND FREE ENERGY PREDICTED BY IDOCK:   -3.94 KCAL/MOL
REMARK 924 INTRA-LIGAND FREE ENERGY PREDICTED BY IDOCK:   -0.36 KCAL/MOL
REMARK 927      BINDING AFFINITY PREDICTED BY RF-SCORE:    0.00 PKD
ROOT
HETATM    1  O   UNL     1      -9.675   9.948  69.826  1.00  0.00    -0.214 OA 
HETATM    2  C   UNL     1     -10.988   9.914  70.121  1.00  0.00    -0.301 C  
HETATM    3  O   UNL     1     -11.720  10.867  69.881  1.00  0.00    -0.277 OA 
HETATM    4  C   UNL     1     -11.532   8.680  70.756  1.00  0.00    -0.293 A  
HETATM    5  C   UNL     1     -12.907   8.620  71.034  1.00  0.00     0.022 A  
HETATM    6  O   UNL     1     -13.787   9.631  70.750  1.00  0.00    -0.522 OA 
HETATM    7  C   UNL     1     -13.460   7.500  71.646  1.00  0.00    -0.429 A  
HETATM    8  C   UNL     1     -12.643   6.428  72.017  1.00  0.00    -0.141 A  
HETATM    9  H   UNL     1     -14.717   9.591  70.938  1.00  0.00     0.000 HD 
HETATM   10  C   UNL     1     -11.260   6.438  71.764  1.00  0.00    -0.324 A  
HETATM   11  C   UNL     1     -10.736   7.573  71.103  1.00  0.00    -0.242 A  
ENDROOT
BRANCH  10  12
HETATM   12  C   UNL     1     -10.382   5.312  72.186  1.00  0.00    -0.268 A  
HETATM   13  C   UNL     1      -9.539   4.634  71.279  1.00  0.00    -0.172 A  
HETATM   14  F   UNL     1      -9.488   5.003  69.989  1.00  0.00    -0.165 F  
HETATM   15  C   UNL     1      -8.722   3.573  71.664  1.00  0.00    -0.124 A  
HETATM   16  C   UNL     1      -8.718   3.175  72.988  1.00  0.00    -0.081 A  
HETATM   17  F   UNL     1      -7.934   2.159  73.370  1.00  0.00    -0.043 F  
HETATM   18  C   UNL     1      -9.515   3.816  73.925  1.00  0.00    -0.116 A  
HETATM   19  C   UNL     1     -10.346   4.871  73.526  1.00  0.00    -0.246 A  
ENDBRANCH  10  12
TORSDOF 1
ENDMDL
MODEL      163
REMARK 921   NORMALIZED FREE ENERGY PREDICTED BY IDOCK:   -3.70 KCAL/MOL
REMARK 922        TOTAL FREE ENERGY PREDICTED BY IDOCK:   -4.29 KCAL/MOL
REMARK 923 INTER-LIGAND FREE ENERGY PREDICTED BY IDOCK:   -3.86 KCAL/MOL
REMARK 924 INTRA-LIGAND FREE ENERGY PREDICTED BY IDOCK:   -0.42 KCAL/MOL
REMARK 927      BINDING AFFINITY PREDICTED BY RF-SCORE:    0.00 PKD
ROOT
HETATM    1  O   UNL     1      -9.741   8.102  72.024  1.00  0.00    -0.186 OA 
HETATM    2  C   UNL     1      -8.447   8.424  71.837  1.00  0.00    -0.177 C  
HETATM    3  O   UNL     1      -7.573   8.015  72.593  1.00  0.00    -0.100 OA 
HETATM    4  C   UNL     1      -8.102   9.301  70.682  1.00  0.00    -0.207 A  
HETATM    5  C   UNL     1      -6.752   9.613  70.458  1.00  0.00    -0.119 A  
HETATM    6  O   UNL     1      -5.723   9.152  71.236  1.00  0.00    -0.044 OA 
HETATM    7  C   UNL     1      -6.380  10.446  69.407  1.00  0.00    -0.053 A  
HETATM    8  C   UNL     1      -7.355  11.005  68.577  1.00  0.00    -0.101 A  
HETATM    9  H   UNL     1      -4.809   9.363  71.085  1.00  0.00     0.000 HD 
HETATM   10  C   UNL     1      -8.721  10.728  68.759  1.00  0.00    -0.163 A  
HETATM   11  C   UNL     1      -9.063   9.845  69.810  1.00  0.00    -0.249 A  
ENDROOT
BRANCH  10  12
HETATM   12  C   UNL     1      -9.764  11.347  67.896  1.00  0.00    -0.186 A  
HETATM   13  C   UNL     1      -9.824  11.116  66.504  1.00  0.00    -0.208 A  
HETATM   14  F   UNL     1      -8.938  10.301  65.910  1.00  0.00    -0.152 F  
HETATM   15  C   UNL     1     -10.791  11.700  65.688  1.00  0.00    -0.330 A  
HETATM   16  C   UNL     1     -11.743  12.524  66.258  1.00  0.00    -0.404 A  
HETATM   17  F   UNL     1     -12.679  13.087  65.484  1.00  0.00    -0.510 F  
HETATM   18  C   UNL     1     -11.740  12.773  67.623  1.00  0.00    -0.422 A  
HETATM   19  C   UNL     1     -10.755  12.195  68.434  1.00  0.00    -0.252 A  
ENDBRANCH  10  12
TORSDOF 1
ENDMDL
MODEL      164
REMARK 921   NORMALIZED FREE ENERGY PREDICTED BY IDOCK:   -3.67 KCAL/MOL
REMARK 922        TOTAL FREE ENERGY PREDICTED BY IDOCK:   -4.25 KCAL/MOL
REMARK 923 INTER-LIGAND FREE ENERGY PREDICTED BY IDOCK:   -3.83 KCAL/MOL
REMARK 924 INTRA-LIGAND FREE ENERGY PREDICTED BY IDOCK:   -0.42 KCAL/MOL
REMARK 927      BINDING AFFINITY PREDICTED BY RF-SCORE:    0.00 PKD
ROOT
HETATM    1  O   UNL     1      -6.347   8.528  67.222  1.00  0.00    -0.055 OA 
HETATM    2  C   UNL     1      -7.120   7.964  68.168  1.00  0.00    -0.089 C  
HETATM    3  O   UNL     1      -6.774   6.940  68.747  1.00  0.00    -0.052 OA 
HETATM    4  C   UNL     1      -8.420   8.618  68.494  1.00  0.00    -0.131 A  
HETATM    5  C   UNL     1      -9.217   8.058  69.504  1.00  0.00    -0.152 A  
HETATM    6  O   UNL     1      -8.869   6.943  70.220  1.00  0.00    -0.146 OA 
HETATM    7  C   UNL     1     -10.449   8.617  69.830  1.00  0.00    -0.220 A  
HETATM    8  C   UNL     1     -10.919   9.732  69.131  1.00  0.00    -0.205 A  
HETATM    9  H   UNL     1      -9.408   6.563  70.904  1.00  0.00     0.000 HD 
HETATM   10  C   UNL     1     -10.162  10.330  68.108  1.00  0.00    -0.192 A  
HETATM   11  C   UNL     1      -8.897   9.763  67.830  1.00  0.00    -0.129 A  
ENDROOT
BRANCH  10  12
HETATM   12  C   UNL     1     -10.675  11.498  67.341  1.00  0.00    -0.275 A  
HETATM   13  C   UNL     1     -10.978  12.731  67.960  1.00  0.00    -0.239 A  
HETATM   14  F   UNL     1     -10.791  12.896  69.279  1.00  0.00    -0.234 F  
HETATM   15  C   UNL     1     -11.467  13.826  67.250  1.00  0.00    -0.367 A  
HETATM   16  C   UNL     1     -11.648  13.715  65.884  1.00  0.00    -0.328 A  
HETATM   17  F   UNL     1     -12.115  14.762  65.192  1.00  0.00    -0.360 F  
HETATM   18  C   UNL     1     -11.352  12.532  65.223  1.00  0.00    -0.363 A  
HETATM   19  C   UNL     1     -10.877  11.431  65.946  1.00  0.00    -0.292 A  
ENDBRANCH  10  12
TORSDOF 1
ENDMDL
MODEL      165
REMARK 921   NORMALIZED FREE ENERGY PREDICTED BY IDOCK:   -3.62 KCAL/MOL
REMARK 922        TOTAL FREE ENERGY PREDICTED BY IDOCK:   -4.20 KCAL/MOL
REMARK 923 INTER-LIGAND FREE ENERGY PREDICTED BY IDOCK:   -3.96 KCAL/MOL
REMARK 924 INTRA-LIGAND FREE ENERGY PREDICTED BY IDOCK:   -0.24 KCAL/MOL
REMARK 927      BINDING AFFINITY PREDICTED BY RF-SCORE:    0.00 PKD
ROOT
HETATM    1  O   UNL     1     -10.768  12.427  67.726  1.00  0.00    -0.213 OA 
HETATM    2  C   UNL     1     -11.299  12.140  68.929  1.00  0.00    -0.283 C  
HETATM    3  O   UNL     1     -11.924  12.980  69.567  1.00  0.00    -0.309 OA 
HETATM    4  C   UNL     1     -11.103  10.765  69.472  1.00  0.00    -0.334 A  
HETATM    5  C   UNL     1     -11.684  10.445  70.710  1.00  0.00    -0.368 A  
HETATM    6  O   UNL     1     -12.431  11.322  71.451  1.00  0.00    -0.345 OA 
HETATM    7  C   UNL     1     -11.511   9.184  71.270  1.00  0.00    -0.405 A  
HETATM    8  C   UNL     1     -10.730   8.227  70.617  1.00  0.00    -0.240 A  
HETATM    9  H   UNL     1     -12.824  11.105  72.288  1.00  0.00     0.000 HD 
HETATM   10  C   UNL     1     -10.124   8.497  69.377  1.00  0.00    -0.205 A  
HETATM   11  C   UNL     1     -10.353   9.774  68.814  1.00  0.00    -0.227 A  
ENDROOT
BRANCH  10  12
HETATM   12  C   UNL     1      -9.266   7.490  68.694  1.00  0.00    -0.144 A  
HETATM   13  C   UNL     1      -9.587   6.115  68.676  1.00  0.00    -0.127 A  
HETATM   14  F   UNL     1     -10.706   5.669  69.269  1.00  0.00    -0.304 F  
HETATM   15  C   UNL     1      -8.784   5.166  68.047  1.00  0.00    -0.102 A  
HETATM   16  C   UNL     1      -7.637   5.580  67.397  1.00  0.00    -0.089 A  
HETATM   17  F   UNL     1      -6.860   4.677  66.786  1.00  0.00    -0.050 F  
HETATM   18  C   UNL     1      -7.281   6.921  67.370  1.00  0.00    -0.090 A  
HETATM   19  C   UNL     1      -8.085   7.866  68.019  1.00  0.00    -0.126 A  
ENDBRANCH  10  12
TORSDOF 1
ENDMDL
MODEL      166
REMARK 921   NORMALIZED FREE ENERGY PREDICTED BY IDOCK:   -3.40 KCAL/MOL
REMARK 922        TOTAL FREE ENERGY PREDICTED BY IDOCK:   -3.97 KCAL/MOL
REMARK 923 INTER-LIGAND FREE ENERGY PREDICTED BY IDOCK:   -3.51 KCAL/MOL
REMARK 924 INTRA-LIGAND FREE ENERGY PREDICTED BY IDOCK:   -0.45 KCAL/MOL
REMARK 927      BINDING AFFINITY PREDICTED BY RF-SCORE:    0.00 PKD
ROOT
HETATM    1  O   UNL     1     -10.849   9.223  72.030  1.00  0.00    -0.309 OA 
HETATM    2  C   UNL     1     -11.262   9.809  70.890  1.00  0.00    -0.359 C  
HETATM    3  O   UNL     1     -11.965  10.813  70.908  1.00  0.00    -0.326 OA 
HETATM    4  C   UNL     1     -10.843   9.198  69.597  1.00  0.00    -0.210 A  
HETATM    5  C   UNL     1     -11.238   9.822  68.402  1.00  0.00    -0.017 A  
HETATM    6  O   UNL     1     -11.984  10.969  68.352  1.00  0.00    -0.637 OA 
HETATM    7  C   UNL     1     -10.892   9.278  67.169  1.00  0.00    -0.113 A  
HETATM    8  C   UNL     1     -10.168   8.085  67.107  1.00  0.00    -0.362 A  
HETATM    9  H   UNL     1     -12.252  11.391  67.544  1.00  0.00     0.000 HD 
HETATM   10  C   UNL     1      -9.750   7.419  68.272  1.00  0.00    -0.159 A  
HETATM   11  C   UNL     1     -10.082   8.018  69.509  1.00  0.00    -0.196 A  
ENDROOT
BRANCH  10  12
HETATM   12  C   UNL     1      -9.005   6.131  68.209  1.00  0.00    -0.114 A  
HETATM   13  C   UNL     1      -7.687   6.047  67.709  1.00  0.00    -0.101 A  
HETATM   14  F   UNL     1      -7.047   7.149  67.286  1.00  0.00    -0.072 F  
HETATM   15  C   UNL     1      -6.987   4.845  67.637  1.00  0.00    -0.061 A  
HETATM   16  C   UNL     1      -7.593   3.686  68.089  1.00  0.00    -0.061 A  
HETATM   17  F   UNL     1      -6.928   2.526  68.028  1.00  0.00    -0.044 F  
HETATM   18  C   UNL     1      -8.881   3.714  68.603  1.00  0.00    -0.159 A  
HETATM   19  C   UNL     1      -9.583   4.924  68.656  1.00  0.00    -0.215 A  
ENDBRANCH  10  12
TORSDOF 1
ENDMDL
MODEL      167
REMARK 921   NORMALIZED FREE ENERGY PREDICTED BY IDOCK:   -3.39 KCAL/MOL
REMARK 922        TOTAL FREE ENERGY PREDICTED BY IDOCK:   -3.96 KCAL/MOL
REMARK 923 INTER-LIGAND FREE ENERGY PREDICTED BY IDOCK:   -3.48 KCAL/MOL
REMARK 924 INTRA-LIGAND FREE ENERGY PREDICTED BY IDOCK:   -0.48 KCAL/MOL
REMARK 927      BINDING AFFINITY PREDICTED BY RF-SCORE:    0.00 PKD
ROOT
HETATM    1  O   UNL     1      -7.986  11.071  67.377  1.00  0.00    -0.114 OA 
HETATM    2  C   UNL     1      -7.208  11.377  68.433  1.00  0.00    -0.087 C  
HETATM    3  O   UNL     1      -6.617  10.507  69.062  1.00  0.00    -0.054 OA 
HETATM    4  C   UNL     1      -7.086  12.811  68.821  1.00  0.00    -0.089 A  
HETATM    5  C   UNL     1      -6.248  13.145  69.897  1.00  0.00    -0.094 A  
HETATM    6  O   UNL     1      -5.526  12.227  70.613  1.00  0.00    -0.139 OA 
HETATM    7  C   UNL     1      -6.119  14.466  70.313  1.00  0.00    -0.172 A  
HETATM    8  C   UNL     1      -6.846  15.476  69.678  1.00  0.00    -0.178 A  
HETATM    9  H   UNL     1      -4.959  12.453  71.341  1.00  0.00     0.000 HD 
HETATM   10  C   UNL     1      -7.700  15.196  68.597  1.00  0.00    -0.126 A  
HETATM   11  C   UNL     1      -7.779  13.850  68.172  1.00  0.00    -0.142 A  
ENDROOT
BRANCH  10  12
HETATM   12  C   UNL     1      -8.500  16.266  67.939  1.00  0.00    -0.166 A  
HETATM   13  C   UNL     1      -9.686  16.777  68.510  1.00  0.00    -0.248 A  
HETATM   14  F   UNL     1     -10.126  16.320  69.693  1.00  0.00    -0.239 F  
HETATM   15  C   UNL     1     -10.445  17.771  67.896  1.00  0.00    -0.401 A  
HETATM   16  C   UNL     1     -10.018  18.295  66.690  1.00  0.00    -0.364 A  
HETATM   17  F   UNL     1     -10.738  19.253  66.093  1.00  0.00    -0.472 F  
HETATM   18  C   UNL     1      -8.852  17.840  66.092  1.00  0.00    -0.122 A  
HETATM   19  C   UNL     1      -8.103  16.829  66.708  1.00  0.00    -0.273 A  
ENDBRANCH  10  12
TORSDOF 1
ENDMDL
MODEL      168
REMARK 921   NORMALIZED FREE ENERGY PREDICTED BY IDOCK:   -3.38 KCAL/MOL
REMARK 922        TOTAL FREE ENERGY PREDICTED BY IDOCK:   -3.95 KCAL/MOL
REMARK 923 INTER-LIGAND FREE ENERGY PREDICTED BY IDOCK:   -3.47 KCAL/MOL
REMARK 924 INTRA-LIGAND FREE ENERGY PREDICTED BY IDOCK:   -0.48 KCAL/MOL
REMARK 927      BINDING AFFINITY PREDICTED BY RF-SCORE:    0.00 PKD
ROOT
HETATM    1  O   UNL     1     -11.698  13.313  69.371  1.00  0.00    -0.290 OA 
HETATM    2  C   UNL     1     -10.809  12.430  68.877  1.00  0.00    -0.197 C  
HETATM    3  O   UNL     1     -11.060  11.231  68.831  1.00  0.00    -0.202 OA 
HETATM    4  C   UNL     1      -9.500  12.951  68.390  1.00  0.00    -0.162 A  
HETATM    5  C   UNL     1      -8.581  12.043  67.841  1.00  0.00    -0.165 A  
HETATM    6  O   UNL     1      -8.816  10.699  67.718  1.00  0.00    -0.131 OA 
HETATM    7  C   UNL     1      -7.336  12.475  67.393  1.00  0.00    -0.147 A  
HETATM    8  C   UNL     1      -6.977  13.820  67.511  1.00  0.00    -0.161 A  
HETATM    9  H   UNL     1      -8.195  10.085  67.347  1.00  0.00     0.000 HD 
HETATM   10  C   UNL     1      -7.859  14.770  68.056  1.00  0.00    -0.134 A  
HETATM   11  C   UNL     1      -9.131  14.306  68.464  1.00  0.00    -0.191 A  
ENDROOT
BRANCH  10  12
HETATM   12  C   UNL     1      -7.467  16.198  68.213  1.00  0.00    -0.145 A  
HETATM   13  C   UNL     1      -6.768  16.667  69.347  1.00  0.00    -0.218 A  
HETATM   14  F   UNL     1      -6.414  15.821  70.327  1.00  0.00    -0.153 F  
HETATM   15  C   UNL     1      -6.406  18.003  69.505  1.00  0.00    -0.215 A  
HETATM   16  C   UNL     1      -6.723  18.908  68.509  1.00  0.00    -0.255 A  
HETATM   17  F   UNL     1      -6.377  20.193  68.649  1.00  0.00    -0.283 F  
HETATM   18  C   UNL     1      -7.395  18.498  67.367  1.00  0.00    -0.222 A  
HETATM   19  C   UNL     1      -7.770  17.157  67.223  1.00  0.00    -0.198 A  
ENDBRANCH  10  12
TORSDOF 1
ENDMDL
MODEL      169
REMARK 921   NORMALIZED FREE ENERGY PREDICTED BY IDOCK:   -3.37 KCAL/MOL
REMARK 922        TOTAL FREE ENERGY PREDICTED BY IDOCK:   -3.93 KCAL/MOL
REMARK 923 INTER-LIGAND FREE ENERGY PREDICTED BY IDOCK:   -3.94 KCAL/MOL
REMARK 924 INTRA-LIGAND FREE ENERGY PREDICTED BY IDOCK:    0.01 KCAL/MOL
REMARK 927      BINDING AFFINITY PREDICTED BY RF-SCORE:    0.00 PKD
ROOT
HETATM    1  O   UNL     1     -10.919  14.806  68.332  1.00  0.00    -0.238 OA 
HETATM    2  C   UNL     1     -11.491  14.000  69.247  1.00  0.00    -0.295 C  
HETATM    3  O   UNL     1     -12.122  14.456  70.193  1.00  0.00    -0.294 OA 
HETATM    4  C   UNL     1     -11.330  12.527  69.081  1.00  0.00    -0.331 A  
HETATM    5  C   UNL     1     -11.952  11.677  70.009  1.00  0.00    -0.351 A  
HETATM    6  O   UNL     1     -12.709  12.120  71.061  1.00  0.00    -0.328 OA 
HETATM    7  C   UNL     1     -11.813  10.296  69.911  1.00  0.00    -0.267 A  
HETATM    8  C   UNL     1     -11.026   9.740  68.899  1.00  0.00    -0.183 A  
HETATM    9  H   UNL     1     -13.130  11.545  71.689  1.00  0.00     0.000 HD 
HETATM   10  C   UNL     1     -10.379  10.546  67.946  1.00  0.00    -0.226 A  
HETATM   11  C   UNL     1     -10.574  11.943  68.048  1.00  0.00    -0.234 A  
ENDROOT
BRANCH  10  12
HETATM   12  C   UNL     1      -9.515   9.958  66.886  1.00  0.00    -0.202 A  
HETATM   13  C   UNL     1      -9.177   8.587  66.864  1.00  0.00    -0.158 A  
HETATM   14  F   UNL     1      -9.649   7.754  67.806  1.00  0.00    -0.143 F  
HETATM   15  C   UNL     1      -8.361   8.031  65.882  1.00  0.00    -0.136 A  
HETATM   16  C   UNL     1      -7.874   8.843  64.874  1.00  0.00    -0.121 A  
HETATM   17  F   UNL     1      -7.092   8.319  63.922  1.00  0.00    -0.080 F  
HETATM   18  C   UNL     1      -8.187  10.194  64.838  1.00  0.00    -0.157 A  
HETATM   19  C   UNL     1      -8.994  10.748  65.839  1.00  0.00    -0.200 A  
ENDBRANCH  10  12
TORSDOF 1
ENDMDL
MODEL      170
REMARK 921   NORMALIZED FREE ENERGY PREDICTED BY IDOCK:   -3.35 KCAL/MOL
REMARK 922        TOTAL FREE ENERGY PREDICTED BY IDOCK:   -3.91 KCAL/MOL
REMARK 923 INTER-LIGAND FREE ENERGY PREDICTED BY IDOCK:   -3.44 KCAL/MOL
REMARK 924 INTRA-LIGAND FREE ENERGY PREDICTED BY IDOCK:   -0.48 KCAL/MOL
REMARK 927      BINDING AFFINITY PREDICTED BY RF-SCORE:    0.00 PKD
ROOT
HETATM    1  O   UNL     1      -5.804   7.352  66.842  1.00  0.00    -0.032 OA 
HETATM    2  C   UNL     1      -6.607   6.671  66.002  1.00  0.00    -0.044 C  
HETATM    3  O   UNL     1      -6.243   6.380  64.869  1.00  0.00    -0.029 OA 
HETATM    4  C   UNL     1      -7.962   6.283  66.488  1.00  0.00    -0.109 A  
HETATM    5  C   UNL     1      -8.793   5.542  65.633  1.00  0.00    -0.152 A  
HETATM    6  O   UNL     1      -8.431   5.145  64.373  1.00  0.00    -0.137 OA 
HETATM    7  C   UNL     1     -10.075   5.175  66.030  1.00  0.00    -0.197 A  
HETATM    8  C   UNL     1     -10.560   5.566  67.281  1.00  0.00    -0.294 A  
HETATM    9  H   UNL     1      -8.993   4.644  63.794  1.00  0.00     0.000 HD 
HETATM   10  C   UNL     1      -9.770   6.311  68.175  1.00  0.00    -0.123 A  
HETATM   11  C   UNL     1      -8.458   6.632  67.757  1.00  0.00    -0.122 A  
ENDROOT
BRANCH  10  12
HETATM   12  C   UNL     1     -10.296   6.755  69.495  1.00  0.00    -0.225 A  
HETATM   13  C   UNL     1     -10.350   5.894  70.612  1.00  0.00    -0.235 A  
HETATM   14  F   UNL     1      -9.903   4.631  70.522  1.00  0.00    -0.231 F  
HETATM   15  C   UNL     1     -10.849   6.299  71.848  1.00  0.00    -0.286 A  
HETATM   16  C   UNL     1     -11.294   7.599  72.000  1.00  0.00    -0.278 A  
HETATM   17  F   UNL     1     -11.772   8.001  73.184  1.00  0.00    -0.433 F  
HETATM   18  C   UNL     1     -11.249   8.492  70.939  1.00  0.00    -0.304 A  
HETATM   19  C   UNL     1     -10.761   8.072  69.695  1.00  0.00    -0.207 A  
ENDBRANCH  10  12
TORSDOF 1
ENDMDL
MODEL      171
REMARK 921   NORMALIZED FREE ENERGY PREDICTED BY IDOCK:   -3.32 KCAL/MOL
REMARK 922        TOTAL FREE ENERGY PREDICTED BY IDOCK:   -3.88 KCAL/MOL
REMARK 923 INTER-LIGAND FREE ENERGY PREDICTED BY IDOCK:   -3.46 KCAL/MOL
REMARK 924 INTRA-LIGAND FREE ENERGY PREDICTED BY IDOCK:   -0.42 KCAL/MOL
REMARK 927      BINDING AFFINITY PREDICTED BY RF-SCORE:    0.00 PKD
ROOT
HETATM    1  O   UNL     1      -7.158   5.603  72.865  1.00  0.00    -0.085 OA 
HETATM    2  C   UNL     1      -8.354   5.993  73.347  1.00  0.00    -0.117 C  
HETATM    3  O   UNL     1      -8.691   5.737  74.497  1.00  0.00    -0.117 OA 
HETATM    4  C   UNL     1      -9.265   6.745  72.438  1.00  0.00    -0.142 A  
HETATM    5  C   UNL     1     -10.498   7.187  72.942  1.00  0.00    -0.266 A  
HETATM    6  O   UNL     1     -10.916   6.975  74.229  1.00  0.00    -0.350 OA 
HETATM    7  C   UNL     1     -11.393   7.873  72.127  1.00  0.00    -0.367 A  
HETATM    8  C   UNL     1     -11.084   8.105  70.784  1.00  0.00    -0.275 A  
HETATM    9  H   UNL     1     -11.751   7.274  74.570  1.00  0.00     0.000 HD 
HETATM   10  C   UNL     1      -9.863   7.682  70.229  1.00  0.00    -0.180 A  
HETATM   11  C   UNL     1      -8.958   7.024  71.093  1.00  0.00    -0.146 A  
ENDROOT
BRANCH  10  12
HETATM   12  C   UNL     1      -9.544   7.900  68.791  1.00  0.00    -0.152 A  
HETATM   13  C   UNL     1     -10.301   7.312  67.754  1.00  0.00    -0.209 A  
HETATM   14  F   UNL     1     -11.362   6.539  68.039  1.00  0.00    -0.348 F  
HETATM   15  C   UNL     1     -10.004   7.503  66.407  1.00  0.00    -0.119 A  
HETATM   16  C   UNL     1      -8.938   8.314  66.063  1.00  0.00    -0.181 A  
HETATM   17  F   UNL     1      -8.645   8.508  64.771  1.00  0.00    -0.168 F  
HETATM   18  C   UNL     1      -8.170   8.929  67.040  1.00  0.00    -0.106 A  
HETATM   19  C   UNL     1      -8.466   8.718  68.393  1.00  0.00    -0.130 A  
ENDBRANCH  10  12
TORSDOF 1
ENDMDL
MODEL      172
REMARK 921   NORMALIZED FREE ENERGY PREDICTED BY IDOCK:   -3.29 KCAL/MOL
REMARK 922        TOTAL FREE ENERGY PREDICTED BY IDOCK:   -3.85 KCAL/MOL
REMARK 923 INTER-LIGAND FREE ENERGY PREDICTED BY IDOCK:   -3.37 KCAL/MOL
REMARK 924 INTRA-LIGAND FREE ENERGY PREDICTED BY IDOCK:   -0.48 KCAL/MOL
REMARK 927      BINDING AFFINITY PREDICTED BY RF-SCORE:    0.00 PKD
ROOT
HETATM    1  O   UNL     1      -7.209  11.840  67.271  1.00  0.00    -0.123 OA 
HETATM    2  C   UNL     1      -6.866  12.128  68.541  1.00  0.00    -0.086 C  
HETATM    3  O   UNL     1      -6.811  11.255  69.399  1.00  0.00    -0.106 OA 
HETATM    4  C   UNL     1      -6.559  13.547  68.880  1.00  0.00    -0.106 A  
HETATM    5  C   UNL     1      -6.165  13.851  70.192  1.00  0.00    -0.123 A  
HETATM    6  O   UNL     1      -6.039  12.918  71.187  1.00  0.00    -0.545 OA 
HETATM    7  C   UNL     1      -5.889  15.163  70.565  1.00  0.00    -0.105 A  
HETATM    8  C   UNL     1      -6.028  16.199  69.638  1.00  0.00    -0.171 A  
HETATM    9  H   UNL     1      -5.773  13.124  72.075  1.00  0.00     0.000 HD 
HETATM   10  C   UNL     1      -6.421  15.949  68.311  1.00  0.00    -0.124 A  
HETATM   11  C   UNL     1      -6.655  14.601  67.953  1.00  0.00    -0.177 A  
ENDROOT
BRANCH  10  12
HETATM   12  C   UNL     1      -6.601  17.055  67.330  1.00  0.00    -0.195 A  
HETATM   13  C   UNL     1      -7.869  17.599  67.033  1.00  0.00    -0.215 A  
HETATM   14  F   UNL     1      -8.970  17.140  67.651  1.00  0.00    -0.217 F  
HETATM   15  C   UNL     1      -8.047  18.627  66.109  1.00  0.00    -0.208 A  
HETATM   16  C   UNL     1      -6.941  19.152  65.468  1.00  0.00    -0.212 A  
HETATM   17  F   UNL     1      -7.099  20.143  64.581  1.00  0.00    -0.239 F  
HETATM   18  C   UNL     1      -5.669  18.666  65.733  1.00  0.00    -0.216 A  
HETATM   19  C   UNL     1      -5.502  17.621  66.651  1.00  0.00    -0.206 A  
ENDBRANCH  10  12
TORSDOF 1
ENDMDL
MODEL      173
REMARK 921   NORMALIZED FREE ENERGY PREDICTED BY IDOCK:   -3.28 KCAL/MOL
REMARK 922        TOTAL FREE ENERGY PREDICTED BY IDOCK:   -3.83 KCAL/MOL
REMARK 923 INTER-LIGAND FREE ENERGY PREDICTED BY IDOCK:   -3.38 KCAL/MOL
REMARK 924 INTRA-LIGAND FREE ENERGY PREDICTED BY IDOCK:   -0.46 KCAL/MOL
REMARK 927      BINDING AFFINITY PREDICTED BY RF-SCORE:    0.00 PKD
ROOT
HETATM    1  O   UNL     1      -6.308   9.053  71.774  1.00  0.00    -0.082 OA 
HETATM    2  C   UNL     1      -7.178   8.052  72.007  1.00  0.00    -0.082 C  
HETATM    3  O   UNL     1      -6.948   7.191  72.848  1.00  0.00    -0.068 OA 
HETATM    4  C   UNL     1      -8.435   8.015  71.206  1.00  0.00    -0.138 A  
HETATM    5  C   UNL     1      -9.365   6.997  71.466  1.00  0.00    -0.154 A  
HETATM    6  O   UNL     1      -9.191   6.031  72.422  1.00  0.00    -0.143 OA 
HETATM    7  C   UNL     1     -10.543   6.905  70.731  1.00  0.00    -0.245 A  
HETATM    8  C   UNL     1     -10.799   7.815  69.702  1.00  0.00    -0.185 A  
HETATM    9  H   UNL     1      -9.820   5.342  72.598  1.00  0.00     0.000 HD 
HETATM   10  C   UNL     1      -9.900   8.853  69.399  1.00  0.00    -0.183 A  
HETATM   11  C   UNL     1      -8.733   8.943  70.191  1.00  0.00    -0.168 A  
ENDROOT
BRANCH  10  12
HETATM   12  C   UNL     1     -10.156   9.804  68.282  1.00  0.00    -0.189 A  
HETATM   13  C   UNL     1      -9.381   9.806  67.103  1.00  0.00    -0.142 A  
HETATM   14  F   UNL     1      -8.383   8.922  66.940  1.00  0.00    -0.108 F  
HETATM   15  C   UNL     1      -9.608  10.700  66.058  1.00  0.00    -0.244 A  
HETATM   16  C   UNL     1     -10.643  11.610  66.165  1.00  0.00    -0.262 A  
HETATM   17  F   UNL     1     -10.872  12.471  65.165  1.00  0.00    -0.289 F  
HETATM   18  C   UNL     1     -11.445  11.642  67.295  1.00  0.00    -0.350 A  
HETATM   19  C   UNL     1     -11.200  10.751  68.348  1.00  0.00    -0.345 A  
ENDBRANCH  10  12
TORSDOF 1
ENDMDL
MODEL      174
REMARK 921   NORMALIZED FREE ENERGY PREDICTED BY IDOCK:   -3.14 KCAL/MOL
REMARK 922        TOTAL FREE ENERGY PREDICTED BY IDOCK:   -3.69 KCAL/MOL
REMARK 923 INTER-LIGAND FREE ENERGY PREDICTED BY IDOCK:   -3.35 KCAL/MOL
REMARK 924 INTRA-LIGAND FREE ENERGY PREDICTED BY IDOCK:   -0.34 KCAL/MOL
REMARK 927      BINDING AFFINITY PREDICTED BY RF-SCORE:    0.00 PKD
ROOT
HETATM    1  O   UNL     1      -5.474  14.963  69.120  1.00  0.00    -0.095 OA 
HETATM    2  C   UNL     1      -5.393  15.853  70.127  1.00  0.00    -0.149 C  
HETATM    3  O   UNL     1      -5.287  15.488  71.292  1.00  0.00    -0.108 OA 
HETATM    4  C   UNL     1      -5.442  17.303  69.786  1.00  0.00    -0.208 A  
HETATM    5  C   UNL     1      -5.323  18.239  70.826  1.00  0.00    -0.254 A  
HETATM    6  O   UNL     1      -5.156  17.900  72.142  1.00  0.00    -0.489 OA 
HETATM    7  C   UNL     1      -5.385  19.604  70.563  1.00  0.00    -0.256 A  
HETATM    8  C   UNL     1      -5.596  20.058  69.258  1.00  0.00    -0.274 A  
HETATM    9  H   UNL     1      -5.075  18.533  72.845  1.00  0.00     0.000 HD 
HETATM   10  C   UNL     1      -5.725  19.163  68.182  1.00  0.00    -0.211 A  
HETATM   11  C   UNL     1      -5.616  17.784  68.476  1.00  0.00    -0.163 A  
ENDROOT
BRANCH  10  12
HETATM   12  C   UNL     1      -5.982  19.643  66.796  1.00  0.00    -0.172 A  
HETATM   13  C   UNL     1      -7.047  20.516  66.487  1.00  0.00    -0.240 A  
HETATM   14  F   UNL     1      -7.865  20.964  67.454  1.00  0.00    -0.372 F  
HETATM   15  C   UNL     1      -7.300  20.963  65.192  1.00  0.00     0.427 A  
HETATM   16  C   UNL     1      -6.468  20.554  64.166  1.00  0.00    -0.185 A  
HETATM   17  F   UNL     1      -6.700  20.979  62.918  1.00  0.00    -0.196 F  
HETATM   18  C   UNL     1      -5.398  19.708  64.415  1.00  0.00    -0.231 A  
HETATM   19  C   UNL     1      -5.161  19.251  65.718  1.00  0.00    -0.170 A  
ENDBRANCH  10  12
TORSDOF 1
ENDMDL
MODEL      175
REMARK 921   NORMALIZED FREE ENERGY PREDICTED BY IDOCK:   -3.04 KCAL/MOL
REMARK 922        TOTAL FREE ENERGY PREDICTED BY IDOCK:   -3.59 KCAL/MOL
REMARK 923 INTER-LIGAND FREE ENERGY PREDICTED BY IDOCK:   -3.31 KCAL/MOL
REMARK 924 INTRA-LIGAND FREE ENERGY PREDICTED BY IDOCK:   -0.28 KCAL/MOL
REMARK 927      BINDING AFFINITY PREDICTED BY RF-SCORE:    0.00 PKD
ROOT
HETATM    1  O   UNL     1      -6.793   7.123  70.637  1.00  0.00    -0.052 OA 
HETATM    2  C   UNL     1      -7.700   6.279  70.107  1.00  0.00    -0.098 C  
HETATM    3  O   UNL     1      -7.696   5.085  70.382  1.00  0.00    -0.067 OA 
HETATM    4  C   UNL     1      -8.712   6.839  69.166  1.00  0.00    -0.131 A  
HETATM    5  C   UNL     1      -9.683   5.975  68.636  1.00  0.00    -0.127 A  
HETATM    6  O   UNL     1      -9.763   4.641  68.938  1.00  0.00    -0.160 OA 
HETATM    7  C   UNL     1     -10.635   6.443  67.737  1.00  0.00    -0.331 A  
HETATM    8  C   UNL     1     -10.617   7.779  67.328  1.00  0.00    -0.376 A  
HETATM    9  H   UNL     1     -10.420   4.056  68.579  1.00  0.00     0.000 HD 
HETATM   10  C   UNL     1      -9.665   8.686  67.826  1.00  0.00    -0.202 A  
HETATM   11  C   UNL     1      -8.737   8.189  68.770  1.00  0.00    -0.138 A  
ENDROOT
BRANCH  10  12
HETATM   12  C   UNL     1      -9.624  10.102  67.369  1.00  0.00    -0.180 A  
HETATM   13  C   UNL     1      -8.415  10.749  67.032  1.00  0.00    -0.128 A  
HETATM   14  F   UNL     1      -7.247  10.089  67.096  1.00  0.00    -0.086 F  
HETATM   15  C   UNL     1      -8.367  12.077  66.612  1.00  0.00    -0.085 A  
HETATM   16  C   UNL     1      -9.546  12.790  66.502  1.00  0.00    -0.257 A  
HETATM   17  F   UNL     1      -9.512  14.066  66.097  1.00  0.00    -0.282 F  
HETATM   18  C   UNL     1     -10.763  12.199  66.806  1.00  0.00    -0.269 A  
HETATM   19  C   UNL     1     -10.801  10.869  67.243  1.00  0.00    -0.342 A  
ENDBRANCH  10  12
TORSDOF 1
ENDMDL
MODEL      176
REMARK 921   NORMALIZED FREE ENERGY PREDICTED BY IDOCK:   -3.02 KCAL/MOL
REMARK 922        TOTAL FREE ENERGY PREDICTED BY IDOCK:   -3.57 KCAL/MOL
REMARK 923 INTER-LIGAND FREE ENERGY PREDICTED BY IDOCK:   -3.57 KCAL/MOL
REMARK 924 INTRA-LIGAND FREE ENERGY PREDICTED BY IDOCK:    0.00 KCAL/MOL
REMARK 927      BINDING AFFINITY PREDICTED BY RF-SCORE:    0.00 PKD
ROOT
HETATM    1  O   UNL     1     -12.716  12.788  66.139  1.00  0.00    -0.296 OA 
HETATM    2  C   UNL     1     -11.633  13.588  66.131  1.00  0.00    -0.343 C  
HETATM    3  O   UNL     1     -11.647  14.673  65.563  1.00  0.00    -0.345 OA 
HETATM    4  C   UNL     1     -10.406  13.113  66.833  1.00  0.00    -0.247 A  
HETATM    5  C   UNL     1      -9.283  13.955  66.861  1.00  0.00    -0.259 A  
HETATM    6  O   UNL     1      -9.247  15.198  66.286  1.00  0.00    -0.282 OA 
HETATM    7  C   UNL     1      -8.107  13.549  67.483  1.00  0.00    -0.190 A  
HETATM    8  C   UNL     1      -8.022  12.281  68.065  1.00  0.00    -0.150 A  
HETATM    9  H   UNL     1      -8.487  15.767  66.305  1.00  0.00     0.000 HD 
HETATM   10  C   UNL     1      -9.117  11.398  68.062  1.00  0.00    -0.171 A  
HETATM   11  C   UNL     1     -10.310  11.856  67.459  1.00  0.00    -0.219 A  
ENDROOT
BRANCH  10  12
HETATM   12  C   UNL     1      -9.019  10.035  68.653  1.00  0.00    -0.136 A  
HETATM   13  C   UNL     1      -7.894   9.616  69.396  1.00  0.00    -0.104 A  
HETATM   14  F   UNL     1      -6.868  10.454  69.612  1.00  0.00    -0.056 F  
HETATM   15  C   UNL     1      -7.791   8.339  69.944  1.00  0.00    -0.102 A  
HETATM   16  C   UNL     1      -8.835   7.448  69.775  1.00  0.00    -0.141 A  
HETATM   17  F   UNL     1      -8.748   6.220  70.300  1.00  0.00    -0.133 F  
HETATM   18  C   UNL     1      -9.971   7.813  69.067  1.00  0.00    -0.182 A  
HETATM   19  C   UNL     1     -10.059   9.093  68.505  1.00  0.00    -0.212 A  
ENDBRANCH  10  12
TORSDOF 1
ENDMDL
MODEL      177
REMARK 921   NORMALIZED FREE ENERGY PREDICTED BY IDOCK:   -2.94 KCAL/MOL
REMARK 922        TOTAL FREE ENERGY PREDICTED BY IDOCK:   -3.48 KCAL/MOL
REMARK 923 INTER-LIGAND FREE ENERGY PREDICTED BY IDOCK:   -3.43 KCAL/MOL
REMARK 924 INTRA-LIGAND FREE ENERGY PREDICTED BY IDOCK:   -0.04 KCAL/MOL
REMARK 927      BINDING AFFINITY PREDICTED BY RF-SCORE:    0.00 PKD
ROOT
HETATM    1  O   UNL     1     -12.102   7.202  70.437  1.00  0.00    -0.213 OA 
HETATM    2  C   UNL     1     -11.483   6.415  71.338  1.00  0.00    -0.308 C  
HETATM    3  O   UNL     1     -11.647   6.573  72.542  1.00  0.00    -0.265 OA 
HETATM    4  C   UNL     1     -10.582   5.342  70.828  1.00  0.00    -0.256 A  
HETATM    5  C   UNL     1      -9.961   4.492  71.758  1.00  0.00    -0.194 A  
HETATM    6  O   UNL     1     -10.138   4.586  73.113  1.00  0.00    -0.145 OA 
HETATM    7  C   UNL     1      -9.094   3.490  71.335  1.00  0.00    -0.179 A  
HETATM    8  C   UNL     1      -8.810   3.335  69.975  1.00  0.00    -0.149 A  
HETATM    9  H   UNL     1      -9.717   4.011  73.742  1.00  0.00     0.000 HD 
HETATM   10  C   UNL     1      -9.404   4.160  69.004  1.00  0.00    -0.232 A  
HETATM   11  C   UNL     1     -10.312   5.142  69.462  1.00  0.00    -0.292 A  
ENDROOT
BRANCH  10  12
HETATM   12  C   UNL     1      -9.079   4.018  67.558  1.00  0.00    -0.168 A  
HETATM   13  C   UNL     1      -9.913   4.539  66.544  1.00  0.00    -0.240 A  
HETATM   14  F   UNL     1     -11.034   5.207  66.860  1.00  0.00    -0.266 F  
HETATM   15  C   UNL     1      -9.621   4.402  65.189  1.00  0.00    -0.183 A  
HETATM   16  C   UNL     1      -8.462   3.749  64.813  1.00  0.00    -0.104 A  
HETATM   17  F   UNL     1      -8.170   3.614  63.514  1.00  0.00    -0.084 F  
HETATM   18  C   UNL     1      -7.599   3.231  65.768  1.00  0.00    -0.077 A  
HETATM   19  C   UNL     1      -7.909   3.358  67.128  1.00  0.00    -0.079 A  
ENDBRANCH  10  12
TORSDOF 1
ENDMDL
MODEL      178
REMARK 921   NORMALIZED FREE ENERGY PREDICTED BY IDOCK:   -2.78 KCAL/MOL
REMARK 922        TOTAL FREE ENERGY PREDICTED BY IDOCK:   -3.31 KCAL/MOL
REMARK 923 INTER-LIGAND FREE ENERGY PREDICTED BY IDOCK:   -2.83 KCAL/MOL
REMARK 924 INTRA-LIGAND FREE ENERGY PREDICTED BY IDOCK:   -0.48 KCAL/MOL
REMARK 927      BINDING AFFINITY PREDICTED BY RF-SCORE:    0.00 PKD
ROOT
HETATM    1  O   UNL     1     -12.715   7.345  71.052  1.00  0.00    -0.295 OA 
HETATM    2  C   UNL     1     -11.730   7.582  71.940  1.00  0.00    -0.284 C  
HETATM    3  O   UNL     1     -11.944   8.191  72.981  1.00  0.00    -0.269 OA 
HETATM    4  C   UNL     1     -10.362   7.085  71.617  1.00  0.00    -0.216 A  
HETATM    5  C   UNL     1      -9.336   7.294  72.552  1.00  0.00    -0.143 A  
HETATM    6  O   UNL     1      -9.517   7.926  73.754  1.00  0.00    -0.309 OA 
HETATM    7  C   UNL     1      -8.038   6.870  72.288  1.00  0.00    -0.093 A  
HETATM    8  C   UNL     1      -7.735   6.252  71.072  1.00  0.00    -0.105 A  
HETATM    9  H   UNL     1      -8.823   8.068  74.387  1.00  0.00     0.000 HD 
HETATM   10  C   UNL     1      -8.724   6.020  70.101  1.00  0.00    -0.139 A  
HETATM   11  C   UNL     1     -10.042   6.426  70.416  1.00  0.00    -0.221 A  
ENDROOT
BRANCH  10  12
HETATM   12  C   UNL     1      -8.398   5.391  68.791  1.00  0.00    -0.097 A  
HETATM   13  C   UNL     1      -8.120   6.156  67.637  1.00  0.00    -0.113 A  
HETATM   14  F   UNL     1      -8.122   7.497  67.691  1.00  0.00    -0.111 F  
HETATM   15  C   UNL     1      -7.823   5.574  66.406  1.00  0.00    -0.100 A  
HETATM   16  C   UNL     1      -7.780   4.196  66.307  1.00  0.00    -0.090 A  
HETATM   17  F   UNL     1      -7.493   3.627  65.130  1.00  0.00    -0.068 F  
HETATM   18  C   UNL     1      -8.030   3.397  67.413  1.00  0.00    -0.081 A  
HETATM   19  C   UNL     1      -8.344   3.989  68.642  1.00  0.00    -0.093 A  
ENDBRANCH  10  12
TORSDOF 1
ENDMDL
MODEL      179
REMARK 921   NORMALIZED FREE ENERGY PREDICTED BY IDOCK:   -2.78 KCAL/MOL
REMARK 922        TOTAL FREE ENERGY PREDICTED BY IDOCK:   -3.30 KCAL/MOL
REMARK 923 INTER-LIGAND FREE ENERGY PREDICTED BY IDOCK:   -2.96 KCAL/MOL
REMARK 924 INTRA-LIGAND FREE ENERGY PREDICTED BY IDOCK:   -0.35 KCAL/MOL
REMARK 927      BINDING AFFINITY PREDICTED BY RF-SCORE:    0.00 PKD
ROOT
HETATM    1  O   UNL     1      -7.290   7.076  70.400  1.00  0.00    -0.079 OA 
HETATM    2  C   UNL     1      -8.387   6.836  69.656  1.00  0.00    -0.132 C  
HETATM    3  O   UNL     1      -8.912   5.729  69.633  1.00  0.00    -0.126 OA 
HETATM    4  C   UNL     1      -8.946   7.960  68.851  1.00  0.00    -0.141 A  
HETATM    5  C   UNL     1     -10.110   7.730  68.101  1.00  0.00    -0.185 A  
HETATM    6  O   UNL     1     -10.772   6.532  68.067  1.00  0.00    -0.224 OA 
HETATM    7  C   UNL     1     -10.659   8.739  67.315  1.00  0.00    -0.303 A  
HETATM    8  C   UNL     1     -10.038   9.989  67.244  1.00  0.00    -0.259 A  
HETATM    9  H   UNL     1     -11.559   6.376  67.559  1.00  0.00     0.000 HD 
HETATM   10  C   UNL     1      -8.869  10.270  67.974  1.00  0.00    -0.122 A  
HETATM   11  C   UNL     1      -8.360   9.237  68.794  1.00  0.00    -0.117 A  
ENDROOT
BRANCH  10  12
HETATM   12  C   UNL     1      -8.188  11.590  67.875  1.00  0.00    -0.134 A  
HETATM   13  C   UNL     1      -8.879  12.809  68.050  1.00  0.00    -0.195 A  
HETATM   14  F   UNL     1     -10.192  12.814  68.335  1.00  0.00    -0.219 F  
HETATM   15  C   UNL     1      -8.251  14.049  67.950  1.00  0.00    -0.158 A  
HETATM   16  C   UNL     1      -6.895  14.096  67.688  1.00  0.00    -0.179 A  
HETATM   17  F   UNL     1      -6.280  15.281  67.593  1.00  0.00    -0.137 F  
HETATM   18  C   UNL     1      -6.164  12.928  67.522  1.00  0.00    -0.154 A  
HETATM   19  C   UNL     1      -6.806  11.687  67.608  1.00  0.00    -0.094 A  
ENDBRANCH  10  12
TORSDOF 1
ENDMDL
MODEL      180
REMARK 921   NORMALIZED FREE ENERGY PREDICTED BY IDOCK:   -2.76 KCAL/MOL
REMARK 922        TOTAL FREE ENERGY PREDICTED BY IDOCK:   -3.28 KCAL/MOL
REMARK 923 INTER-LIGAND FREE ENERGY PREDICTED BY IDOCK:   -2.81 KCAL/MOL
REMARK 924 INTRA-LIGAND FREE ENERGY PREDICTED BY IDOCK:   -0.48 KCAL/MOL
REMARK 927      BINDING AFFINITY PREDICTED BY RF-SCORE:    0.00 PKD
ROOT
HETATM    1  O   UNL     1      -7.476   5.356  64.905  1.00  0.00    -0.066 OA 
HETATM    2  C   UNL     1      -7.400   6.699  64.832  1.00  0.00    -0.080 C  
HETATM    3  O   UNL     1      -6.835   7.254  63.897  1.00  0.00    -0.049 OA 
HETATM    4  C   UNL     1      -8.020   7.496  65.928  1.00  0.00    -0.117 A  
HETATM    5  C   UNL     1      -7.977   8.897  65.843  1.00  0.00    -0.107 A  
HETATM    6  O   UNL     1      -7.403   9.581  64.804  1.00  0.00    -0.104 OA 
HETATM    7  C   UNL     1      -8.521   9.687  66.851  1.00  0.00    -0.121 A  
HETATM    8  C   UNL     1      -9.094   9.090  67.977  1.00  0.00    -0.140 A  
HETATM    9  H   UNL     1      -7.374  10.528  64.746  1.00  0.00     0.000 HD 
HETATM   10  C   UNL     1      -9.160   7.692  68.113  1.00  0.00    -0.132 A  
HETATM   11  C   UNL     1      -8.635   6.918  67.053  1.00  0.00    -0.121 A  
ENDROOT
BRANCH  10  12
HETATM   12  C   UNL     1      -9.740   7.054  69.327  1.00  0.00    -0.158 A  
HETATM   13  C   UNL     1      -8.934   6.527  70.359  1.00  0.00    -0.152 A  
HETATM   14  F   UNL     1      -7.595   6.603  70.286  1.00  0.00    -0.086 F  
HETATM   15  C   UNL     1      -9.469   5.920  71.493  1.00  0.00    -0.171 A  
HETATM   16  C   UNL     1     -10.843   5.843  71.629  1.00  0.00    -0.263 A  
HETATM   17  F   UNL     1     -11.369   5.265  72.716  1.00  0.00    -0.294 F  
HETATM   18  C   UNL     1     -11.682   6.358  70.653  1.00  0.00    -0.377 A  
HETATM   19  C   UNL     1     -11.136   6.952  69.508  1.00  0.00    -0.270 A  
ENDBRANCH  10  12
TORSDOF 1
ENDMDL
MODEL      181
REMARK 921   NORMALIZED FREE ENERGY PREDICTED BY IDOCK:   -2.64 KCAL/MOL
REMARK 922        TOTAL FREE ENERGY PREDICTED BY IDOCK:   -3.16 KCAL/MOL
REMARK 923 INTER-LIGAND FREE ENERGY PREDICTED BY IDOCK:   -2.72 KCAL/MOL
REMARK 924 INTRA-LIGAND FREE ENERGY PREDICTED BY IDOCK:   -0.44 KCAL/MOL
REMARK 927      BINDING AFFINITY PREDICTED BY RF-SCORE:    0.00 PKD
ROOT
HETATM    1  O   UNL     1     -11.918   7.265  71.941  1.00  0.00    -0.287 OA 
HETATM    2  C   UNL     1     -10.790   6.937  72.599  1.00  0.00    -0.257 C  
HETATM    3  O   UNL     1     -10.693   7.087  73.812  1.00  0.00    -0.360 OA 
HETATM    4  C   UNL     1      -9.652   6.388  71.809  1.00  0.00    -0.162 A  
HETATM    5  C   UNL     1      -8.484   6.010  72.490  1.00  0.00    -0.119 A  
HETATM    6  O   UNL     1      -8.327   6.108  73.847  1.00  0.00    -0.116 OA 
HETATM    7  C   UNL     1      -7.386   5.513  71.795  1.00  0.00    -0.091 A  
HETATM    8  C   UNL     1      -7.424   5.412  70.402  1.00  0.00    -0.075 A  
HETATM    9  H   UNL     1      -7.538   5.852  74.309  1.00  0.00     0.000 HD 
HETATM   10  C   UNL     1      -8.567   5.780  69.671  1.00  0.00    -0.116 A  
HETATM   11  C   UNL     1      -9.681   6.242  70.410  1.00  0.00    -0.189 A  
ENDROOT
BRANCH  10  12
HETATM   12  C   UNL     1      -8.600   5.703  68.185  1.00  0.00    -0.104 A  
HETATM   13  C   UNL     1      -8.508   4.475  67.492  1.00  0.00    -0.103 A  
HETATM   14  F   UNL     1      -8.406   3.318  68.166  1.00  0.00    -0.076 F  
HETATM   15  C   UNL     1      -8.528   4.396  66.102  1.00  0.00    -0.113 A  
HETATM   16  C   UNL     1      -8.661   5.557  65.363  1.00  0.00    -0.151 A  
HETATM   17  F   UNL     1      -8.685   5.492  64.027  1.00  0.00    -0.128 F  
HETATM   18  C   UNL     1      -8.771   6.788  65.993  1.00  0.00    -0.155 A  
HETATM   19  C   UNL     1      -8.733   6.861  67.391  1.00  0.00    -0.119 A  
ENDBRANCH  10  12
TORSDOF 1
ENDMDL
MODEL      182
REMARK 921   NORMALIZED FREE ENERGY PREDICTED BY IDOCK:   -2.51 KCAL/MOL
REMARK 922        TOTAL FREE ENERGY PREDICTED BY IDOCK:   -3.02 KCAL/MOL
REMARK 923 INTER-LIGAND FREE ENERGY PREDICTED BY IDOCK:   -2.56 KCAL/MOL
REMARK 924 INTRA-LIGAND FREE ENERGY PREDICTED BY IDOCK:   -0.46 KCAL/MOL
REMARK 927      BINDING AFFINITY PREDICTED BY RF-SCORE:    0.00 PKD
ROOT
HETATM    1  O   UNL     1     -11.691   6.232  70.782  1.00  0.00    -0.340 OA 
HETATM    2  C   UNL     1     -11.005   6.673  71.853  1.00  0.00    -0.244 C  
HETATM    3  O   UNL     1     -11.444   6.540  72.989  1.00  0.00    -0.137 OA 
HETATM    4  C   UNL     1      -9.690   7.336  71.619  1.00  0.00    -0.166 A  
HETATM    5  C   UNL     1      -8.950   7.766  72.732  1.00  0.00    -0.181 A  
HETATM    6  O   UNL     1      -9.362   7.608  74.029  1.00  0.00    -0.360 OA 
HETATM    7  C   UNL     1      -7.729   8.411  72.566  1.00  0.00    -0.145 A  
HETATM    8  C   UNL     1      -7.236   8.661  71.282  1.00  0.00    -0.093 A  
HETATM    9  H   UNL     1      -8.861   7.899  74.782  1.00  0.00     0.000 HD 
HETATM   10  C   UNL     1      -7.939   8.254  70.135  1.00  0.00    -0.106 A  
HETATM   11  C   UNL     1      -9.157   7.565  70.338  1.00  0.00    -0.153 A  
ENDROOT
BRANCH  10  12
HETATM   12  C   UNL     1      -7.432   8.547  68.766  1.00  0.00    -0.092 A  
HETATM   13  C   UNL     1      -8.071   9.470  67.909  1.00  0.00    -0.106 A  
HETATM   14  F   UNL     1      -9.163  10.136  68.316  1.00  0.00    -0.126 F  
HETATM   15  C   UNL     1      -7.609   9.743  66.623  1.00  0.00    -0.098 A  
HETATM   16  C   UNL     1      -6.470   9.104  66.168  1.00  0.00    -0.065 A  
HETATM   17  F   UNL     1      -6.015   9.362  64.936  1.00  0.00    -0.060 F  
HETATM   18  C   UNL     1      -5.794   8.200  66.974  1.00  0.00    -0.045 A  
HETATM   19  C   UNL     1      -6.275   7.919  68.259  1.00  0.00    -0.045 A  
ENDBRANCH  10  12
TORSDOF 1
ENDMDL
MODEL      183
REMARK 921   NORMALIZED FREE ENERGY PREDICTED BY IDOCK:   -2.41 KCAL/MOL
REMARK 922        TOTAL FREE ENERGY PREDICTED BY IDOCK:   -2.92 KCAL/MOL
REMARK 923 INTER-LIGAND FREE ENERGY PREDICTED BY IDOCK:   -2.52 KCAL/MOL
REMARK 924 INTRA-LIGAND FREE ENERGY PREDICTED BY IDOCK:   -0.41 KCAL/MOL
REMARK 927      BINDING AFFINITY PREDICTED BY RF-SCORE:    0.00 PKD
ROOT
HETATM    1  O   UNL     1     -12.570   7.097  70.536  1.00  0.00    -0.148 OA 
HETATM    2  C   UNL     1     -11.531   7.110  71.394  1.00  0.00    -0.272 C  
HETATM    3  O   UNL     1     -11.700   6.975  72.600  1.00  0.00    -0.213 OA 
HETATM    4  C   UNL     1     -10.163   7.299  70.834  1.00  0.00    -0.203 A  
HETATM    5  C   UNL     1      -9.070   7.277  71.716  1.00  0.00    -0.130 A  
HETATM    6  O   UNL     1      -9.185   7.086  73.067  1.00  0.00    -0.132 OA 
HETATM    7  C   UNL     1      -7.775   7.472  71.246  1.00  0.00    -0.085 A  
HETATM    8  C   UNL     1      -7.550   7.719  69.890  1.00  0.00    -0.090 A  
HETATM    9  H   UNL     1      -8.446   7.071  73.664  1.00  0.00     0.000 HD 
HETATM   10  C   UNL     1      -8.609   7.754  68.965  1.00  0.00    -0.135 A  
HETATM   11  C   UNL     1      -9.908   7.511  69.467  1.00  0.00    -0.169 A  
ENDROOT
BRANCH  10  12
HETATM   12  C   UNL     1      -8.375   8.048  67.524  1.00  0.00    -0.123 A  
HETATM   13  C   UNL     1      -7.536   7.248  66.719  1.00  0.00    -0.100 A  
HETATM   14  F   UNL     1      -6.927   6.166  67.232  1.00  0.00    -0.060 F  
HETATM   15  C   UNL     1      -7.305   7.522  65.373  1.00  0.00    -0.071 A  
HETATM   16  C   UNL     1      -7.933   8.607  64.790  1.00  0.00    -0.141 A  
HETATM   17  F   UNL     1      -7.721   8.878  63.497  1.00  0.00    -0.109 F  
HETATM   18  C   UNL     1      -8.779   9.418  65.531  1.00  0.00    -0.190 A  
HETATM   19  C   UNL     1      -8.993   9.145  66.888  1.00  0.00    -0.143 A  
ENDBRANCH  10  12
TORSDOF 1
ENDMDL
MODEL      184
REMARK 921   NORMALIZED FREE ENERGY PREDICTED BY IDOCK:   -2.16 KCAL/MOL
REMARK 922        TOTAL FREE ENERGY PREDICTED BY IDOCK:   -2.65 KCAL/MOL
REMARK 923 INTER-LIGAND FREE ENERGY PREDICTED BY IDOCK:   -2.17 KCAL/MOL
REMARK 924 INTRA-LIGAND FREE ENERGY PREDICTED BY IDOCK:   -0.48 KCAL/MOL
REMARK 927      BINDING AFFINITY PREDICTED BY RF-SCORE:    0.00 PKD
ROOT
HETATM    1  O   UNL     1     -10.742   5.997  72.353  1.00  0.00    -0.208 OA 
HETATM    2  C   UNL     1      -9.996   4.964  72.788  1.00  0.00    -0.161 C  
HETATM    3  O   UNL     1      -9.911   4.697  73.981  1.00  0.00    -0.144 OA 
HETATM    4  C   UNL     1      -9.266   4.150  71.774  1.00  0.00    -0.181 A  
HETATM    5  C   UNL     1      -8.514   3.049  72.214  1.00  0.00    -0.074 A  
HETATM    6  O   UNL     1      -8.415   2.669  73.527  1.00  0.00    -0.070 OA 
HETATM    7  C   UNL     1      -7.797   2.272  71.310  1.00  0.00    -0.040 A  
HETATM    8  C   UNL     1      -7.795   2.599  69.952  1.00  0.00    -0.049 A  
HETATM    9  H   UNL     1      -7.907   1.924  73.825  1.00  0.00     0.000 HD 
HETATM   10  C   UNL     1      -8.528   3.692  69.459  1.00  0.00    -0.097 A  
HETATM   11  C   UNL     1      -9.280   4.437  70.397  1.00  0.00    -0.184 A  
ENDROOT
BRANCH  10  12
HETATM   12  C   UNL     1      -8.502   4.061  68.017  1.00  0.00    -0.104 A  
HETATM   13  C   UNL     1      -7.486   4.871  67.465  1.00  0.00    -0.079 A  
HETATM   14  F   UNL     1      -6.483   5.326  68.234  1.00  0.00    -0.034 F  
HETATM   15  C   UNL     1      -7.460   5.229  66.119  1.00  0.00    -0.083 A  
HETATM   16  C   UNL     1      -8.454   4.761  65.280  1.00  0.00    -0.132 A  
HETATM   17  F   UNL     1      -8.437   5.096  63.984  1.00  0.00    -0.122 F  
HETATM   18  C   UNL     1      -9.469   3.950  65.766  1.00  0.00    -0.178 A  
HETATM   19  C   UNL     1      -9.497   3.609  67.124  1.00  0.00    -0.229 A  
ENDBRANCH  10  12
TORSDOF 1
ENDMDL
MODEL      185
REMARK 921   NORMALIZED FREE ENERGY PREDICTED BY IDOCK:   -1.99 KCAL/MOL
REMARK 922        TOTAL FREE ENERGY PREDICTED BY IDOCK:   -2.47 KCAL/MOL
REMARK 923 INTER-LIGAND FREE ENERGY PREDICTED BY IDOCK:   -2.01 KCAL/MOL
REMARK 924 INTRA-LIGAND FREE ENERGY PREDICTED BY IDOCK:   -0.46 KCAL/MOL
REMARK 927      BINDING AFFINITY PREDICTED BY RF-SCORE:    0.00 PKD
ROOT
HETATM    1  O   UNL     1     -11.720  11.449  71.903  1.00  0.00     1.284 OA 
HETATM    2  C   UNL     1     -12.606  10.497  71.553  1.00  0.00    -0.424 C  
HETATM    3  O   UNL     1     -13.778  10.771  71.323  1.00  0.00     0.108 OA 
HETATM    4  C   UNL     1     -12.122   9.090  71.456  1.00  0.00    -0.410 A  
HETATM    5  C   UNL     1     -13.029   8.096  71.057  1.00  0.00     0.058 A  
HETATM    6  O   UNL     1     -14.339   8.342  70.742  1.00  0.00    -0.527 OA 
HETATM    7  C   UNL     1     -12.632   6.765  70.973  1.00  0.00    -0.259 A  
HETATM    8  C   UNL     1     -11.328   6.399  71.314  1.00  0.00    -0.361 A  
HETATM    9  H   UNL     1     -14.953   7.669  70.472  1.00  0.00     0.000 HD 
HETATM   10  C   UNL     1     -10.381   7.354  71.723  1.00  0.00    -0.215 A  
HETATM   11  C   UNL     1     -10.803   8.703  71.758  1.00  0.00    -0.395 A  
ENDROOT
BRANCH  10  12
HETATM   12  C   UNL     1      -8.999   6.963  72.117  1.00  0.00    -0.138 A  
HETATM   13  C   UNL     1      -8.550   7.032  73.453  1.00  0.00    -0.131 A  
HETATM   14  F   UNL     1      -9.375   7.442  74.430  1.00  0.00    -0.266 F  
HETATM   15  C   UNL     1      -7.256   6.677  73.829  1.00  0.00    -0.083 A  
HETATM   16  C   UNL     1      -6.378   6.221  72.864  1.00  0.00    -0.063 A  
HETATM   17  F   UNL     1      -5.133   5.873  73.214  1.00  0.00    -0.020 F  
HETATM   18  C   UNL     1      -6.771   6.118  71.538  1.00  0.00    -0.056 A  
HETATM   19  C   UNL     1      -8.069   6.493  71.166  1.00  0.00    -0.116 A  
ENDBRANCH  10  12
TORSDOF 1
ENDMDL
MODEL      186
REMARK 921   NORMALIZED FREE ENERGY PREDICTED BY IDOCK:   -0.24 KCAL/MOL
REMARK 922        TOTAL FREE ENERGY PREDICTED BY IDOCK:   -0.62 KCAL/MOL
REMARK 923 INTER-LIGAND FREE ENERGY PREDICTED BY IDOCK:   -0.48 KCAL/MOL
REMARK 924 INTRA-LIGAND FREE ENERGY PREDICTED BY IDOCK:   -0.14 KCAL/MOL
REMARK 927      BINDING AFFINITY PREDICTED BY RF-SCORE:    0.00 PKD
ROOT
HETATM    1  O   UNL     1     -11.684  10.118  72.003  1.00  0.00     0.092 OA 
HETATM    2  C   UNL     1     -12.551   9.125  71.724  1.00  0.00    -0.370 C  
HETATM    3  O   UNL     1     -13.708   9.362  71.399  1.00  0.00    -0.359 OA 
HETATM    4  C   UNL     1     -12.063   7.720  71.827  1.00  0.00    -0.332 A  
HETATM    5  C   UNL     1     -12.948   6.679  71.504  1.00  0.00    -0.095 A  
HETATM    6  O   UNL     1     -14.239   6.877  71.090  1.00  0.00    -0.256 OA 
HETATM    7  C   UNL     1     -12.549   5.350  71.605  1.00  0.00     1.950 A  
HETATM    8  C   UNL     1     -11.265   5.036  72.059  1.00  0.00     0.070 A  
HETATM    9  H   UNL     1     -14.838   6.173  70.871  1.00  0.00     0.000 HD 
HETATM   10  C   UNL     1     -10.341   6.040  72.399  1.00  0.00    -0.224 A  
HETATM   11  C   UNL     1     -10.763   7.381  72.245  1.00  0.00    -0.275 A  
ENDROOT
BRANCH  10  12
HETATM   12  C   UNL     1      -8.984   5.708  72.913  1.00  0.00    -0.123 A  
HETATM   13  C   UNL     1      -8.311   4.521  72.549  1.00  0.00    -0.110 A  
HETATM   14  F   UNL     1      -8.877   3.650  71.698  1.00  0.00    -0.103 F  
HETATM   15  C   UNL     1      -7.045   4.198  73.033  1.00  0.00    -0.067 A  
HETATM   16  C   UNL     1      -6.408   5.078  73.888  1.00  0.00    -0.065 A  
HETATM   17  F   UNL     1      -5.190   4.779  74.357  1.00  0.00    -0.008 F  
HETATM   18  C   UNL     1      -7.017   6.265  74.267  1.00  0.00    -0.086 A  
HETATM   19  C   UNL     1      -8.297   6.574  73.789  1.00  0.00    -0.125 A  
ENDBRANCH  10  12
TORSDOF 1
ENDMDL
MODEL      187
REMARK 921   NORMALIZED FREE ENERGY PREDICTED BY IDOCK:    1.03 KCAL/MOL
REMARK 922        TOTAL FREE ENERGY PREDICTED BY IDOCK:    0.72 KCAL/MOL
REMARK 923 INTER-LIGAND FREE ENERGY PREDICTED BY IDOCK:    1.20 KCAL/MOL
REMARK 924 INTRA-LIGAND FREE ENERGY PREDICTED BY IDOCK:   -0.48 KCAL/MOL
REMARK 927      BINDING AFFINITY PREDICTED BY RF-SCORE:    0.00 PKD
ROOT
HETATM    1  O   UNL     1     -13.037  10.296  70.764  1.00  0.00    -0.381 OA 
HETATM    2  C   UNL     1     -13.291   8.975  70.708  1.00  0.00     0.314 C  
HETATM    3  O   UNL     1     -14.374   8.550  70.324  1.00  0.00     1.121 OA 
HETATM    4  C   UNL     1     -12.213   8.036  71.133  1.00  0.00    -0.262 A  
HETATM    5  C   UNL     1     -12.455   6.656  71.044  1.00  0.00    -0.166 A  
HETATM    6  O   UNL     1     -13.625   6.115  70.581  1.00  0.00     1.853 OA 
HETATM    7  C   UNL     1     -11.490   5.739  71.449  1.00  0.00    -0.095 A  
HETATM    8  C   UNL     1     -10.276   6.185  71.978  1.00  0.00    -0.223 A  
HETATM    9  H   UNL     1     -13.788   5.181  70.521  1.00  0.00     0.000 HD 
HETATM   10  C   UNL     1      -9.985   7.556  72.091  1.00  0.00    -0.218 A  
HETATM   11  C   UNL     1     -10.969   8.462  71.632  1.00  0.00    -0.345 A  
ENDROOT
BRANCH  10  12
HETATM   12  C   UNL     1      -8.705   8.034  72.683  1.00  0.00    -0.250 A  
HETATM   13  C   UNL     1      -7.497   8.046  71.953  1.00  0.00    -0.084 A  
HETATM   14  F   UNL     1      -7.468   7.637  70.674  1.00  0.00    -0.067 F  
HETATM   15  C   UNL     1      -6.293   8.483  72.502  1.00  0.00    -0.090 A  
HETATM   16  C   UNL     1      -6.277   8.942  73.806  1.00  0.00     0.005 A  
HETATM   17  F   UNL     1      -5.126   9.367  74.343  1.00  0.00    -0.104 F  
HETATM   18  C   UNL     1      -7.438   8.967  74.564  1.00  0.00     0.060 A  
HETATM   19  C   UNL     1      -8.641   8.510  74.009  1.00  0.00     0.132 A  
ENDBRANCH  10  12
TORSDOF 1
ENDMDL
MODEL      188
REMARK 921   NORMALIZED FREE ENERGY PREDICTED BY IDOCK:    3.34 KCAL/MOL
REMARK 922        TOTAL FREE ENERGY PREDICTED BY IDOCK:    3.17 KCAL/MOL
REMARK 923 INTER-LIGAND FREE ENERGY PREDICTED BY IDOCK:    3.45 KCAL/MOL
REMARK 924 INTRA-LIGAND FREE ENERGY PREDICTED BY IDOCK:   -0.28 KCAL/MOL
REMARK 927      BINDING AFFINITY PREDICTED BY RF-SCORE:    0.00 PKD
ROOT
HETATM    1  O   UNL     1      -5.821  13.527  71.707  1.00  0.00    -0.382 OA 
HETATM    2  C   UNL     1      -6.035  13.446  70.380  1.00  0.00    -0.132 C  
HETATM    3  O   UNL     1      -5.142  13.110  69.610  1.00  0.00    -0.082 OA 
HETATM    4  C   UNL     1      -7.394  13.782  69.868  1.00  0.00     0.597 A  
HETATM    5  C   UNL     1      -7.637  13.666  68.490  1.00  0.00    -0.130 A  
HETATM    6  O   UNL     1      -6.698  13.253  67.582  1.00  0.00    -0.144 OA 
HETATM    7  C   UNL     1      -8.882  13.990  67.959  1.00  0.00    -0.181 A  
HETATM    8  C   UNL     1      -9.898  14.462  68.792  1.00  0.00    -0.214 A  
HETATM    9  H   UNL     1      -6.863  13.175  66.650  1.00  0.00     0.000 HD 
HETATM   10  C   UNL     1      -9.706  14.599  70.179  1.00  0.00     0.681 A  
HETATM   11  C   UNL     1      -8.444  14.223  70.693  1.00  0.00     2.948 A  
ENDROOT
BRANCH  10  12
HETATM   12  C   UNL     1     -10.778  15.133  71.064  1.00  0.00    -0.000 A  
HETATM   13  C   UNL     1     -12.123  14.717  70.953  1.00  0.00    -0.328 A  
HETATM   14  F   UNL     1     -12.479  13.798  70.041  1.00  0.00    -0.364 F  
HETATM   15  C   UNL     1     -13.133  15.218  71.771  1.00  0.00    -0.488 A  
HETATM   16  C   UNL     1     -12.811  16.145  72.746  1.00  0.00    -0.360 A  
HETATM   17  F   UNL     1     -13.773  16.630  73.540  1.00  0.00    -0.422 F  
HETATM   18  C   UNL     1     -11.503  16.576  72.909  1.00  0.00     0.275 A  
HETATM   19  C   UNL     1     -10.496  16.080  72.071  1.00  0.00     2.179 A  
ENDBRANCH  10  12
TORSDOF 1
ENDMDL
MODEL      189
REMARK 921   NORMALIZED FREE ENERGY PREDICTED BY IDOCK:   16.95 KCAL/MOL
REMARK 922        TOTAL FREE ENERGY PREDICTED BY IDOCK:   17.57 KCAL/MOL
REMARK 923 INTER-LIGAND FREE ENERGY PREDICTED BY IDOCK:   18.05 KCAL/MOL
REMARK 924 INTRA-LIGAND FREE ENERGY PREDICTED BY IDOCK:   -0.48 KCAL/MOL
REMARK 927      BINDING AFFINITY PREDICTED BY RF-SCORE:    0.00 PKD
ROOT
HETATM    1  O   UNL     1      -9.456  12.856  63.345  1.00  0.00     0.495 OA 
HETATM    2  C   UNL     1     -10.784  12.658  63.448  1.00  0.00    -0.173 C  
HETATM    3  O   UNL     1     -11.581  13.343  62.816  1.00  0.00     0.469 OA 
HETATM    4  C   UNL     1     -11.264  11.581  64.359  1.00  0.00    -0.327 A  
HETATM    5  C   UNL     1     -12.645  11.342  64.445  1.00  0.00     0.915 A  
HETATM    6  O   UNL     1     -13.585  12.040  63.734  1.00  0.00    -0.338 OA 
HETATM    7  C   UNL     1     -13.145  10.364  65.299  1.00  0.00    10.424 A  
HETATM    8  C   UNL     1     -12.275   9.623  66.103  1.00  0.00     7.844 A  
HETATM    9  H   UNL     1     -14.519  11.879  63.792  1.00  0.00     0.000 HD 
HETATM   10  C   UNL     1     -10.884   9.823  66.057  1.00  0.00     0.413 A  
HETATM   11  C   UNL     1     -10.404  10.796  65.150  1.00  0.00    -0.341 A  
ENDROOT
BRANCH  10  12
HETATM   12  C   UNL     1      -9.957   9.058  66.935  1.00  0.00    -0.313 A  
HETATM   13  C   UNL     1      -9.733   9.412  68.283  1.00  0.00    -0.145 A  
HETATM   14  F   UNL     1     -10.374  10.458  68.829  1.00  0.00    -0.165 F  
HETATM   15  C   UNL     1      -8.860   8.707  69.109  1.00  0.00    -0.137 A  
HETATM   16  C   UNL     1      -8.198   7.604  68.601  1.00  0.00    -0.128 A  
HETATM   17  F   UNL     1      -7.359   6.917  69.387  1.00  0.00    -0.080 F  
HETATM   18  C   UNL     1      -8.393   7.203  67.288  1.00  0.00    -0.119 A  
HETATM   19  C   UNL     1      -9.259   7.927  66.460  1.00  0.00    -0.238 A  
ENDBRANCH  10  12
TORSDOF 1
ENDMDL
MODEL      190
REMARK 921   NORMALIZED FREE ENERGY PREDICTED BY IDOCK:   25.99 KCAL/MOL
REMARK 922        TOTAL FREE ENERGY PREDICTED BY IDOCK:   27.14 KCAL/MOL
REMARK 923 INTER-LIGAND FREE ENERGY PREDICTED BY IDOCK:   27.61 KCAL/MOL
REMARK 924 INTRA-LIGAND FREE ENERGY PREDICTED BY IDOCK:   -0.47 KCAL/MOL
REMARK 927      BINDING AFFINITY PREDICTED BY RF-SCORE:    0.00 PKD
ROOT
HETATM    1  O   UNL     1      -5.412  14.339  72.018  1.00  0.00    -0.190 OA 
HETATM    2  C   UNL     1      -5.853  13.634  70.959  1.00  0.00    -0.161 C  
HETATM    3  O   UNL     1      -5.172  12.748  70.456  1.00  0.00    -0.099 OA 
HETATM    4  C   UNL     1      -7.197  13.965  70.407  1.00  0.00     0.972 A  
HETATM    5  C   UNL     1      -7.681  13.212  69.326  1.00  0.00     0.445 A  
HETATM    6  O   UNL     1      -6.992  12.179  68.747  1.00  0.00    -0.091 OA 
HETATM    7  C   UNL     1      -8.920  13.497  68.760  1.00  0.00     0.098 A  
HETATM    8  C   UNL     1      -9.687  14.558  69.248  1.00  0.00     0.007 A  
HETATM    9  H   UNL     1      -7.320  11.670  68.015  1.00  0.00     0.000 HD 
HETATM   10  C   UNL     1      -9.248  15.345  70.327  1.00  0.00     0.627 A  
HETATM   11  C   UNL     1      -8.004  15.005  70.906  1.00  0.00     2.084 A  
ENDROOT
BRANCH  10  12
HETATM   12  C   UNL     1     -10.048  16.497  70.828  1.00  0.00     1.656 A  
HETATM   13  C   UNL     1     -10.166  17.703  70.103  1.00  0.00     1.002 A  
HETATM   14  F   UNL     1      -9.565  17.844  68.911  1.00  0.00    -0.286 F  
HETATM   15  C   UNL     1     -10.905  18.789  70.569  1.00  0.00     2.731 A  
HETATM   16  C   UNL     1     -11.566  18.682  71.779  1.00  0.00     6.349 A  
HETATM   17  F   UNL     1     -12.282  19.717  72.235  1.00  0.00     8.906 F  
HETATM   18  C   UNL     1     -11.497  17.514  72.524  1.00  0.00     1.646 A  
HETATM   19  C   UNL     1     -10.738  16.434  72.056  1.00  0.00     1.913 A  
ENDBRANCH  10  12
TORSDOF 1
ENDMDL
