MODEL        1
REMARK 921   NORMALIZED FREE ENERGY PREDICTED BY IDOCK:   -7.87 KCAL/MOL
REMARK 922        TOTAL FREE ENERGY PREDICTED BY IDOCK:  -10.91 KCAL/MOL
REMARK 923 INTER-LIGAND FREE ENERGY PREDICTED BY IDOCK:  -11.09 KCAL/MOL
REMARK 924 INTRA-LIGAND FREE ENERGY PREDICTED BY IDOCK:    0.18 KCAL/MOL
REMARK 927      BINDING AFFINITY PREDICTED BY RF-SCORE:    0.00 PKD
ROOT
HETATM    1  C   UNL     1      -7.778  19.220  68.041  1.00  0.00    -0.323 C  
HETATM    2  C   UNL     1      -6.813  18.179  68.583  1.00  0.00    -0.253 C  
HETATM    3  C   UNL     1      -9.177  18.301  67.626  1.00  0.00    -0.271 C  
HETATM    4  C   UNL     1      -7.064  17.086  67.556  1.00  0.00    -0.173 C  
HETATM    5  C   UNL     1      -9.736  19.143  66.460  1.00  0.00    -0.411 C  
HETATM    6  C   UNL     1      -8.532  16.875  67.740  1.00  0.00    -0.196 C  
HETATM    7  C   UNL     1     -10.564  17.912  68.351  1.00  0.00    -0.275 C  
HETATM    8  C   UNL     1      -9.062  15.717  66.919  1.00  0.00    -0.260 C  
HETATM    9  O   UNL     1      -8.661  16.447  69.136  1.00  0.00    -0.245 OA 
HETATM   10  C   UNL     1     -11.340  16.670  67.536  1.00  0.00     0.181 C  
HETATM   11  C   UNL     1     -10.494  15.340  67.307  1.00  0.00    -0.275 C  
HETATM   12  C   UNL     1     -12.383  13.600  66.968  1.00  0.00    -0.277 C  
HETATM   13  C   UNL     1      -8.133  14.541  67.264  1.00  0.00    -0.219 C  
HETATM   14  H   UNL     1      -9.595  16.313  69.253  1.00  0.00     0.000 HD 
HETATM   15  C   UNL     1      -8.523  13.271  66.642  1.00  0.00     0.127 C  
HETATM   16  C   UNL     1      -9.963  12.834  66.963  1.00  0.00    -0.231 C  
HETATM   17  C   UNL     1     -10.209  11.452  66.305  1.00  0.00    -0.274 C  
HETATM   18  C   UNL     1      -9.559  11.463  64.929  1.00  0.00    -0.215 C  
HETATM   19  C   UNL     1     -10.954  13.951  66.489  1.00  0.00    -0.300 C  
HETATM   20  C   UNL     1     -10.176  12.644  64.116  1.00  0.00    -0.366 C  
HETATM   21  C   UNL     1     -10.907  13.878  64.892  1.00  0.00    -0.413 C  
ENDROOT
BRANCH   1  22
HETATM   22  C   UNL     1      -6.792  19.850  66.918  1.00  0.00    -0.235 C  
HETATM   23  C   UNL     1      -6.998  19.922  65.591  1.00  0.00    -0.331 C  
HETATM   24  O   UNL     1      -5.915  21.052  63.790  1.00  0.00    -0.278 OA 
HETATM   25  C   UNL     1      -5.584  20.793  67.180  1.00  0.00    -0.194 C  
HETATM   26  O   UNL     1      -5.195  21.329  65.927  1.00  0.00    -0.200 OA 
HETATM   27  C   UNL     1      -6.002  20.810  64.971  1.00  0.00    -0.256 C  
ENDBRANCH   1  22
BRANCH  18  28
HETATM   28  O   UNL     1      -9.427  10.151  64.357  1.00  0.00    -0.269 OA 
BRANCH  28  29
HETATM   29  C   UNL     1      -9.025   9.085  65.261  1.00  0.00    -0.183 C  
HETATM   30  C   UNL     1      -6.272   8.117  65.902  1.00  0.00    -0.045 C  
HETATM   31  H   UNL     1      -5.295   7.124  63.643  1.00  0.00     0.000 HD 
HETATM   32  O   UNL     1      -6.232   7.001  63.735  1.00  0.00    -0.042 OA 
HETATM   33  C   UNL     1      -6.862   8.035  64.490  1.00  0.00    -0.063 C  
HETATM   34  C   UNL     1      -6.851   9.410  66.522  1.00  0.00    -0.083 C  
HETATM   35  C   UNL     1      -6.064  10.634  66.036  1.00  0.00    -0.131 C  
HETATM   36  C   UNL     1      -8.367   7.838  64.639  1.00  0.00    -0.026 C  
HETATM   37  O   UNL     1      -8.272   9.620  66.372  1.00  0.00    -0.117 OA 
BRANCH  30  38
HETATM   38  O   UNL     1      -6.592   6.999  66.778  1.00  0.00    -0.051 OA 
BRANCH  38  39
HETATM   39  C   UNL     1      -7.479   7.272  67.873  1.00  0.00    -0.102 C  
HETATM   40  C   UNL     1      -8.906   6.767  67.637  1.00  0.00    -0.117 C  
HETATM   41  C   UNL     1      -9.057   5.309  68.039  1.00  0.00    -0.110 C  
HETATM   42  O   UNL     1     -10.404   4.861  67.873  1.00  0.00    -0.091 OA 
HETATM   43  C   UNL     1      -8.589   5.131  69.490  1.00  0.00    -0.092 C  
HETATM   44  C   UNL     1      -7.096   5.521  69.556  1.00  0.00    -0.064 C  
HETATM   45  H   UNL     1     -10.498   3.950  68.124  1.00  0.00     0.000 HD 
HETATM   46  O   UNL     1      -6.884   6.862  69.109  1.00  0.00    -0.063 OA 
HETATM   47  C   UNL     1      -6.143   4.570  68.841  1.00  0.00    -0.030 C  
BRANCH  43  48
HETATM   48  O   UNL     1      -9.249   6.010  70.430  1.00  0.00    -0.153 OA 
BRANCH  48  49
HETATM   49  C   UNL     1     -10.613   5.788  70.768  1.00  0.00    -0.269 C  
HETATM   50  C   UNL     1     -10.875   5.749  72.266  1.00  0.00    -0.298 C  
HETATM   51  C   UNL     1     -10.504   7.100  72.860  1.00  0.00    -0.266 C  
HETATM   52  C   UNL     1     -11.346   8.206  72.219  1.00  0.00    -0.364 C  
HETATM   53  O   UNL     1     -10.743   7.099  74.273  1.00  0.00    -0.540 OA 
HETATM   54  H   UNL     1     -10.511   7.942  74.643  1.00  0.00     0.000 HD 
HETATM   55  C   UNL     1     -11.294   8.137  70.683  1.00  0.00    -0.249 C  
HETATM   56  O   UNL     1     -12.707   8.060  72.666  1.00  0.00    -0.572 OA 
HETATM   57  H   UNL     1     -13.230   8.746  72.268  1.00  0.00     0.000 HD 
HETATM   58  C   UNL     1     -10.056   8.831  70.119  1.00  0.00    -0.203 C  
HETATM   59  O   UNL     1     -11.425   6.805  70.161  1.00  0.00    -0.333 OA 
ENDBRANCH  48  49
ENDBRANCH  43  48
ENDBRANCH  38  39
ENDBRANCH  30  38
ENDBRANCH  28  29
ENDBRANCH  18  28
TORSDOF 7
ENDMDL
MODEL        2
REMARK 921   NORMALIZED FREE ENERGY PREDICTED BY IDOCK:   -7.87 KCAL/MOL
REMARK 922        TOTAL FREE ENERGY PREDICTED BY IDOCK:  -10.91 KCAL/MOL
REMARK 923 INTER-LIGAND FREE ENERGY PREDICTED BY IDOCK:  -11.34 KCAL/MOL
REMARK 924 INTRA-LIGAND FREE ENERGY PREDICTED BY IDOCK:    0.43 KCAL/MOL
REMARK 927      BINDING AFFINITY PREDICTED BY RF-SCORE:    0.00 PKD
ROOT
HETATM    1  C   UNL     1      -7.655  19.477  67.820  1.00  0.00    -0.307 C  
HETATM    2  C   UNL     1      -6.562  18.611  68.422  1.00  0.00    -0.245 C  
HETATM    3  C   UNL     1      -8.990  18.398  67.660  1.00  0.00    -0.282 C  
HETATM    4  C   UNL     1      -6.786  17.359  67.587  1.00  0.00    -0.168 C  
HETATM    5  C   UNL     1      -9.706  19.008  66.438  1.00  0.00    -0.405 C  
HETATM    6  C   UNL     1      -8.211  17.061  67.922  1.00  0.00    -0.200 C  
HETATM    7  C   UNL     1     -10.280  18.013  68.549  1.00  0.00    -0.392 C  
HETATM    8  C   UNL     1      -8.690  15.754  67.324  1.00  0.00    -0.210 C  
HETATM    9  O   UNL     1      -8.200  16.838  69.371  1.00  0.00    -0.071 OA 
HETATM   10  C   UNL     1     -10.995  16.604  67.988  1.00  0.00    -0.311 C  
HETATM   11  C   UNL     1     -10.050  15.327  67.881  1.00  0.00    -0.233 C  
HETATM   12  C   UNL     1     -11.791  13.410  67.956  1.00  0.00    -0.392 C  
HETATM   13  C   UNL     1      -7.635  14.722  67.753  1.00  0.00    -0.174 C  
HETATM   14  H   UNL     1      -9.106  16.649  69.585  1.00  0.00     0.000 HD 
HETATM   15  C   UNL     1      -7.951  13.345  67.354  1.00  0.00    -0.170 C  
HETATM   16  C   UNL     1      -9.318  12.848  67.856  1.00  0.00    -0.208 C  
HETATM   17  C   UNL     1      -9.483  11.368  67.426  1.00  0.00    -0.174 C  
HETATM   18  C   UNL     1      -8.938  11.225  66.012  1.00  0.00    -0.200 C  
HETATM   19  C   UNL     1     -10.438  13.799  67.312  1.00  0.00    -0.264 C  
HETATM   20  C   UNL     1      -9.716  12.217  65.093  1.00  0.00    -0.133 C  
HETATM   21  C   UNL     1     -10.500  13.491  65.744  1.00  0.00    -0.293 C  
ENDROOT
BRANCH   1  22
HETATM   22  C   UNL     1      -6.814  20.009  66.539  1.00  0.00    -0.246 C  
HETATM   23  C   UNL     1      -7.200  20.022  65.251  1.00  0.00    -0.176 C  
HETATM   24  O   UNL     1      -6.341  21.014  63.258  1.00  0.00    -0.267 OA 
HETATM   25  C   UNL     1      -5.551  20.915  66.579  1.00  0.00    -0.212 C  
HETATM   26  O   UNL     1      -5.322  21.370  65.258  1.00  0.00    -0.170 OA 
HETATM   27  C   UNL     1      -6.271  20.836  64.452  1.00  0.00    -0.321 C  
ENDBRANCH   1  22
BRANCH  18  28
HETATM   28  O   UNL     1      -8.727   9.856  65.624  1.00  0.00    -0.140 OA 
BRANCH  28  29
HETATM   29  C   UNL     1      -8.579   8.890  66.702  1.00  0.00    -0.123 C  
HETATM   30  C   UNL     1      -7.439   6.131  66.596  1.00  0.00    -0.090 C  
HETATM   31  H   UNL     1      -9.046   4.730  65.014  1.00  0.00     0.000 HD 
HETATM   32  O   UNL     1      -9.500   5.394  65.520  1.00  0.00    -0.109 OA 
HETATM   33  C   UNL     1      -8.688   6.534  65.805  1.00  0.00    -0.120 C  
HETATM   34  C   UNL     1      -6.540   7.388  66.624  1.00  0.00    -0.053 C  
HETATM   35  C   UNL     1      -5.762   7.517  65.307  1.00  0.00    -0.037 C  
HETATM   36  C   UNL     1      -9.416   7.600  66.617  1.00  0.00    -0.255 C  
HETATM   37  O   UNL     1      -7.181   8.636  66.966  1.00  0.00    -0.075 OA 
BRANCH  30  38
HETATM   38  O   UNL     1      -7.680   5.703  67.966  1.00  0.00    -0.087 OA 
BRANCH  38  39
HETATM   39  C   UNL     1      -8.840   6.244  68.616  1.00  0.00    -0.119 C  
HETATM   40  C   UNL     1      -9.776   5.169  69.179  1.00  0.00    -0.232 C  
HETATM   41  C   UNL     1      -9.351   4.733  70.572  1.00  0.00    -0.154 C  
HETATM   42  O   UNL     1     -10.262   3.774  71.115  1.00  0.00    -0.043 OA 
HETATM   43  C   UNL     1      -9.239   5.965  71.478  1.00  0.00    -0.146 C  
HETATM   44  C   UNL     1      -8.152   6.889  70.887  1.00  0.00    -0.114 C  
HETATM   45  H   UNL     1      -9.997   3.501  71.986  1.00  0.00     0.000 HD 
HETATM   46  O   UNL     1      -8.459   7.267  69.543  1.00  0.00    -0.131 OA 
HETATM   47  C   UNL     1      -6.727   6.355  70.971  1.00  0.00    -0.055 C  
BRANCH  43  48
HETATM   48  O   UNL     1     -10.437   6.774  71.520  1.00  0.00    -0.212 OA 
BRANCH  48  49
HETATM   49  C   UNL     1     -10.561   7.805  72.492  1.00  0.00    -0.293 C  
HETATM   50  C   UNL     1     -10.303   9.201  71.943  1.00  0.00    -0.243 C  
HETATM   51  C   UNL     1     -11.341   9.500  70.871  1.00  0.00    -0.341 C  
HETATM   52  C   UNL     1     -12.749   9.433  71.468  1.00  0.00    -0.361 C  
HETATM   53  O   UNL     1     -11.130  10.812  70.335  1.00  0.00    -0.440 OA 
HETATM   54  H   UNL     1     -11.777  10.998  69.665  1.00  0.00     0.000 HD 
HETATM   55  C   UNL     1     -12.975   8.121  72.239  1.00  0.00    -0.204 C  
HETATM   56  O   UNL     1     -12.922  10.554  72.355  1.00  0.00    -0.447 OA 
HETATM   57  H   UNL     1     -13.796  10.513  72.726  1.00  0.00     0.000 HD 
HETATM   58  C   UNL     1     -13.373   6.973  71.314  1.00  0.00    -0.282 C  
HETATM   59  O   UNL     1     -11.871   7.750  73.080  1.00  0.00    -0.213 OA 
ENDBRANCH  48  49
ENDBRANCH  43  48
ENDBRANCH  38  39
ENDBRANCH  30  38
ENDBRANCH  28  29
ENDBRANCH  18  28
TORSDOF 7
ENDMDL
MODEL        3
REMARK 921   NORMALIZED FREE ENERGY PREDICTED BY IDOCK:   -7.30 KCAL/MOL
REMARK 922        TOTAL FREE ENERGY PREDICTED BY IDOCK:  -10.11 KCAL/MOL
REMARK 923 INTER-LIGAND FREE ENERGY PREDICTED BY IDOCK:  -10.57 KCAL/MOL
REMARK 924 INTRA-LIGAND FREE ENERGY PREDICTED BY IDOCK:    0.45 KCAL/MOL
REMARK 927      BINDING AFFINITY PREDICTED BY RF-SCORE:    0.00 PKD
ROOT
HETATM    1  C   UNL     1      -8.041  17.709  68.757  1.00  0.00    -0.233 C  
HETATM    2  C   UNL     1      -6.927  16.801  69.249  1.00  0.00    -0.216 C  
HETATM    3  C   UNL     1      -9.329  16.619  68.402  1.00  0.00    -0.224 C  
HETATM    4  C   UNL     1      -7.084  15.683  68.230  1.00  0.00    -0.116 C  
HETATM    5  C   UNL     1     -10.043  17.382  67.267  1.00  0.00    -0.310 C  
HETATM    6  C   UNL     1      -8.503  15.287  68.479  1.00  0.00    -0.162 C  
HETATM    7  C   UNL     1     -10.620  16.058  69.188  1.00  0.00    -0.260 C  
HETATM    8  C   UNL     1      -8.918  14.070  67.678  1.00  0.00    -0.194 C  
HETATM    9  O   UNL     1      -8.512  14.848  69.878  1.00  0.00    -0.427 OA 
HETATM   10  C   UNL     1     -11.268  14.726  68.403  1.00  0.00    -0.298 C  
HETATM   11  C   UNL     1     -10.272  13.514  68.130  1.00  0.00    -0.249 C  
HETATM   12  C   UNL     1     -11.937  11.547  67.869  1.00  0.00    -0.145 C  
HETATM   13  C   UNL     1      -7.832  13.023  67.974  1.00  0.00    -0.146 C  
HETATM   14  H   UNL     1      -9.415  14.596  70.037  1.00  0.00     0.000 HD 
HETATM   15  C   UNL     1      -8.086  11.712  67.364  1.00  0.00    -0.153 C  
HETATM   16  C   UNL     1      -9.442  11.096  67.750  1.00  0.00    -0.173 C  
HETATM   17  C   UNL     1      -9.540   9.693  67.097  1.00  0.00    -0.210 C  
HETATM   18  C   UNL     1      -8.961   9.786  65.692  1.00  0.00    -0.163 C  
HETATM   19  C   UNL     1     -10.588  12.077  67.327  1.00  0.00    -0.252 C  
HETATM   20  C   UNL     1      -9.759  10.877  64.914  1.00  0.00    -0.318 C  
HETATM   21  C   UNL     1     -10.606  12.009  65.729  1.00  0.00    -0.301 C  
ENDROOT
BRANCH   1  22
HETATM   22  C   UNL     1      -7.195  18.458  67.592  1.00  0.00    -0.216 C  
HETATM   23  C   UNL     1      -7.618  18.804  66.364  1.00  0.00    -0.280 C  
HETATM   24  O   UNL     1      -6.735  20.166  64.614  1.00  0.00    -0.268 OA 
HETATM   25  C   UNL     1      -5.856  19.226  67.778  1.00  0.00    -0.197 C  
HETATM   26  O   UNL     1      -5.628  19.959  66.587  1.00  0.00    -0.169 OA 
HETATM   27  C   UNL     1      -6.645  19.707  65.729  1.00  0.00    -0.242 C  
ENDBRANCH   1  22
BRANCH  18  28
HETATM   28  O   UNL     1      -8.690   8.500  65.109  1.00  0.00    -0.180 OA 
BRANCH  28  29
HETATM   29  C   UNL     1      -8.349   7.426  66.030  1.00  0.00    -0.143 C  
HETATM   30  C   UNL     1      -7.553   4.614  65.410  1.00  0.00    -0.081 C  
HETATM   31  H   UNL     1      -9.656   3.493  64.240  1.00  0.00     0.000 HD 
HETATM   32  O   UNL     1      -9.889   4.137  64.899  1.00  0.00    -0.180 OA 
HETATM   33  C   UNL     1      -8.924   5.182  65.029  1.00  0.00    -0.106 C  
HETATM   34  C   UNL     1      -6.562   5.794  65.278  1.00  0.00    -0.043 C  
HETATM   35  C   UNL     1      -6.161   5.993  63.810  1.00  0.00    -0.025 C  
HETATM   36  C   UNL     1      -9.298   6.215  66.087  1.00  0.00    -0.128 C  
HETATM   37  O   UNL     1      -6.963   7.047  65.875  1.00  0.00    -0.061 OA 
BRANCH  30  38
HETATM   38  O   UNL     1      -7.454   4.075  66.758  1.00  0.00    -0.072 OA 
BRANCH  38  39
HETATM   39  C   UNL     1      -8.467   4.482  67.691  1.00  0.00    -0.103 C  
HETATM   40  C   UNL     1      -9.293   3.312  68.236  1.00  0.00    -0.242 C  
HETATM   41  C   UNL     1      -8.622   2.664  69.436  1.00  0.00    -0.068 C  
HETATM   42  O   UNL     1      -9.426   1.613  69.976  1.00  0.00    -0.108 OA 
HETATM   43  C   UNL     1      -8.328   3.736  70.494  1.00  0.00    -0.061 C  
HETATM   44  C   UNL     1      -7.360   4.765  69.869  1.00  0.00    -0.055 C  
HETATM   45  H   UNL     1      -9.007   1.208  70.726  1.00  0.00     0.000 HD 
HETATM   46  O   UNL     1      -7.908   5.348  68.685  1.00  0.00    -0.086 OA 
HETATM   47  C   UNL     1      -5.951   4.251  69.599  1.00  0.00    -0.018 C  
BRANCH  43  48
HETATM   48  O   UNL     1      -9.488   4.504  70.887  1.00  0.00    -0.142 OA 
BRANCH  48  49
HETATM   49  C   UNL     1      -9.330   5.849  71.327  1.00  0.00    -0.156 C  
HETATM   50  C   UNL     1     -10.340   6.814  70.723  1.00  0.00    -0.227 C  
HETATM   51  C   UNL     1     -11.737   6.387  71.152  1.00  0.00    -0.298 C  
HETATM   52  C   UNL     1     -11.849   6.412  72.678  1.00  0.00    -0.042 C  
HETATM   53  O   UNL     1     -12.714   7.280  70.603  1.00  0.00    -0.599 OA 
HETATM   54  H   UNL     1     -13.585   7.013  70.870  1.00  0.00     0.000 HD 
HETATM   55  C   UNL     1     -10.702   5.632  73.343  1.00  0.00    -0.278 C  
HETATM   56  O   UNL     1     -11.822   7.784  73.115  1.00  0.00    -0.645 OA 
HETATM   57  H   UNL     1     -11.892   7.799  74.063  1.00  0.00     0.000 HD 
HETATM   58  C   UNL     1     -10.986   4.133  73.402  1.00  0.00    -0.350 C  
HETATM   59  O   UNL     1      -9.415   5.894  72.760  1.00  0.00    -0.149 OA 
ENDBRANCH  48  49
ENDBRANCH  43  48
ENDBRANCH  38  39
ENDBRANCH  30  38
ENDBRANCH  28  29
ENDBRANCH  18  28
TORSDOF 7
ENDMDL
MODEL        4
REMARK 921   NORMALIZED FREE ENERGY PREDICTED BY IDOCK:   -6.47 KCAL/MOL
REMARK 922        TOTAL FREE ENERGY PREDICTED BY IDOCK:   -8.94 KCAL/MOL
REMARK 923 INTER-LIGAND FREE ENERGY PREDICTED BY IDOCK:   -9.60 KCAL/MOL
REMARK 924 INTRA-LIGAND FREE ENERGY PREDICTED BY IDOCK:    0.66 KCAL/MOL
REMARK 927      BINDING AFFINITY PREDICTED BY RF-SCORE:    0.00 PKD
ROOT
HETATM    1  C   UNL     1      -7.130   5.336  72.682  1.00  0.00    -0.087 C  
HETATM    2  C   UNL     1      -7.440   6.809  72.888  1.00  0.00    -0.083 C  
HETATM    3  C   UNL     1      -6.590   5.257  71.046  1.00  0.00    -0.042 C  
HETATM    4  C   UNL     1      -8.127   7.080  71.559  1.00  0.00    -0.104 C  
HETATM    5  C   UNL     1      -7.030   3.828  70.669  1.00  0.00    -0.033 C  
HETATM    6  C   UNL     1      -7.039   6.695  70.609  1.00  0.00    -0.069 C  
HETATM    7  C   UNL     1      -5.163   5.295  70.295  1.00  0.00    -0.004 C  
HETATM    8  C   UNL     1      -7.394   6.992  69.166  1.00  0.00    -0.092 C  
HETATM    9  O   UNL     1      -5.942   7.613  70.931  1.00  0.00    -0.034 OA 
HETATM   10  C   UNL     1      -5.358   5.554  68.650  1.00  0.00    -0.003 C  
HETATM   11  C   UNL     1      -6.189   6.846  68.233  1.00  0.00    -0.034 C  
HETATM   12  C   UNL     1      -5.333   7.231  65.818  1.00  0.00    -0.028 C  
HETATM   13  C   UNL     1      -7.838   8.464  69.171  1.00  0.00    -0.105 C  
HETATM   14  H   UNL     1      -5.250   7.369  70.327  1.00  0.00     0.000 HD 
HETATM   15  C   UNL     1      -8.144   8.998  67.838  1.00  0.00    -0.106 C  
HETATM   16  C   UNL     1      -6.989   8.865  66.831  1.00  0.00    -0.078 C  
HETATM   17  C   UNL     1      -7.425   9.532  65.502  1.00  0.00    -0.102 C  
HETATM   18  C   UNL     1      -8.883   9.172  65.250  1.00  0.00    -0.199 C  
HETATM   19  C   UNL     1      -6.605   7.353  66.690  1.00  0.00    -0.053 C  
HETATM   20  C   UNL     1      -8.995   7.616  65.218  1.00  0.00     0.203 C  
HETATM   21  C   UNL     1      -7.837   6.698  65.909  1.00  0.00    -0.102 C  
ENDROOT
BRANCH   1  22
HETATM   22  C   UNL     1      -8.572   4.755  73.146  1.00  0.00    -0.106 C  
HETATM   23  C   UNL     1      -8.956   3.468  73.214  1.00  0.00    -0.104 C  
HETATM   24  O   UNL     1     -10.837   2.332  74.144  1.00  0.00    -0.157 OA 
HETATM   25  C   UNL     1      -9.670   5.535  73.924  1.00  0.00    -0.159 C  
HETATM   26  O   UNL     1     -10.618   4.583  74.372  1.00  0.00    -0.261 OA 
HETATM   27  C   UNL     1     -10.229   3.358  73.945  1.00  0.00    -0.147 C  
ENDBRANCH   1  22
BRANCH  18  28
HETATM   28  O   UNL     1      -9.499   9.987  64.239  1.00  0.00    -0.280 OA 
BRANCH  28  29
HETATM   29  C   UNL     1      -9.653  11.401  64.547  1.00  0.00    -0.192 C  
HETATM   30  C   UNL     1     -11.790  12.744  66.145  1.00  0.00    -0.425 C  
HETATM   31  H   UNL     1     -14.054  12.370  64.810  1.00  0.00     0.000 HD 
HETATM   32  O   UNL     1     -13.294  12.461  64.247  1.00  0.00    -0.716 OA 
HETATM   33  C   UNL     1     -12.090  11.984  64.849  1.00  0.00    -0.174 C  
HETATM   34  C   UNL     1     -10.623  11.982  66.814  1.00  0.00    -0.227 C  
HETATM   35  C   UNL     1     -11.150  10.750  67.564  1.00  0.00    -0.374 C  
HETATM   36  C   UNL     1     -10.870  12.128  63.945  1.00  0.00    -0.461 C  
HETATM   37  O   UNL     1      -9.509  11.628  65.967  1.00  0.00    -0.220 OA 
BRANCH  30  38
HETATM   38  O   UNL     1     -11.398  14.135  65.976  1.00  0.00    -0.318 OA 
BRANCH  38  39
HETATM   39  C   UNL     1     -10.792  14.777  67.108  1.00  0.00    -0.311 C  
HETATM   40  C   UNL     1      -9.273  14.586  67.171  1.00  0.00    -0.233 C  
HETATM   41  C   UNL     1      -8.543  15.632  66.344  1.00  0.00    -0.284 C  
HETATM   42  O   UNL     1      -7.126  15.485  66.455  1.00  0.00    -0.190 OA 
HETATM   43  C   UNL     1      -8.991  17.032  66.784  1.00  0.00    -0.244 C  
HETATM   44  C   UNL     1     -10.508  17.147  66.519  1.00  0.00    -0.255 C  
HETATM   45  H   UNL     1      -6.669  16.138  65.938  1.00  0.00     0.000 HD 
HETATM   46  O   UNL     1     -11.241  16.133  67.209  1.00  0.00    -0.160 OA 
HETATM   47  C   UNL     1     -10.911  17.179  65.049  1.00  0.00     0.063 C  
BRANCH  43  48
HETATM   48  O   UNL     1      -8.839  17.277  68.201  1.00  0.00    -0.226 OA 
BRANCH  48  49
HETATM   49  C   UNL     1      -7.707  17.997  68.675  1.00  0.00    -0.296 C  
HETATM   50  C   UNL     1      -6.728  18.392  67.580  1.00  0.00    -0.201 C  
HETATM   51  C   UNL     1      -7.440  19.316  66.601  1.00  0.00    -0.233 C  
HETATM   52  C   UNL     1      -7.935  20.570  67.327  1.00  0.00    -0.314 C  
HETATM   53  O   UNL     1      -6.543  19.711  65.557  1.00  0.00    -0.237 OA 
HETATM   54  H   UNL     1      -6.988  20.287  64.946  1.00  0.00     0.000 HD 
HETATM   55  C   UNL     1      -8.743  20.212  68.586  1.00  0.00     0.168 C  
HETATM   56  O   UNL     1      -6.792  21.366  67.692  1.00  0.00    -0.495 OA 
HETATM   57  H   UNL     1      -7.099  22.144  68.143  1.00  0.00     0.000 HD 
HETATM   58  C   UNL     1     -10.201  19.893  68.260  1.00  0.00    -0.562 C  
HETATM   59  O   UNL     1      -8.148  19.171  69.376  1.00  0.00    -0.106 OA 
ENDBRANCH  48  49
ENDBRANCH  43  48
ENDBRANCH  38  39
ENDBRANCH  30  38
ENDBRANCH  28  29
ENDBRANCH  18  28
TORSDOF 7
ENDMDL
MODEL        5
REMARK 921   NORMALIZED FREE ENERGY PREDICTED BY IDOCK:   -4.09 KCAL/MOL
REMARK 922        TOTAL FREE ENERGY PREDICTED BY IDOCK:   -5.59 KCAL/MOL
REMARK 923 INTER-LIGAND FREE ENERGY PREDICTED BY IDOCK:   -5.53 KCAL/MOL
REMARK 924 INTRA-LIGAND FREE ENERGY PREDICTED BY IDOCK:   -0.06 KCAL/MOL
REMARK 927      BINDING AFFINITY PREDICTED BY RF-SCORE:    0.00 PKD
ROOT
HETATM    1  C   UNL     1      -8.658   3.893  73.307  1.00  0.00    -0.091 C  
HETATM    2  C   UNL     1      -9.423   5.015  73.989  1.00  0.00    -0.129 C  
HETATM    3  C   UNL     1      -7.953   4.658  71.932  1.00  0.00    -0.100 C  
HETATM    4  C   UNL     1     -10.018   5.665  72.750  1.00  0.00    -0.195 C  
HETATM    5  C   UNL     1      -7.893   3.474  70.946  1.00  0.00    -0.047 C  
HETATM    6  C   UNL     1      -8.772   5.995  71.993  1.00  0.00    -0.136 C  
HETATM    7  C   UNL     1      -6.536   5.349  71.591  1.00  0.00    -0.040 C  
HETATM    8  C   UNL     1      -9.047   6.794  70.736  1.00  0.00    -0.151 C  
HETATM    9  O   UNL     1      -8.047   6.912  72.879  1.00  0.00    -0.107 OA 
HETATM   10  C   UNL     1      -6.628   6.239  70.174  1.00  0.00    -0.045 C  
HETATM   11  C   UNL     1      -7.765   7.352  70.112  1.00  0.00    -0.090 C  
HETATM   12  C   UNL     1      -6.820   8.930  68.288  1.00  0.00    -0.065 C  
HETATM   13  C   UNL     1      -9.918   7.971  71.207  1.00  0.00    -0.211 C  
HETATM   14  H   UNL     1      -7.254   7.122  72.398  1.00  0.00     0.000 HD 
HETATM   15  C   UNL     1     -10.232   8.940  70.152  1.00  0.00    -0.218 C  
HETATM   16  C   UNL     1      -8.993   9.529  69.456  1.00  0.00    -0.187 C  
HETATM   17  C   UNL     1      -9.471  10.583  68.424  1.00  0.00    -0.158 C  
HETATM   18  C   UNL     1     -10.715  10.037  67.736  1.00  0.00    -0.280 C  
HETATM   19  C   UNL     1      -8.153   8.362  68.833  1.00  0.00    -0.114 C  
HETATM   20  C   UNL     1     -10.342   8.670  67.083  1.00  0.00    -0.369 C  
HETATM   21  C   UNL     1      -9.038   7.842  67.606  1.00  0.00    -0.138 C  
ENDROOT
BRANCH   1  22
HETATM   22  C   UNL     1      -9.894   2.851  73.178  1.00  0.00    -0.169 C  
HETATM   23  C   UNL     1     -10.931   2.698  74.022  1.00  0.00    -0.244 C  
HETATM   24  O   UNL     1     -13.003   1.519  73.926  1.00  0.00     0.007 OA 
HETATM   25  C   UNL     1     -10.309   2.069  71.900  1.00  0.00     0.028 C  
HETATM   26  O   UNL     1     -11.589   1.516  72.147  1.00  0.00     0.592 OA 
HETATM   27  C   UNL     1     -11.967   1.855  73.403  1.00  0.00    -0.056 C  
ENDBRANCH   1  22
BRANCH  18  28
HETATM   28  O   UNL     1     -11.441  11.041  67.006  1.00  0.00    -0.415 OA 
BRANCH  28  29
HETATM   29  C   UNL     1     -10.699  12.233  66.624  1.00  0.00    -0.245 C  
HETATM   30  C   UNL     1     -11.257  15.085  67.317  1.00  0.00    -0.338 C  
HETATM   31  H   UNL     1     -13.586  15.676  66.186  1.00  0.00     0.000 HD 
HETATM   32  O   UNL     1     -13.069  15.057  65.684  1.00  0.00     0.399 OA 
HETATM   33  C   UNL     1     -12.234  14.233  66.499  1.00  0.00    -0.391 C  
HETATM   34  C   UNL     1     -10.596  14.112  68.320  1.00  0.00    -0.251 C  
HETATM   35  C   UNL     1     -11.520  13.874  69.522  1.00  0.00    -0.332 C  
HETATM   36  C   UNL     1     -11.404  13.238  65.694  1.00  0.00    -0.325 C  
HETATM   37  O   UNL     1     -10.114  12.859  67.788  1.00  0.00    -0.218 OA 
BRANCH  30  38
HETATM   38  O   UNL     1     -10.210  15.743  66.550  1.00  0.00    -0.267 OA 
BRANCH  38  39
HETATM   39  C   UNL     1      -9.056  16.183  67.280  1.00  0.00    -0.203 C  
HETATM   40  C   UNL     1      -7.819  16.380  66.397  1.00  0.00    -0.297 C  
HETATM   41  C   UNL     1      -7.797  17.764  65.768  1.00  0.00     0.085 C  
HETATM   42  O   UNL     1      -6.612  17.963  64.994  1.00  0.00    -0.122 OA 
HETATM   43  C   UNL     1      -7.923  18.825  66.870  1.00  0.00    -0.252 C  
HETATM   44  C   UNL     1      -9.281  18.613  67.576  1.00  0.00    -0.279 C  
HETATM   45  H   UNL     1      -6.597  18.828  64.602  1.00  0.00     0.000 HD 
HETATM   46  O   UNL     1      -9.391  17.295  68.117  1.00  0.00    -0.258 OA 
HETATM   47  C   UNL     1     -10.509  18.942  66.735  1.00  0.00    -0.497 C  
BRANCH  43  48
HETATM   48  O   UNL     1      -6.933  18.703  67.917  1.00  0.00    -0.216 OA 
BRANCH  48  49
HETATM   49  C   UNL     1      -6.262  19.864  68.393  1.00  0.00    -0.264 C  
HETATM   50  C   UNL     1      -7.151  20.798  69.201  1.00  0.00     0.679 C  
HETATM   51  C   UNL     1      -7.644  20.055  70.435  1.00  0.00     0.885 C  
HETATM   52  C   UNL     1      -6.455  19.608  71.289  1.00  0.00     0.352 C  
HETATM   53  O   UNL     1      -8.482  20.910  71.222  1.00  0.00     1.225 OA 
HETATM   54  H   UNL     1      -8.789  20.446  71.991  1.00  0.00     0.000 HD 
HETATM   55  C   UNL     1      -5.409  18.852  70.452  1.00  0.00    -0.223 C  
HETATM   56  O   UNL     1      -5.853  20.775  71.879  1.00  0.00    -0.679 OA 
HETATM   57  H   UNL     1      -5.115  20.499  72.410  1.00  0.00     0.000 HD 
HETATM   58  C   UNL     1      -5.769  17.377  70.281  1.00  0.00    -0.192 C  
HETATM   59  O   UNL     1      -5.130  19.468  69.185  1.00  0.00    -0.181 OA 
ENDBRANCH  48  49
ENDBRANCH  43  48
ENDBRANCH  38  39
ENDBRANCH  30  38
ENDBRANCH  28  29
ENDBRANCH  18  28
TORSDOF 7
ENDMDL
MODEL        6
REMARK 921   NORMALIZED FREE ENERGY PREDICTED BY IDOCK:   -3.89 KCAL/MOL
REMARK 922        TOTAL FREE ENERGY PREDICTED BY IDOCK:   -5.30 KCAL/MOL
REMARK 923 INTER-LIGAND FREE ENERGY PREDICTED BY IDOCK:   -5.61 KCAL/MOL
REMARK 924 INTRA-LIGAND FREE ENERGY PREDICTED BY IDOCK:    0.31 KCAL/MOL
REMARK 927      BINDING AFFINITY PREDICTED BY RF-SCORE:    0.00 PKD
ROOT
HETATM    1  C   UNL     1      -7.216  18.937  68.605  1.00  0.00    -0.333 C  
HETATM    2  C   UNL     1      -6.165  17.841  68.655  1.00  0.00    -0.196 C  
HETATM    3  C   UNL     1      -8.707  18.077  68.699  1.00  0.00    -0.272 C  
HETATM    4  C   UNL     1      -6.841  16.841  67.730  1.00  0.00    -0.156 C  
HETATM    5  C   UNL     1      -9.632  19.021  67.903  1.00  0.00    -0.373 C  
HETATM    6  C   UNL     1      -8.134  16.637  68.452  1.00  0.00    -0.208 C  
HETATM    7  C   UNL     1      -9.725  17.649  69.874  1.00  0.00     0.944 C  
HETATM    8  C   UNL     1      -8.991  15.559  67.819  1.00  0.00    -0.173 C  
HETATM    9  O   UNL     1      -7.736  16.095  69.755  1.00  0.00    -0.001 OA 
HETATM   10  C   UNL     1     -10.810  16.490  69.336  1.00  0.00    -0.311 C  
HETATM   11  C   UNL     1     -10.179  15.172  68.703  1.00  0.00    -0.227 C  
HETATM   12  C   UNL     1     -12.130  13.494  68.997  1.00  0.00    -0.330 C  
HETATM   13  C   UNL     1      -8.055  14.346  67.692  1.00  0.00    -0.188 C  
HETATM   14  H   UNL     1      -8.558  15.966  70.214  1.00  0.00     0.000 HD 
HETATM   15  C   UNL     1      -8.712  13.138  67.180  1.00  0.00    -0.214 C  
HETATM   16  C   UNL     1      -9.936  12.697  68.002  1.00  0.00    -0.220 C  
HETATM   17  C   UNL     1     -10.479  11.378  67.393  1.00  0.00    -0.239 C  
HETATM   18  C   UNL     1     -10.409  11.495  65.877  1.00  0.00    -0.247 C  
HETATM   19  C   UNL     1     -10.981  13.864  68.029  1.00  0.00    -0.267 C  
HETATM   20  C   UNL     1     -11.235  12.748  65.452  1.00  0.00    -0.327 C  
HETATM   21  C   UNL     1     -11.555  13.924  66.538  1.00  0.00    -0.385 C  
ENDROOT
BRANCH   1  22
HETATM   22  C   UNL     1      -6.709  19.645  67.236  1.00  0.00    -0.226 C  
HETATM   23  C   UNL     1      -5.875  19.139  66.311  1.00  0.00    -0.179 C  
HETATM   24  O   UNL     1      -5.232  19.789  64.106  1.00  0.00    -0.158 OA 
HETATM   25  C   UNL     1      -7.344  20.890  66.555  1.00  0.00    -0.016 C  
HETATM   26  O   UNL     1      -6.784  20.985  65.257  1.00  0.00    -0.109 OA 
HETATM   27  C   UNL     1      -5.897  19.975  65.099  1.00  0.00    -0.201 C  
ENDBRANCH   1  22
BRANCH  18  28
HETATM   28  O   UNL     1     -10.567  10.234  65.206  1.00  0.00    -0.147 OA 
BRANCH  28  29
HETATM   29  C   UNL     1      -9.990   9.070  65.863  1.00  0.00    -0.099 C  
HETATM   30  C   UNL     1      -7.297   7.840  65.464  1.00  0.00    -0.073 C  
HETATM   31  H   UNL     1      -7.255   6.955  62.962  1.00  0.00     0.000 HD 
HETATM   32  O   UNL     1      -8.112   6.900  63.367  1.00  0.00    -0.096 OA 
HETATM   33  C   UNL     1      -8.338   7.918  64.342  1.00  0.00     0.016 C  
HETATM   34  C   UNL     1      -7.496   9.122  66.307  1.00  0.00    -0.092 C  
HETATM   35  C   UNL     1      -6.802  10.315  65.636  1.00  0.00    -0.133 C  
HETATM   36  C   UNL     1      -9.715   7.829  64.994  1.00  0.00     1.829 C  
HETATM   37  O   UNL     1      -8.854   9.455  66.669  1.00  0.00    -0.131 OA 
BRANCH  30  38
HETATM   38  O   UNL     1      -7.412   6.686  66.343  1.00  0.00    -0.082 OA 
BRANCH  38  39
HETATM   39  C   UNL     1      -7.939   6.925  67.656  1.00  0.00    -0.113 C  
HETATM   40  C   UNL     1      -9.023   5.922  68.066  1.00  0.00    -0.118 C  
HETATM   41  C   UNL     1      -8.421   4.665  68.671  1.00  0.00    -0.085 C  
HETATM   42  O   UNL     1      -9.438   3.759  69.105  1.00  0.00    -0.165 OA 
HETATM   43  C   UNL     1      -7.493   5.052  69.830  1.00  0.00    -0.056 C  
HETATM   44  C   UNL     1      -6.359   5.928  69.254  1.00  0.00    -0.041 C  
HETATM   45  H   UNL     1      -9.062   2.973  69.484  1.00  0.00     0.000 HD 
HETATM   46  O   UNL     1      -6.873   7.089  68.598  1.00  0.00    -0.070 OA 
HETATM   47  C   UNL     1      -5.374   5.202  68.344  1.00  0.00    -0.007 C  
BRANCH  43  48
HETATM   48  O   UNL     1      -8.126   5.874  70.838  1.00  0.00    -0.115 OA 
BRANCH  48  49
HETATM   49  C   UNL     1      -7.415   6.967  71.407  1.00  0.00    -0.082 C  
HETATM   50  C   UNL     1      -8.234   8.246  71.507  1.00  0.00    -0.164 C  
HETATM   51  C   UNL     1      -9.425   7.990  72.420  1.00  0.00    -0.215 C  
HETATM   52  C   UNL     1      -8.941   7.578  73.813  1.00  0.00    -0.248 C  
HETATM   53  O   UNL     1     -10.216   9.178  72.540  1.00  0.00     0.129 OA 
HETATM   54  H   UNL     1     -10.959   9.018  73.109  1.00  0.00     0.000 HD 
HETATM   55  C   UNL     1      -7.923   6.427  73.740  1.00  0.00    -0.101 C  
HETATM   56  O   UNL     1      -8.338   8.723  74.443  1.00  0.00    -0.358 OA 
HETATM   57  H   UNL     1      -8.037   8.467  75.308  1.00  0.00     0.000 HD 
HETATM   58  C   UNL     1      -8.603   5.064  73.634  1.00  0.00    -0.104 C  
HETATM   59  O   UNL     1      -6.936   6.596  72.710  1.00  0.00    -0.074 OA 
ENDBRANCH  48  49
ENDBRANCH  43  48
ENDBRANCH  38  39
ENDBRANCH  30  38
ENDBRANCH  28  29
ENDBRANCH  18  28
TORSDOF 7
ENDMDL
MODEL        7
REMARK 921   NORMALIZED FREE ENERGY PREDICTED BY IDOCK:   -2.02 KCAL/MOL
REMARK 922        TOTAL FREE ENERGY PREDICTED BY IDOCK:   -2.67 KCAL/MOL
REMARK 923 INTER-LIGAND FREE ENERGY PREDICTED BY IDOCK:   -6.45 KCAL/MOL
REMARK 924 INTRA-LIGAND FREE ENERGY PREDICTED BY IDOCK:    3.78 KCAL/MOL
REMARK 927      BINDING AFFINITY PREDICTED BY RF-SCORE:    0.00 PKD
ROOT
HETATM    1  C   UNL     1      -9.669  17.595  69.103  1.00  0.00    -0.098 C  
HETATM    2  C   UNL     1      -8.238  17.121  68.915  1.00  0.00    -0.192 C  
HETATM    3  C   UNL     1     -10.547  16.139  69.386  1.00  0.00    -0.300 C  
HETATM    4  C   UNL     1      -8.520  15.899  68.053  1.00  0.00    -0.162 C  
HETATM    5  C   UNL     1     -11.927  16.521  68.812  1.00  0.00     0.433 C  
HETATM    6  C   UNL     1      -9.423  15.130  68.962  1.00  0.00    -0.221 C  
HETATM    7  C   UNL     1     -11.029  15.311  70.684  1.00  0.00    -0.318 C  
HETATM    8  C   UNL     1      -9.774  13.762  68.414  1.00  0.00    -0.219 C  
HETATM    9  O   UNL     1      -8.600  14.868  70.147  1.00  0.00    -0.272 OA 
HETATM   10  C   UNL     1     -11.526  13.767  70.261  1.00  0.00    -0.087 C  
HETATM   11  C   UNL     1     -10.474  12.884  69.454  1.00  0.00     0.340 C  
HETATM   12  C   UNL     1     -11.337  10.495  69.960  1.00  0.00    -0.392 C  
HETATM   13  C   UNL     1      -8.419  13.126  68.062  1.00  0.00    -0.181 C  
HETATM   14  H   UNL     1      -9.174  14.379  70.726  1.00  0.00     0.000 HD 
HETATM   15  C   UNL     1      -8.517  11.739  67.592  1.00  0.00    -0.149 C  
HETATM   16  C   UNL     1      -9.233  10.795  68.574  1.00  0.00    -0.174 C  
HETATM   17  C   UNL     1      -9.196   9.363  67.983  1.00  0.00    -0.137 C  
HETATM   18  C   UNL     1      -9.451   9.464  66.485  1.00  0.00    -0.190 C  
HETATM   19  C   UNL     1     -10.678  11.337  68.842  1.00  0.00    -0.246 C  
HETATM   20  C   UNL     1     -10.824  10.174  66.278  1.00  0.00     0.050 C  
HETATM   21  C   UNL     1     -11.462  11.087  67.471  1.00  0.00    -0.266 C  
ENDROOT
BRANCH   1  22
HETATM   22  C   UNL     1      -9.794  18.426  67.715  1.00  0.00    -0.336 C  
HETATM   23  C   UNL     1     -10.875  19.069  67.238  1.00  0.00    -0.494 C  
HETATM   24  O   UNL     1     -11.252  20.603  65.450  1.00  0.00     0.623 OA 
HETATM   25  C   UNL     1      -8.615  18.932  66.837  1.00  0.00    -0.291 C  
HETATM   26  O   UNL     1      -9.157  19.845  65.899  1.00  0.00    -0.338 OA 
HETATM   27  C   UNL     1     -10.494  19.924  66.102  1.00  0.00    -0.473 C  
ENDBRANCH   1  22
BRANCH  18  28
HETATM   28  O   UNL     1      -9.117   8.260  65.774  1.00  0.00    -0.176 OA 
BRANCH  28  29
HETATM   29  C   UNL     1      -8.555   7.173  66.561  1.00  0.00    -0.129 C  
HETATM   30  C   UNL     1      -9.911   4.720  67.597  1.00  0.00    -0.124 C  
HETATM   31  H   UNL     1     -11.747   5.564  69.319  1.00  0.00     0.000 HD 
HETATM   32  O   UNL     1     -10.966   6.106  69.303  1.00  0.00    -0.313 OA 
HETATM   33  C   UNL     1     -10.327   6.131  68.027  1.00  0.00    -0.199 C  
HETATM   34  C   UNL     1      -9.465   4.850  66.122  1.00  0.00    -0.161 C  
HETATM   35  C   UNL     1     -10.687   4.860  65.193  1.00  0.00     0.184 C  
HETATM   36  C   UNL     1      -9.074   7.001  68.002  1.00  0.00    -0.127 C  
HETATM   37  O   UNL     1      -8.573   5.940  65.807  1.00  0.00    -0.145 OA 
BRANCH  30  38
HETATM   38  O   UNL     1      -8.822   4.131  68.360  1.00  0.00    -0.095 OA 
BRANCH  38  39
HETATM   39  C   UNL     1      -8.381   4.855  69.518  1.00  0.00    -0.084 C  
HETATM   40  C   UNL     1      -9.094   4.430  70.806  1.00  0.00    -0.182 C  
HETATM   41  C   UNL     1      -8.418   3.231  71.450  1.00  0.00    -0.068 C  
HETATM   42  O   UNL     1      -9.051   2.877  72.682  1.00  0.00    -0.085 OA 
HETATM   43  C   UNL     1      -6.930   3.540  71.662  1.00  0.00    -0.031 C  
HETATM   44  C   UNL     1      -6.297   3.791  70.276  1.00  0.00    -0.027 C  
HETATM   45  H   UNL     1      -8.629   2.128  73.085  1.00  0.00     0.000 HD 
HETATM   46  O   UNL     1      -6.950   4.859  69.587  1.00  0.00    -0.050 OA 
HETATM   47  C   UNL     1      -6.198   2.565  69.375  1.00  0.00    -0.025 C  
BRANCH  43  48
HETATM   48  O   UNL     1      -6.684   4.752  72.412  1.00  0.00    -0.047 OA 
BRANCH  48  49
HETATM   49  C   UNL     1      -5.555   5.560  72.098  1.00  0.00    -0.018 C  
HETATM   50  C   UNL     1      -5.802   6.544  70.963  1.00  0.00    -0.027 C  
HETATM   51  C   UNL     1      -6.908   7.501  71.383  1.00  0.00    -0.050 C  
HETATM   52  C   UNL     1      -6.494   8.263  72.644  1.00  0.00    -0.086 C  
HETATM   53  O   UNL     1      -7.163   8.446  70.336  1.00  0.00    -0.036 OA 
HETATM   54  H   UNL     1      -7.853   9.044  70.598  1.00  0.00     0.000 HD 
HETATM   55  C   UNL     1      -6.012   7.308  73.749  1.00  0.00    -0.057 C  
HETATM   56  O   UNL     1      -5.439   9.179  72.298  1.00  0.00    -0.070 OA 
HETATM   57  H   UNL     1      -5.181   9.652  73.081  1.00  0.00     0.000 HD 
HETATM   58  C   UNL     1      -7.174   6.724  74.550  1.00  0.00    -0.099 C  
HETATM   59  O   UNL     1      -5.138   6.272  73.274  1.00  0.00    -0.030 OA 
ENDBRANCH  48  49
ENDBRANCH  43  48
ENDBRANCH  38  39
ENDBRANCH  30  38
ENDBRANCH  28  29
ENDBRANCH  18  28
TORSDOF 7
ENDMDL
MODEL        8
REMARK 921   NORMALIZED FREE ENERGY PREDICTED BY IDOCK:   -1.79 KCAL/MOL
REMARK 922        TOTAL FREE ENERGY PREDICTED BY IDOCK:   -2.35 KCAL/MOL
REMARK 923 INTER-LIGAND FREE ENERGY PREDICTED BY IDOCK:   -6.89 KCAL/MOL
REMARK 924 INTRA-LIGAND FREE ENERGY PREDICTED BY IDOCK:    4.54 KCAL/MOL
REMARK 927      BINDING AFFINITY PREDICTED BY RF-SCORE:    0.00 PKD
ROOT
HETATM    1  C   UNL     1      -8.904   4.303  70.361  1.00  0.00    -0.133 C  
HETATM    2  C   UNL     1      -7.429   4.616  70.546  1.00  0.00    -0.053 C  
HETATM    3  C   UNL     1      -9.356   5.260  69.000  1.00  0.00    -0.171 C  
HETATM    4  C   UNL     1      -7.488   6.117  70.312  1.00  0.00    -0.090 C  
HETATM    5  C   UNL     1     -10.841   5.528  69.320  1.00  0.00    -0.202 C  
HETATM    6  C   UNL     1      -8.068   6.153  68.935  1.00  0.00    -0.108 C  
HETATM    7  C   UNL     1      -9.474   5.025  67.408  1.00  0.00    -0.151 C  
HETATM    8  C   UNL     1      -8.124   7.555  68.362  1.00  0.00    -0.125 C  
HETATM    9  O   UNL     1      -7.083   5.442  68.113  1.00  0.00    -0.064 OA 
HETATM   10  C   UNL     1      -9.612   6.485  66.596  1.00  0.00    -0.201 C  
HETATM   11  C   UNL     1      -8.467   7.556  66.870  1.00  0.00    -0.122 C  
HETATM   12  C   UNL     1      -8.647   9.033  64.750  1.00  0.00    -0.201 C  
HETATM   13  C   UNL     1      -6.699   8.104  68.542  1.00  0.00    -0.063 C  
HETATM   14  H   UNL     1      -7.452   5.465  67.237  1.00  0.00     0.000 HD 
HETATM   15  C   UNL     1      -6.498   9.438  67.963  1.00  0.00    -0.062 C  
HETATM   16  C   UNL     1      -6.846   9.529  66.468  1.00  0.00    -0.083 C  
HETATM   17  C   UNL     1      -6.517  10.963  65.980  1.00  0.00    -0.089 C  
HETATM   18  C   UNL     1      -6.948  11.940  67.065  1.00  0.00    -0.116 C  
HETATM   19  C   UNL     1      -8.343   9.115  66.265  1.00  0.00    -0.121 C  
HETATM   20  C   UNL     1      -8.470  11.721  67.332  1.00  0.00    -0.158 C  
HETATM   21  C   UNL     1      -9.182  10.318  66.901  1.00  0.00    -0.171 C  
ENDROOT
BRANCH   1  22
HETATM   22  C   UNL     1      -9.381   4.664  71.869  1.00  0.00    -0.185 C  
HETATM   23  C   UNL     1      -9.639   5.881  72.380  1.00  0.00    -0.168 C  
HETATM   24  O   UNL     1     -10.643   6.669  74.396  1.00  0.00    -0.208 OA 
HETATM   25  C   UNL     1      -9.962   3.669  72.913  1.00  0.00    -0.148 C  
HETATM   26  O   UNL     1     -10.510   4.442  73.966  1.00  0.00    -0.197 OA 
HETATM   27  C   UNL     1     -10.310   5.751  73.683  1.00  0.00    -0.243 C  
ENDBRANCH   1  22
BRANCH  18  28
HETATM   28  O   UNL     1      -6.403  13.259  66.886  1.00  0.00     0.029 OA 
BRANCH  28  29
HETATM   29  C   UNL     1      -7.005  14.324  67.673  1.00  0.00    -0.184 C  
HETATM   30  C   UNL     1      -8.720  16.590  66.751  1.00  0.00    -0.226 C  
HETATM   31  H   UNL     1      -7.192  18.072  65.164  1.00  0.00     0.000 HD 
HETATM   32  O   UNL     1      -6.713  17.664  65.876  1.00  0.00    -0.259 OA 
HETATM   33  C   UNL     1      -7.271  16.414  66.284  1.00  0.00     0.221 C  
HETATM   34  C   UNL     1      -9.278  15.159  66.926  1.00  0.00    -0.238 C  
HETATM   35  C   UNL     1      -9.702  14.581  65.568  1.00  0.00    -0.232 C  
HETATM   36  C   UNL     1      -6.502  15.759  67.426  1.00  0.00    -0.193 C  
HETATM   37  O   UNL     1      -8.447  14.222  67.645  1.00  0.00    -0.157 OA 
BRANCH  30  38
HETATM   38  O   UNL     1      -8.888  17.309  68.005  1.00  0.00    -0.227 OA 
BRANCH  38  39
HETATM   39  C   UNL     1     -10.229  17.440  68.499  1.00  0.00    -0.369 C  
HETATM   40  C   UNL     1     -11.244  16.591  67.727  1.00  0.00    -0.097 C  
HETATM   41  C   UNL     1     -11.315  15.173  68.271  1.00  0.00    -0.327 C  
HETATM   42  O   UNL     1     -12.306  14.403  67.586  1.00  0.00    -0.619 OA 
HETATM   43  C   UNL     1     -11.594  15.220  69.779  1.00  0.00    -0.314 C  
HETATM   44  C   UNL     1     -10.419  15.961  70.454  1.00  0.00    -0.083 C  
HETATM   45  H   UNL     1     -12.350  13.517  67.926  1.00  0.00     0.000 HD 
HETATM   46  O   UNL     1     -10.253  17.277  69.922  1.00  0.00     0.076 OA 
HETATM   47  C   UNL     1      -9.089  15.217  70.444  1.00  0.00     0.939 C  
BRANCH  43  48
HETATM   48  O   UNL     1     -12.771  15.981  70.133  1.00  0.00    -0.244 OA 
BRANCH  48  49
HETATM   49  C   UNL     1     -13.976  15.304  70.472  1.00  0.00     0.382 C  
HETATM   50  C   UNL     1     -13.871  13.788  70.387  1.00  0.00     1.390 C  
HETATM   51  C   UNL     1     -12.822  13.316  71.384  1.00  0.00    -0.322 C  
HETATM   52  C   UNL     1     -13.224  13.726  72.803  1.00  0.00    -0.387 C  
HETATM   53  O   UNL     1     -12.702  11.890  71.333  1.00  0.00    -0.366 OA 
HETATM   54  H   UNL     1     -12.047  11.596  71.955  1.00  0.00     0.000 HD 
HETATM   55  C   UNL     1     -13.566  15.223  72.884  1.00  0.00    -0.487 C  
HETATM   56  O   UNL     1     -14.366  12.944  73.198  1.00  0.00     0.115 OA 
HETATM   57  H   UNL     1     -14.615  13.198  74.079  1.00  0.00     0.000 HD 
HETATM   58  C   UNL     1     -12.319  16.090  73.047  1.00  0.00    -0.625 C  
HETATM   59  O   UNL     1     -14.382  15.687  71.796  1.00  0.00    -0.448 OA 
ENDBRANCH  48  49
ENDBRANCH  43  48
ENDBRANCH  38  39
ENDBRANCH  30  38
ENDBRANCH  28  29
ENDBRANCH  18  28
TORSDOF 7
ENDMDL
MODEL        9
REMARK 921   NORMALIZED FREE ENERGY PREDICTED BY IDOCK:   -1.48 KCAL/MOL
REMARK 922        TOTAL FREE ENERGY PREDICTED BY IDOCK:   -1.91 KCAL/MOL
REMARK 923 INTER-LIGAND FREE ENERGY PREDICTED BY IDOCK:   -7.22 KCAL/MOL
REMARK 924 INTRA-LIGAND FREE ENERGY PREDICTED BY IDOCK:    5.31 KCAL/MOL
REMARK 927      BINDING AFFINITY PREDICTED BY RF-SCORE:    0.00 PKD
ROOT
HETATM    1  C   UNL     1      -9.148   3.582  66.381  1.00  0.00    -0.166 C  
HETATM    2  C   UNL     1      -9.446   4.310  65.081  1.00  0.00    -0.172 C  
HETATM    3  C   UNL     1      -9.229   4.825  67.573  1.00  0.00    -0.142 C  
HETATM    4  C   UNL     1      -8.615   5.559  65.331  1.00  0.00    -0.151 C  
HETATM    5  C   UNL     1      -8.230   4.285  68.617  1.00  0.00    -0.087 C  
HETATM    6  C   UNL     1      -9.240   6.052  66.596  1.00  0.00    -0.142 C  
HETATM    7  C   UNL     1     -10.358   5.400  68.571  1.00  0.00    -0.219 C  
HETATM    8  C   UNL     1      -8.692   7.396  67.031  1.00  0.00    -0.123 C  
HETATM    9  O   UNL     1     -10.636   6.307  66.229  1.00  0.00    -0.468 OA 
HETATM   10  C   UNL     1      -9.895   6.877  69.214  1.00  0.00    -0.159 C  
HETATM   11  C   UNL     1      -9.513   8.014  68.167  1.00  0.00    -0.152 C  
HETATM   12  C   UNL     1      -9.866  10.147  69.594  1.00  0.00    -0.254 C  
HETATM   13  C   UNL     1      -8.822   8.289  65.787  1.00  0.00    -0.194 C  
HETATM   14  H   UNL     1     -11.034   6.621  67.034  1.00  0.00     0.000 HD 
HETATM   15  C   UNL     1      -8.429   9.685  66.012  1.00  0.00    -0.131 C  
HETATM   16  C   UNL     1      -9.192  10.372  67.158  1.00  0.00    -0.159 C  
HETATM   17  C   UNL     1      -8.730  11.850  67.231  1.00  0.00    -0.171 C  
HETATM   18  C   UNL     1      -7.225  11.884  67.005  1.00  0.00    -0.118 C  
HETATM   19  C   UNL     1      -8.962   9.566  68.481  1.00  0.00    -0.128 C  
HETATM   20  C   UNL     1      -6.556  10.982  68.088  1.00  0.00    -0.058 C  
HETATM   21  C   UNL     1      -7.432   9.840  68.856  1.00  0.00    -0.075 C  
ENDROOT
BRANCH   1  22
HETATM   22  C   UNL     1      -7.743   2.912  65.924  1.00  0.00    -0.081 C  
HETATM   23  C   UNL     1      -7.464   2.305  64.757  1.00  0.00    -0.063 C  
HETATM   24  O   UNL     1      -5.462   1.545  63.704  1.00  0.00    -0.004 OA 
HETATM   25  C   UNL     1      -6.357   3.136  66.591  1.00  0.00    -0.032 C  
HETATM   26  O   UNL     1      -5.381   2.608  65.711  1.00  0.00    -0.008 OA 
HETATM   27  C   UNL     1      -6.014   2.091  64.631  1.00  0.00    -0.017 C  
ENDBRANCH   1  22
BRANCH  18  28
HETATM   28  O   UNL     1      -6.728  13.203  66.720  1.00  0.00     0.228 OA 
BRANCH  28  29
HETATM   29  C   UNL     1      -7.290  14.294  67.501  1.00  0.00    -0.179 C  
HETATM   30  C   UNL     1      -8.917  16.619  66.567  1.00  0.00    -0.277 C  
HETATM   31  H   UNL     1      -7.332  18.034  64.975  1.00  0.00     0.000 HD 
HETATM   32  O   UNL     1      -6.870  17.612  65.689  1.00  0.00    -0.305 OA 
HETATM   33  C   UNL     1      -7.475  16.386  66.102  1.00  0.00     0.244 C  
HETATM   34  C   UNL     1      -9.528  15.210  66.747  1.00  0.00    -0.242 C  
HETATM   35  C   UNL     1      -9.972  14.643  65.392  1.00  0.00    -0.365 C  
HETATM   36  C   UNL     1      -6.732  15.707  67.249  1.00  0.00    -0.167 C  
HETATM   37  O   UNL     1      -8.734  14.246  67.471  1.00  0.00    -0.177 OA 
BRANCH  30  38
HETATM   38  O   UNL     1      -9.059  17.349  67.817  1.00  0.00    -0.238 OA 
BRANCH  38  39
HETATM   39  C   UNL     1     -10.385  17.453  68.356  1.00  0.00    -0.379 C  
HETATM   40  C   UNL     1     -11.399  16.548  67.649  1.00  0.00     0.070 C  
HETATM   41  C   UNL     1     -11.402  15.146  68.237  1.00  0.00    -0.327 C  
HETATM   42  O   UNL     1     -12.391  14.324  67.614  1.00  0.00    -0.598 OA 
HETATM   43  C   UNL     1     -11.628  15.231  69.752  1.00  0.00    -0.314 C  
HETATM   44  C   UNL     1     -10.455  16.030  70.361  1.00  0.00    -0.009 C  
HETATM   45  H   UNL     1     -12.394  13.448  67.981  1.00  0.00     0.000 HD 
HETATM   46  O   UNL     1     -10.352  17.334  69.783  1.00  0.00    -0.093 OA 
HETATM   47  C   UNL     1      -9.101  15.329  70.323  1.00  0.00     0.692 C  
BRANCH  43  48
HETATM   48  O   UNL     1     -12.816  15.965  70.128  1.00  0.00    -0.285 OA 
BRANCH  48  49
HETATM   49  C   UNL     1     -13.986  15.260  70.526  1.00  0.00     0.382 C  
HETATM   50  C   UNL     1     -13.882  13.752  70.352  1.00  0.00     1.390 C  
HETATM   51  C   UNL     1     -12.753  13.237  71.233  1.00  0.00    -0.323 C  
HETATM   52  C   UNL     1     -13.039  13.567  72.700  1.00  0.00    -0.298 C  
HETATM   53  O   UNL     1     -12.631  11.816  71.096  1.00  0.00    -0.378 OA 
HETATM   54  H   UNL     1     -11.927  11.495  71.646  1.00  0.00     0.000 HD 
HETATM   55  C   UNL     1     -13.380  15.055  72.889  1.00  0.00    -0.485 C  
HETATM   56  O   UNL     1     -14.142  12.755  73.144  1.00  0.00    -0.194 OA 
HETATM   57  H   UNL     1     -14.320  12.960  74.055  1.00  0.00     0.000 HD 
HETATM   58  C   UNL     1     -12.128  15.922  72.996  1.00  0.00    -0.615 C  
HETATM   59  O   UNL     1     -14.284  15.569  71.897  1.00  0.00    -0.503 OA 
ENDBRANCH  48  49
ENDBRANCH  43  48
ENDBRANCH  38  39
ENDBRANCH  30  38
ENDBRANCH  28  29
ENDBRANCH  18  28
TORSDOF 7
ENDMDL
MODEL       10
REMARK 921   NORMALIZED FREE ENERGY PREDICTED BY IDOCK:   -1.42 KCAL/MOL
REMARK 922        TOTAL FREE ENERGY PREDICTED BY IDOCK:   -1.82 KCAL/MOL
REMARK 923 INTER-LIGAND FREE ENERGY PREDICTED BY IDOCK:   -5.98 KCAL/MOL
REMARK 924 INTRA-LIGAND FREE ENERGY PREDICTED BY IDOCK:    4.16 KCAL/MOL
REMARK 927      BINDING AFFINITY PREDICTED BY RF-SCORE:    0.00 PKD
ROOT
HETATM    1  C   UNL     1      -8.034   3.575  68.329  1.00  0.00    -0.072 C  
HETATM    2  C   UNL     1      -6.827   3.837  67.444  1.00  0.00    -0.054 C  
HETATM    3  C   UNL     1      -9.026   4.964  68.086  1.00  0.00    -0.123 C  
HETATM    4  C   UNL     1      -6.635   5.312  67.760  1.00  0.00    -0.053 C  
HETATM    5  C   UNL     1      -9.740   5.047  69.451  1.00  0.00    -0.254 C  
HETATM    6  C   UNL     1      -7.965   5.852  67.347  1.00  0.00    -0.102 C  
HETATM    7  C   UNL     1     -10.263   5.351  67.125  1.00  0.00    -0.266 C  
HETATM    8  C   UNL     1      -8.030   7.364  67.424  1.00  0.00    -0.112 C  
HETATM    9  O   UNL     1      -8.051   5.538  65.917  1.00  0.00    -0.104 OA 
HETATM   10  C   UNL     1     -10.533   7.005  67.131  1.00  0.00    -0.383 C  
HETATM   11  C   UNL     1      -9.288   7.924  66.755  1.00  0.00    -0.232 C  
HETATM   12  C   UNL     1     -10.482  10.092  65.989  1.00  0.00    -0.145 C  
HETATM   13  C   UNL     1      -6.799   7.846  66.639  1.00  0.00    -0.071 C  
HETATM   14  H   UNL     1      -8.897   5.881  65.654  1.00  0.00     0.000 HD 
HETATM   15  C   UNL     1      -6.710   9.304  66.504  1.00  0.00    -0.072 C  
HETATM   16  C   UNL     1      -7.952   9.948  65.862  1.00  0.00    -0.115 C  
HETATM   17  C   UNL     1      -7.688  11.469  65.717  1.00  0.00     0.454 C  
HETATM   18  C   UNL     1      -6.978  11.946  66.976  1.00  0.00    -0.116 C  
HETATM   19  C   UNL     1      -9.213   9.599  66.723  1.00  0.00    -0.181 C  
HETATM   20  C   UNL     1      -7.881  11.597  68.200  1.00  0.00    -0.133 C  
HETATM   21  C   UNL     1      -9.027  10.444  68.068  1.00  0.00    -0.129 C  
ENDROOT
BRANCH   1  22
HETATM   22  C   UNL     1      -7.225   3.320  69.711  1.00  0.00    -0.041 C  
HETATM   23  C   UNL     1      -7.627   2.608  70.779  1.00  0.00    -0.036 C  
HETATM   24  O   UNL     1      -6.553   1.807  72.754  1.00  0.00    -0.016 OA 
HETATM   25  C   UNL     1      -5.705   3.553  69.943  1.00  0.00    -0.018 C  
HETATM   26  O   UNL     1      -5.372   2.935  71.174  1.00  0.00    -0.004 OA 
HETATM   27  C   UNL     1      -6.496   2.390  71.696  1.00  0.00    -0.018 C  
ENDBRANCH   1  22
BRANCH  18  28
HETATM   28  O   UNL     1      -6.386  13.249  66.831  1.00  0.00     0.029 OA 
BRANCH  28  29
HETATM   29  C   UNL     1      -6.980  14.323  67.612  1.00  0.00    -0.184 C  
HETATM   30  C   UNL     1      -8.940  16.404  66.744  1.00  0.00    -0.236 C  
HETATM   31  H   UNL     1      -7.694  17.871  64.915  1.00  0.00     0.000 HD 
HETATM   32  O   UNL     1      -7.117  17.545  65.594  1.00  0.00    -0.367 OA 
HETATM   33  C   UNL     1      -7.538  16.292  66.135  1.00  0.00     0.284 C  
HETATM   34  C   UNL     1      -9.372  14.954  67.064  1.00  0.00    -0.227 C  
HETATM   35  C   UNL     1      -9.890  14.259  65.797  1.00  0.00    -0.314 C  
HETATM   36  C   UNL     1      -6.610  15.768  67.226  1.00  0.00    -0.169 C  
HETATM   37  O   UNL     1      -8.405  14.125  67.745  1.00  0.00    -0.149 OA 
BRANCH  30  38
HETATM   38  O   UNL     1      -9.029  17.194  67.963  1.00  0.00    -0.223 OA 
BRANCH  38  39
HETATM   39  C   UNL     1     -10.337  17.361  68.529  1.00  0.00    -0.378 C  
HETATM   40  C   UNL     1     -11.410  16.516  67.833  1.00  0.00    -0.049 C  
HETATM   41  C   UNL     1     -11.475  15.111  68.409  1.00  0.00    -0.332 C  
HETATM   42  O   UNL     1     -12.517  14.347  67.797  1.00  0.00    -0.588 OA 
HETATM   43  C   UNL     1     -11.668  15.193  69.929  1.00  0.00    -0.315 C  
HETATM   44  C   UNL     1     -10.443  15.924  70.521  1.00  0.00     0.031 C  
HETATM   45  H   UNL     1     -12.558  13.469  68.157  1.00  0.00     0.000 HD 
HETATM   46  O   UNL     1     -10.284  17.226  69.953  1.00  0.00     0.076 OA 
HETATM   47  C   UNL     1      -9.129  15.155  70.451  1.00  0.00     0.957 C  
BRANCH  43  48
HETATM   48  O   UNL     1     -12.809  15.983  70.333  1.00  0.00    -0.313 OA 
BRANCH  48  49
HETATM   49  C   UNL     1     -14.003  15.336  70.758  1.00  0.00    -0.009 C  
HETATM   50  C   UNL     1     -14.028  13.843  70.464  1.00  0.00     1.202 C  
HETATM   51  C   UNL     1     -12.889  13.178  71.225  1.00  0.00    -0.296 C  
HETATM   52  C   UNL     1     -13.056  13.410  72.729  1.00  0.00    -0.072 C  
HETATM   53  O   UNL     1     -12.888  11.768  70.973  1.00  0.00    -0.309 OA 
HETATM   54  H   UNL     1     -12.177  11.353  71.448  1.00  0.00     0.000 HD 
HETATM   55  C   UNL     1     -13.267  14.899  73.051  1.00  0.00    -0.494 C  
HETATM   56  O   UNL     1     -14.189  12.648  73.185  1.00  0.00    -0.018 OA 
HETATM   57  H   UNL     1     -14.292  12.792  74.119  1.00  0.00     0.000 HD 
HETATM   58  C   UNL     1     -11.946  15.661  73.136  1.00  0.00    -0.584 C  
HETATM   59  O   UNL     1     -14.189  15.555  72.165  1.00  0.00    -0.530 OA 
ENDBRANCH  48  49
ENDBRANCH  43  48
ENDBRANCH  38  39
ENDBRANCH  30  38
ENDBRANCH  28  29
ENDBRANCH  18  28
TORSDOF 7
ENDMDL
MODEL       11
REMARK 921   NORMALIZED FREE ENERGY PREDICTED BY IDOCK:    0.57 KCAL/MOL
REMARK 922        TOTAL FREE ENERGY PREDICTED BY IDOCK:    0.97 KCAL/MOL
REMARK 923 INTER-LIGAND FREE ENERGY PREDICTED BY IDOCK:   -5.57 KCAL/MOL
REMARK 924 INTRA-LIGAND FREE ENERGY PREDICTED BY IDOCK:    6.54 KCAL/MOL
REMARK 927      BINDING AFFINITY PREDICTED BY RF-SCORE:    0.00 PKD
ROOT
HETATM    1  C   UNL     1      -9.410   5.692  70.529  1.00  0.00    -0.194 C  
HETATM    2  C   UNL     1      -8.595   6.888  70.994  1.00  0.00    -0.135 C  
HETATM    3  C   UNL     1      -9.366   5.812  68.810  1.00  0.00    -0.135 C  
HETATM    4  C   UNL     1      -9.136   7.919  70.016  1.00  0.00    -0.152 C  
HETATM    5  C   UNL     1     -10.716   5.162  68.444  1.00  0.00     0.138 C  
HETATM    6  C   UNL     1      -8.789   7.268  68.716  1.00  0.00    -0.127 C  
HETATM    7  C   UNL     1      -8.456   5.198  67.629  1.00  0.00    -0.105 C  
HETATM    8  C   UNL     1      -9.095   8.149  67.522  1.00  0.00    -0.147 C  
HETATM    9  O   UNL     1      -7.327   7.161  68.749  1.00  0.00    -0.091 OA 
HETATM   10  C   UNL     1      -8.710   6.016  66.188  1.00  0.00    -0.146 C  
HETATM   11  C   UNL     1      -8.499   7.594  66.226  1.00  0.00    -0.140 C  
HETATM   12  C   UNL     1      -8.054   8.098  63.724  1.00  0.00    -0.112 C  
HETATM   13  C   UNL     1      -8.413   9.489  67.844  1.00  0.00    -0.119 C  
HETATM   14  H   UNL     1      -7.105   6.747  67.922  1.00  0.00     0.000 HD 
HETATM   15  C   UNL     1      -8.504  10.479  66.764  1.00  0.00    -0.127 C  
HETATM   16  C   UNL     1      -7.948   9.986  65.417  1.00  0.00    -0.141 C  
HETATM   17  C   UNL     1      -8.042  11.151  64.399  1.00  0.00     0.573 C  
HETATM   18  C   UNL     1      -9.370  11.862  64.618  1.00  0.00     0.182 C  
HETATM   19  C   UNL     1      -8.725   8.697  64.984  1.00  0.00    -0.154 C  
HETATM   20  C   UNL     1     -10.511  10.812  64.449  1.00  0.00    -0.344 C  
HETATM   21  C   UNL     1     -10.186   9.220  64.597  1.00  0.00     1.772 C  
ENDROOT
BRANCH   1  22
HETATM   22  C   UNL     1     -10.750   6.011  71.386  1.00  0.00    -0.314 C  
HETATM   23  C   UNL     1     -11.827   6.715  70.994  1.00  0.00    -0.427 C  
HETATM   24  O   UNL     1     -14.014   7.057  71.885  1.00  0.00    -0.305 OA 
HETATM   25  C   UNL     1     -11.203   5.290  72.687  1.00  0.00    -0.248 C  
HETATM   26  O   UNL     1     -12.546   5.672  72.928  1.00  0.00     0.159 OA 
HETATM   27  C   UNL     1     -12.928   6.531  71.953  1.00  0.00    -0.003 C  
ENDBRANCH   1  22
BRANCH  18  28
HETATM   28  O   UNL     1      -9.435  13.146  63.974  1.00  0.00     0.299 OA 
BRANCH  28  29
HETATM   29  C   UNL     1      -9.979  14.242  64.762  1.00  0.00     0.026 C  
HETATM   30  C   UNL     1     -11.276  14.148  67.451  1.00  0.00    -0.318 C  
HETATM   31  H   UNL     1     -13.498  12.726  67.148  1.00  0.00     0.000 HD 
HETATM   32  O   UNL     1     -13.271  13.240  66.382  1.00  0.00     0.357 OA 
HETATM   33  C   UNL     1     -11.864  13.431  66.231  1.00  0.00    -0.394 C  
HETATM   34  C   UNL     1      -9.741  14.073  67.279  1.00  0.00    -0.237 C  
HETATM   35  C   UNL     1      -9.219  12.702  67.732  1.00  0.00    -0.195 C  
HETATM   36  C   UNL     1     -11.500  14.257  65.001  1.00  0.00    -0.364 C  
HETATM   37  O   UNL     1      -9.218  14.417  65.978  1.00  0.00    -0.190 OA 
BRANCH  30  38
HETATM   38  O   UNL     1     -11.659  15.544  67.598  1.00  0.00    -0.274 OA 
BRANCH  38  39
HETATM   39  C   UNL     1     -10.859  16.341  68.484  1.00  0.00    -0.330 C  
HETATM   40  C   UNL     1      -9.452  15.777  68.704  1.00  0.00    -0.208 C  
HETATM   41  C   UNL     1      -8.490  16.237  67.621  1.00  0.00    -0.168 C  
HETATM   42  O   UNL     1      -7.166  15.756  67.864  1.00  0.00    -0.122 OA 
HETATM   43  C   UNL     1      -8.515  17.769  67.536  1.00  0.00    -0.227 C  
HETATM   44  C   UNL     1      -9.949  18.196  67.152  1.00  0.00    -0.336 C  
HETATM   45  H   UNL     1      -6.564  16.044  67.187  1.00  0.00     0.000 HD 
HETATM   46  O   UNL     1     -10.910  17.719  68.096  1.00  0.00    -0.329 OA 
HETATM   47  C   UNL     1     -10.378  17.835  65.735  1.00  0.00    -0.190 C  
BRANCH  43  48
HETATM   48  O   UNL     1      -8.251  18.430  68.794  1.00  0.00    -0.301 OA 
BRANCH  48  49
HETATM   49  C   UNL     1      -6.970  19.000  69.037  1.00  0.00    -0.319 C  
HETATM   50  C   UNL     1      -5.918  18.604  68.012  1.00  0.00    -0.195 C  
HETATM   51  C   UNL     1      -6.357  19.111  66.645  1.00  0.00    -0.186 C  
HETATM   52  C   UNL     1      -6.503  20.635  66.671  1.00  0.00    -0.256 C  
HETATM   53  O   UNL     1      -5.383  18.758  65.654  1.00  0.00    -0.143 OA 
HETATM   54  H   UNL     1      -5.658  19.074  64.802  1.00  0.00     0.000 HD 
HETATM   55  C   UNL     1      -7.381  21.098  67.846  1.00  0.00     0.152 C  
HETATM   56  O   UNL     1      -5.191  21.217  66.785  1.00  0.00    -0.185 OA 
HETATM   57  H   UNL     1      -5.282  22.163  66.802  1.00  0.00     0.000 HD 
HETATM   58  C   UNL     1      -8.870  21.017  67.517  1.00  0.00    -0.014 C  
HETATM   59  O   UNL     1      -7.086  20.431  69.084  1.00  0.00    -0.074 OA 
ENDBRANCH  48  49
ENDBRANCH  43  48
ENDBRANCH  38  39
ENDBRANCH  30  38
ENDBRANCH  28  29
ENDBRANCH  18  28
TORSDOF 7
ENDMDL
MODEL       12
REMARK 921   NORMALIZED FREE ENERGY PREDICTED BY IDOCK:    4.63 KCAL/MOL
REMARK 922        TOTAL FREE ENERGY PREDICTED BY IDOCK:    6.70 KCAL/MOL
REMARK 923 INTER-LIGAND FREE ENERGY PREDICTED BY IDOCK:   -0.43 KCAL/MOL
REMARK 924 INTRA-LIGAND FREE ENERGY PREDICTED BY IDOCK:    7.13 KCAL/MOL
REMARK 927      BINDING AFFINITY PREDICTED BY RF-SCORE:    0.00 PKD
ROOT
HETATM    1  C   UNL     1      -9.456   6.126  71.633  1.00  0.00    -0.160 C  
HETATM    2  C   UNL     1      -9.297   6.561  70.186  1.00  0.00    -0.162 C  
HETATM    3  C   UNL     1     -10.659   7.197  72.250  1.00  0.00    -0.244 C  
HETATM    4  C   UNL     1      -9.329   8.066  70.400  1.00  0.00    -0.158 C  
HETATM    5  C   UNL     1     -10.241   7.271  73.733  1.00  0.00    -0.370 C  
HETATM    6  C   UNL     1     -10.662   8.217  71.058  1.00  0.00    -0.217 C  
HETATM    7  C   UNL     1     -12.261   7.156  72.435  1.00  0.00    -0.085 C  
HETATM    8  C   UNL     1     -11.042   9.667  71.279  1.00  0.00    -0.426 C  
HETATM    9  O   UNL     1     -11.613   7.720  70.058  1.00  0.00    -0.477 OA 
HETATM   10  C   UNL     1     -12.867   8.685  72.756  1.00  0.00    -0.126 C  
HETATM   11  C   UNL     1     -12.504   9.823  71.704  1.00  0.00    -0.500 C  
HETATM   12  C   UNL     1     -14.402  11.531  72.143  1.00  0.00     1.339 C  
HETATM   13  C   UNL     1     -10.854  10.331  69.905  1.00  0.00    -0.355 C  
HETATM   14  H   UNL     1     -12.461   7.816  70.476  1.00  0.00     0.000 HD 
HETATM   15  C   UNL     1     -11.260  11.741  69.864  1.00  0.00    -0.093 C  
HETATM   16  C   UNL     1     -12.714  11.985  70.303  1.00  0.00     0.079 C  
HETATM   17  C   UNL     1     -13.022  13.496  70.139  1.00  0.00     0.243 C  
HETATM   18  C   UNL     1     -11.800  14.278  70.599  1.00  0.00    -0.281 C  
HETATM   19  C   UNL     1     -12.904  11.450  71.763  1.00  0.00    -0.449 C  
HETATM   20  C   UNL     1     -11.498  13.874  72.076  1.00  0.00     1.815 C  
HETATM   21  C   UNL     1     -12.078  12.472  72.675  1.00  0.00     3.280 C  
ENDROOT
BRANCH   1  22
HETATM   22  C   UNL     1      -7.895   6.242  72.056  1.00  0.00    -0.097 C  
HETATM   23  C   UNL     1      -7.374   6.200  73.295  1.00  0.00    -0.088 C  
HETATM   24  O   UNL     1      -5.163   6.016  74.174  1.00  0.00    -0.034 OA 
HETATM   25  C   UNL     1      -6.671   6.082  71.110  1.00  0.00    -0.058 C  
HETATM   26  O   UNL     1      -5.523   5.967  71.930  1.00  0.00    -0.020 OA 
HETATM   27  C   UNL     1      -5.911   6.056  73.225  1.00  0.00    -0.053 C  
ENDBRANCH   1  22
BRANCH  18  28
HETATM   28  O   UNL     1     -11.827  15.657  70.193  1.00  0.00    -0.320 OA 
BRANCH  28  29
HETATM   29  C   UNL     1     -11.730  15.916  68.765  1.00  0.00    -0.349 C  
HETATM   30  C   UNL     1      -9.594  17.378  67.271  1.00  0.00    -0.258 C  
HETATM   31  H   UNL     1      -9.676  19.887  68.135  1.00  0.00     0.000 HD 
HETATM   32  O   UNL     1     -10.528  19.467  68.114  1.00  0.00    -0.411 OA 
HETATM   33  C   UNL     1     -10.464  18.057  68.335  1.00  0.00    -0.315 C  
HETATM   34  C   UNL     1      -9.405  15.922  67.756  1.00  0.00    -0.207 C  
HETATM   35  C   UNL     1      -8.300  15.852  68.819  1.00  0.00    -0.206 C  
HETATM   36  C   UNL     1     -11.831  17.382  68.302  1.00  0.00     1.516 C  
HETATM   37  O   UNL     1     -10.590  15.228  68.202  1.00  0.00    -0.244 OA 
BRANCH  30  38
HETATM   38  O   UNL     1     -10.157  17.350  65.930  1.00  0.00    -0.500 OA 
BRANCH  38  39
HETATM   39  C   UNL     1      -9.665  16.333  65.045  1.00  0.00     0.903 C  
HETATM   40  C   UNL     1      -8.821  15.269  65.755  1.00  0.00     0.381 C  
HETATM   41  C   UNL     1      -9.689  14.167  66.340  1.00  0.00    -0.298 C  
HETATM   42  O   UNL     1      -8.893  13.147  66.948  1.00  0.00    -0.249 OA 
HETATM   43  C   UNL     1     -10.585  13.586  65.237  1.00  0.00    -0.328 C  
HETATM   44  C   UNL     1     -11.494  14.722  64.720  1.00  0.00    -0.410 C  
HETATM   45  H   UNL     1      -9.435  12.458  67.314  1.00  0.00     0.000 HD 
HETATM   46  O   UNL     1     -10.728  15.825  64.231  1.00  0.00    -0.225 OA 
HETATM   47  C   UNL     1     -12.550  15.209  65.704  1.00  0.00     0.597 C  
BRANCH  43  48
HETATM   48  O   UNL     1      -9.859  13.127  64.074  1.00  0.00    -0.209 OA 
BRANCH  48  49
HETATM   49  C   UNL     1     -10.407  12.096  63.261  1.00  0.00    -0.311 C  
HETATM   50  C   UNL     1      -9.393  11.441  62.334  1.00  0.00     0.004 C  
HETATM   51  C   UNL     1      -8.312  10.785  63.182  1.00  0.00    -0.053 C  
HETATM   52  C   UNL     1      -8.932   9.726  64.097  1.00  0.00    -0.239 C  
HETATM   53  O   UNL     1      -7.341  10.154  62.339  1.00  0.00    -0.122 OA 
HETATM   54  H   UNL     1      -6.667   9.745  62.868  1.00  0.00     0.000 HD 
HETATM   55  C   UNL     1     -10.123  10.291  64.890  1.00  0.00    -0.276 C  
HETATM   56  O   UNL     1      -9.369   8.621  63.285  1.00  0.00     0.010 OA 
HETATM   57  H   UNL     1      -9.754   7.963  63.853  1.00  0.00     0.000 HD 
HETATM   58  C   UNL     1      -9.675  11.035  66.147  1.00  0.00    -0.257 C  
HETATM   59  O   UNL     1     -11.011  11.098  64.099  1.00  0.00    -0.358 OA 
ENDBRANCH  48  49
ENDBRANCH  43  48
ENDBRANCH  38  39
ENDBRANCH  30  38
ENDBRANCH  28  29
ENDBRANCH  18  28
TORSDOF 7
ENDMDL
MODEL       13
REMARK 921   NORMALIZED FREE ENERGY PREDICTED BY IDOCK:    4.88 KCAL/MOL
REMARK 922        TOTAL FREE ENERGY PREDICTED BY IDOCK:    7.06 KCAL/MOL
REMARK 923 INTER-LIGAND FREE ENERGY PREDICTED BY IDOCK:   -7.86 KCAL/MOL
REMARK 924 INTRA-LIGAND FREE ENERGY PREDICTED BY IDOCK:   14.92 KCAL/MOL
REMARK 927      BINDING AFFINITY PREDICTED BY RF-SCORE:    0.00 PKD
ROOT
HETATM    1  C   UNL     1      -7.230  18.658  68.779  1.00  0.00    -0.330 C  
HETATM    2  C   UNL     1      -6.163  17.587  68.926  1.00  0.00    -0.201 C  
HETATM    3  C   UNL     1      -8.705  17.765  68.758  1.00  0.00    -0.201 C  
HETATM    4  C   UNL     1      -6.740  16.565  67.958  1.00  0.00    -0.147 C  
HETATM    5  C   UNL     1      -9.581  18.683  67.880  1.00  0.00    -0.340 C  
HETATM    6  C   UNL     1      -8.083  16.338  68.572  1.00  0.00    -0.193 C  
HETATM    7  C   UNL     1      -9.807  17.324  69.850  1.00  0.00     0.697 C  
HETATM    8  C   UNL     1      -8.861  15.236  67.881  1.00  0.00    -0.165 C  
HETATM    9  O   UNL     1      -7.782  15.814  69.908  1.00  0.00    -0.040 OA 
HETATM   10  C   UNL     1     -10.819  16.137  69.235  1.00  0.00    -0.310 C  
HETATM   11  C   UNL     1     -10.110  14.829  68.668  1.00  0.00    -0.238 C  
HETATM   12  C   UNL     1     -12.042  13.110  68.816  1.00  0.00    -0.226 C  
HETATM   13  C   UNL     1      -7.892  14.043  67.843  1.00  0.00    -0.161 C  
HETATM   14  H   UNL     1      -8.636  15.670  70.299  1.00  0.00     0.000 HD 
HETATM   15  C   UNL     1      -8.479  12.816  67.290  1.00  0.00    -0.194 C  
HETATM   16  C   UNL     1      -9.756  12.354  68.012  1.00  0.00    -0.210 C  
HETATM   17  C   UNL     1     -10.219  11.020  67.373  1.00  0.00    -0.229 C  
HETATM   18  C   UNL     1     -10.026  11.127  65.867  1.00  0.00    -0.239 C  
HETATM   19  C   UNL     1     -10.825  13.498  67.942  1.00  0.00    -0.262 C  
HETATM   20  C   UNL     1     -10.841  12.358  65.364  1.00  0.00    -0.320 C  
HETATM   21  C   UNL     1     -11.275  13.534  66.408  1.00  0.00    -0.322 C  
ENDROOT
BRANCH   1  22
HETATM   22  C   UNL     1      -6.628  19.367  67.450  1.00  0.00    -0.210 C  
HETATM   23  C   UNL     1      -7.004  19.172  66.173  1.00  0.00    -0.266 C  
HETATM   24  O   UNL     1      -6.546  20.277  64.109  1.00  0.00    -0.226 OA 
HETATM   25  C   UNL     1      -5.747  20.648  67.409  1.00  0.00    -0.199 C  
HETATM   26  O   UNL     1      -5.695  21.074  66.059  1.00  0.00    -0.213 OA 
HETATM   27  C   UNL     1      -6.412  20.205  65.308  1.00  0.00    -0.278 C  
ENDBRANCH   1  22
BRANCH  18  28
HETATM   28  O   UNL     1     -10.101   9.857  65.197  1.00  0.00    -0.309 OA 
BRANCH  28  29
HETATM   29  C   UNL     1      -8.972   8.957  65.380  1.00  0.00    -0.182 C  
HETATM   30  C   UNL     1      -6.052   9.588  65.341  1.00  0.00    -0.066 C  
HETATM   31  H   UNL     1      -5.511  10.422  62.879  1.00  0.00     0.000 HD 
HETATM   32  O   UNL     1      -6.190   9.758  62.912  1.00  0.00    -0.101 OA 
HETATM   33  C   UNL     1      -6.953   9.796  64.119  1.00  0.00    -0.123 C  
HETATM   34  C   UNL     1      -6.940   9.893  66.569  1.00  0.00    -0.090 C  
HETATM   35  C   UNL     1      -7.035  11.408  66.797  1.00  0.00    -0.128 C  
HETATM   36  C   UNL     1      -8.043   8.731  64.172  1.00  0.00    -0.162 C  
HETATM   37  O   UNL     1      -8.251   9.289  66.588  1.00  0.00    -0.113 OA 
BRANCH  30  38
HETATM   38  O   UNL     1      -5.501   8.250  65.489  1.00  0.00    -0.032 OA 
BRANCH  38  39
HETATM   39  C   UNL     1      -6.075   7.425  66.514  1.00  0.00    -0.040 C  
HETATM   40  C   UNL     1      -7.593   7.268  66.385  1.00  0.00    -0.092 C  
HETATM   41  C   UNL     1      -7.959   6.134  65.440  1.00  0.00    -0.116 C  
HETATM   42  O   UNL     1      -9.375   5.953  65.370  1.00  0.00    -0.365 OA 
HETATM   43  C   UNL     1      -7.258   4.847  65.896  1.00  0.00    -0.076 C  
HETATM   44  C   UNL     1      -5.734   5.089  65.827  1.00  0.00    -0.018 C  
HETATM   45  H   UNL     1      -9.604   5.244  64.780  1.00  0.00     0.000 HD 
HETATM   46  O   UNL     1      -5.342   6.201  66.635  1.00  0.00    -0.008 OA 
HETATM   47  C   UNL     1      -5.161   5.231  64.422  1.00  0.00    -0.010 C  
BRANCH  43  48
HETATM   48  O   UNL     1      -7.520   4.493  67.273  1.00  0.00    -0.076 OA 
BRANCH  48  49
HETATM   49  C   UNL     1      -6.497   4.650  68.250  1.00  0.00    -0.038 C  
HETATM   50  C   UNL     1      -6.415   6.053  68.833  1.00  0.00    -0.049 C  
HETATM   51  C   UNL     1      -7.728   6.363  69.538  1.00  0.00    -0.100 C  
HETATM   52  C   UNL     1      -7.973   5.352  70.661  1.00  0.00    -0.105 C  
HETATM   53  O   UNL     1      -7.683   7.679  70.104  1.00  0.00    -0.088 OA 
HETATM   54  H   UNL     1      -8.502   7.872  70.544  1.00  0.00     0.000 HD 
HETATM   55  C   UNL     1      -7.835   3.905  70.159  1.00  0.00    -0.048 C  
HETATM   56  O   UNL     1      -7.020   5.596  71.711  1.00  0.00    -0.071 OA 
HETATM   57  H   UNL     1      -7.172   4.969  72.409  1.00  0.00     0.000 HD 
HETATM   58  C   UNL     1      -9.117   3.401  69.500  1.00  0.00    -0.202 C  
HETATM   59  O   UNL     1      -6.697   3.698  69.307  1.00  0.00    -0.036 OA 
ENDBRANCH  48  49
ENDBRANCH  43  48
ENDBRANCH  38  39
ENDBRANCH  30  38
ENDBRANCH  28  29
ENDBRANCH  18  28
TORSDOF 7
ENDMDL
MODEL       14
REMARK 921   NORMALIZED FREE ENERGY PREDICTED BY IDOCK:    9.54 KCAL/MOL
REMARK 922        TOTAL FREE ENERGY PREDICTED BY IDOCK:   13.63 KCAL/MOL
REMARK 923 INTER-LIGAND FREE ENERGY PREDICTED BY IDOCK:    2.67 KCAL/MOL
REMARK 924 INTRA-LIGAND FREE ENERGY PREDICTED BY IDOCK:   10.96 KCAL/MOL
REMARK 927      BINDING AFFINITY PREDICTED BY RF-SCORE:    0.00 PKD
ROOT
HETATM    1  C   UNL     1      -8.536   4.450  63.142  1.00  0.00    -0.112 C  
HETATM    2  C   UNL     1      -7.819   4.129  64.443  1.00  0.00    -0.085 C  
HETATM    3  C   UNL     1      -8.726   6.163  63.193  1.00  0.00     0.400 C  
HETATM    4  C   UNL     1      -8.600   5.057  65.362  1.00  0.00    -0.143 C  
HETATM    5  C   UNL     1     -10.023   6.330  62.375  1.00  0.00     2.494 C  
HETATM    6  C   UNL     1      -8.344   6.372  64.700  1.00  0.00    -0.009 C  
HETATM    7  C   UNL     1      -7.906   7.436  62.637  1.00  0.00    -0.132 C  
HETATM    8  C   UNL     1      -8.904   7.539  65.487  1.00  0.00    -0.012 C  
HETATM    9  O   UNL     1      -6.888   6.528  64.765  1.00  0.00    -0.047 OA 
HETATM   10  C   UNL     1      -8.437   8.853  63.358  1.00  0.00    -0.150 C  
HETATM   11  C   UNL     1      -8.415   8.887  64.950  1.00  0.00    -0.195 C  
HETATM   12  C   UNL     1      -8.355  11.438  65.394  1.00  0.00     0.302 C  
HETATM   13  C   UNL     1      -8.353   7.347  66.910  1.00  0.00    -0.122 C  
HETATM   14  H   UNL     1      -6.725   7.365  64.344  1.00  0.00     0.000 HD 
HETATM   15  C   UNL     1      -8.699   8.432  67.835  1.00  0.00    -0.138 C  
HETATM   16  C   UNL     1      -8.263   9.827  67.352  1.00  0.00    -0.114 C  
HETATM   17  C   UNL     1      -8.625  10.856  68.454  1.00  0.00    -0.146 C  
HETATM   18  C   UNL     1      -9.991  10.485  69.015  1.00  0.00    -0.211 C  
HETATM   19  C   UNL     1      -8.928  10.119  65.964  1.00  0.00    -0.174 C  
HETATM   20  C   UNL     1     -11.009  10.473  67.833  1.00  0.00    -0.352 C  
HETATM   21  C   UNL     1     -10.478  10.324  66.297  1.00  0.00    -0.214 C  
ENDROOT
BRANCH   1  22
HETATM   22  C   UNL     1      -9.785   3.434  63.341  1.00  0.00    -0.123 C  
HETATM   23  C   UNL     1     -10.769   3.162  62.465  1.00  0.00    -0.176 C  
HETATM   24  O   UNL     1     -12.497   1.520  62.351  1.00  0.00     0.413 OA 
HETATM   25  C   UNL     1      -9.908   2.328  64.427  1.00  0.00    -0.018 C  
HETATM   26  O   UNL     1     -10.998   1.502  64.058  1.00  0.00     0.170 OA 
HETATM   27  C   UNL     1     -11.536   1.989  62.915  1.00  0.00    -0.099 C  
ENDBRANCH   1  22
BRANCH  18  28
HETATM   28  O   UNL     1     -10.291  11.149  70.254  1.00  0.00     0.558 OA 
BRANCH  28  29
HETATM   29  C   UNL     1     -10.426  12.597  70.199  1.00  0.00     2.021 C  
HETATM   30  C   UNL     1     -11.232  14.315  67.891  1.00  0.00    -0.285 C  
HETATM   31  H   UNL     1      -9.340  14.013  66.053  1.00  0.00     0.000 HD 
HETATM   32  O   UNL     1      -9.012  13.965  66.943  1.00  0.00    -0.234 OA 
HETATM   33  C   UNL     1      -9.970  13.445  67.866  1.00  0.00    -0.236 C  
HETATM   34  C   UNL     1     -12.266  13.523  68.725  1.00  0.00    -0.143 C  
HETATM   35  C   UNL     1     -12.932  12.442  67.862  1.00  0.00     3.207 C  
HETATM   36  C   UNL     1      -9.444  13.366  69.296  1.00  0.00     0.696 C  
HETATM   37  O   UNL     1     -11.804  12.969  69.975  1.00  0.00    -0.322 OA 
BRANCH  30  38
HETATM   38  O   UNL     1     -11.068  15.633  68.486  1.00  0.00    -0.286 OA 
BRANCH  38  39
HETATM   39  C   UNL     1     -11.021  16.746  67.582  1.00  0.00    -0.178 C  
HETATM   40  C   UNL     1     -10.669  18.070  68.269  1.00  0.00    -0.208 C  
HETATM   41  C   UNL     1      -9.165  18.257  68.384  1.00  0.00    -0.317 C  
HETATM   42  O   UNL     1      -8.842  19.520  68.971  1.00  0.00    -0.340 OA 
HETATM   43  C   UNL     1      -8.528  18.114  66.995  1.00  0.00    -0.245 C  
HETATM   44  C   UNL     1      -8.821  16.685  66.486  1.00  0.00    -0.279 C  
HETATM   45  H   UNL     1      -7.902  19.637  69.042  1.00  0.00     0.000 HD 
HETATM   46  O   UNL     1     -10.225  16.424  66.436  1.00  0.00    -0.291 OA 
HETATM   47  C   UNL     1      -8.103  15.568  67.235  1.00  0.00    -0.226 C  
BRANCH  43  48
HETATM   48  O   UNL     1      -9.096  18.991  65.996  1.00  0.00    -0.459 OA 
BRANCH  48  49
HETATM   49  C   UNL     1      -8.584  20.310  65.840  1.00  0.00     0.057 C  
HETATM   50  C   UNL     1      -7.986  20.890  67.114  1.00  0.00    -0.182 C  
HETATM   51  C   UNL     1      -6.809  20.023  67.537  1.00  0.00    -0.237 C  
HETATM   52  C   UNL     1      -5.748  20.002  66.434  1.00  0.00    -0.170 C  
HETATM   53  O   UNL     1      -6.219  20.545  68.734  1.00  0.00    -0.322 OA 
HETATM   54  H   UNL     1      -5.485  20.004  68.998  1.00  0.00     0.000 HD 
HETATM   55  C   UNL     1      -6.359  19.642  65.069  1.00  0.00    -0.276 C  
HETATM   56  O   UNL     1      -5.135  21.302  66.365  1.00  0.00    -0.192 OA 
HETATM   57  H   UNL     1      -4.477  21.289  65.680  1.00  0.00     0.000 HD 
HETATM   58  C   UNL     1      -6.502  18.132  64.884  1.00  0.00     0.559 C  
HETATM   59  O   UNL     1      -7.597  20.317  64.796  1.00  0.00    -0.013 OA 
ENDBRANCH  48  49
ENDBRANCH  43  48
ENDBRANCH  38  39
ENDBRANCH  30  38
ENDBRANCH  28  29
ENDBRANCH  18  28
TORSDOF 7
ENDMDL
MODEL       15
REMARK 921   NORMALIZED FREE ENERGY PREDICTED BY IDOCK:   15.96 KCAL/MOL
REMARK 922        TOTAL FREE ENERGY PREDICTED BY IDOCK:   22.67 KCAL/MOL
REMARK 923 INTER-LIGAND FREE ENERGY PREDICTED BY IDOCK:    6.53 KCAL/MOL
REMARK 924 INTRA-LIGAND FREE ENERGY PREDICTED BY IDOCK:   16.14 KCAL/MOL
REMARK 927      BINDING AFFINITY PREDICTED BY RF-SCORE:    0.00 PKD
ROOT
HETATM    1  C   UNL     1     -10.520   6.477  71.349  1.00  0.00    -0.246 C  
HETATM    2  C   UNL     1     -10.166   7.038  69.982  1.00  0.00    -0.206 C  
HETATM    3  C   UNL     1     -11.543   7.685  72.033  1.00  0.00    -0.334 C  
HETATM    4  C   UNL     1      -9.929   8.484  70.389  1.00  0.00    -0.203 C  
HETATM    5  C   UNL     1     -11.238   7.500  73.534  1.00  0.00     0.239 C  
HETATM    6  C   UNL     1     -11.257   8.818  70.986  1.00  0.00    -0.273 C  
HETATM    7  C   UNL     1     -13.133   7.940  72.123  1.00  0.00    -0.187 C  
HETATM    8  C   UNL     1     -11.372  10.278  71.374  1.00  0.00     0.018 C  
HETATM    9  O   UNL     1     -12.203   8.640  69.880  1.00  0.00     0.061 OA 
HETATM   10  C   UNL     1     -13.462   9.511  72.607  1.00  0.00    -0.253 C  
HETATM   11  C   UNL     1     -12.807  10.670  71.734  1.00  0.00    -0.549 C  
HETATM   12  C   UNL     1     -14.375  12.657  72.288  1.00  0.00     0.376 C  
HETATM   13  C   UNL     1     -10.953  11.048  70.110  1.00  0.00    -0.070 C  
HETATM   14  H   UNL     1     -13.048   8.852  70.259  1.00  0.00     0.000 HD 
HETATM   15  C   UNL     1     -11.080  12.505  70.231  1.00  0.00     0.845 C  
HETATM   16  C   UNL     1     -12.491  12.980  70.618  1.00  0.00    -0.347 C  
HETATM   17  C   UNL     1     -12.493  14.530  70.637  1.00  0.00    -0.409 C  
HETATM   18  C   UNL     1     -11.186  14.996  71.261  1.00  0.00    -0.214 C  
HETATM   19  C   UNL     1     -12.894  12.326  71.983  1.00  0.00    -0.260 C  
HETATM   20  C   UNL     1     -11.084  14.369  72.687  1.00  0.00     1.924 C  
HETATM   21  C   UNL     1     -11.965  13.049  73.065  1.00  0.00     3.932 C  
ENDROOT
BRANCH   1  22
HETATM   22  C   UNL     1      -9.003   6.231  71.869  1.00  0.00    -0.139 C  
HETATM   23  C   UNL     1      -7.984   7.109  71.874  1.00  0.00    -0.093 C  
HETATM   24  O   UNL     1      -5.807   7.137  72.849  1.00  0.00    -0.041 OA 
HETATM   25  C   UNL     1      -8.518   5.061  72.771  1.00  0.00    -0.116 C  
HETATM   26  O   UNL     1      -7.215   5.391  73.216  1.00  0.00    -0.090 OA 
HETATM   27  C   UNL     1      -6.870   6.586  72.680  1.00  0.00    -0.065 C  
ENDBRANCH   1  22
BRANCH  18  28
HETATM   28  O   UNL     1     -10.919  16.390  71.038  1.00  0.00    -0.101 OA 
BRANCH  28  29
HETATM   29  C   UNL     1     -10.555  16.774  69.682  1.00  0.00    -0.242 C  
HETATM   30  C   UNL     1      -8.683  18.922  68.785  1.00  0.00    -0.296 C  
HETATM   31  H   UNL     1      -9.757  21.216  69.581  1.00  0.00     0.000 HD 
HETATM   32  O   UNL     1     -10.401  20.560  69.343  1.00  0.00    -0.013 OA 
HETATM   33  C   UNL     1      -9.957  19.224  69.582  1.00  0.00     0.183 C  
HETATM   34  C   UNL     1      -8.175  17.560  69.311  1.00  0.00     0.209 C  
HETATM   35  C   UNL     1      -7.404  17.749  70.625  1.00  0.00     3.295 C  
HETATM   36  C   UNL     1     -10.991  18.170  69.200  1.00  0.00     1.044 C  
HETATM   37  O   UNL     1      -9.155  16.508  69.439  1.00  0.00    -0.157 OA 
BRANCH  30  38
HETATM   38  O   UNL     1      -8.857  18.826  67.343  1.00  0.00    -0.267 OA 
BRANCH  38  39
HETATM   39  C   UNL     1      -8.540  17.564  66.738  1.00  0.00    -0.253 C  
HETATM   40  C   UNL     1      -8.957  16.362  67.592  1.00  0.00    -0.198 C  
HETATM   41  C   UNL     1     -10.406  15.976  67.345  1.00  0.00    -0.294 C  
HETATM   42  O   UNL     1     -10.772  14.818  68.098  1.00  0.00    -0.240 OA 
HETATM   43  C   UNL     1     -10.623  15.750  65.842  1.00  0.00    -0.339 C  
HETATM   44  C   UNL     1     -10.323  17.080  65.117  1.00  0.00     0.198 C  
HETATM   45  H   UNL     1     -11.677  14.577  67.944  1.00  0.00     0.000 HD 
HETATM   46  O   UNL     1      -8.995  17.535  65.381  1.00  0.00     0.072 OA 
HETATM   47  C   UNL     1     -11.325  18.201  65.373  1.00  0.00     1.346 C  
BRANCH  43  48
HETATM   48  O   UNL     1      -9.713  14.791  65.257  1.00  0.00    -0.274 OA 
BRANCH  48  49
HETATM   49  C   UNL     1     -10.225  13.715  64.479  1.00  0.00    -0.224 C  
HETATM   50  C   UNL     1     -10.490  12.449  65.281  1.00  0.00    -0.316 C  
HETATM   51  C   UNL     1     -11.547  12.753  66.333  1.00  0.00    -0.378 C  
HETATM   52  C   UNL     1     -12.841  13.218  65.661  1.00  0.00    -0.153 C  
HETATM   53  O   UNL     1     -11.824  11.579  67.105  1.00  0.00    -0.595 OA 
HETATM   54  H   UNL     1     -12.483  11.769  67.762  1.00  0.00     0.000 HD 
HETATM   55  C   UNL     1     -12.581  14.354  64.658  1.00  0.00    -0.235 C  
HETATM   56  O   UNL     1     -13.430  12.094  64.980  1.00  0.00     0.143 OA 
HETATM   57  H   UNL     1     -14.233  12.382  64.562  1.00  0.00     0.000 HD 
HETATM   58  C   UNL     1     -12.512  15.719  65.341  1.00  0.00     1.330 C  
HETATM   59  O   UNL     1     -11.432  14.134  63.823  1.00  0.00    -0.013 OA 
ENDBRANCH  48  49
ENDBRANCH  43  48
ENDBRANCH  38  39
ENDBRANCH  30  38
ENDBRANCH  28  29
ENDBRANCH  18  28
TORSDOF 7
ENDMDL
MODEL       16
REMARK 921   NORMALIZED FREE ENERGY PREDICTED BY IDOCK:   21.93 KCAL/MOL
REMARK 922        TOTAL FREE ENERGY PREDICTED BY IDOCK:   31.08 KCAL/MOL
REMARK 923 INTER-LIGAND FREE ENERGY PREDICTED BY IDOCK:   11.73 KCAL/MOL
REMARK 924 INTRA-LIGAND FREE ENERGY PREDICTED BY IDOCK:   19.35 KCAL/MOL
REMARK 927      BINDING AFFINITY PREDICTED BY RF-SCORE:    0.00 PKD
ROOT
HETATM    1  C   UNL     1      -6.786  17.204  68.638  1.00  0.00    -0.189 C  
HETATM    2  C   UNL     1      -5.936  15.945  68.598  1.00  0.00    -0.101 C  
HETATM    3  C   UNL     1      -8.318  16.645  69.198  1.00  0.00    -0.115 C  
HETATM    4  C   UNL     1      -6.970  14.998  68.008  1.00  0.00    -0.147 C  
HETATM    5  C   UNL     1      -9.258  17.658  68.514  1.00  0.00    -0.281 C  
HETATM    6  C   UNL     1      -8.053  15.107  69.032  1.00  0.00    -0.191 C  
HETATM    7  C   UNL     1      -9.057  16.531  70.627  1.00  0.00     3.180 C  
HETATM    8  C   UNL     1      -9.196  14.146  68.776  1.00  0.00    -0.080 C  
HETATM    9  O   UNL     1      -7.425  14.635  70.269  1.00  0.00    -0.338 OA 
HETATM   10  C   UNL     1     -10.407  15.542  70.526  1.00  0.00    -0.036 C  
HETATM   11  C   UNL     1     -10.166  14.074  69.958  1.00  0.00     0.959 C  
HETATM   12  C   UNL     1     -12.212  12.819  70.934  1.00  0.00    -0.284 C  
HETATM   13  C   UNL     1      -8.520  12.775  68.609  1.00  0.00     0.050 C  
HETATM   14  H   UNL     1      -8.113  14.705  70.921  1.00  0.00     0.000 HD 
HETATM   15  C   UNL     1      -9.462  11.663  68.441  1.00  0.00    -0.193 C  
HETATM   16  C   UNL     1     -10.490  11.538  69.579  1.00  0.00     0.109 C  
HETATM   17  C   UNL     1     -11.364  10.287  69.307  1.00  0.00    -0.253 C  
HETATM   18  C   UNL     1     -11.664  10.236  67.815  1.00  0.00     0.716 C  
HETATM   19  C   UNL     1     -11.303  12.873  69.682  1.00  0.00    -0.166 C  
HETATM   20  C   UNL     1     -12.370  11.571  67.421  1.00  0.00     1.211 C  
HETATM   21  C   UNL     1     -12.220  12.888  68.372  1.00  0.00     0.003 C  
ENDROOT
BRANCH   1  22
HETATM   22  C   UNL     1      -6.541  17.666  67.103  1.00  0.00    -0.188 C  
HETATM   23  C   UNL     1      -5.550  17.283  66.278  1.00  0.00    -0.163 C  
HETATM   24  O   UNL     1      -5.133  17.527  63.941  1.00  0.00     0.803 OA 
HETATM   25  C   UNL     1      -7.577  18.363  66.176  1.00  0.00    -0.235 C  
HETATM   26  O   UNL     1      -7.055  18.318  64.860  1.00  0.00     0.064 OA 
HETATM   27  C   UNL     1      -5.848  17.704  64.900  1.00  0.00     0.934 C  
ENDBRANCH   1  22
BRANCH  18  28
HETATM   28  O   UNL     1     -12.178   8.964  67.386  1.00  0.00     4.087 OA 
BRANCH  28  29
HETATM   29  C   UNL     1     -11.196   7.970  66.980  1.00  0.00     0.843 C  
HETATM   30  C   UNL     1      -8.361   8.378  66.131  1.00  0.00    -0.125 C  
HETATM   31  H   UNL     1      -8.461   9.792  63.885  1.00  0.00     0.000 HD 
HETATM   32  O   UNL     1      -9.191   9.193  63.987  1.00  0.00    -0.009 OA 
HETATM   33  C   UNL     1      -9.544   8.965  65.352  1.00  0.00     0.080 C  
HETATM   34  C   UNL     1      -8.784   8.411  67.618  1.00  0.00    -0.137 C  
HETATM   35  C   UNL     1      -8.576   9.815  68.202  1.00  0.00    -0.118 C  
HETATM   36  C   UNL     1     -10.717   8.004  65.516  1.00  0.00     3.810 C  
HETATM   37  O   UNL     1     -10.106   7.918  67.927  1.00  0.00    -0.173 OA 
BRANCH  30  38
HETATM   38  O   UNL     1      -8.001   7.013  65.781  1.00  0.00    -0.103 OA 
BRANCH  38  39
HETATM   39  C   UNL     1      -7.941   6.066  66.858  1.00  0.00    -0.102 C  
HETATM   40  C   UNL     1      -9.120   6.179  67.830  1.00  0.00    -0.117 C  
HETATM   41  C   UNL     1     -10.318   5.374  67.352  1.00  0.00    -0.204 C  
HETATM   42  O   UNL     1     -11.394   5.435  68.292  1.00  0.00     0.455 OA 
HETATM   43  C   UNL     1      -9.887   3.924  67.098  1.00  0.00    -0.048 C  
HETATM   44  C   UNL     1      -8.813   3.938  65.988  1.00  0.00    -0.123 C  
HETATM   45  H   UNL     1     -12.142   4.932  67.993  1.00  0.00     0.000 HD 
HETATM   46  O   UNL     1      -7.694   4.750  66.350  1.00  0.00    -0.090 OA 
HETATM   47  C   UNL     1      -9.316   4.322  64.601  1.00  0.00    -0.162 C  
BRANCH  43  48
HETATM   48  O   UNL     1      -9.246   3.296  68.232  1.00  0.00    -0.150 OA 
BRANCH  48  49
HETATM   49  C   UNL     1      -8.018   3.817  68.728  1.00  0.00    -0.062 C  
HETATM   50  C   UNL     1      -8.122   5.246  69.242  1.00  0.00    -0.092 C  
HETATM   51  C   UNL     1      -9.100   5.274  70.408  1.00  0.00    -0.139 C  
HETATM   52  C   UNL     1      -8.605   4.358  71.531  1.00  0.00    -0.112 C  
HETATM   53  O   UNL     1      -9.217   6.607  70.919  1.00  0.00    -0.156 OA 
HETATM   54  H   UNL     1      -9.827   6.624  71.647  1.00  0.00     0.000 HD 
HETATM   55  C   UNL     1      -8.264   2.953  71.005  1.00  0.00    -0.057 C  
HETATM   56  O   UNL     1      -7.435   4.953  72.123  1.00  0.00    -0.082 OA 
HETATM   57  H   UNL     1      -7.128   4.385  72.819  1.00  0.00     0.000 HD 
HETATM   58  C   UNL     1      -9.501   2.064  70.900  1.00  0.00    -0.204 C  
HETATM   59  O   UNL     1      -7.526   2.963  69.773  1.00  0.00    -0.044 OA 
ENDBRANCH  48  49
ENDBRANCH  43  48
ENDBRANCH  38  39
ENDBRANCH  30  38
ENDBRANCH  28  29
ENDBRANCH  18  28
TORSDOF 7
ENDMDL
MODEL       17
REMARK 921   NORMALIZED FREE ENERGY PREDICTED BY IDOCK:   25.54 KCAL/MOL
REMARK 922        TOTAL FREE ENERGY PREDICTED BY IDOCK:   36.17 KCAL/MOL
REMARK 923 INTER-LIGAND FREE ENERGY PREDICTED BY IDOCK:    8.43 KCAL/MOL
REMARK 924 INTRA-LIGAND FREE ENERGY PREDICTED BY IDOCK:   27.74 KCAL/MOL
REMARK 927      BINDING AFFINITY PREDICTED BY RF-SCORE:    0.00 PKD
ROOT
HETATM    1  C   UNL     1      -8.778   5.837  67.805  1.00  0.00    -0.107 C  
HETATM    2  C   UNL     1      -7.603   6.764  68.064  1.00  0.00    -0.107 C  
HETATM    3  C   UNL     1      -9.579   6.560  66.460  1.00  0.00    -0.184 C  
HETATM    4  C   UNL     1      -8.322   8.092  67.880  1.00  0.00    -0.129 C  
HETATM    5  C   UNL     1     -11.034   6.123  66.726  1.00  0.00    -0.322 C  
HETATM    6  C   UNL     1      -8.825   7.935  66.482  1.00  0.00    -0.152 C  
HETATM    7  C   UNL     1      -9.544   6.378  64.858  1.00  0.00     1.421 C  
HETATM    8  C   UNL     1      -9.489   9.192  65.957  1.00  0.00    -0.321 C  
HETATM    9  O   UNL     1      -7.608   7.780  65.679  1.00  0.00    -0.078 OA 
HETATM   10  C   UNL     1     -10.301   7.663  64.092  1.00  0.00     7.931 C  
HETATM   11  C   UNL     1      -9.762   9.117  64.452  1.00  0.00     0.904 C  
HETATM   12  C   UNL     1     -10.535  10.464  62.379  1.00  0.00     1.181 C  
HETATM   13  C   UNL     1      -8.464  10.309  66.217  1.00  0.00    -0.138 C  
HETATM   14  H   UNL     1      -7.928   7.680  64.789  1.00  0.00     0.000 HD 
HETATM   15  C   UNL     1      -8.866  11.620  65.695  1.00  0.00     0.050 C  
HETATM   16  C   UNL     1      -9.185  11.623  64.189  1.00  0.00     0.153 C  
HETATM   17  C   UNL     1      -9.520  13.076  63.767  1.00  0.00     1.667 C  
HETATM   18  C   UNL     1     -10.367  13.702  64.866  1.00  0.00    -0.388 C  
HETATM   19  C   UNL     1     -10.334  10.596  63.908  1.00  0.00    -0.222 C  
HETATM   20  C   UNL     1     -11.636  12.815  65.060  1.00  0.00    -0.372 C  
HETATM   21  C   UNL     1     -11.637  11.265  64.549  1.00  0.00     0.109 C  
ENDROOT
BRANCH   1  22
HETATM   22  C   UNL     1      -9.401   5.871  69.303  1.00  0.00    -0.147 C  
HETATM   23  C   UNL     1     -10.689   5.729  69.660  1.00  0.00    -0.416 C  
HETATM   24  O   UNL     1     -11.823   5.411  71.736  1.00  0.00     0.224 OA 
HETATM   25  C   UNL     1      -8.606   5.731  70.632  1.00  0.00    -0.132 C  
HETATM   26  O   UNL     1      -9.554   5.522  71.664  1.00  0.00    -0.149 OA 
HETATM   27  C   UNL     1     -10.793   5.539  71.116  1.00  0.00    -0.173 C  
ENDBRANCH   1  22
BRANCH  18  28
HETATM   28  O   UNL     1     -10.465  15.132  64.757  1.00  0.00    -0.368 OA 
BRANCH  28  29
HETATM   29  C   UNL     1     -10.328  15.890  65.992  1.00  0.00    -0.348 C  
HETATM   30  C   UNL     1      -9.614  14.905  68.721  1.00  0.00    -0.214 C  
HETATM   31  H   UNL     1     -11.581  13.280  69.456  1.00  0.00     0.000 HD 
HETATM   32  O   UNL     1     -11.871  14.003  68.913  1.00  0.00    -0.315 OA 
HETATM   33  C   UNL     1     -10.878  14.444  67.987  1.00  0.00    -0.243 C  
HETATM   34  C   UNL     1      -8.548  15.117  67.621  1.00  0.00    -0.172 C  
HETATM   35  C   UNL     1      -7.922  13.775  67.218  1.00  0.00    -0.135 C  
HETATM   36  C   UNL     1     -11.344  15.605  67.114  1.00  0.00    -0.082 C  
HETATM   37  O   UNL     1      -8.959  15.862  66.454  1.00  0.00    -0.266 OA 
BRANCH  30  38
HETATM   38  O   UNL     1      -9.749  16.139  69.480  1.00  0.00    -0.244 OA 
BRANCH  38  39
HETATM   39  C   UNL     1      -8.575  16.957  69.595  1.00  0.00     0.738 C  
HETATM   40  C   UNL     1      -7.643  16.852  68.383  1.00  0.00    -0.209 C  
HETATM   41  C   UNL     1      -8.053  17.813  67.279  1.00  0.00    -0.211 C  
HETATM   42  O   UNL     1      -7.145  17.754  66.176  1.00  0.00    -0.261 OA 
HETATM   43  C   UNL     1      -8.140  19.235  67.848  1.00  0.00    -0.290 C  
HETATM   44  C   UNL     1      -9.225  19.237  68.947  1.00  0.00    -0.333 C  
HETATM   45  H   UNL     1      -7.401  18.354  65.485  1.00  0.00     0.000 HD 
HETATM   46  O   UNL     1      -8.933  18.290  69.976  1.00  0.00     1.313 OA 
HETATM   47  C   UNL     1     -10.655  19.051  68.451  1.00  0.00    -0.146 C  
BRANCH  43  48
HETATM   48  O   UNL     1      -6.934  19.676  68.511  1.00  0.00    -0.286 OA 
BRANCH  48  49
HETATM   49  C   UNL     1      -5.687  19.607  67.829  1.00  0.00    -0.194 C  
HETATM   50  C   UNL     1      -5.478  18.310  67.061  1.00  0.00    -0.151 C  
HETATM   51  C   UNL     1      -6.556  18.199  65.992  1.00  0.00    -0.263 C  
HETATM   52  C   UNL     1      -6.465  19.387  65.030  1.00  0.00    -0.238 C  
HETATM   53  O   UNL     1      -6.385  16.988  65.246  1.00  0.00     0.900 OA 
HETATM   54  H   UNL     1      -7.058  16.919  64.579  1.00  0.00     0.000 HD 
HETATM   55  C   UNL     1      -6.439  20.726  65.786  1.00  0.00    -0.205 C  
HETATM   56  O   UNL     1      -5.267  19.248  64.245  1.00  0.00    -0.173 OA 
HETATM   57  H   UNL     1      -5.211  19.985  63.648  1.00  0.00     0.000 HD 
HETATM   58  C   UNL     1      -7.842  21.204  66.156  1.00  0.00     0.889 C  
HETATM   59  O   UNL     1      -5.572  20.723  66.932  1.00  0.00    -0.169 OA 
ENDBRANCH  48  49
ENDBRANCH  43  48
ENDBRANCH  38  39
ENDBRANCH  30  38
ENDBRANCH  28  29
ENDBRANCH  18  28
TORSDOF 7
ENDMDL
MODEL       18
REMARK 921   NORMALIZED FREE ENERGY PREDICTED BY IDOCK:   26.32 KCAL/MOL
REMARK 922        TOTAL FREE ENERGY PREDICTED BY IDOCK:   37.27 KCAL/MOL
REMARK 923 INTER-LIGAND FREE ENERGY PREDICTED BY IDOCK:   -2.17 KCAL/MOL
REMARK 924 INTRA-LIGAND FREE ENERGY PREDICTED BY IDOCK:   39.44 KCAL/MOL
REMARK 927      BINDING AFFINITY PREDICTED BY RF-SCORE:    0.00 PKD
ROOT
HETATM    1  C   UNL     1      -9.163   4.748  70.694  1.00  0.00    -0.191 C  
HETATM    2  C   UNL     1      -7.870   4.899  69.911  1.00  0.00    -0.066 C  
HETATM    3  C   UNL     1     -10.127   6.069  70.148  1.00  0.00    -0.249 C  
HETATM    4  C   UNL     1      -7.715   6.408  70.025  1.00  0.00    -0.102 C  
HETATM    5  C   UNL     1     -10.980   6.337  71.405  1.00  0.00    -0.327 C  
HETATM    6  C   UNL     1      -8.996   6.859  69.401  1.00  0.00    -0.138 C  
HETATM    7  C   UNL     1     -11.256   6.290  69.018  1.00  0.00    -0.415 C  
HETATM    8  C   UNL     1      -9.072   8.364  69.249  1.00  0.00    -0.150 C  
HETATM    9  O   UNL     1      -8.930   6.338  68.032  1.00  0.00    -0.116 OA 
HETATM   10  C   UNL     1     -11.529   7.922  68.753  1.00  0.00     0.887 C  
HETATM   11  C   UNL     1     -10.254   8.799  68.378  1.00  0.00    -0.228 C  
HETATM   12  C   UNL     1     -11.365  10.810  67.182  1.00  0.00    -0.110 C  
HETATM   13  C   UNL     1      -7.765   8.748  68.534  1.00  0.00    -0.099 C  
HETATM   14  H   UNL     1      -9.745   6.624  67.634  1.00  0.00     0.000 HD 
HETATM   15  C   UNL     1      -7.667  10.173  68.197  1.00  0.00    -0.088 C  
HETATM   16  C   UNL     1      -8.835  10.695  67.342  1.00  0.00    -0.132 C  
HETATM   17  C   UNL     1      -8.561  12.183  67.004  1.00  0.00    -0.191 C  
HETATM   18  C   UNL     1      -7.988  12.850  68.246  1.00  0.00    -0.151 C  
HETATM   19  C   UNL     1     -10.179  10.452  68.109  1.00  0.00    -0.187 C  
HETATM   20  C   UNL     1      -9.014  12.667  69.407  1.00  0.00     1.277 C  
HETATM   21  C   UNL     1     -10.138  11.487  69.327  1.00  0.00     0.100 C  
ENDROOT
BRANCH   1  22
HETATM   22  C   UNL     1      -8.503   4.711  72.175  1.00  0.00    -0.118 C  
HETATM   23  C   UNL     1      -7.393   4.059  72.563  1.00  0.00    -0.067 C  
HETATM   24  O   UNL     1      -6.039   4.087  74.529  1.00  0.00    -0.026 OA 
HETATM   25  C   UNL     1      -8.818   5.684  73.346  1.00  0.00    -0.123 C  
HETATM   26  O   UNL     1      -7.824   5.481  74.335  1.00  0.00    -0.101 OA 
HETATM   27  C   UNL     1      -6.984   4.510  73.904  1.00  0.00    -0.067 C  
ENDBRANCH   1  22
BRANCH  18  28
HETATM   28  O   UNL     1      -7.388  14.128  67.974  1.00  0.00    -0.109 OA 
BRANCH  28  29
HETATM   29  C   UNL     1      -7.925  15.267  68.702  1.00  0.00    -0.149 C  
HETATM   30  C   UNL     1     -10.503  16.714  68.271  1.00  0.00    -0.321 C  
HETATM   31  H   UNL     1     -10.338  17.814  65.860  1.00  0.00     0.000 HD 
HETATM   32  O   UNL     1      -9.504  17.773  66.315  1.00  0.00    -0.374 OA 
HETATM   33  C   UNL     1      -9.404  16.661  67.205  1.00  0.00    -0.228 C  
HETATM   34  C   UNL     1     -10.439  15.354  69.004  1.00  0.00    -0.249 C  
HETATM   35  C   UNL     1     -11.169  14.275  68.191  1.00  0.00    -0.295 C  
HETATM   36  C   UNL     1      -8.066  16.595  67.934  1.00  0.00    -0.177 C  
HETATM   37  O   UNL     1      -9.131  14.895  69.407  1.00  0.00    -0.147 OA 
BRANCH  30  38
HETATM   38  O   UNL     1     -10.366  17.777  69.256  1.00  0.00    -0.318 OA 
BRANCH  38  39
HETATM   39  C   UNL     1      -9.186  18.590  69.166  1.00  0.00     0.020 C  
HETATM   40  C   UNL     1      -7.967  17.831  68.634  1.00  0.00    -0.276 C  
HETATM   41  C   UNL     1      -7.930  17.827  67.114  1.00  0.00    -0.212 C  
HETATM   42  O   UNL     1      -6.759  17.169  66.625  1.00  0.00    -0.198 OA 
HETATM   43  C   UNL     1      -8.009  19.271  66.601  1.00  0.00    -0.277 C  
HETATM   44  C   UNL     1      -9.354  19.866  67.072  1.00  0.00    -0.370 C  
HETATM   45  H   UNL     1      -6.736  17.167  65.675  1.00  0.00     0.000 HD 
HETATM   46  O   UNL     1      -9.479  19.820  68.494  1.00  0.00    -0.348 OA 
HETATM   47  C   UNL     1     -10.594  19.272  66.414  1.00  0.00    -0.542 C  
BRANCH  43  48
HETATM   48  O   UNL     1      -6.998  20.145  67.153  1.00  0.00    -0.219 OA 
BRANCH  48  49
HETATM   49  C   UNL     1      -5.738  20.267  66.503  1.00  0.00    -0.171 C  
HETATM   50  C   UNL     1      -5.265  18.983  65.837  1.00  0.00    -0.173 C  
HETATM   51  C   UNL     1      -6.266  18.599  64.756  1.00  0.00    -0.031 C  
HETATM   52  C   UNL     1      -6.366  19.715  63.712  1.00  0.00     0.408 C  
HETATM   53  O   UNL     1      -5.847  17.394  64.104  1.00  0.00     2.021 OA 
HETATM   54  H   UNL     1      -6.472  17.155  63.430  1.00  0.00     0.000 HD 
HETATM   55  C   UNL     1      -6.615  21.083  64.369  1.00  0.00    -0.105 C  
HETATM   56  O   UNL     1      -5.136  19.751  62.965  1.00  0.00    -0.188 OA 
HETATM   57  H   UNL     1      -5.198  20.444  62.317  1.00  0.00     0.000 HD 
HETATM   58  C   UNL     1      -8.094  21.312  64.674  1.00  0.00     2.277 C  
HETATM   59  O   UNL     1      -5.803  21.322  65.530  1.00  0.00    -0.239 OA 
ENDBRANCH  48  49
ENDBRANCH  43  48
ENDBRANCH  38  39
ENDBRANCH  30  38
ENDBRANCH  28  29
ENDBRANCH  18  28
TORSDOF 7
ENDMDL
MODEL       19
REMARK 921   NORMALIZED FREE ENERGY PREDICTED BY IDOCK:   28.61 KCAL/MOL
REMARK 922        TOTAL FREE ENERGY PREDICTED BY IDOCK:   40.49 KCAL/MOL
REMARK 923 INTER-LIGAND FREE ENERGY PREDICTED BY IDOCK:    6.94 KCAL/MOL
REMARK 924 INTRA-LIGAND FREE ENERGY PREDICTED BY IDOCK:   33.54 KCAL/MOL
REMARK 927      BINDING AFFINITY PREDICTED BY RF-SCORE:    0.00 PKD
ROOT
HETATM    1  C   UNL     1      -9.739   3.903  66.738  1.00  0.00    -0.189 C  
HETATM    2  C   UNL     1     -10.503   4.663  65.667  1.00  0.00    -0.260 C  
HETATM    3  C   UNL     1      -9.399   5.105  67.927  1.00  0.00    -0.139 C  
HETATM    4  C   UNL     1      -9.659   5.928  65.646  1.00  0.00     0.181 C  
HETATM    5  C   UNL     1      -8.078   4.563  68.511  1.00  0.00    -0.082 C  
HETATM    6  C   UNL     1      -9.786   6.361  67.071  1.00  0.00    -0.154 C  
HETATM    7  C   UNL     1     -10.094   5.614  69.290  1.00  0.00    -0.281 C  
HETATM    8  C   UNL     1      -9.139   7.707  67.331  1.00  0.00    -0.136 C  
HETATM    9  O   UNL     1     -11.224   6.586  67.250  1.00  0.00    -0.592 OA 
HETATM   10  C   UNL     1      -9.451   7.084  69.778  1.00  0.00    -0.145 C  
HETATM   11  C   UNL     1      -9.498   8.264  68.711  1.00  0.00    -0.148 C  
HETATM   12  C   UNL     1      -9.339  10.339  70.254  1.00  0.00     0.329 C  
HETATM   13  C   UNL     1      -9.730   8.635  66.256  1.00  0.00    -0.322 C  
HETATM   14  H   UNL     1     -11.305   6.862  68.156  1.00  0.00     0.000 HD 
HETATM   15  C   UNL     1      -9.305  10.034  66.378  1.00  0.00    -0.211 C  
HETATM   16  C   UNL     1      -9.607  10.661  67.751  1.00  0.00    -0.172 C  
HETATM   17  C   UNL     1      -9.174  12.149  67.710  1.00  0.00    -0.189 C  
HETATM   18  C   UNL     1      -7.857  12.236  66.952  1.00  0.00    -0.044 C  
HETATM   19  C   UNL     1      -8.895   9.820  68.865  1.00  0.00    -0.140 C  
HETATM   20  C   UNL     1      -6.824  11.320  67.679  1.00  0.00    -0.077 C  
HETATM   21  C   UNL     1      -7.339  10.128  68.667  1.00  0.00    -0.082 C  
ENDROOT
BRANCH   1  22
HETATM   22  C   UNL     1      -8.588   3.290  65.773  1.00  0.00    -0.116 C  
HETATM   23  C   UNL     1      -7.919   3.920  64.790  1.00  0.00    -0.089 C  
HETATM   24  O   UNL     1      -6.003   3.392  63.469  1.00  0.00    -0.013 OA 
HETATM   25  C   UNL     1      -7.792   1.976  66.010  1.00  0.00    -0.076 C  
HETATM   26  O   UNL     1      -6.707   1.975  65.100  1.00  0.00    -0.029 OA 
HETATM   27  C   UNL     1      -6.775   3.104  64.354  1.00  0.00    -0.036 C  
ENDBRANCH   1  22
BRANCH  18  28
HETATM   28  O   UNL     1      -7.520  13.577  66.559  1.00  0.00     0.731 OA 
BRANCH  28  29
HETATM   29  C   UNL     1      -8.269  14.650  67.195  1.00  0.00    -0.201 C  
HETATM   30  C   UNL     1      -7.949  15.782  69.941  1.00  0.00     0.298 C  
HETATM   31  H   UNL     1      -8.545  13.816  71.623  1.00  0.00     0.000 HD 
HETATM   32  O   UNL     1      -9.049  13.790  70.818  1.00  0.00     4.204 OA 
HETATM   33  C   UNL     1      -8.342  14.321  69.696  1.00  0.00     0.614 C  
HETATM   34  C   UNL     1      -6.993  16.155  68.784  1.00  0.00    -0.148 C  
HETATM   35  C   UNL     1      -5.576  15.641  69.074  1.00  0.00    -0.103 C  
HETATM   36  C   UNL     1      -9.150  14.279  68.403  1.00  0.00    -0.194 C  
HETATM   37  O   UNL     1      -7.411  15.784  67.452  1.00  0.00    -0.156 OA 
BRANCH  30  38
HETATM   38  O   UNL     1      -9.052  16.731  69.955  1.00  0.00     0.852 OA 
BRANCH  38  39
HETATM   39  C   UNL     1      -8.813  18.006  69.343  1.00  0.00     0.474 C  
HETATM   40  C   UNL     1      -7.365  18.486  69.487  1.00  0.00     0.140 C  
HETATM   41  C   UNL     1      -6.480  17.929  68.384  1.00  0.00    -0.198 C  
HETATM   42  O   UNL     1      -5.144  18.428  68.489  1.00  0.00    -0.166 OA 
HETATM   43  C   UNL     1      -7.092  18.271  67.019  1.00  0.00    -0.196 C  
HETATM   44  C   UNL     1      -8.479  17.595  66.942  1.00  0.00    -0.241 C  
HETATM   45  H   UNL     1      -4.590  18.080  67.800  1.00  0.00     0.000 HD 
HETATM   46  O   UNL     1      -9.330  18.021  68.007  1.00  0.00    -0.260 OA 
HETATM   47  C   UNL     1      -8.457  16.073  66.861  1.00  0.00    -0.275 C  
BRANCH  43  48
HETATM   48  O   UNL     1      -7.350  19.680  66.829  1.00  0.00    -0.218 OA 
BRANCH  48  49
HETATM   49  C   UNL     1      -7.904  20.138  65.601  1.00  0.00    -0.054 C  
HETATM   50  C   UNL     1      -8.764  19.102  64.892  1.00  0.00     3.142 C  
HETATM   51  C   UNL     1      -9.945  18.755  65.789  1.00  0.00     0.067 C  
HETATM   52  C   UNL     1     -10.776  20.008  66.071  1.00  0.00    -0.259 C  
HETATM   53  O   UNL     1     -10.779  17.783  65.148  1.00  0.00    -0.638 OA 
HETATM   54  H   UNL     1     -11.515  17.566  65.707  1.00  0.00     0.000 HD 
HETATM   55  C   UNL     1      -9.900  21.167  66.576  1.00  0.00     1.063 C  
HETATM   56  O   UNL     1     -11.444  20.397  64.857  1.00  0.00     0.205 OA 
HETATM   57  H   UNL     1     -11.960  21.175  65.032  1.00  0.00     0.000 HD 
HETATM   58  C   UNL     1      -9.632  21.074  68.077  1.00  0.00     0.142 C  
HETATM   59  O   UNL     1      -8.676  21.326  65.840  1.00  0.00     1.531 OA 
ENDBRANCH  48  49
ENDBRANCH  43  48
ENDBRANCH  38  39
ENDBRANCH  30  38
ENDBRANCH  28  29
ENDBRANCH  18  28
TORSDOF 7
ENDMDL
MODEL       20
REMARK 921   NORMALIZED FREE ENERGY PREDICTED BY IDOCK:   29.89 KCAL/MOL
REMARK 922        TOTAL FREE ENERGY PREDICTED BY IDOCK:   42.30 KCAL/MOL
REMARK 923 INTER-LIGAND FREE ENERGY PREDICTED BY IDOCK:   25.22 KCAL/MOL
REMARK 924 INTRA-LIGAND FREE ENERGY PREDICTED BY IDOCK:   17.08 KCAL/MOL
REMARK 927      BINDING AFFINITY PREDICTED BY RF-SCORE:    0.00 PKD
ROOT
HETATM    1  C   UNL     1     -10.717  16.828  71.504  1.00  0.00     1.611 C  
HETATM    2  C   UNL     1      -9.329  16.247  71.711  1.00  0.00     6.731 C  
HETATM    3  C   UNL     1     -11.672  15.460  71.067  1.00  0.00    -0.408 C  
HETATM    4  C   UNL     1      -9.302  15.305  70.516  1.00  0.00     1.017 C  
HETATM    5  C   UNL     1     -12.733  16.128  70.168  1.00  0.00     0.727 C  
HETATM    6  C   UNL     1     -10.495  14.455  70.814  1.00  0.00     1.228 C  
HETATM    7  C   UNL     1     -12.618  14.412  71.847  1.00  0.00    -0.413 C  
HETATM    8  C   UNL     1     -10.651  13.307  69.838  1.00  0.00     0.886 C  
HETATM    9  O   UNL     1     -10.173  13.825  72.099  1.00  0.00     5.360 OA 
HETATM   10  C   UNL     1     -12.959  13.082  70.886  1.00  0.00    -0.121 C  
HETATM   11  C   UNL     1     -11.705  12.297  70.297  1.00  0.00    -0.223 C  
HETATM   12  C   UNL     1     -12.749   9.975  69.821  1.00  0.00     0.458 C  
HETATM   13  C   UNL     1      -9.277  12.617  69.829  1.00  0.00     2.446 C  
HETATM   14  H   UNL     1     -10.931  13.285  72.289  1.00  0.00     0.000 HD 
HETATM   15  C   UNL     1      -9.226  11.402  69.007  1.00  0.00     0.055 C  
HETATM   16  C   UNL     1     -10.276  10.344  69.390  1.00  0.00    -0.257 C  
HETATM   17  C   UNL     1     -10.057   9.098  68.495  1.00  0.00    -0.212 C  
HETATM   18  C   UNL     1      -9.739   9.580  67.086  1.00  0.00    -0.171 C  
HETATM   19  C   UNL     1     -11.705  10.974  69.268  1.00  0.00    -0.397 C  
HETATM   20  C   UNL     1     -10.923  10.475  66.606  1.00  0.00    -0.102 C  
HETATM   21  C   UNL     1     -11.933  11.149  67.695  1.00  0.00     0.184 C  
ENDROOT
BRANCH   1  22
HETATM   22  C   UNL     1     -10.303  17.972  70.431  1.00  0.00     1.616 C  
HETATM   23  C   UNL     1      -9.409  18.964  70.592  1.00  0.00     2.773 C  
HETATM   24  O   UNL     1      -8.381  20.542  69.127  1.00  0.00     0.660 OA 
HETATM   25  C   UNL     1     -10.593  17.949  68.904  1.00  0.00    -0.013 C  
HETATM   26  O   UNL     1      -9.814  18.976  68.316  1.00  0.00    -0.334 OA 
HETATM   27  C   UNL     1      -9.124  19.603  69.298  1.00  0.00     0.044 C  
ENDBRANCH   1  22
BRANCH  18  28
HETATM   28  O   UNL     1      -9.194   8.547  66.246  1.00  0.00    -0.179 OA 
BRANCH  28  29
HETATM   29  C   UNL     1      -9.019   7.238  66.856  1.00  0.00    -0.135 C  
HETATM   30  C   UNL     1     -11.087   5.176  67.485  1.00  0.00     0.996 C  
HETATM   31  H   UNL     1     -12.680   6.263  69.310  1.00  0.00     0.000 HD 
HETATM   32  O   UNL     1     -11.775   6.543  69.384  1.00  0.00    -0.295 OA 
HETATM   33  C   UNL     1     -11.091   6.566  68.131  1.00  0.00    -0.240 C  
HETATM   34  C   UNL     1     -10.548   5.384  66.051  1.00  0.00    -0.052 C  
HETATM   35  C   UNL     1     -11.663   5.897  65.130  1.00  0.00     4.396 C  
HETATM   36  C   UNL     1      -9.638   7.016  68.248  1.00  0.00    -0.134 C  
HETATM   37  O   UNL     1      -9.359   6.193  65.917  1.00  0.00    -0.116 OA 
BRANCH  30  38
HETATM   38  O   UNL     1     -10.260   4.181  68.152  1.00  0.00     0.097 OA 
BRANCH  38  39
HETATM   39  C   UNL     1      -9.327   4.668  69.127  1.00  0.00    -0.142 C  
HETATM   40  C   UNL     1      -9.998   5.178  70.406  1.00  0.00    -0.316 C  
HETATM   41  C   UNL     1     -10.252   4.050  71.393  1.00  0.00     0.011 C  
HETATM   42  O   UNL     1     -10.824   4.541  72.608  1.00  0.00    -0.187 OA 
HETATM   43  C   UNL     1      -8.938   3.305  71.661  1.00  0.00    -0.099 C  
HETATM   44  C   UNL     1      -8.454   2.705  70.323  1.00  0.00    -0.046 C  
HETATM   45  H   UNL     1     -10.982   3.836  73.225  1.00  0.00     0.000 HD 
HETATM   46  O   UNL     1      -8.276   3.716  69.328  1.00  0.00    -0.057 OA 
HETATM   47  C   UNL     1      -9.307   1.568  69.772  1.00  0.00    -0.158 C  
BRANCH  43  48
HETATM   48  O   UNL     1      -7.858   4.160  72.102  1.00  0.00    -0.077 OA 
BRANCH  48  49
HETATM   49  C   UNL     1      -7.438   5.246  71.284  1.00  0.00    -0.091 C  
HETATM   50  C   UNL     1      -8.574   6.158  70.844  1.00  0.00    -0.132 C  
HETATM   51  C   UNL     1      -9.207   6.777  72.082  1.00  0.00    -0.136 C  
HETATM   52  C   UNL     1      -8.164   7.589  72.855  1.00  0.00    -0.118 C  
HETATM   53  O   UNL     1     -10.279   7.648  71.702  1.00  0.00    -0.184 OA 
HETATM   54  H   UNL     1     -10.674   8.034  72.474  1.00  0.00     0.000 HD 
HETATM   55  C   UNL     1      -6.891   6.767  73.121  1.00  0.00    -0.075 C  
HETATM   56  O   UNL     1      -7.835   8.760  72.085  1.00  0.00    -0.325 OA 
HETATM   57  H   UNL     1      -7.188   9.264  72.565  1.00  0.00     0.000 HD 
HETATM   58  C   UNL     1      -7.031   5.876  74.354  1.00  0.00    -0.084 C  
HETATM   59  O   UNL     1      -6.445   6.012  71.983  1.00  0.00    -0.051 OA 
ENDBRANCH  48  49
ENDBRANCH  43  48
ENDBRANCH  38  39
ENDBRANCH  30  38
ENDBRANCH  28  29
ENDBRANCH  18  28
TORSDOF 7
ENDMDL
MODEL       21
REMARK 921   NORMALIZED FREE ENERGY PREDICTED BY IDOCK:   36.35 KCAL/MOL
REMARK 922        TOTAL FREE ENERGY PREDICTED BY IDOCK:   51.40 KCAL/MOL
REMARK 923 INTER-LIGAND FREE ENERGY PREDICTED BY IDOCK:   33.05 KCAL/MOL
REMARK 924 INTRA-LIGAND FREE ENERGY PREDICTED BY IDOCK:   18.35 KCAL/MOL
REMARK 927      BINDING AFFINITY PREDICTED BY RF-SCORE:    0.00 PKD
ROOT
HETATM    1  C   UNL     1     -10.691  16.827  71.575  1.00  0.00     1.611 C  
HETATM    2  C   UNL     1      -9.314  16.201  71.724  1.00  0.00     6.302 C  
HETATM    3  C   UNL     1     -11.712  15.485  71.214  1.00  0.00    -0.457 C  
HETATM    4  C   UNL     1      -9.379  15.238  70.549  1.00  0.00     1.017 C  
HETATM    5  C   UNL     1     -12.794  16.173  70.356  1.00  0.00     0.831 C  
HETATM    6  C   UNL     1     -10.583  14.436  70.923  1.00  0.00     1.207 C  
HETATM    7  C   UNL     1     -12.652  14.485  72.061  1.00  0.00    -0.400 C  
HETATM    8  C   UNL     1     -10.827  13.276  69.978  1.00  0.00     0.691 C  
HETATM    9  O   UNL     1     -10.219  13.818  72.202  1.00  0.00     5.360 OA 
HETATM   10  C   UNL     1     -13.086  13.150  71.144  1.00  0.00    -0.202 C  
HETATM   11  C   UNL     1     -11.891  12.311  70.510  1.00  0.00    -0.164 C  
HETATM   12  C   UNL     1     -13.035  10.019  70.132  1.00  0.00     0.194 C  
HETATM   13  C   UNL     1      -9.480  12.538  69.915  1.00  0.00     2.751 C  
HETATM   14  H   UNL     1     -10.985  13.308  72.440  1.00  0.00     0.000 HD 
HETATM   15  C   UNL     1      -9.512  11.307  69.116  1.00  0.00     0.064 C  
HETATM   16  C   UNL     1     -10.576  10.294  69.572  1.00  0.00    -0.270 C  
HETATM   17  C   UNL     1     -10.444   9.025  68.692  1.00  0.00    -0.229 C  
HETATM   18  C   UNL     1     -10.182   9.469  67.260  1.00  0.00    -0.234 C  
HETATM   19  C   UNL     1     -11.987  10.971  69.508  1.00  0.00    -0.413 C  
HETATM   20  C   UNL     1     -11.357  10.397  66.821  1.00  0.00     0.362 C  
HETATM   21  C   UNL     1     -12.288  11.125  67.945  1.00  0.00     1.028 C  
ENDROOT
BRANCH   1  22
HETATM   22  C   UNL     1     -10.292  17.936  70.460  1.00  0.00     1.792 C  
HETATM   23  C   UNL     1      -9.815  17.721  69.222  1.00  0.00    -0.047 C  
HETATM   24  O   UNL     1      -9.464  19.096  67.303  1.00  0.00    -0.304 OA 
HETATM   25  C   UNL     1     -10.700  19.437  70.469  1.00  0.00     2.357 C  
HETATM   26  O   UNL     1     -10.397  19.958  69.188  1.00  0.00    -0.356 OA 
HETATM   27  C   UNL     1      -9.852  18.968  68.441  1.00  0.00    -0.392 C  
ENDBRANCH   1  22
BRANCH  18  28
HETATM   28  O   UNL     1      -9.715   8.404  66.414  1.00  0.00    -0.233 OA 
BRANCH  28  29
HETATM   29  C   UNL     1      -9.590   7.092  67.031  1.00  0.00    -0.157 C  
HETATM   30  C   UNL     1     -11.749   5.191  67.839  1.00  0.00     4.228 C  
HETATM   31  H   UNL     1     -13.125   6.410  69.754  1.00  0.00     0.000 HD 
HETATM   32  O   UNL     1     -12.200   6.625  69.759  1.00  0.00    -0.038 OA 
HETATM   33  C   UNL     1     -11.608   6.585  68.460  1.00  0.00     0.361 C  
HETATM   34  C   UNL     1     -11.300   5.344  66.367  1.00  0.00     0.704 C  
HETATM   35  C   UNL     1     -12.439   5.926  65.519  1.00  0.00     5.526 C  
HETATM   36  C   UNL     1     -10.122   6.930  68.467  1.00  0.00    -0.165 C  
HETATM   37  O   UNL     1     -10.070   6.064  66.136  1.00  0.00    -0.060 OA 
BRANCH  30  38
HETATM   38  O   UNL     1     -10.949   4.147  68.461  1.00  0.00     1.912 OA 
BRANCH  38  39
HETATM   39  C   UNL     1      -9.615   4.504  68.853  1.00  0.00    -0.166 C  
HETATM   40  C   UNL     1      -9.572   5.488  70.027  1.00  0.00    -0.218 C  
HETATM   41  C   UNL     1      -9.640   4.766  71.364  1.00  0.00    -0.163 C  
HETATM   42  O   UNL     1      -9.539   5.684  72.455  1.00  0.00    -0.150 OA 
HETATM   43  C   UNL     1      -8.531   3.708  71.426  1.00  0.00    -0.072 C  
HETATM   44  C   UNL     1      -8.783   2.692  70.291  1.00  0.00    -0.071 C  
HETATM   45  H   UNL     1      -9.581   5.233  73.290  1.00  0.00     0.000 HD 
HETATM   46  O   UNL     1      -8.812   3.329  69.012  1.00  0.00    -0.085 OA 
HETATM   47  C   UNL     1     -10.015   1.811  70.468  1.00  0.00     0.147 C  
BRANCH  43  48
HETATM   48  O   UNL     1      -7.207   4.231  71.174  1.00  0.00    -0.038 OA 
BRANCH  48  49
HETATM   49  C   UNL     1      -6.320   3.525  70.313  1.00  0.00    -0.028 C  
HETATM   50  C   UNL     1      -6.958   3.085  69.003  1.00  0.00    -0.044 C  
HETATM   51  C   UNL     1      -7.400   4.324  68.237  1.00  0.00    -0.064 C  
HETATM   52  C   UNL     1      -6.193   5.221  67.947  1.00  0.00    -0.038 C  
HETATM   53  O   UNL     1      -8.002   3.945  66.994  1.00  0.00    -0.094 OA 
HETATM   54  H   UNL     1      -8.277   4.718  66.516  1.00  0.00     0.000 HD 
HETATM   55  C   UNL     1      -5.379   5.503  69.221  1.00  0.00    -0.004 C  
HETATM   56  O   UNL     1      -5.360   4.564  66.973  1.00  0.00    -0.011 OA 
HETATM   57  H   UNL     1      -4.611   5.120  66.793  1.00  0.00     0.000 HD 
HETATM   58  C   UNL     1      -5.968   6.654  70.035  1.00  0.00    -0.023 C  
HETATM   59  O   UNL     1      -5.170   4.342  70.041  1.00  0.00    -0.003 OA 
ENDBRANCH  48  49
ENDBRANCH  43  48
ENDBRANCH  38  39
ENDBRANCH  30  38
ENDBRANCH  28  29
ENDBRANCH  18  28
TORSDOF 7
ENDMDL
MODEL       22
REMARK 921   NORMALIZED FREE ENERGY PREDICTED BY IDOCK:   45.72 KCAL/MOL
REMARK 922        TOTAL FREE ENERGY PREDICTED BY IDOCK:   64.61 KCAL/MOL
REMARK 923 INTER-LIGAND FREE ENERGY PREDICTED BY IDOCK:   12.18 KCAL/MOL
REMARK 924 INTRA-LIGAND FREE ENERGY PREDICTED BY IDOCK:   52.43 KCAL/MOL
REMARK 927      BINDING AFFINITY PREDICTED BY RF-SCORE:    0.00 PKD
ROOT
HETATM    1  C   UNL     1      -8.884   5.207  70.695  1.00  0.00    -0.150 C  
HETATM    2  C   UNL     1      -7.839   5.448  69.619  1.00  0.00    -0.078 C  
HETATM    3  C   UNL     1     -10.115   6.359  70.334  1.00  0.00    -0.221 C  
HETATM    4  C   UNL     1      -7.865   6.968  69.620  1.00  0.00    -0.119 C  
HETATM    5  C   UNL     1     -10.682   6.622  71.744  1.00  0.00    -0.257 C  
HETATM    6  C   UNL     1      -9.304   7.215  69.300  1.00  0.00    -0.146 C  
HETATM    7  C   UNL     1     -11.495   6.355  69.498  1.00  0.00    -0.412 C  
HETATM    8  C   UNL     1      -9.612   8.685  69.098  1.00  0.00    -0.163 C  
HETATM    9  O   UNL     1      -9.488   6.600  67.982  1.00  0.00    -0.120 OA 
HETATM   10  C   UNL     1     -12.036   7.919  69.227  1.00  0.00     1.554 C  
HETATM   11  C   UNL     1     -11.010   8.907  68.516  1.00  0.00     0.066 C  
HETATM   12  C   UNL     1     -12.626  10.674  67.526  1.00  0.00     4.286 C  
HETATM   13  C   UNL     1      -8.570   9.162  68.073  1.00  0.00    -0.125 C  
HETATM   14  H   UNL     1     -10.403   6.756  67.778  1.00  0.00     0.000 HD 
HETATM   15  C   UNL     1      -8.742  10.558  67.654  1.00  0.00    -0.121 C  
HETATM   16  C   UNL     1     -10.135  10.870  67.079  1.00  0.00    -0.244 C  
HETATM   17  C   UNL     1     -10.148  12.349  66.614  1.00  0.00    -0.234 C  
HETATM   18  C   UNL     1      -9.396  13.174  67.649  1.00  0.00    -0.205 C  
HETATM   19  C   UNL     1     -11.220  10.531  68.157  1.00  0.00    -0.357 C  
HETATM   20  C   UNL     1     -10.092  12.963  69.030  1.00  0.00     0.169 C  
HETATM   21  C   UNL     1     -11.036  11.656  69.279  1.00  0.00    -0.291 C  
ENDROOT
BRANCH   1  22
HETATM   22  C   UNL     1      -7.900   5.364  71.975  1.00  0.00    -0.106 C  
HETATM   23  C   UNL     1      -7.001   4.476  72.434  1.00  0.00    -0.057 C  
HETATM   24  O   UNL     1      -5.237   4.560  74.039  1.00  0.00    -0.007 OA 
HETATM   25  C   UNL     1      -7.555   6.689  72.713  1.00  0.00    -0.096 C  
HETATM   26  O   UNL     1      -6.455   6.419  73.562  1.00  0.00    -0.064 OA 
HETATM   27  C   UNL     1      -6.125   5.112  73.431  1.00  0.00    -0.042 C  
ENDBRANCH   1  22
BRANCH  18  28
HETATM   28  O   UNL     1      -9.051  14.488  67.180  1.00  0.00    -0.204 OA 
BRANCH  28  29
HETATM   29  C   UNL     1      -7.800  15.047  67.671  1.00  0.00    -0.168 C  
HETATM   30  C   UNL     1      -7.190  16.180  70.367  1.00  0.00     1.279 C  
HETATM   31  H   UNL     1      -8.725  18.330  70.628  1.00  0.00     0.000 HD 
HETATM   32  O   UNL     1      -8.437  18.178  69.735  1.00  0.00     0.803 OA 
HETATM   33  C   UNL     1      -8.241  16.795  69.437  1.00  0.00     0.182 C  
HETATM   34  C   UNL     1      -7.250  14.656  70.113  1.00  0.00     0.180 C  
HETATM   35  C   UNL     1      -8.418  14.031  70.889  1.00  0.00     4.615 C  
HETATM   36  C   UNL     1      -7.779  16.551  68.004  1.00  0.00    -0.163 C  
HETATM   37  O   UNL     1      -7.263  14.228  68.734  1.00  0.00    -0.116 OA 
BRANCH  30  38
HETATM   38  O   UNL     1      -5.824  16.632  70.150  1.00  0.00    -0.217 OA 
BRANCH  38  39
HETATM   39  C   UNL     1      -5.596  17.468  69.006  1.00  0.00    -0.180 C  
HETATM   40  C   UNL     1      -6.437  17.071  67.788  1.00  0.00    -0.157 C  
HETATM   41  C   UNL     1      -7.815  17.712  67.828  1.00  0.00    -0.210 C  
HETATM   42  O   UNL     1      -8.573  17.386  66.661  1.00  0.00    -0.230 OA 
HETATM   43  C   UNL     1      -7.665  19.231  67.984  1.00  0.00    -0.288 C  
HETATM   44  C   UNL     1      -6.945  19.499  69.324  1.00  0.00    -0.350 C  
HETATM   45  H   UNL     1      -9.434  17.787  66.685  1.00  0.00     0.000 HD 
HETATM   46  O   UNL     1      -5.673  18.849  69.376  1.00  0.00    -0.211 OA 
HETATM   47  C   UNL     1      -7.755  19.173  70.574  1.00  0.00     1.820 C  
BRANCH  43  48
HETATM   48  O   UNL     1      -6.826  19.844  66.979  1.00  0.00    -0.205 OA 
BRANCH  48  49
HETATM   49  C   UNL     1      -7.211  19.793  65.610  1.00  0.00    -0.301 C  
HETATM   50  C   UNL     1      -7.911  18.500  65.217  1.00  0.00     1.310 C  
HETATM   51  C   UNL     1      -9.195  18.378  66.026  1.00  0.00     0.019 C  
HETATM   52  C   UNL     1     -10.113  19.568  65.739  1.00  0.00    -0.245 C  
HETATM   53  O   UNL     1      -9.883  17.170  65.676  1.00  0.00    -0.552 OA 
HETATM   54  H   UNL     1     -10.683  17.094  66.181  1.00  0.00     0.000 HD 
HETATM   55  C   UNL     1      -9.372  20.906  65.901  1.00  0.00     0.958 C  
HETATM   56  O   UNL     1     -10.610  19.447  64.393  1.00  0.00     1.349 OA 
HETATM   57  H   UNL     1     -11.180  20.186  64.215  1.00  0.00     0.000 HD 
HETATM   58  C   UNL     1      -9.325  21.364  67.357  1.00  0.00     0.303 C  
HETATM   59  O   UNL     1      -8.061  20.913  65.313  1.00  0.00     0.692 OA 
ENDBRANCH  48  49
ENDBRANCH  43  48
ENDBRANCH  38  39
ENDBRANCH  30  38
ENDBRANCH  28  29
ENDBRANCH  18  28
TORSDOF 7
ENDMDL
MODEL       23
REMARK 921   NORMALIZED FREE ENERGY PREDICTED BY IDOCK:   73.03 KCAL/MOL
REMARK 922        TOTAL FREE ENERGY PREDICTED BY IDOCK:  103.09 KCAL/MOL
REMARK 923 INTER-LIGAND FREE ENERGY PREDICTED BY IDOCK:   69.99 KCAL/MOL
REMARK 924 INTRA-LIGAND FREE ENERGY PREDICTED BY IDOCK:   33.10 KCAL/MOL
REMARK 927      BINDING AFFINITY PREDICTED BY RF-SCORE:    0.00 PKD
ROOT
HETATM    1  C   UNL     1      -5.891  16.421  69.065  1.00  0.00    -0.136 C  
HETATM    2  C   UNL     1      -5.372  15.086  68.561  1.00  0.00    -0.101 C  
HETATM    3  C   UNL     1      -7.194  15.985  70.108  1.00  0.00     0.610 C  
HETATM    4  C   UNL     1      -6.709  14.405  68.315  1.00  0.00    -0.114 C  
HETATM    5  C   UNL     1      -8.106  17.220  69.956  1.00  0.00     1.935 C  
HETATM    6  C   UNL     1      -7.306  14.479  69.683  1.00  0.00    -0.011 C  
HETATM    7  C   UNL     1      -7.373  15.724  71.689  1.00  0.00     4.465 C  
HETATM    8  C   UNL     1      -8.625  13.741  69.784  1.00  0.00     1.542 C  
HETATM    9  O   UNL     1      -6.375  13.717  70.522  1.00  0.00    -0.374 OA 
HETATM   10  C   UNL     1      -8.830  14.960  72.009  1.00  0.00     5.853 C  
HETATM   11  C   UNL     1      -9.097  13.595  71.234  1.00  0.00     8.992 C  
HETATM   12  C   UNL     1     -10.850  12.478  72.779  1.00  0.00    12.697 C  
HETATM   13  C   UNL     1      -8.331  12.342  69.219  1.00  0.00     0.738 C  
HETATM   14  H   UNL     1      -6.754  13.765  71.392  1.00  0.00     0.000 HD 
HETATM   15  C   UNL     1      -9.464  11.413  69.306  1.00  0.00     0.258 C  
HETATM   16  C   UNL     1     -10.015  11.232  70.732  1.00  0.00     3.773 C  
HETATM   17  C   UNL     1     -11.150  10.177  70.682  1.00  0.00    -0.397 C  
HETATM   18  C   UNL     1     -11.972  10.429  69.426  1.00  0.00    -0.079 C  
HETATM   19  C   UNL     1     -10.463  12.626  71.288  1.00  0.00     7.043 C  
HETATM   20  C   UNL     1     -12.504  11.894  69.485  1.00  0.00     0.067 C  
HETATM   21  C   UNL     1     -11.771  12.993  70.444  1.00  0.00    -0.117 C  
ENDROOT
BRANCH   1  22
HETATM   22  C   UNL     1      -6.135  17.107  67.615  1.00  0.00    -0.154 C  
HETATM   23  C   UNL     1      -5.810  16.612  66.408  1.00  0.00     0.391 C  
HETATM   24  O   UNL     1      -6.327  17.220  64.158  1.00  0.00     3.532 OA 
HETATM   25  C   UNL     1      -7.089  18.296  67.309  1.00  0.00    -0.199 C  
HETATM   26  O   UNL     1      -7.217  18.376  65.901  1.00  0.00    -0.348 OA 
HETATM   27  C   UNL     1      -6.452  17.405  65.347  1.00  0.00     0.784 C  
ENDBRANCH   1  22
BRANCH  18  28
HETATM   28  O   UNL     1     -12.840   9.332  69.091  1.00  0.00     2.510 OA 
BRANCH  28  29
HETATM   29  C   UNL     1     -12.286   8.307  68.220  1.00  0.00     4.513 C  
HETATM   30  C   UNL     1      -9.947   8.489  66.370  1.00  0.00    -0.244 C  
HETATM   31  H   UNL     1     -10.606  10.278  64.523  1.00  0.00     0.000 HD 
HETATM   32  O   UNL     1     -11.345   9.771  64.837  1.00  0.00     2.852 OA 
HETATM   33  C   UNL     1     -11.201   9.353  66.195  1.00  0.00     1.802 C  
HETATM   34  C   UNL     1      -9.773   8.313  67.896  1.00  0.00    -0.161 C  
HETATM   35  C   UNL     1      -9.102   9.552  68.504  1.00  0.00    -0.131 C  
HETATM   36  C   UNL     1     -12.387   8.538  66.701  1.00  0.00     9.534 C  
HETATM   37  O   UNL     1     -10.952   7.948  68.646  1.00  0.00    -0.003 OA 
BRANCH  30  38
HETATM   38  O   UNL     1     -10.006   7.172  65.755  1.00  0.00     0.459 OA 
BRANCH  38  39
HETATM   39  C   UNL     1      -9.387   6.096  66.475  1.00  0.00    -0.153 C  
HETATM   40  C   UNL     1      -8.427   5.266  65.617  1.00  0.00    -0.135 C  
HETATM   41  C   UNL     1      -7.036   5.879  65.581  1.00  0.00    -0.068 C  
HETATM   42  O   UNL     1      -6.130   5.069  64.829  1.00  0.00    -0.024 OA 
HETATM   43  C   UNL     1      -6.534   6.083  67.017  1.00  0.00    -0.050 C  
HETATM   44  C   UNL     1      -7.500   7.062  67.720  1.00  0.00    -0.098 C  
HETATM   45  H   UNL     1      -5.261   5.452  64.807  1.00  0.00     0.000 HD 
HETATM   46  O   UNL     1      -8.842   6.573  67.711  1.00  0.00    -0.115 OA 
HETATM   47  C   UNL     1      -7.458   8.497  67.209  1.00  0.00    -0.093 C  
BRANCH  43  48
HETATM   48  O   UNL     1      -6.563   4.883  67.824  1.00  0.00    -0.047 OA 
BRANCH  48  49
HETATM   49  C   UNL     1      -7.811   4.345  68.245  1.00  0.00    -0.079 C  
HETATM   50  C   UNL     1      -8.909   4.445  67.196  1.00  0.00    -0.119 C  
HETATM   51  C   UNL     1      -8.488   3.640  65.974  1.00  0.00    -0.111 C  
HETATM   52  C   UNL     1      -8.277   2.174  66.359  1.00  0.00    -0.088 C  
HETATM   53  O   UNL     1      -9.504   3.710  64.966  1.00  0.00    -0.147 OA 
HETATM   54  H   UNL     1      -9.241   3.208  64.204  1.00  0.00     0.000 HD 
HETATM   55  C   UNL     1      -7.346   2.037  67.576  1.00  0.00    -0.055 C  
HETATM   56  O   UNL     1      -9.558   1.591  66.659  1.00  0.00    -0.341 OA 
HETATM   57  H   UNL     1      -9.427   0.681  66.898  1.00  0.00     0.000 HD 
HETATM   58  C   UNL     1      -5.872   2.088  67.179  1.00  0.00    -0.019 C  
HETATM   59  O   UNL     1      -7.633   2.972  68.628  1.00  0.00    -0.049 OA 
ENDBRANCH  48  49
ENDBRANCH  43  48
ENDBRANCH  38  39
ENDBRANCH  30  38
ENDBRANCH  28  29
ENDBRANCH  18  28
TORSDOF 7
ENDMDL
MODEL       24
REMARK 921   NORMALIZED FREE ENERGY PREDICTED BY IDOCK:   83.17 KCAL/MOL
REMARK 922        TOTAL FREE ENERGY PREDICTED BY IDOCK:  117.38 KCAL/MOL
REMARK 923 INTER-LIGAND FREE ENERGY PREDICTED BY IDOCK:   31.59 KCAL/MOL
REMARK 924 INTRA-LIGAND FREE ENERGY PREDICTED BY IDOCK:   85.78 KCAL/MOL
REMARK 927      BINDING AFFINITY PREDICTED BY RF-SCORE:    0.00 PKD
ROOT
HETATM    1  C   UNL     1     -11.561   7.102  69.581  1.00  0.00     0.030 C  
HETATM    2  C   UNL     1     -11.023   7.811  68.350  1.00  0.00     0.128 C  
HETATM    3  C   UNL     1     -12.191   8.384  70.547  1.00  0.00     0.234 C  
HETATM    4  C   UNL     1     -10.373   8.999  69.043  1.00  0.00    -0.233 C  
HETATM    5  C   UNL     1     -11.992   7.800  71.961  1.00  0.00    -0.350 C  
HETATM    6  C   UNL     1     -11.554   9.577  69.752  1.00  0.00     0.077 C  
HETATM    7  C   UNL     1     -13.633   9.076  70.755  1.00  0.00     0.281 C  
HETATM    8  C   UNL     1     -11.235  10.887  70.444  1.00  0.00    -0.191 C  
HETATM    9  O   UNL     1     -12.483   9.930  68.674  1.00  0.00     0.459 OA 
HETATM   10  C   UNL     1     -13.488  10.531  71.574  1.00  0.00    -0.265 C  
HETATM   11  C   UNL     1     -12.495  11.602  70.939  1.00  0.00    -0.440 C  
HETATM   12  C   UNL     1     -13.408  13.798  71.965  1.00  0.00    -0.536 C  
HETATM   13  C   UNL     1     -10.574  11.749  69.356  1.00  0.00     0.033 C  
HETATM   14  H   UNL     1     -13.234  10.298  69.124  1.00  0.00     0.000 HD 
HETATM   15  C   UNL     1     -10.261  13.116  69.787  1.00  0.00     1.250 C  
HETATM   16  C   UNL     1     -11.474  13.895  70.324  1.00  0.00    -0.122 C  
HETATM   17  C   UNL     1     -11.012  15.334  70.669  1.00  0.00    -0.318 C  
HETATM   18  C   UNL     1      -9.640  15.244  71.323  1.00  0.00     2.388 C  
HETATM   19  C   UNL     1     -12.088  13.114  71.536  1.00  0.00     0.413 C  
HETATM   20  C   UNL     1      -9.766  14.326  72.578  1.00  0.00     7.570 C  
HETATM   21  C   UNL     1     -11.011  13.280  72.706  1.00  0.00     7.897 C  
ENDROOT
BRANCH   1  22
HETATM   22  C   UNL     1     -10.201   6.310  69.973  1.00  0.00    -0.237 C  
HETATM   23  C   UNL     1     -10.092   5.104  70.557  1.00  0.00    -0.326 C  
HETATM   24  O   UNL     1      -8.288   3.589  70.941  1.00  0.00    -0.064 OA 
HETATM   25  C   UNL     1      -8.771   6.625  69.450  1.00  0.00    -0.135 C  
HETATM   26  O   UNL     1      -7.947   5.528  69.806  1.00  0.00    -0.087 OA 
HETATM   27  C   UNL     1      -8.701   4.628  70.480  1.00  0.00    -0.102 C  
ENDBRANCH   1  22
BRANCH  18  28
HETATM   28  O   UNL     1      -8.962  16.510  71.388  1.00  0.00     5.470 OA 
BRANCH  28  29
HETATM   29  C   UNL     1      -8.597  17.119  70.118  1.00  0.00     2.427 C  
HETATM   30  C   UNL     1      -6.895  19.522  69.617  1.00  0.00    -0.247 C  
HETATM   31  H   UNL     1      -8.185  21.577  70.696  1.00  0.00     0.000 HD 
HETATM   32  O   UNL     1      -8.764  20.913  70.340  1.00  0.00     1.984 OA 
HETATM   33  C   UNL     1      -8.211  19.597  70.399  1.00  0.00     1.484 C  
HETATM   34  C   UNL     1      -6.285  18.143  69.959  1.00  0.00    -0.040 C  
HETATM   35  C   UNL     1      -5.570  18.198  71.316  1.00  0.00     0.166 C  
HETATM   36  C   UNL     1      -9.140  18.530  69.827  1.00  0.00     0.995 C  
HETATM   37  O   UNL     1      -7.174  17.007  69.894  1.00  0.00     0.281 OA 
BRANCH  30  38
HETATM   38  O   UNL     1      -7.022  19.627  68.171  1.00  0.00    -0.265 OA 
BRANCH  38  39
HETATM   39  C   UNL     1      -7.555  18.483  67.486  1.00  0.00    -0.228 C  
HETATM   40  C   UNL     1      -8.321  17.529  68.407  1.00  0.00    -0.278 C  
HETATM   41  C   UNL     1      -9.772  17.953  68.570  1.00  0.00    -0.351 C  
HETATM   42  O   UNL     1     -10.496  17.026  69.382  1.00  0.00    -0.321 OA 
HETATM   43  C   UNL     1     -10.417  18.098  67.185  1.00  0.00    -0.378 C  
HETATM   44  C   UNL     1      -9.651  19.201  66.421  1.00  0.00    -0.361 C  
HETATM   45  H   UNL     1     -11.403  17.291  69.483  1.00  0.00     0.000 HD 
HETATM   46  O   UNL     1      -8.260  18.893  66.310  1.00  0.00    -0.293 OA 
HETATM   47  C   UNL     1      -9.837  20.614  66.960  1.00  0.00    -0.449 C  
BRANCH  43  48
HETATM   48  O   UNL     1     -10.301  16.918  66.358  1.00  0.00    -0.308 OA 
BRANCH  48  49
HETATM   49  C   UNL     1     -11.182  15.820  66.565  1.00  0.00     0.023 C  
HETATM   50  C   UNL     1     -10.602  14.727  67.450  1.00  0.00    -0.268 C  
HETATM   51  C   UNL     1     -10.323  15.314  68.827  1.00  0.00    -0.232 C  
HETATM   52  C   UNL     1     -11.619  15.845  69.445  1.00  0.00    -0.349 C  
HETATM   53  O   UNL     1      -9.779  14.307  69.689  1.00  0.00    -0.304 OA 
HETATM   54  H   UNL     1      -9.605  14.674  70.548  1.00  0.00     0.000 HD 
HETATM   55  C   UNL     1     -12.363  16.784  68.480  1.00  0.00     1.834 C  
HETATM   56  O   UNL     1     -12.458  14.724  69.777  1.00  0.00    -0.491 OA 
HETATM   57  H   UNL     1     -13.263  15.053  70.161  1.00  0.00     0.000 HD 
HETATM   58  C   UNL     1     -11.818  18.210  68.533  1.00  0.00     2.974 C  
HETATM   59  O   UNL     1     -12.414  16.298  67.129  1.00  0.00     1.764 OA 
ENDBRANCH  48  49
ENDBRANCH  43  48
ENDBRANCH  38  39
ENDBRANCH  30  38
ENDBRANCH  28  29
ENDBRANCH  18  28
TORSDOF 7
ENDMDL
MODEL       25
REMARK 921   NORMALIZED FREE ENERGY PREDICTED BY IDOCK:   87.16 KCAL/MOL
REMARK 922        TOTAL FREE ENERGY PREDICTED BY IDOCK:  123.00 KCAL/MOL
REMARK 923 INTER-LIGAND FREE ENERGY PREDICTED BY IDOCK:   41.33 KCAL/MOL
REMARK 924 INTRA-LIGAND FREE ENERGY PREDICTED BY IDOCK:   81.67 KCAL/MOL
REMARK 927      BINDING AFFINITY PREDICTED BY RF-SCORE:    0.00 PKD
ROOT
HETATM    1  C   UNL     1      -9.194  17.059  70.004  1.00  0.00     1.540 C  
HETATM    2  C   UNL     1      -7.904  16.266  70.123  1.00  0.00     1.313 C  
HETATM    3  C   UNL     1     -10.339  15.896  69.448  1.00  0.00    -0.265 C  
HETATM    4  C   UNL     1      -8.018  15.461  68.838  1.00  0.00    -0.177 C  
HETATM    5  C   UNL     1     -11.296  16.799  68.643  1.00  0.00    -0.062 C  
HETATM    6  C   UNL     1      -9.319  14.764  69.070  1.00  0.00    -0.160 C  
HETATM    7  C   UNL     1     -11.423  14.918  70.134  1.00  0.00    -0.320 C  
HETATM    8  C   UNL     1      -9.644  13.759  67.984  1.00  0.00    -0.214 C  
HETATM    9  O   UNL     1      -9.087  13.964  70.276  1.00  0.00     1.576 OA 
HETATM   10  C   UNL     1     -11.956  13.758  69.048  1.00  0.00    -0.399 C  
HETATM   11  C   UNL     1     -10.832  12.868  68.357  1.00  0.00    -0.276 C  
HETATM   12  C   UNL     1     -12.202  10.782  67.665  1.00  0.00     1.573 C  
HETATM   13  C   UNL     1      -8.385  12.883  67.877  1.00  0.00    -0.170 C  
HETATM   14  H   UNL     1      -9.915  13.520  70.424  1.00  0.00     0.000 HD 
HETATM   15  C   UNL     1      -8.514  11.767  66.934  1.00  0.00    -0.174 C  
HETATM   16  C   UNL     1      -9.703  10.836  67.226  1.00  0.00    -0.187 C  
HETATM   17  C   UNL     1      -9.671   9.672  66.203  1.00  0.00    -0.317 C  
HETATM   18  C   UNL     1      -9.293  10.248  64.846  1.00  0.00    -0.252 C  
HETATM   19  C   UNL     1     -11.027  11.673  67.198  1.00  0.00    -0.330 C  
HETATM   20  C   UNL     1     -10.337  11.349  64.483  1.00  0.00    -0.369 C  
HETATM   21  C   UNL     1     -11.234  12.043  65.656  1.00  0.00    -0.377 C  
ENDROOT
BRANCH   1  22
HETATM   22  C   UNL     1      -8.623  18.238  69.047  1.00  0.00    -0.039 C  
HETATM   23  C   UNL     1      -7.631  18.154  68.144  1.00  0.00    -0.269 C  
HETATM   24  O   UNL     1      -6.821  19.582  66.412  1.00  0.00    -0.196 OA 
HETATM   25  C   UNL     1      -9.324  19.591  68.736  1.00  0.00    -0.363 C  
HETATM   26  O   UNL     1      -8.633  20.177  67.648  1.00  0.00    -0.323 OA 
HETATM   27  C   UNL     1      -7.615  19.357  67.296  1.00  0.00    -0.242 C  
ENDBRANCH   1  22
BRANCH  18  28
HETATM   28  O   UNL     1      -8.907   9.242  63.894  1.00  0.00    -0.204 OA 
BRANCH  28  29
HETATM   29  C   UNL     1      -9.007   7.858  64.333  1.00  0.00     0.806 C  
HETATM   30  C   UNL     1     -11.454   6.182  64.690  1.00  0.00     6.973 C  
HETATM   31  H   UNL     1     -12.853   7.327  66.635  1.00  0.00     0.000 HD 
HETATM   32  O   UNL     1     -11.913   7.412  66.745  1.00  0.00     2.222 OA 
HETATM   33  C   UNL     1     -11.204   7.455  65.507  1.00  0.00     5.961 C  
HETATM   34  C   UNL     1     -10.845   6.456  63.296  1.00  0.00     9.103 C  
HETATM   35  C   UNL     1     -11.813   7.288  62.444  1.00  0.00    14.137 C  
HETATM   36  C   UNL     1      -9.695   7.592  65.684  1.00  0.00     0.678 C  
HETATM   37  O   UNL     1      -9.518   7.025  63.268  1.00  0.00     2.159 OA 
BRANCH  30  38
HETATM   38  O   UNL     1     -10.855   4.969  65.228  1.00  0.00     0.074 OA 
BRANCH  38  39
HETATM   39  C   UNL     1      -9.581   5.111  65.874  1.00  0.00    -0.148 C  
HETATM   40  C   UNL     1      -8.577   5.932  65.059  1.00  0.00    -0.065 C  
HETATM   41  C   UNL     1      -8.734   7.422  65.316  1.00  0.00     0.084 C  
HETATM   42  O   UNL     1      -7.756   8.179  64.600  1.00  0.00    -0.103 OA 
HETATM   43  C   UNL     1      -8.646   7.690  66.824  1.00  0.00    -0.129 C  
HETATM   44  C   UNL     1      -9.807   6.935  67.507  1.00  0.00    -0.138 C  
HETATM   45  H   UNL     1      -7.854   9.110  64.760  1.00  0.00     0.000 HD 
HETATM   46  O   UNL     1      -9.757   5.534  67.231  1.00  0.00    -0.125 OA 
HETATM   47  C   UNL     1     -11.200   7.480  67.212  1.00  0.00     0.271 C  
BRANCH  43  48
HETATM   48  O   UNL     1      -7.446   7.170  67.442  1.00  0.00    -0.095 OA 
BRANCH  48  49
HETATM   49  C   UNL     1      -7.526   6.522  68.706  1.00  0.00    -0.088 C  
HETATM   50  C   UNL     1      -8.681   5.538  68.819  1.00  0.00    -0.102 C  
HETATM   51  C   UNL     1      -8.483   4.436  67.787  1.00  0.00    -0.098 C  
HETATM   52  C   UNL     1      -7.160   3.709  68.041  1.00  0.00    -0.051 C  
HETATM   53  O   UNL     1      -9.554   3.488  67.870  1.00  0.00    -0.190 OA 
HETATM   54  H   UNL     1      -9.430   2.801  67.225  1.00  0.00     0.000 HD 
HETATM   55  C   UNL     1      -5.987   4.696  68.167  1.00  0.00    -0.027 C  
HETATM   56  O   UNL     1      -7.285   2.945  69.255  1.00  0.00    -0.044 OA 
HETATM   57  H   UNL     1      -6.464   2.494  69.413  1.00  0.00     0.000 HD 
HETATM   58  C   UNL     1      -5.435   5.108  66.804  1.00  0.00    -0.013 C  
HETATM   59  O   UNL     1      -6.287   5.846  68.974  1.00  0.00    -0.037 OA 
ENDBRANCH  48  49
ENDBRANCH  43  48
ENDBRANCH  38  39
ENDBRANCH  30  38
ENDBRANCH  28  29
ENDBRANCH  18  28
TORSDOF 7
ENDMDL
MODEL       26
REMARK 921   NORMALIZED FREE ENERGY PREDICTED BY IDOCK:  110.93 KCAL/MOL
REMARK 922        TOTAL FREE ENERGY PREDICTED BY IDOCK:  156.50 KCAL/MOL
REMARK 923 INTER-LIGAND FREE ENERGY PREDICTED BY IDOCK:  129.00 KCAL/MOL
REMARK 924 INTRA-LIGAND FREE ENERGY PREDICTED BY IDOCK:   27.50 KCAL/MOL
REMARK 927      BINDING AFFINITY PREDICTED BY RF-SCORE:    0.00 PKD
ROOT
HETATM    1  C   UNL     1      -5.893  16.409  69.100  1.00  0.00    -0.142 C  
HETATM    2  C   UNL     1      -5.408  15.020  68.719  1.00  0.00    -0.088 C  
HETATM    3  C   UNL     1      -6.980  16.117  70.407  1.00  0.00     0.976 C  
HETATM    4  C   UNL     1      -6.736  14.286  68.815  1.00  0.00    -0.095 C  
HETATM    5  C   UNL     1      -7.958  17.297  70.234  1.00  0.00     2.769 C  
HETATM    6  C   UNL     1      -7.095  14.561  70.239  1.00  0.00     0.237 C  
HETATM    7  C   UNL     1      -6.877  16.102  72.017  1.00  0.00     4.997 C  
HETATM    8  C   UNL     1      -8.344  13.824  70.679  1.00  0.00     4.219 C  
HETATM    9  O   UNL     1      -6.003  13.956  71.008  1.00  0.00    -0.289 OA 
HETATM   10  C   UNL     1      -8.223  15.370  72.697  1.00  0.00     9.142 C  
HETATM   11  C   UNL     1      -8.556  13.897  72.193  1.00  0.00    10.426 C  
HETATM   12  C   UNL     1      -9.971  13.002  74.170  1.00  0.00    15.930 C  
HETATM   13  C   UNL     1      -8.088  12.360  70.287  1.00  0.00     3.952 C  
HETATM   14  H   UNL     1      -6.231  14.131  71.914  1.00  0.00     0.000 HD 
HETATM   15  C   UNL     1      -9.148  11.436  70.709  1.00  0.00     5.748 C  
HETATM   16  C   UNL     1      -9.440  11.469  72.219  1.00  0.00    17.305 C  
HETATM   17  C   UNL     1     -10.519  10.399  72.527  1.00  0.00     6.689 C  
HETATM   18  C   UNL     1     -11.553  10.438  71.410  1.00  0.00    -0.032 C  
HETATM   19  C   UNL     1      -9.850  12.924  72.629  1.00  0.00    18.137 C  
HETATM   20  C   UNL     1     -12.131  11.885  71.340  1.00  0.00     0.326 C  
HETATM   21  C   UNL     1     -11.297  13.132  71.981  1.00  0.00     4.174 C  
ENDROOT
BRANCH   1  22
HETATM   22  C   UNL     1      -6.410  16.856  67.629  1.00  0.00    -0.166 C  
HETATM   23  C   UNL     1      -6.271  16.187  66.471  1.00  0.00     0.749 C  
HETATM   24  O   UNL     1      -7.186  16.428  64.280  1.00  0.00     8.195 OA 
HETATM   25  C   UNL     1      -7.456  17.964  67.319  1.00  0.00    -0.197 C  
HETATM   26  O   UNL     1      -7.822  17.822  65.958  1.00  0.00    -0.458 OA 
HETATM   27  C   UNL     1      -7.118  16.793  65.431  1.00  0.00     2.447 C  
ENDBRANCH   1  22
BRANCH  18  28
HETATM   28  O   UNL     1     -12.415   9.287  71.399  1.00  0.00    -0.314 OA 
BRANCH  28  29
HETATM   29  C   UNL     1     -11.988   8.161  70.583  1.00  0.00    -0.029 C  
HETATM   30  C   UNL     1     -10.111   8.143  68.258  1.00  0.00    -0.197 C  
HETATM   31  H   UNL     1     -11.269   9.601  66.365  1.00  0.00     0.000 HD 
HETATM   32  O   UNL     1     -11.887   9.121  66.903  1.00  0.00     2.418 OA 
HETATM   33  C   UNL     1     -11.431   8.922  68.242  1.00  0.00     1.017 C  
HETATM   34  C   UNL     1      -9.607   8.210  69.718  1.00  0.00    -0.171 C  
HETATM   35  C   UNL     1      -8.910   9.553  69.982  1.00  0.00    -0.246 C  
HETATM   36  C   UNL     1     -12.424   8.151  69.106  1.00  0.00     3.479 C  
HETATM   37  O   UNL     1     -10.572   7.922  70.752  1.00  0.00    -0.209 OA 
BRANCH  30  38
HETATM   38  O   UNL     1     -10.207   6.746  67.865  1.00  0.00    -0.150 OA 
BRANCH  38  39
HETATM   39  C   UNL     1      -9.391   5.814  68.590  1.00  0.00    -0.122 C  
HETATM   40  C   UNL     1     -10.191   4.925  69.548  1.00  0.00    -0.247 C  
HETATM   41  C   UNL     1     -10.746   3.699  68.841  1.00  0.00     2.997 C  
HETATM   42  O   UNL     1     -11.441   2.844  69.752  1.00  0.00     7.244 OA 
HETATM   43  C   UNL     1      -9.601   2.953  68.145  1.00  0.00    -0.054 C  
HETATM   44  C   UNL     1      -8.985   3.904  67.096  1.00  0.00    -0.138 C  
HETATM   45  H   UNL     1     -11.787   2.078  69.310  1.00  0.00     0.000 HD 
HETATM   46  O   UNL     1      -8.519   5.115  67.695  1.00  0.00    -0.106 OA 
HETATM   47  C   UNL     1      -9.876   4.218  65.899  1.00  0.00    -0.230 C  
BRANCH  43  48
HETATM   48  O   UNL     1      -8.507   2.606  69.025  1.00  0.00    -0.061 OA 
BRANCH  48  49
HETATM   49  C   UNL     1      -7.642   3.625  69.513  1.00  0.00    -0.052 C  
HETATM   50  C   UNL     1      -8.347   4.944  69.795  1.00  0.00    -0.077 C  
HETATM   51  C   UNL     1      -9.390   4.715  70.879  1.00  0.00    -0.150 C  
HETATM   52  C   UNL     1      -8.718   4.207  72.157  1.00  0.00    -0.107 C  
HETATM   53  O   UNL     1     -10.071   5.941  71.173  1.00  0.00    -0.187 OA 
HETATM   54  H   UNL     1     -10.722   5.798  71.849  1.00  0.00     0.000 HD 
HETATM   55  C   UNL     1      -7.804   3.003  71.874  1.00  0.00    -0.054 C  
HETATM   56  O   UNL     1      -7.946   5.281  72.725  1.00  0.00    -0.100 OA 
HETATM   57  H   UNL     1      -7.528   4.966  73.518  1.00  0.00     0.000 HD 
HETATM   58  C   UNL     1      -8.582   1.690  71.828  1.00  0.00    -0.074 C  
HETATM   59  O   UNL     1      -6.986   3.163  70.704  1.00  0.00    -0.033 OA 
ENDBRANCH  48  49
ENDBRANCH  43  48
ENDBRANCH  38  39
ENDBRANCH  30  38
ENDBRANCH  28  29
ENDBRANCH  18  28
TORSDOF 7
ENDMDL
MODEL       27
REMARK 921   NORMALIZED FREE ENERGY PREDICTED BY IDOCK:  119.75 KCAL/MOL
REMARK 922        TOTAL FREE ENERGY PREDICTED BY IDOCK:  168.93 KCAL/MOL
REMARK 923 INTER-LIGAND FREE ENERGY PREDICTED BY IDOCK:   85.25 KCAL/MOL
REMARK 924 INTRA-LIGAND FREE ENERGY PREDICTED BY IDOCK:   83.68 KCAL/MOL
REMARK 927      BINDING AFFINITY PREDICTED BY RF-SCORE:    0.00 PKD
ROOT
HETATM    1  C   UNL     1      -6.614   6.902  67.729  1.00  0.00    -0.055 C  
HETATM    2  C   UNL     1      -5.343   7.719  67.887  1.00  0.00    -0.032 C  
HETATM    3  C   UNL     1      -7.437   7.676  66.426  1.00  0.00    -0.084 C  
HETATM    4  C   UNL     1      -5.948   9.105  67.724  1.00  0.00    -0.049 C  
HETATM    5  C   UNL     1      -8.904   7.381  66.800  1.00  0.00    -0.148 C  
HETATM    6  C   UNL     1      -6.560   8.975  66.367  1.00  0.00    -0.067 C  
HETATM    7  C   UNL     1      -7.531   7.467  64.830  1.00  0.00    -0.091 C  
HETATM    8  C   UNL     1      -7.140  10.280  65.861  1.00  0.00    -0.131 C  
HETATM    9  O   UNL     1      -5.422   8.694  65.486  1.00  0.00    -0.034 OA 
HETATM   10  C   UNL     1      -8.219   8.805  64.090  1.00  0.00    -0.163 C  
HETATM   11  C   UNL     1      -7.524  10.207  64.381  1.00  0.00    -0.123 C  
HETATM   12  C   UNL     1      -8.312  11.589  62.336  1.00  0.00     0.198 C  
HETATM   13  C   UNL     1      -6.001  11.300  66.026  1.00  0.00     0.006 C  
HETATM   14  H   UNL     1      -5.811   8.611  64.622  1.00  0.00     0.000 HD 
HETATM   15  C   UNL     1      -6.316  12.635  65.504  1.00  0.00     5.494 C  
HETATM   16  C   UNL     1      -6.738  12.644  64.024  1.00  0.00    10.393 C  
HETATM   17  C   UNL     1      -6.967  14.116  63.594  1.00  0.00    23.305 C  
HETATM   18  C   UNL     1      -7.673  14.835  64.735  1.00  0.00    11.486 C  
HETATM   19  C   UNL     1      -7.994  11.725  63.845  1.00  0.00     2.104 C  
HETATM   20  C   UNL     1      -9.002  14.074  65.034  1.00  0.00     2.277 C  
HETATM   21  C   UNL     1      -9.181  12.523  64.559  1.00  0.00     0.753 C  
ENDROOT
BRANCH   1  22
HETATM   22  C   UNL     1      -7.124   7.017  69.265  1.00  0.00    -0.083 C  
HETATM   23  C   UNL     1      -6.372   7.133  70.374  1.00  0.00    -0.035 C  
HETATM   24  O   UNL     1      -6.831   7.640  72.660  1.00  0.00    -0.063 OA 
HETATM   25  C   UNL     1      -8.568   7.359  69.732  1.00  0.00    -0.140 C  
HETATM   26  O   UNL     1      -8.501   7.641  71.118  1.00  0.00    -0.113 OA 
HETATM   27  C   UNL     1      -7.217   7.492  71.524  1.00  0.00    -0.070 C  
ENDBRANCH   1  22
BRANCH  18  28
HETATM   28  O   UNL     1      -7.646  16.266  64.601  1.00  0.00     5.578 OA 
BRANCH  28  29
HETATM   29  C   UNL     1      -8.096  17.036  65.752  1.00  0.00     0.311 C  
HETATM   30  C   UNL     1      -8.625  16.096  68.538  1.00  0.00    -0.202 C  
HETATM   31  H   UNL     1     -10.655  14.394  68.369  1.00  0.00     0.000 HD 
HETATM   32  O   UNL     1     -10.701  15.101  67.736  1.00  0.00    -0.265 OA 
HETATM   33  C   UNL     1      -9.418  15.579  67.333  1.00  0.00    -0.211 C  
HETATM   34  C   UNL     1      -7.191  16.348  68.016  1.00  0.00    -0.136 C  
HETATM   35  C   UNL     1      -6.404  15.031  67.962  1.00  0.00    -0.160 C  
HETATM   36  C   UNL     1      -9.492  16.714  66.317  1.00  0.00    -0.321 C  
HETATM   37  O   UNL     1      -7.071  17.068  66.771  1.00  0.00    -0.188 OA 
BRANCH  30  38
HETATM   38  O   UNL     1      -9.125  17.328  69.131  1.00  0.00    -0.150 OA 
BRANCH  38  39
HETATM   39  C   UNL     1      -8.195  18.416  69.237  1.00  0.00     0.211 C  
HETATM   40  C   UNL     1      -8.626  19.485  70.246  1.00  0.00     1.445 C  
HETATM   41  C   UNL     1      -8.184  19.132  71.657  1.00  0.00     5.789 C  
HETATM   42  O   UNL     1      -8.536  20.161  72.585  1.00  0.00     1.169 OA 
HETATM   43  C   UNL     1      -6.671  18.874  71.665  1.00  0.00     2.479 C  
HETATM   44  C   UNL     1      -6.392  17.674  70.734  1.00  0.00     1.254 C  
HETATM   45  H   UNL     1      -8.259  19.941  73.466  1.00  0.00     0.000 HD 
HETATM   46  O   UNL     1      -6.864  17.918  69.407  1.00  0.00    -0.225 OA 
HETATM   47  C   UNL     1      -6.903  16.328  71.235  1.00  0.00     3.118 C  
BRANCH  43  48
HETATM   48  O   UNL     1      -5.888  19.961  71.122  1.00  0.00    -0.285 OA 
BRANCH  48  49
HETATM   49  C   UNL     1      -6.530  20.996  70.387  1.00  0.00     1.696 C  
HETATM   50  C   UNL     1      -6.494  20.791  68.879  1.00  0.00    -0.079 C  
HETATM   51  C   UNL     1      -7.240  19.506  68.546  1.00  0.00    -0.326 C  
HETATM   52  C   UNL     1      -8.693  19.604  69.018  1.00  0.00    -0.113 C  
HETATM   53  O   UNL     1      -7.229  19.285  67.130  1.00  0.00    -0.208 OA 
HETATM   54  H   UNL     1      -7.694  18.483  66.922  1.00  0.00     0.000 HD 
HETATM   55  C   UNL     1      -8.781  20.039  70.490  1.00  0.00     1.664 C  
HETATM   56  O   UNL     1      -9.379  20.557  68.186  1.00  0.00    -0.101 OA 
HETATM   57  H   UNL     1     -10.281  20.618  68.479  1.00  0.00     0.000 HD 
HETATM   58  C   UNL     1      -8.607  18.863  71.448  1.00  0.00     6.425 C  
HETATM   59  O   UNL     1      -7.892  21.117  70.826  1.00  0.00     2.542 OA 
ENDBRANCH  48  49
ENDBRANCH  43  48
ENDBRANCH  38  39
ENDBRANCH  30  38
ENDBRANCH  28  29
ENDBRANCH  18  28
TORSDOF 7
ENDMDL
MODEL       28
REMARK 921   NORMALIZED FREE ENERGY PREDICTED BY IDOCK:  126.11 KCAL/MOL
REMARK 922        TOTAL FREE ENERGY PREDICTED BY IDOCK:  177.89 KCAL/MOL
REMARK 923 INTER-LIGAND FREE ENERGY PREDICTED BY IDOCK:  122.97 KCAL/MOL
REMARK 924 INTRA-LIGAND FREE ENERGY PREDICTED BY IDOCK:   54.92 KCAL/MOL
REMARK 927      BINDING AFFINITY PREDICTED BY RF-SCORE:    0.00 PKD
ROOT
HETATM    1  C   UNL     1      -5.898  16.405  69.106  1.00  0.00    -0.142 C  
HETATM    2  C   UNL     1      -5.491  14.989  68.736  1.00  0.00    -0.087 C  
HETATM    3  C   UNL     1      -6.954  16.188  70.452  1.00  0.00     0.976 C  
HETATM    4  C   UNL     1      -6.849  14.321  68.887  1.00  0.00    -0.104 C  
HETATM    5  C   UNL     1      -7.880  17.410  70.288  1.00  0.00     2.691 C  
HETATM    6  C   UNL     1      -7.148  14.637  70.317  1.00  0.00     0.202 C  
HETATM    7  C   UNL     1      -6.799  16.196  72.057  1.00  0.00     4.997 C  
HETATM    8  C   UNL     1      -8.416  13.969  70.809  1.00  0.00     4.107 C  
HETATM    9  O   UNL     1      -6.062  13.993  71.061  1.00  0.00    -0.338 OA 
HETATM   10  C   UNL     1      -8.156  15.542  72.793  1.00  0.00    10.093 C  
HETATM   11  C   UNL     1      -8.575  14.078  72.328  1.00  0.00     9.819 C  
HETATM   12  C   UNL     1      -9.965  13.285  74.365  1.00  0.00    13.191 C  
HETATM   13  C   UNL     1      -8.243  12.487  70.436  1.00  0.00     4.944 C  
HETATM   14  H   UNL     1      -6.252  14.195  71.971  1.00  0.00     0.000 HD 
HETATM   15  C   UNL     1      -9.331  11.623  70.909  1.00  0.00     7.360 C  
HETATM   16  C   UNL     1      -9.572  11.695  72.426  1.00  0.00    18.654 C  
HETATM   17  C   UNL     1     -10.690  10.684  72.788  1.00  0.00     8.832 C  
HETATM   18  C   UNL     1     -11.756  10.753  71.704  1.00  0.00     0.681 C  
HETATM   19  C   UNL     1      -9.898  13.175  72.823  1.00  0.00    16.343 C  
HETATM   20  C   UNL     1     -12.267  12.225  71.626  1.00  0.00     0.457 C  
HETATM   21  C   UNL     1     -11.354  13.441  72.217  1.00  0.00     4.078 C  
ENDROOT
BRANCH   1  22
HETATM   22  C   UNL     1      -6.440  16.852  67.644  1.00  0.00    -0.165 C  
HETATM   23  C   UNL     1      -6.370  16.158  66.494  1.00  0.00     0.679 C  
HETATM   24  O   UNL     1      -7.343  16.405  64.330  1.00  0.00     8.163 OA 
HETATM   25  C   UNL     1      -7.442  18.003  67.347  1.00  0.00    -0.203 C  
HETATM   26  O   UNL     1      -7.859  17.856  66.001  1.00  0.00    -0.459 OA 
HETATM   27  C   UNL     1      -7.221  16.785  65.471  1.00  0.00     1.789 C  
ENDBRANCH   1  22
BRANCH  18  28
HETATM   28  O   UNL     1     -12.672   9.645  71.742  1.00  0.00    -0.361 OA 
BRANCH  28  29
HETATM   29  C   UNL     1     -12.335   8.494  70.919  1.00  0.00    -0.042 C  
HETATM   30  C   UNL     1     -10.564   8.368  68.516  1.00  0.00    -0.106 C  
HETATM   31  H   UNL     1     -11.732   9.865  66.661  1.00  0.00     0.000 HD 
HETATM   32  O   UNL     1     -12.348   9.420  67.229  1.00  0.00     4.394 OA 
HETATM   33  C   UNL     1     -11.844   9.209  68.549  1.00  0.00     1.742 C  
HETATM   34  C   UNL     1      -9.994   8.421  69.952  1.00  0.00    -0.190 C  
HETATM   35  C   UNL     1      -9.223   9.730  70.173  1.00  0.00    -0.253 C  
HETATM   36  C   UNL     1     -12.835   8.494  69.462  1.00  0.00     3.416 C  
HETATM   37  O   UNL     1     -10.927   8.188  71.030  1.00  0.00    -0.235 OA 
BRANCH  30  38
HETATM   38  O   UNL     1     -10.744   6.973  68.141  1.00  0.00    -0.210 OA 
BRANCH  38  39
HETATM   39  C   UNL     1      -9.951   6.008  68.847  1.00  0.00    -0.154 C  
HETATM   40  C   UNL     1      -8.575   5.775  68.216  1.00  0.00    -0.112 C  
HETATM   41  C   UNL     1      -7.555   6.789  68.708  1.00  0.00    -0.105 C  
HETATM   42  O   UNL     1      -6.260   6.531  68.161  1.00  0.00    -0.029 OA 
HETATM   43  C   UNL     1      -7.522   6.774  70.242  1.00  0.00    -0.090 C  
HETATM   44  C   UNL     1      -8.923   7.181  70.748  1.00  0.00    -0.152 C  
HETATM   45  H   UNL     1      -5.623   7.164  68.469  1.00  0.00     0.000 HD 
HETATM   46  O   UNL     1      -9.937   6.306  70.248  1.00  0.00    -0.169 OA 
HETATM   47  C   UNL     1      -9.310   8.634  70.496  1.00  0.00    -0.202 C  
BRANCH  43  48
HETATM   48  O   UNL     1      -7.283   5.466  70.809  1.00  0.00    -0.065 OA 
BRANCH  48  49
HETATM   49  C   UNL     1      -8.302   4.474  70.754  1.00  0.00    -0.087 C  
HETATM   50  C   UNL     1      -9.139   4.525  69.484  1.00  0.00    -0.167 C  
HETATM   51  C   UNL     1      -8.229   4.269  68.291  1.00  0.00    -0.088 C  
HETATM   52  C   UNL     1      -7.571   2.893  68.419  1.00  0.00    -0.052 C  
HETATM   53  O   UNL     1      -8.989   4.306  67.077  1.00  0.00    -0.113 OA 
HETATM   54  H   UNL     1      -8.421   4.146  66.333  1.00  0.00     0.000 HD 
HETATM   55  C   UNL     1      -6.904   2.710  69.792  1.00  0.00    -0.034 C  
HETATM   56  O   UNL     1      -8.581   1.885  68.230  1.00  0.00    -0.062 OA 
HETATM   57  H   UNL     1      -8.173   1.030  68.309  1.00  0.00     0.000 HD 
HETATM   58  C   UNL     1      -5.505   3.322  69.837  1.00  0.00    -0.016 C  
HETATM   59  O   UNL     1      -7.708   3.173  70.889  1.00  0.00    -0.043 OA 
ENDBRANCH  48  49
ENDBRANCH  43  48
ENDBRANCH  38  39
ENDBRANCH  30  38
ENDBRANCH  28  29
ENDBRANCH  18  28
TORSDOF 7
ENDMDL
