MODEL        1
REMARK 921   NORMALIZED FREE ENERGY PREDICTED BY IDOCK:   -8.28 KCAL/MOL
REMARK 922        TOTAL FREE ENERGY PREDICTED BY IDOCK:  -13.51 KCAL/MOL
REMARK 923 INTER-LIGAND FREE ENERGY PREDICTED BY IDOCK:  -11.67 KCAL/MOL
REMARK 924 INTRA-LIGAND FREE ENERGY PREDICTED BY IDOCK:   -1.84 KCAL/MOL
REMARK 927      BINDING AFFINITY PREDICTED BY RF-SCORE:    0.00 PKD
ROOT
HETATM    1  C   UNL     1      -8.938   4.909  65.328  1.00  0.00    -0.152 C  
HETATM    2  C   UNL     1     -10.384   4.895  65.842  1.00  0.00    -0.271 C  
HETATM    3  C   UNL     1     -10.620   5.751  67.071  1.00  0.00    -0.373 C  
HETATM    4  C   UNL     1      -9.755   5.311  68.264  1.00  0.00    -0.185 C  
HETATM    5  C   UNL     1      -8.289   5.144  67.847  1.00  0.00    -0.097 C  
HETATM    6  C   UNL     1      -7.863   4.684  66.428  1.00  0.00    -0.099 C  
HETATM    7  C   UNL     1      -7.425   4.560  68.976  1.00  0.00    -0.056 C  
HETATM    8  C   UNL     1      -7.504   3.175  66.388  1.00  0.00    -0.076 C  
HETATM    9  C   UNL     1      -7.312   5.608  70.073  1.00  0.00    -0.069 C  
HETATM   10  C   UNL     1      -6.587   5.549  66.108  1.00  0.00    -0.051 C  
HETATM   11  C   UNL     1      -6.919   7.059  65.985  1.00  0.00    -0.065 C  
HETATM   12  O   UNL     1      -6.554   6.723  69.594  1.00  0.00    -0.045 OA 
HETATM   13  C   UNL     1      -8.702   6.058  70.586  1.00  0.00    -0.138 C  
HETATM   14  C   UNL     1      -9.436   4.879  71.295  1.00  0.00    -0.214 C  
HETATM   15  C   UNL     1      -8.502   7.313  71.484  1.00  0.00    -0.113 C  
HETATM   16  C   UNL     1      -7.957   7.323  64.898  1.00  0.00    -0.127 C  
HETATM   17  H   UNL     1      -6.483   7.377  70.279  1.00  0.00     0.000 HD 
HETATM   18  O   UNL     1      -9.552   7.683  68.944  1.00  0.00    -0.149 OA 
HETATM   19  C   UNL     1     -10.899   5.343  71.386  1.00  0.00    -0.210 C  
HETATM   20  H   UNL     1      -9.562   8.313  69.656  1.00  0.00     0.000 HD 
HETATM   21  C   UNL     1      -8.593   6.045  64.343  1.00  0.00     0.140 C  
HETATM   22  C   UNL     1      -9.771   6.367  69.457  1.00  0.00    -0.150 C  
HETATM   23  C   UNL     1     -11.094   6.355  70.244  1.00  0.00    -0.416 C  
ENDROOT
BRANCH  16  24
HETATM   24  O   UNL     1      -9.013   8.206  65.267  1.00  0.00    -0.063 OA 
BRANCH  24  25
HETATM   25  C   UNL     1      -8.719   9.553  65.665  1.00  0.00    -0.149 C  
HETATM   26  O   UNL     1     -10.949  11.575  63.452  1.00  0.00    -0.533 OA 
HETATM   27  C   UNL     1     -10.717  11.761  65.879  1.00  0.00    -0.282 C  
HETATM   28  C   UNL     1      -9.025  10.569  64.568  1.00  0.00    -0.231 C  
HETATM   29  C   UNL     1     -10.504  10.905  64.629  1.00  0.00    -0.314 C  
HETATM   30  O   UNL     1      -9.498   9.738  66.853  1.00  0.00    -0.151 OA 
HETATM   31  C   UNL     1     -10.201  10.960  67.114  1.00  0.00    -0.210 C  
HETATM   32  H   UNL     1     -11.875  11.785  63.490  1.00  0.00     0.000 HD 
HETATM   33  C   UNL     1     -11.352  10.559  68.049  1.00  0.00    -0.319 C  
BRANCH  27  34
HETATM   34  O   UNL     1      -9.949  12.988  65.891  1.00  0.00    -0.275 OA 
BRANCH  34  35
HETATM   35  C   UNL     1     -10.530  14.206  65.433  1.00  0.00    -0.357 C  
HETATM   36  C   UNL     1     -11.688  14.697  66.292  1.00  0.00    -0.325 C  
HETATM   37  C   UNL     1     -11.190  14.911  67.713  1.00  0.00    -0.321 C  
HETATM   38  O   UNL     1     -12.250  15.348  68.568  1.00  0.00    -0.563 OA 
HETATM   39  C   UNL     1      -9.994  15.884  67.761  1.00  0.00    -0.229 C  
HETATM   40  O   UNL     1      -9.524  15.224  65.380  1.00  0.00    -0.220 OA 
HETATM   41  C   UNL     1      -8.957  15.621  66.632  1.00  0.00    -0.284 C  
HETATM   42  H   UNL     1     -11.940  15.482  69.456  1.00  0.00     0.000 HD 
HETATM   43  C   UNL     1      -7.788  14.706  67.002  1.00  0.00    -0.056 C  
BRANCH  39  44
HETATM   44  O   UNL     1     -10.374  17.270  67.612  1.00  0.00    -0.324 OA 
BRANCH  44  45
HETATM   45  C   UNL     1      -9.776  18.256  68.453  1.00  0.00    -0.357 C  
HETATM   46  C   UNL     1      -8.261  18.403  68.323  1.00  0.00    -0.317 C  
HETATM   47  C   UNL     1      -7.926  18.859  66.909  1.00  0.00    -0.256 C  
HETATM   48  C   UNL     1      -8.593  20.209  66.631  1.00  0.00    -0.281 C  
HETATM   49  O   UNL     1      -6.507  18.999  66.771  1.00  0.00    -0.187 OA 
HETATM   50  H   UNL     1      -6.298  19.284  65.890  1.00  0.00     0.000 HD 
HETATM   51  O   UNL     1      -7.948  21.205  67.447  1.00  0.00    -0.506 OA 
HETATM   52  C   UNL     1     -10.097  20.167  66.957  1.00  0.00    -0.459 C  
HETATM   53  C   UNL     1     -10.924  19.546  65.834  1.00  0.00    -0.276 C  
HETATM   54  O   UNL     1     -10.391  19.533  68.213  1.00  0.00    -0.423 OA 
HETATM   55  H   UNL     1      -8.362  22.043  67.275  1.00  0.00     0.000 HD 
ENDBRANCH  44  45
ENDBRANCH  39  44
ENDBRANCH  34  35
ENDBRANCH  27  34
ENDBRANCH  24  25
ENDBRANCH  16  24
BRANCH  14  56
HETATM   56  C   UNL     1      -8.861   4.250  72.525  1.00  0.00    -0.119 C  
HETATM   57  C   UNL     1      -8.204   4.952  73.647  1.00  0.00    -0.106 C  
HETATM   58  C   UNL     1      -8.053   2.713  73.953  1.00  0.00    -0.063 C  
HETATM   59  O   UNL     1      -7.758   3.908  74.514  1.00  0.00    -0.072 OA 
HETATM   60  O   UNL     1      -7.773   1.616  74.406  1.00  0.00    -0.032 OA 
HETATM   61  C   UNL     1      -8.755   2.931  72.698  1.00  0.00    -0.089 C  
ENDBRANCH  14  56
TORSDOF 7
ENDMDL
MODEL        2
REMARK 921   NORMALIZED FREE ENERGY PREDICTED BY IDOCK:   -7.49 KCAL/MOL
REMARK 922        TOTAL FREE ENERGY PREDICTED BY IDOCK:  -12.39 KCAL/MOL
REMARK 923 INTER-LIGAND FREE ENERGY PREDICTED BY IDOCK:  -10.79 KCAL/MOL
REMARK 924 INTRA-LIGAND FREE ENERGY PREDICTED BY IDOCK:   -1.60 KCAL/MOL
REMARK 927      BINDING AFFINITY PREDICTED BY RF-SCORE:    0.00 PKD
ROOT
HETATM    1  C   UNL     1     -10.894  12.473  66.217  1.00  0.00    -0.299 C  
HETATM    2  C   UNL     1      -9.469  11.965  65.960  1.00  0.00    -0.241 C  
HETATM    3  C   UNL     1      -8.432  12.490  66.935  1.00  0.00    -0.130 C  
HETATM    4  C   UNL     1      -8.334  14.025  66.910  1.00  0.00    -0.043 C  
HETATM    5  C   UNL     1      -9.723  14.666  67.015  1.00  0.00    -0.247 C  
HETATM    6  C   UNL     1     -11.001  14.009  66.432  1.00  0.00    -0.308 C  
HETATM    7  C   UNL     1      -9.674  16.192  66.843  1.00  0.00    -0.246 C  
HETATM    8  C   UNL     1     -11.395  14.617  65.060  1.00  0.00    -0.390 C  
HETATM    9  C   UNL     1      -8.974  16.782  68.058  1.00  0.00    -0.217 C  
HETATM   10  C   UNL     1     -12.116  14.320  67.499  1.00  0.00    -0.347 C  
HETATM   11  C   UNL     1     -11.849  13.606  68.850  1.00  0.00    -0.402 C  
HETATM   12  O   UNL     1      -9.788  16.587  69.219  1.00  0.00    -0.257 OA 
HETATM   13  C   UNL     1      -7.562  16.180  68.259  1.00  0.00    -0.146 C  
HETATM   14  C   UNL     1      -6.621  16.577  67.080  1.00  0.00    -0.234 C  
HETATM   15  C   UNL     1      -7.045  16.620  69.659  1.00  0.00     0.072 C  
HETATM   16  C   UNL     1     -11.759  12.092  68.683  1.00  0.00    -0.330 C  
HETATM   17  H   UNL     1      -9.351  16.956  69.979  1.00  0.00     0.000 HD 
HETATM   18  O   UNL     1      -7.889  13.997  69.346  1.00  0.00    -0.342 OA 
HETATM   19  C   UNL     1      -5.429  15.616  67.207  1.00  0.00     0.160 C  
HETATM   20  H   UNL     1      -7.376  14.342  70.068  1.00  0.00     0.000 HD 
HETATM   21  C   UNL     1     -11.725  11.644  67.219  1.00  0.00    -0.255 C  
HETATM   22  C   UNL     1      -7.474  14.603  68.121  1.00  0.00    -0.123 C  
HETATM   23  C   UNL     1      -5.962  14.373  67.940  1.00  0.00    -0.149 C  
ENDROOT
BRANCH  16  24
HETATM   24  O   UNL     1     -10.665  11.471  69.351  1.00  0.00    -0.179 OA 
BRANCH  24  25
HETATM   25  C   UNL     1     -10.248  10.149  68.975  1.00  0.00    -0.206 C  
HETATM   26  O   UNL     1      -7.352   9.518  71.250  1.00  0.00    -0.331 OA 
HETATM   27  C   UNL     1      -9.269   8.052  70.861  1.00  0.00    -0.149 C  
HETATM   28  C   UNL     1      -8.782   9.880  69.305  1.00  0.00    -0.172 C  
HETATM   29  C   UNL     1      -8.690   9.464  70.762  1.00  0.00    -0.157 C  
HETATM   30  O   UNL     1     -11.160   9.292  69.672  1.00  0.00    -0.212 OA 
HETATM   31  C   UNL     1     -10.727   8.080  70.304  1.00  0.00    -0.239 C  
HETATM   32  H   UNL     1      -7.294   9.258  72.161  1.00  0.00     0.000 HD 
HETATM   33  C   UNL     1     -11.759   7.824  71.412  1.00  0.00    -0.310 C  
BRANCH  27  34
HETATM   34  O   UNL     1      -8.583   7.075  70.042  1.00  0.00    -0.138 OA 
BRANCH  34  35
HETATM   35  C   UNL     1      -9.298   6.328  69.061  1.00  0.00    -0.126 C  
HETATM   36  C   UNL     1      -9.168   6.881  67.649  1.00  0.00    -0.119 C  
HETATM   37  C   UNL     1      -7.697   6.894  67.259  1.00  0.00    -0.109 C  
HETATM   38  O   UNL     1      -7.519   7.432  65.946  1.00  0.00    -0.076 OA 
HETATM   39  C   UNL     1      -7.060   5.495  67.383  1.00  0.00    -0.074 C  
HETATM   40  O   UNL     1      -8.845   4.968  69.074  1.00  0.00    -0.091 OA 
HETATM   41  C   UNL     1      -7.488   4.749  68.679  1.00  0.00    -0.065 C  
HETATM   42  H   UNL     1      -6.601   7.441  65.703  1.00  0.00     0.000 HD 
HETATM   43  C   UNL     1      -6.552   4.906  69.877  1.00  0.00    -0.036 C  
BRANCH  39  44
HETATM   44  O   UNL     1      -7.411   4.606  66.300  1.00  0.00    -0.078 OA 
BRANCH  44  45
HETATM   45  C   UNL     1      -8.257   3.485  66.558  1.00  0.00    -0.100 C  
HETATM   46  C   UNL     1      -9.752   3.730  66.368  1.00  0.00    -0.142 C  
HETATM   47  C   UNL     1     -10.017   4.074  64.908  1.00  0.00    -0.205 C  
HETATM   48  C   UNL     1      -9.575   2.911  64.015  1.00  0.00    -0.140 C  
HETATM   49  O   UNL     1     -11.417   4.308  64.715  1.00  0.00    -0.995 OA 
HETATM   50  H   UNL     1     -11.583   4.523  63.805  1.00  0.00     0.000 HD 
HETATM   51  O   UNL     1     -10.466   1.804  64.247  1.00  0.00    -0.344 OA 
HETATM   52  C   UNL     1      -8.128   2.487  64.327  1.00  0.00    -0.082 C  
HETATM   53  C   UNL     1      -7.095   3.380  63.646  1.00  0.00    -0.049 C  
HETATM   54  O   UNL     1      -7.856   2.378  65.733  1.00  0.00    -0.078 OA 
HETATM   55  H   UNL     1     -10.191   1.082  63.693  1.00  0.00     0.000 HD 
ENDBRANCH  44  45
ENDBRANCH  39  44
ENDBRANCH  34  35
ENDBRANCH  27  34
ENDBRANCH  24  25
ENDBRANCH  16  24
BRANCH  14  56
HETATM   56  C   UNL     1      -6.292  18.013  66.816  1.00  0.00    -0.213 C  
HETATM   57  C   UNL     1      -5.599  18.940  67.733  1.00  0.00    -0.179 C  
HETATM   58  C   UNL     1      -6.288  20.063  65.891  1.00  0.00    -0.204 C  
HETATM   59  O   UNL     1      -5.611  20.196  67.055  1.00  0.00    -0.167 OA 
HETATM   60  O   UNL     1      -6.525  20.949  65.089  1.00  0.00    -0.241 OA 
HETATM   61  C   UNL     1      -6.713  18.680  65.739  1.00  0.00    -0.311 C  
ENDBRANCH  14  56
TORSDOF 7
ENDMDL
MODEL        3
REMARK 921   NORMALIZED FREE ENERGY PREDICTED BY IDOCK:   -7.18 KCAL/MOL
REMARK 922        TOTAL FREE ENERGY PREDICTED BY IDOCK:  -11.95 KCAL/MOL
REMARK 923 INTER-LIGAND FREE ENERGY PREDICTED BY IDOCK:  -10.92 KCAL/MOL
REMARK 924 INTRA-LIGAND FREE ENERGY PREDICTED BY IDOCK:   -1.03 KCAL/MOL
REMARK 927      BINDING AFFINITY PREDICTED BY RF-SCORE:    0.00 PKD
ROOT
HETATM    1  C   UNL     1      -8.739   6.416  65.580  1.00  0.00    -0.108 C  
HETATM    2  C   UNL     1     -10.197   6.118  65.957  1.00  0.00     0.239 C  
HETATM    3  C   UNL     1     -10.648   6.745  67.262  1.00  0.00    -0.390 C  
HETATM    4  C   UNL     1      -9.808   6.267  68.458  1.00  0.00    -0.152 C  
HETATM    5  C   UNL     1      -8.308   6.378  68.156  1.00  0.00    -0.116 C  
HETATM    6  C   UNL     1      -7.720   6.193  66.732  1.00  0.00    -0.103 C  
HETATM    7  C   UNL     1      -7.443   5.769  69.271  1.00  0.00    -0.083 C  
HETATM    8  C   UNL     1      -7.128   4.774  66.525  1.00  0.00    -0.075 C  
HETATM    9  C   UNL     1      -7.571   6.653  70.502  1.00  0.00    -0.099 C  
HETATM   10  C   UNL     1      -6.576   7.272  66.645  1.00  0.00    -0.056 C  
HETATM   11  C   UNL     1      -7.131   8.719  66.693  1.00  0.00    -0.081 C  
HETATM   12  O   UNL     1      -6.965   7.923  70.244  1.00  0.00    -0.048 OA 
HETATM   13  C   UNL     1      -9.046   6.817  70.943  1.00  0.00    -0.153 C  
HETATM   14  C   UNL     1      -9.633   5.454  71.422  1.00  0.00    -0.202 C  
HETATM   15  C   UNL     1      -9.106   7.945  72.014  1.00  0.00    -0.198 C  
HETATM   16  C   UNL     1      -8.121   8.983  65.562  1.00  0.00    -0.110 C  
HETATM   17  H   UNL     1      -7.044   8.475  71.014  1.00  0.00     0.000 HD 
HETATM   18  O   UNL     1     -10.025   8.521  69.462  1.00  0.00    -0.185 OA 
HETATM   19  C   UNL     1     -11.153   5.683  71.442  1.00  0.00    -0.221 C  
HETATM   20  H   UNL     1     -10.182   9.033  70.246  1.00  0.00     0.000 HD 
HETATM   21  C   UNL     1      -8.510   7.720  64.789  1.00  0.00     0.015 C  
HETATM   22  C   UNL     1     -10.070   7.127  69.774  1.00  0.00    -0.195 C  
HETATM   23  C   UNL     1     -11.426   6.810  70.432  1.00  0.00    -0.419 C  
ENDROOT
BRANCH  16  24
HETATM   24  O   UNL     1      -9.324   9.641  65.949  1.00  0.00    -0.182 OA 
BRANCH  24  25
HETATM   25  C   UNL     1      -9.294  11.018  66.354  1.00  0.00    -0.183 C  
HETATM   26  O   UNL     1     -12.300  12.445  64.654  1.00  0.00    -0.452 OA 
HETATM   27  C   UNL     1     -11.691  12.672  67.011  1.00  0.00    -0.369 C  
HETATM   28  C   UNL     1     -10.025  11.933  65.374  1.00  0.00    -0.281 C  
HETATM   29  C   UNL     1     -11.506  11.899  65.704  1.00  0.00    -0.255 C  
HETATM   30  O   UNL     1      -9.871  11.002  67.665  1.00  0.00    -0.170 OA 
HETATM   31  C   UNL     1     -10.787  12.016  68.100  1.00  0.00    -0.221 C  
HETATM   32  H   UNL     1     -13.227  12.423  64.860  1.00  0.00     0.000 HD 
HETATM   33  C   UNL     1     -11.624  11.343  69.198  1.00  0.00    -0.381 C  
BRANCH  27  34
HETATM   34  O   UNL     1     -11.249  14.049  66.948  1.00  0.00    -0.297 OA 
BRANCH  34  35
HETATM   35  C   UNL     1     -11.360  14.893  68.091  1.00  0.00    -0.312 C  
HETATM   36  C   UNL     1     -10.209  14.749  69.078  1.00  0.00    -0.237 C  
HETATM   37  C   UNL     1      -8.906  15.080  68.366  1.00  0.00    -0.178 C  
HETATM   38  O   UNL     1      -7.788  14.932  69.246  1.00  0.00    -0.168 OA 
HETATM   39  C   UNL     1      -8.939  16.486  67.733  1.00  0.00    -0.202 C  
HETATM   40  O   UNL     1     -11.443  16.260  67.668  1.00  0.00    -0.100 OA 
HETATM   41  C   UNL     1     -10.286  16.794  67.019  1.00  0.00    -0.300 C  
HETATM   42  H   UNL     1      -6.974  15.138  68.802  1.00  0.00     0.000 HD 
HETATM   43  C   UNL     1     -10.329  16.492  65.520  1.00  0.00    -0.307 C  
BRANCH  39  44
HETATM   44  O   UNL     1      -8.766  17.552  68.692  1.00  0.00    -0.279 OA 
BRANCH  44  45
HETATM   45  C   UNL     1      -7.530  18.267  68.731  1.00  0.00    -0.283 C  
HETATM   46  C   UNL     1      -6.646  18.122  67.495  1.00  0.00    -0.197 C  
HETATM   47  C   UNL     1      -7.378  18.701  66.291  1.00  0.00    -0.258 C  
HETATM   48  C   UNL     1      -7.677  20.183  66.532  1.00  0.00    -0.277 C  
HETATM   49  O   UNL     1      -6.560  18.571  65.121  1.00  0.00    -0.479 OA 
HETATM   50  H   UNL     1      -7.017  18.931  64.371  1.00  0.00     0.000 HD 
HETATM   51  O   UNL     1      -6.429  20.900  66.519  1.00  0.00    -0.251 OA 
HETATM   52  C   UNL     1      -8.384  20.397  67.883  1.00  0.00    -0.086 C  
HETATM   53  C   UNL     1      -9.885  20.124  67.810  1.00  0.00    -0.547 C  
HETATM   54  O   UNL     1      -7.787  19.662  68.963  1.00  0.00    -0.342 OA 
HETATM   55  H   UNL     1      -6.615  21.821  66.668  1.00  0.00     0.000 HD 
ENDBRANCH  44  45
ENDBRANCH  39  44
ENDBRANCH  34  35
ENDBRANCH  27  34
ENDBRANCH  24  25
ENDBRANCH  16  24
BRANCH  14  56
HETATM   56  C   UNL     1      -9.052   4.745  72.604  1.00  0.00    -0.139 C  
HETATM   57  C   UNL     1      -8.114   5.311  73.596  1.00  0.00    -0.110 C  
HETATM   58  C   UNL     1      -8.418   3.104  74.006  1.00  0.00    -0.073 C  
HETATM   59  O   UNL     1      -7.797   4.218  74.459  1.00  0.00    -0.085 OA 
HETATM   60  O   UNL     1      -8.329   1.985  74.481  1.00  0.00    -0.055 OA 
HETATM   61  C   UNL     1      -9.216   3.441  72.837  1.00  0.00    -0.122 C  
ENDBRANCH  14  56
TORSDOF 7
ENDMDL
MODEL        4
REMARK 921   NORMALIZED FREE ENERGY PREDICTED BY IDOCK:   -7.13 KCAL/MOL
REMARK 922        TOTAL FREE ENERGY PREDICTED BY IDOCK:  -11.88 KCAL/MOL
REMARK 923 INTER-LIGAND FREE ENERGY PREDICTED BY IDOCK:  -10.32 KCAL/MOL
REMARK 924 INTRA-LIGAND FREE ENERGY PREDICTED BY IDOCK:   -1.56 KCAL/MOL
REMARK 927      BINDING AFFINITY PREDICTED BY RF-SCORE:    0.00 PKD
ROOT
HETATM    1  C   UNL     1      -8.666   7.938  71.305  1.00  0.00    -0.149 C  
HETATM    2  C   UNL     1      -7.824   8.781  70.337  1.00  0.00    -0.098 C  
HETATM    3  C   UNL     1      -8.138   8.551  68.871  1.00  0.00    -0.119 C  
HETATM    4  C   UNL     1      -7.911   7.090  68.448  1.00  0.00    -0.123 C  
HETATM    5  C   UNL     1      -8.588   6.124  69.428  1.00  0.00    -0.123 C  
HETATM    6  C   UNL     1      -8.744   6.429  70.941  1.00  0.00    -0.136 C  
HETATM    7  C   UNL     1      -8.256   4.655  69.120  1.00  0.00    -0.081 C  
HETATM    8  C   UNL     1      -7.663   5.715  71.794  1.00  0.00    -0.101 C  
HETATM    9  C   UNL     1      -8.932   4.282  67.810  1.00  0.00    -0.118 C  
HETATM   10  C   UNL     1     -10.171   5.869  71.302  1.00  0.00    -0.262 C  
HETATM   11  C   UNL     1     -11.305   6.652  70.590  1.00  0.00    -0.401 C  
HETATM   12  O   UNL     1     -10.352   4.290  67.986  1.00  0.00     0.146 OA 
HETATM   13  C   UNL     1      -8.508   5.223  66.655  1.00  0.00    -0.107 C  
HETATM   14  C   UNL     1      -6.991   5.051  66.333  1.00  0.00    -0.067 C  
HETATM   15  C   UNL     1      -9.448   4.953  65.444  1.00  0.00    -0.134 C  
HETATM   16  C   UNL     1     -11.273   8.137  70.940  1.00  0.00    -0.266 C  
HETATM   17  H   UNL     1     -10.775   4.057  67.167  1.00  0.00     0.000 HD 
HETATM   18  O   UNL     1      -9.841   7.275  66.909  1.00  0.00    -0.184 OA 
HETATM   19  C   UNL     1      -6.643   6.283  65.482  1.00  0.00    -0.047 C  
HETATM   20  H   UNL     1     -10.198   7.084  66.049  1.00  0.00     0.000 HD 
HETATM   21  C   UNL     1     -10.020   8.552  71.716  1.00  0.00    -0.345 C  
HETATM   22  C   UNL     1      -8.509   6.768  67.007  1.00  0.00    -0.114 C  
HETATM   23  C   UNL     1      -7.665   7.366  65.866  1.00  0.00    -0.093 C  
ENDROOT
BRANCH  16  24
HETATM   24  O   UNL     1     -11.410   9.026  69.835  1.00  0.00    -0.149 OA 
BRANCH  24  25
HETATM   25  C   UNL     1     -10.771  10.311  69.860  1.00  0.00    -0.294 C  
HETATM   26  O   UNL     1     -11.903  11.860  66.654  1.00  0.00    -0.591 OA 
HETATM   27  C   UNL     1     -11.986  12.858  68.884  1.00  0.00    -0.250 C  
HETATM   28  C   UNL     1     -10.578  10.898  68.464  1.00  0.00    -0.219 C  
HETATM   29  C   UNL     1     -11.869  11.580  68.051  1.00  0.00    -0.217 C  
HETATM   30  O   UNL     1     -11.620  11.100  70.702  1.00  0.00    -0.286 OA 
HETATM   31  C   UNL     1     -11.935  12.464  70.393  1.00  0.00    -0.257 C  
HETATM   32  H   UNL     1     -12.711  12.287  66.395  1.00  0.00     0.000 HD 
HETATM   33  C   UNL     1     -13.278  12.725  71.090  1.00  0.00    -0.034 C  
BRANCH  27  34
HETATM   34  O   UNL     1     -10.882  13.779  68.708  1.00  0.00    -0.250 OA 
BRANCH  34  35
HETATM   35  C   UNL     1     -10.928  14.771  67.686  1.00  0.00    -0.291 C  
HETATM   36  C   UNL     1     -11.246  16.169  68.199  1.00  0.00    -0.311 C  
HETATM   37  C   UNL     1     -10.184  16.575  69.211  1.00  0.00    -0.290 C  
HETATM   38  O   UNL     1     -10.454  17.875  69.743  1.00  0.00    -0.201 OA 
HETATM   39  C   UNL     1      -8.764  16.498  68.613  1.00  0.00    -0.244 C  
HETATM   40  O   UNL     1      -9.674  14.801  66.995  1.00  0.00    -0.228 OA 
HETATM   41  C   UNL     1      -8.539  15.218  67.758  1.00  0.00    -0.158 C  
HETATM   42  H   UNL     1      -9.792  18.129  70.375  1.00  0.00     0.000 HD 
HETATM   43  C   UNL     1      -7.924  14.026  68.494  1.00  0.00    -0.141 C  
BRANCH  39  44
HETATM   44  O   UNL     1      -8.449  17.601  67.736  1.00  0.00    -0.221 OA 
BRANCH  44  45
HETATM   45  C   UNL     1      -7.209  18.291  67.893  1.00  0.00    -0.228 C  
HETATM   46  C   UNL     1      -6.283  18.268  66.679  1.00  0.00    -0.205 C  
HETATM   47  C   UNL     1      -6.966  18.980  65.520  1.00  0.00    -0.198 C  
HETATM   48  C   UNL     1      -7.260  20.432  65.907  1.00  0.00    -0.177 C  
HETATM   49  O   UNL     1      -6.109  18.965  64.372  1.00  0.00    -0.445 OA 
HETATM   50  H   UNL     1      -6.535  19.409  63.649  1.00  0.00     0.000 HD 
HETATM   51  O   UNL     1      -6.005  21.131  66.014  1.00  0.00    -0.249 OA 
HETATM   52  C   UNL     1      -8.012  20.511  67.248  1.00  0.00    -0.314 C  
HETATM   53  C   UNL     1      -9.511  20.267  67.095  1.00  0.00    -0.557 C  
HETATM   54  O   UNL     1      -7.461  19.657  68.263  1.00  0.00    -0.297 OA 
HETATM   55  H   UNL     1      -6.187  22.032  66.255  1.00  0.00     0.000 HD 
ENDBRANCH  44  45
ENDBRANCH  39  44
ENDBRANCH  34  35
ENDBRANCH  27  34
ENDBRANCH  24  25
ENDBRANCH  16  24
BRANCH  14  56
HETATM   56  C   UNL     1      -6.456   3.738  65.854  1.00  0.00    -0.033 C  
HETATM   57  C   UNL     1      -5.895   2.658  66.691  1.00  0.00    -0.023 C  
HETATM   58  C   UNL     1      -5.660   2.128  64.501  1.00  0.00    -0.009 C  
HETATM   59  O   UNL     1      -5.451   1.672  65.758  1.00  0.00    -0.008 OA 
HETATM   60  O   UNL     1      -5.356   1.557  63.468  1.00  0.00    -0.004 OA 
HETATM   61  C   UNL     1      -6.301   3.432  64.564  1.00  0.00    -0.024 C  
ENDBRANCH  14  56
TORSDOF 7
ENDMDL
MODEL        5
REMARK 921   NORMALIZED FREE ENERGY PREDICTED BY IDOCK:   -7.05 KCAL/MOL
REMARK 922        TOTAL FREE ENERGY PREDICTED BY IDOCK:  -11.77 KCAL/MOL
REMARK 923 INTER-LIGAND FREE ENERGY PREDICTED BY IDOCK:  -11.14 KCAL/MOL
REMARK 924 INTRA-LIGAND FREE ENERGY PREDICTED BY IDOCK:   -0.63 KCAL/MOL
REMARK 927      BINDING AFFINITY PREDICTED BY RF-SCORE:    0.00 PKD
ROOT
HETATM    1  C   UNL     1      -9.747   6.645  66.641  1.00  0.00    -0.210 C  
HETATM    2  C   UNL     1     -11.046   6.109  67.258  1.00  0.00    -0.334 C  
HETATM    3  C   UNL     1     -11.192   6.381  68.743  1.00  0.00    -0.358 C  
HETATM    4  C   UNL     1     -10.055   5.753  69.566  1.00  0.00    -0.278 C  
HETATM    5  C   UNL     1      -8.687   6.096  68.963  1.00  0.00    -0.124 C  
HETATM    6  C   UNL     1      -8.462   6.294  67.441  1.00  0.00    -0.108 C  
HETATM    7  C   UNL     1      -7.538   5.361  69.672  1.00  0.00    -0.070 C  
HETATM    8  C   UNL     1      -7.860   5.031  66.771  1.00  0.00    -0.100 C  
HETATM    9  C   UNL     1      -7.405   5.935  71.075  1.00  0.00    -0.082 C  
HETATM   10  C   UNL     1      -7.439   7.488  67.355  1.00  0.00    -0.104 C  
HETATM   11  C   UNL     1      -8.047   8.818  67.873  1.00  0.00    -0.107 C  
HETATM   12  O   UNL     1      -6.957   7.291  70.995  1.00  0.00    -0.058 OA 
HETATM   13  C   UNL     1      -8.731   5.831  71.868  1.00  0.00    -0.135 C  
HETATM   14  C   UNL     1      -9.102   4.338  72.128  1.00  0.00    -0.150 C  
HETATM   15  C   UNL     1      -8.587   6.684  73.161  1.00  0.00    -0.129 C  
HETATM   16  C   UNL     1      -9.301   9.208  67.095  1.00  0.00    -0.143 C  
HETATM   17  H   UNL     1      -6.873   7.650  71.872  1.00  0.00     0.000 HD 
HETATM   18  O   UNL     1     -10.144   7.694  71.101  1.00  0.00    -0.185 OA 
HETATM   19  C   UNL     1     -10.579   4.383  72.550  1.00  0.00    -0.203 C  
HETATM   20  H   UNL     1     -10.130   8.002  72.000  1.00  0.00     0.000 HD 
HETATM   21  C   UNL     1      -9.798   8.108  66.153  1.00  0.00    -0.093 C  
HETATM   22  C   UNL     1     -10.030   6.270  71.073  1.00  0.00    -0.182 C  
HETATM   23  C   UNL     1     -11.159   5.665  71.928  1.00  0.00    -0.278 C  
ENDROOT
BRANCH  16  24
HETATM   24  O   UNL     1     -10.406   9.625  67.893  1.00  0.00    -0.196 OA 
BRANCH  24  25
HETATM   25  C   UNL     1     -10.638  11.022  68.128  1.00  0.00    -0.191 C  
HETATM   26  O   UNL     1      -7.700  12.637  66.479  1.00  0.00    -0.334 OA 
HETATM   27  C   UNL     1     -10.057  13.214  66.186  1.00  0.00    -0.291 C  
HETATM   28  C   UNL     1      -9.353  11.844  68.091  1.00  0.00    -0.191 C  
HETATM   29  C   UNL     1      -9.037  12.170  66.643  1.00  0.00    -0.206 C  
HETATM   30  O   UNL     1     -11.583  11.387  67.115  1.00  0.00    -0.519 OA 
HETATM   31  C   UNL     1     -11.487  12.628  66.403  1.00  0.00    -0.356 C  
HETATM   32  H   UNL     1      -7.502  12.841  65.573  1.00  0.00     0.000 HD 
HETATM   33  C   UNL     1     -12.201  12.371  65.068  1.00  0.00    -0.465 C  
BRANCH  27  34
HETATM   34  O   UNL     1     -10.040  14.435  66.964  1.00  0.00    -0.251 OA 
BRANCH  34  35
HETATM   35  C   UNL     1     -10.518  15.654  66.402  1.00  0.00    -0.305 C  
HETATM   36  C   UNL     1     -11.150  16.596  67.418  1.00  0.00     0.001 C  
HETATM   37  C   UNL     1     -10.118  16.934  68.483  1.00  0.00    -0.297 C  
HETATM   38  O   UNL     1     -10.673  17.798  69.479  1.00  0.00    -0.309 OA 
HETATM   39  C   UNL     1      -8.837  17.537  67.870  1.00  0.00    -0.247 C  
HETATM   40  O   UNL     1      -9.438  16.332  65.746  1.00  0.00    -0.433 OA 
HETATM   41  C   UNL     1      -8.375  16.791  66.585  1.00  0.00    -0.261 C  
HETATM   42  H   UNL     1     -10.029  18.009  70.145  1.00  0.00     0.000 HD 
HETATM   43  C   UNL     1      -7.343  15.682  66.794  1.00  0.00     0.010 C  
BRANCH  39  44
HETATM   44  O   UNL     1      -8.984  18.918  67.474  1.00  0.00    -0.281 OA 
BRANCH  44  45
HETATM   45  C   UNL     1      -8.530  19.951  68.350  1.00  0.00    -0.176 C  
HETATM   46  C   UNL     1      -7.417  19.553  69.316  1.00  0.00    -0.276 C  
HETATM   47  C   UNL     1      -6.179  19.167  68.516  1.00  0.00    -0.236 C  
HETATM   48  C   UNL     1      -5.719  20.358  67.671  1.00  0.00    -0.192 C  
HETATM   49  O   UNL     1      -5.125  18.790  69.410  1.00  0.00    -0.187 OA 
HETATM   50  H   UNL     1      -4.354  18.549  68.911  1.00  0.00     0.000 HD 
HETATM   51  O   UNL     1      -5.217  21.372  68.561  1.00  0.00    -0.462 OA 
HETATM   52  C   UNL     1      -6.878  20.931  66.834  1.00  0.00    -0.307 C  
HETATM   53  C   UNL     1      -7.123  20.139  65.552  1.00  0.00    -0.315 C  
HETATM   54  O   UNL     1      -8.098  21.083  67.577  1.00  0.00    -0.200 OA 
HETATM   55  H   UNL     1      -4.931  22.112  68.037  1.00  0.00     0.000 HD 
ENDBRANCH  44  45
ENDBRANCH  39  44
ENDBRANCH  34  35
ENDBRANCH  27  34
ENDBRANCH  24  25
ENDBRANCH  16  24
BRANCH  14  56
HETATM   56  C   UNL     1      -8.204   3.460  72.941  1.00  0.00    -0.081 C  
HETATM   57  C   UNL     1      -8.601   2.617  74.089  1.00  0.00    -0.071 C  
HETATM   58  C   UNL     1      -6.352   2.547  73.832  1.00  0.00    -0.020 C  
HETATM   59  O   UNL     1      -7.378   2.054  74.564  1.00  0.00    -0.031 OA 
HETATM   60  O   UNL     1      -5.168   2.309  73.999  1.00  0.00     0.000 OA 
HETATM   61  C   UNL     1      -6.877   3.431  72.803  1.00  0.00    -0.038 C  
ENDBRANCH  14  56
TORSDOF 7
ENDMDL
MODEL        6
REMARK 921   NORMALIZED FREE ENERGY PREDICTED BY IDOCK:   -6.86 KCAL/MOL
REMARK 922        TOTAL FREE ENERGY PREDICTED BY IDOCK:  -11.51 KCAL/MOL
REMARK 923 INTER-LIGAND FREE ENERGY PREDICTED BY IDOCK:  -10.47 KCAL/MOL
REMARK 924 INTRA-LIGAND FREE ENERGY PREDICTED BY IDOCK:   -1.04 KCAL/MOL
REMARK 927      BINDING AFFINITY PREDICTED BY RF-SCORE:    0.00 PKD
ROOT
HETATM    1  C   UNL     1      -7.836   6.383  65.391  1.00  0.00    -0.105 C  
HETATM    2  C   UNL     1      -9.154   5.644  65.659  1.00  0.00    -0.110 C  
HETATM    3  C   UNL     1      -9.834   6.030  66.959  1.00  0.00    -0.179 C  
HETATM    4  C   UNL     1      -8.949   5.752  68.185  1.00  0.00    -0.114 C  
HETATM    5  C   UNL     1      -7.539   6.320  67.984  1.00  0.00    -0.102 C  
HETATM    6  C   UNL     1      -6.854   6.404  66.595  1.00  0.00    -0.066 C  
HETATM    7  C   UNL     1      -6.586   5.929  69.125  1.00  0.00    -0.051 C  
HETATM    8  C   UNL     1      -5.855   5.240  66.365  1.00  0.00    -0.018 C  
HETATM    9  C   UNL     1      -7.031   6.660  70.383  1.00  0.00    -0.063 C  
HETATM   10  C   UNL     1      -6.082   7.777  66.627  1.00  0.00    -0.048 C  
HETATM   11  C   UNL     1      -7.048   8.989  66.701  1.00  0.00    -0.081 C  
HETATM   12  O   UNL     1      -6.822   8.066  70.218  1.00  0.00    -0.037 OA 
HETATM   13  C   UNL     1      -8.507   6.353  70.735  1.00  0.00    -0.135 C  
HETATM   14  C   UNL     1      -8.682   4.850  71.116  1.00  0.00    -0.143 C  
HETATM   15  C   UNL     1      -8.954   7.346  71.847  1.00  0.00    -0.140 C  
HETATM   16  C   UNL     1      -8.015   9.014  65.522  1.00  0.00    -0.106 C  
HETATM   17  H   UNL     1      -7.100   8.522  71.004  1.00  0.00     0.000 HD 
HETATM   18  O   UNL     1      -9.879   7.775  69.268  1.00  0.00    -0.168 OA 
HETATM   19  C   UNL     1     -10.199   4.617  71.049  1.00  0.00    -0.207 C  
HETATM   20  H   UNL     1     -10.220   8.170  70.063  1.00  0.00     0.000 HD 
HETATM   21  C   UNL     1      -7.971   7.742  64.672  1.00  0.00    -0.136 C  
HETATM   22  C   UNL     1      -9.520   6.414  69.517  1.00  0.00    -0.145 C  
HETATM   23  C   UNL     1     -10.748   5.670  70.072  1.00  0.00    -0.390 C  
ENDROOT
BRANCH  16  24
HETATM   24  O   UNL     1      -9.378   9.261  65.859  1.00  0.00    -0.198 OA 
BRANCH  24  25
HETATM   25  C   UNL     1      -9.810  10.592  66.182  1.00  0.00    -0.217 C  
HETATM   26  O   UNL     1     -10.051  10.500  69.909  1.00  0.00    -0.411 OA 
HETATM   27  C   UNL     1      -8.901  12.172  68.546  1.00  0.00    -0.079 C  
HETATM   28  C   UNL     1     -10.537  10.663  67.522  1.00  0.00    -0.297 C  
HETATM   29  C   UNL     1      -9.497  10.765  68.623  1.00  0.00    -0.188 C  
HETATM   30  O   UNL     1      -8.605  11.364  66.140  1.00  0.00    -0.177 OA 
HETATM   31  C   UNL     1      -8.324  12.380  67.111  1.00  0.00    -0.181 C  
HETATM   32  H   UNL     1      -9.401  10.563  70.598  1.00  0.00     0.000 HD 
HETATM   33  C   UNL     1      -6.792  12.493  67.130  1.00  0.00    -0.058 C  
BRANCH  27  34
HETATM   34  O   UNL     1      -9.872  13.233  68.708  1.00  0.00    -0.140 OA 
BRANCH  34  35
HETATM   35  C   UNL     1     -10.169  14.109  67.624  1.00  0.00    -0.241 C  
HETATM   36  C   UNL     1     -11.515  14.811  67.749  1.00  0.00    -0.363 C  
HETATM   37  C   UNL     1     -11.528  15.623  69.035  1.00  0.00    -0.363 C  
HETATM   38  O   UNL     1     -12.785  16.282  69.213  1.00  0.00    -0.297 OA 
HETATM   39  C   UNL     1     -10.356  16.625  69.093  1.00  0.00    -0.326 C  
HETATM   40  O   UNL     1      -9.136  15.096  67.512  1.00  0.00    -0.177 OA 
HETATM   41  C   UNL     1      -9.013  16.011  68.604  1.00  0.00    -0.210 C  
HETATM   42  H   UNL     1     -12.794  16.789  70.016  1.00  0.00     0.000 HD 
HETATM   43  C   UNL     1      -8.115  15.423  69.694  1.00  0.00    -0.134 C  
BRANCH  39  44
HETATM   44  O   UNL     1     -10.560  17.795  68.270  1.00  0.00    -0.369 OA 
BRANCH  44  45
HETATM   45  C   UNL     1     -10.059  19.058  68.710  1.00  0.00    -0.363 C  
HETATM   46  C   UNL     1      -8.544  19.140  68.887  1.00  0.00    -0.314 C  
HETATM   47  C   UNL     1      -7.874  18.917  67.538  1.00  0.00    -0.237 C  
HETATM   48  C   UNL     1      -8.329  19.995  66.551  1.00  0.00    -0.311 C  
HETATM   49  O   UNL     1      -6.451  18.989  67.689  1.00  0.00    -0.200 OA 
HETATM   50  H   UNL     1      -6.032  18.850  66.848  1.00  0.00     0.000 HD 
HETATM   51  O   UNL     1      -7.776  21.254  66.975  1.00  0.00    -0.733 OA 
HETATM   52  C   UNL     1      -9.865  20.093  66.501  1.00  0.00    -0.446 C  
HETATM   53  C   UNL     1     -10.492  19.030  65.603  1.00  0.00    -0.231 C  
HETATM   54  O   UNL     1     -10.480  20.087  67.799  1.00  0.00    -0.383 OA 
HETATM   55  H   UNL     1      -8.059  21.924  66.362  1.00  0.00     0.000 HD 
ENDBRANCH  44  45
ENDBRANCH  39  44
ENDBRANCH  34  35
ENDBRANCH  27  34
ENDBRANCH  24  25
ENDBRANCH  16  24
BRANCH  14  56
HETATM   56  C   UNL     1      -7.972   4.276  72.302  1.00  0.00    -0.091 C  
HETATM   57  C   UNL     1      -8.579   3.911  73.599  1.00  0.00    -0.091 C  
HETATM   58  C   UNL     1      -6.331   3.656  73.709  1.00  0.00    -0.028 C  
HETATM   59  O   UNL     1      -7.478   3.499  74.409  1.00  0.00    -0.052 OA 
HETATM   60  O   UNL     1      -5.202   3.441  74.115  1.00  0.00     0.000 OA 
HETATM   61  C   UNL     1      -6.646   4.142  72.374  1.00  0.00    -0.022 C  
ENDBRANCH  14  56
TORSDOF 7
ENDMDL
MODEL        7
REMARK 921   NORMALIZED FREE ENERGY PREDICTED BY IDOCK:   -6.52 KCAL/MOL
REMARK 922        TOTAL FREE ENERGY PREDICTED BY IDOCK:  -11.03 KCAL/MOL
REMARK 923 INTER-LIGAND FREE ENERGY PREDICTED BY IDOCK:   -9.62 KCAL/MOL
REMARK 924 INTRA-LIGAND FREE ENERGY PREDICTED BY IDOCK:   -1.41 KCAL/MOL
REMARK 927      BINDING AFFINITY PREDICTED BY RF-SCORE:    0.00 PKD
ROOT
HETATM    1  C   UNL     1      -8.668   6.367  71.036  1.00  0.00    -0.135 C  
HETATM    2  C   UNL     1      -7.163   6.365  70.734  1.00  0.00    -0.074 C  
HETATM    3  C   UNL     1      -6.809   6.756  69.312  1.00  0.00    -0.061 C  
HETATM    4  C   UNL     1      -7.439   5.813  68.274  1.00  0.00    -0.081 C  
HETATM    5  C   UNL     1      -8.934   5.611  68.551  1.00  0.00    -0.115 C  
HETATM    6  C   UNL     1      -9.537   5.628  69.981  1.00  0.00    -0.214 C  
HETATM    7  C   UNL     1      -9.561   4.557  67.624  1.00  0.00    -0.207 C  
HETATM    8  C   UNL     1      -9.772   4.197  70.532  1.00  0.00    -0.270 C  
HETATM    9  C   UNL     1      -9.587   5.125  66.214  1.00  0.00    -0.164 C  
HETATM   10  C   UNL     1     -10.913   6.372  69.810  1.00  0.00    -0.417 C  
HETATM   11  C   UNL     1     -10.729   7.859  69.407  1.00  0.00    -0.174 C  
HETATM   12  O   UNL     1     -10.499   6.226  66.159  1.00  0.00    -0.438 OA 
HETATM   13  C   UNL     1      -8.175   5.546  65.736  1.00  0.00    -0.124 C  
HETATM   14  C   UNL     1      -7.246   4.301  65.600  1.00  0.00    -0.072 C  
HETATM   15  C   UNL     1      -8.336   6.365  64.422  1.00  0.00     0.050 C  
HETATM   16  C   UNL     1      -9.898   8.624  70.433  1.00  0.00    -0.183 C  
HETATM   17  H   UNL     1     -10.516   6.581  65.277  1.00  0.00     0.000 HD 
HETATM   18  O   UNL     1      -7.727   7.743  66.750  1.00  0.00    -0.095 OA 
HETATM   19  C   UNL     1      -5.830   4.893  65.514  1.00  0.00    -0.018 C  
HETATM   20  H   UNL     1      -7.658   8.076  65.863  1.00  0.00     0.000 HD 
HETATM   21  C   UNL     1      -9.253   7.722  71.488  1.00  0.00    -0.164 C  
HETATM   22  C   UNL     1      -7.324   6.372  66.787  1.00  0.00    -0.079 C  
HETATM   23  C   UNL     1      -5.898   6.259  66.217  1.00  0.00    -0.024 C  
ENDROOT
BRANCH  16  24
HETATM   24  O   UNL     1      -8.873   9.453  69.889  1.00  0.00    -0.163 OA 
BRANCH  24  25
HETATM   25  C   UNL     1      -9.113  10.853  69.681  1.00  0.00     0.424 C  
HETATM   26  O   UNL     1     -10.056  11.002  66.069  1.00  0.00    -0.230 OA 
HETATM   27  C   UNL     1     -11.262  11.993  67.950  1.00  0.00    -0.264 C  
HETATM   28  C   UNL     1      -8.938  11.268  68.222  1.00  0.00    -0.172 C  
HETATM   29  C   UNL     1     -10.229  10.966  67.483  1.00  0.00    -0.190 C  
HETATM   30  O   UNL     1     -10.442  11.050  70.179  1.00  0.00     0.148 OA 
HETATM   31  C   UNL     1     -11.386  11.891  69.502  1.00  0.00    -0.236 C  
HETATM   32  H   UNL     1     -10.863  10.814  65.606  1.00  0.00     0.000 HD 
HETATM   33  C   UNL     1     -12.762  11.356  69.925  1.00  0.00     0.026 C  
BRANCH  27  34
HETATM   34  O   UNL     1     -10.881  13.368  67.702  1.00  0.00    -0.253 OA 
BRANCH  34  35
HETATM   35  C   UNL     1     -11.877  14.376  67.553  1.00  0.00    -0.386 C  
HETATM   36  C   UNL     1     -12.099  15.213  68.805  1.00  0.00    -0.199 C  
HETATM   37  C   UNL     1     -10.790  15.889  69.183  1.00  0.00    -0.268 C  
HETATM   38  O   UNL     1     -10.941  16.669  70.373  1.00  0.00    -0.370 OA 
HETATM   39  C   UNL     1     -10.227  16.738  68.024  1.00  0.00    -0.300 C  
HETATM   40  O   UNL     1     -11.519  15.242  66.469  1.00  0.00    -0.242 OA 
HETATM   41  C   UNL     1     -10.334  16.023  66.647  1.00  0.00    -0.298 C  
HETATM   42  H   UNL     1     -10.123  17.091  70.610  1.00  0.00     0.000 HD 
HETATM   43  C   UNL     1      -9.102  15.230  66.211  1.00  0.00    -0.337 C  
BRANCH  39  44
HETATM   44  O   UNL     1     -10.909  17.999  67.852  1.00  0.00    -0.367 OA 
BRANCH  44  45
HETATM   45  C   UNL     1     -10.345  19.185  68.414  1.00  0.00    -0.327 C  
HETATM   46  C   UNL     1      -8.856  19.112  68.746  1.00  0.00    -0.372 C  
HETATM   47  C   UNL     1      -8.070  18.892  67.461  1.00  0.00    -0.260 C  
HETATM   48  C   UNL     1      -8.319  20.057  66.498  1.00  0.00    -0.311 C  
HETATM   49  O   UNL     1      -6.670  18.820  67.758  1.00  0.00    -0.207 OA 
HETATM   50  H   UNL     1      -6.180  18.683  66.956  1.00  0.00     0.000 HD 
HETATM   51  O   UNL     1      -7.702  21.235  67.050  1.00  0.00    -0.733 OA 
HETATM   52  C   UNL     1      -9.826  20.305  66.300  1.00  0.00    -0.346 C  
HETATM   53  C   UNL     1     -10.449  19.352  65.283  1.00  0.00     0.344 C  
HETATM   54  O   UNL     1     -10.572  20.294  67.528  1.00  0.00    -0.261 OA 
HETATM   55  H   UNL     1      -7.857  21.958  66.452  1.00  0.00     0.000 HD 
ENDBRANCH  44  45
ENDBRANCH  39  44
ENDBRANCH  34  35
ENDBRANCH  27  34
ENDBRANCH  24  25
ENDBRANCH  16  24
BRANCH  14  56
HETATM   56  C   UNL     1      -7.570   3.208  64.630  1.00  0.00    -0.077 C  
HETATM   57  C   UNL     1      -6.605   2.318  63.952  1.00  0.00    -0.030 C  
HETATM   58  C   UNL     1      -8.690   1.924  63.163  1.00  0.00    -0.083 C  
HETATM   59  O   UNL     1      -7.402   1.522  63.076  1.00  0.00    -0.034 OA 
HETATM   60  O   UNL     1      -9.628   1.487  62.518  1.00  0.00    -0.087 OA 
HETATM   61  C   UNL     1      -8.795   2.987  64.151  1.00  0.00    -0.098 C  
ENDBRANCH  14  56
TORSDOF 7
ENDMDL
MODEL        8
REMARK 921   NORMALIZED FREE ENERGY PREDICTED BY IDOCK:   -6.40 KCAL/MOL
REMARK 922        TOTAL FREE ENERGY PREDICTED BY IDOCK:  -10.85 KCAL/MOL
REMARK 923 INTER-LIGAND FREE ENERGY PREDICTED BY IDOCK:  -10.28 KCAL/MOL
REMARK 924 INTRA-LIGAND FREE ENERGY PREDICTED BY IDOCK:   -0.58 KCAL/MOL
REMARK 927      BINDING AFFINITY PREDICTED BY RF-SCORE:    0.00 PKD
ROOT
HETATM    1  C   UNL     1     -11.409   8.133  72.558  1.00  0.00    -0.469 C  
HETATM    2  C   UNL     1      -9.896   8.307  72.749  1.00  0.00    -0.333 C  
HETATM    3  C   UNL     1      -9.118   8.485  71.458  1.00  0.00    -0.281 C  
HETATM    4  C   UNL     1      -9.279   7.285  70.511  1.00  0.00    -0.158 C  
HETATM    5  C   UNL     1     -10.757   6.910  70.345  1.00  0.00    -0.278 C  
HETATM    6  C   UNL     1     -11.805   7.092  71.474  1.00  0.00    -0.351 C  
HETATM    7  C   UNL     1     -10.942   5.623  69.525  1.00  0.00    -0.266 C  
HETATM    8  C   UNL     1     -12.089   5.765  72.226  1.00  0.00    -0.061 C  
HETATM    9  C   UNL     1     -10.540   5.917  68.088  1.00  0.00    -0.244 C  
HETATM   10  C   UNL     1     -13.102   7.574  70.723  1.00  0.00     0.103 C  
HETATM   11  C   UNL     1     -12.920   8.974  70.080  1.00  0.00     1.277 C  
HETATM   12  O   UNL     1     -11.471   6.837  67.510  1.00  0.00    -0.690 OA 
HETATM   13  C   UNL     1      -9.092   6.455  67.994  1.00  0.00    -0.113 C  
HETATM   14  C   UNL     1      -8.068   5.364  68.433  1.00  0.00    -0.091 C  
HETATM   15  C   UNL     1      -8.869   6.990  66.549  1.00  0.00    -0.151 C  
HETATM   16  C   UNL     1     -12.551  10.030  71.118  1.00  0.00    -0.381 C  
HETATM   17  H   UNL     1     -11.220   7.021  66.612  1.00  0.00     0.000 HD 
HETATM   18  O   UNL     1      -9.200   8.841  68.587  1.00  0.00    -0.141 OA 
HETATM   19  C   UNL     1      -6.762   6.140  68.664  1.00  0.00    -0.061 C  
HETATM   20  H   UNL     1      -8.865   9.016  67.715  1.00  0.00     0.000 HD 
HETATM   21  C   UNL     1     -12.225   9.441  72.494  1.00  0.00     0.057 C  
HETATM   22  C   UNL     1      -8.718   7.578  69.049  1.00  0.00    -0.136 C  
HETATM   23  C   UNL     1      -7.179   7.584  68.992  1.00  0.00    -0.085 C  
ENDROOT
BRANCH  16  24
HETATM   24  O   UNL     1     -11.478  10.893  70.753  1.00  0.00    -0.268 OA 
BRANCH  24  25
HETATM   25  C   UNL     1     -11.424  11.457  69.433  1.00  0.00    -0.310 C  
HETATM   26  O   UNL     1     -11.372  15.131  70.108  1.00  0.00    -0.240 OA 
HETATM   27  C   UNL     1      -9.856  13.876  68.657  1.00  0.00    -0.175 C  
HETATM   28  C   UNL     1     -11.974  12.880  69.382  1.00  0.00    -0.327 C  
HETATM   29  C   UNL     1     -10.870  13.833  69.802  1.00  0.00     0.217 C  
HETATM   30  O   UNL     1     -10.040  11.362  69.076  1.00  0.00    -0.181 OA 
HETATM   31  C   UNL     1      -9.363  12.421  68.386  1.00  0.00    -0.158 C  
HETATM   32  H   UNL     1     -10.682  15.728  70.371  1.00  0.00     0.000 HD 
HETATM   33  C   UNL     1      -7.883  12.248  68.756  1.00  0.00     0.006 C  
BRANCH  27  34
HETATM   34  O   UNL     1     -10.411  14.317  67.395  1.00  0.00    -0.261 OA 
BRANCH  34  35
HETATM   35  C   UNL     1      -9.554  14.612  66.296  1.00  0.00    -0.308 C  
HETATM   36  C   UNL     1     -10.169  15.555  65.270  1.00  0.00    -0.380 C  
HETATM   37  C   UNL     1     -10.528  16.863  65.959  1.00  0.00    -0.290 C  
HETATM   38  O   UNL     1     -11.136  17.776  65.041  1.00  0.00    -0.717 OA 
HETATM   39  C   UNL     1      -9.308  17.499  66.656  1.00  0.00    -0.262 C  
HETATM   40  O   UNL     1      -8.334  15.184  66.783  1.00  0.00    -0.231 OA 
HETATM   41  C   UNL     1      -8.441  16.458  67.422  1.00  0.00    -0.178 C  
HETATM   42  H   UNL     1     -11.361  18.593  65.470  1.00  0.00     0.000 HD 
HETATM   43  C   UNL     1      -8.768  16.285  68.906  1.00  0.00    -0.253 C  
BRANCH  39  44
HETATM   44  O   UNL     1      -8.399  18.149  65.741  1.00  0.00    -0.499 OA 
BRANCH  44  45
HETATM   45  C   UNL     1      -8.167  19.554  65.862  1.00  0.00    -0.164 C  
HETATM   46  C   UNL     1      -8.254  20.116  67.279  1.00  0.00    -0.381 C  
HETATM   47  C   UNL     1      -7.165  19.480  68.133  1.00  0.00    -0.295 C  
HETATM   48  C   UNL     1      -5.790  19.802  67.541  1.00  0.00    -0.181 C  
HETATM   49  O   UNL     1      -7.235  19.997  69.467  1.00  0.00    -0.225 OA 
HETATM   50  H   UNL     1      -6.557  19.601  70.000  1.00  0.00     0.000 HD 
HETATM   51  O   UNL     1      -5.546  21.210  67.714  1.00  0.00    -0.269 OA 
HETATM   52  C   UNL     1      -5.729  19.445  66.045  1.00  0.00    -0.163 C  
HETATM   53  C   UNL     1      -5.465  17.960  65.806  1.00  0.00    -0.220 C  
HETATM   54  O   UNL     1      -6.882  19.880  65.307  1.00  0.00    -0.292 OA 
HETATM   55  H   UNL     1      -4.692  21.410  67.347  1.00  0.00     0.000 HD 
ENDBRANCH  44  45
ENDBRANCH  39  44
ENDBRANCH  34  35
ENDBRANCH  27  34
ENDBRANCH  24  25
ENDBRANCH  16  24
BRANCH  14  56
HETATM   56  C   UNL     1      -7.952   4.078  67.677  1.00  0.00    -0.090 C  
HETATM   57  C   UNL     1      -8.868   2.921  67.761  1.00  0.00    -0.135 C  
HETATM   58  C   UNL     1      -7.105   2.404  66.436  1.00  0.00    -0.052 C  
HETATM   59  O   UNL     1      -8.276   1.930  66.922  1.00  0.00    -0.071 OA 
HETATM   60  O   UNL     1      -6.323   1.800  65.722  1.00  0.00    -0.022 OA 
HETATM   61  C   UNL     1      -6.906   3.765  66.910  1.00  0.00    -0.051 C  
ENDBRANCH  14  56
TORSDOF 7
ENDMDL
MODEL        9
REMARK 921   NORMALIZED FREE ENERGY PREDICTED BY IDOCK:   -5.96 KCAL/MOL
REMARK 922        TOTAL FREE ENERGY PREDICTED BY IDOCK:  -10.23 KCAL/MOL
REMARK 923 INTER-LIGAND FREE ENERGY PREDICTED BY IDOCK:   -9.41 KCAL/MOL
REMARK 924 INTRA-LIGAND FREE ENERGY PREDICTED BY IDOCK:   -0.82 KCAL/MOL
REMARK 927      BINDING AFFINITY PREDICTED BY RF-SCORE:    0.00 PKD
ROOT
HETATM    1  C   UNL     1     -11.230  12.092  66.794  1.00  0.00    -0.376 C  
HETATM    2  C   UNL     1      -9.860  11.495  66.442  1.00  0.00    -0.233 C  
HETATM    3  C   UNL     1      -8.719  11.995  67.308  1.00  0.00    -0.175 C  
HETATM    4  C   UNL     1      -8.540  13.519  67.213  1.00  0.00    -0.218 C  
HETATM    5  C   UNL     1      -9.879  14.242  67.404  1.00  0.00    -0.235 C  
HETATM    6  C   UNL     1     -11.235  13.638  66.953  1.00  0.00    -0.326 C  
HETATM    7  C   UNL     1      -9.763  15.756  67.166  1.00  0.00    -0.227 C  
HETATM    8  C   UNL     1     -11.709  14.217  65.594  1.00  0.00    -0.357 C  
HETATM    9  C   UNL     1      -8.934  16.349  68.295  1.00  0.00    -0.206 C  
HETATM   10  C   UNL     1     -12.239  14.050  68.094  1.00  0.00    -0.191 C  
HETATM   11  C   UNL     1     -11.899  13.372  69.447  1.00  0.00    -0.390 C  
HETATM   12  O   UNL     1      -9.657  16.242  69.526  1.00  0.00    -0.216 OA 
HETATM   13  C   UNL     1      -7.544  15.674  68.404  1.00  0.00    -0.121 C  
HETATM   14  C   UNL     1      -6.685  15.974  67.138  1.00  0.00    -0.205 C  
HETATM   15  C   UNL     1      -6.889  16.134  69.739  1.00  0.00    -0.060 C  
HETATM   16  C   UNL     1     -11.905  11.851  69.335  1.00  0.00    -0.327 C  
HETATM   17  H   UNL     1      -9.139  16.613  70.231  1.00  0.00     0.000 HD 
HETATM   18  O   UNL     1      -7.896  13.554  69.603  1.00  0.00    -0.009 OA 
HETATM   19  C   UNL     1      -5.539  14.951  67.207  1.00  0.00     0.498 C  
HETATM   20  H   UNL     1      -7.306  13.895  70.266  1.00  0.00     0.000 HD 
HETATM   21  C   UNL     1     -12.017  11.348  67.893  1.00  0.00    -0.120 C  
HETATM   22  C   UNL     1      -7.553  14.091  68.324  1.00  0.00    -0.135 C  
HETATM   23  C   UNL     1      -6.076  13.769  68.031  1.00  0.00    -0.140 C  
ENDROOT
BRANCH  16  24
HETATM   24  O   UNL     1     -10.794  11.192  69.937  1.00  0.00    -0.169 OA 
BRANCH  24  25
HETATM   25  C   UNL     1     -10.537   9.808  69.655  1.00  0.00    -0.239 C  
HETATM   26  O   UNL     1      -8.454   8.744  72.568  1.00  0.00    -0.403 OA 
HETATM   27  C   UNL     1     -10.443   7.625  71.690  1.00  0.00    -0.197 C  
HETATM   28  C   UNL     1      -9.270   9.296  70.335  1.00  0.00    -0.291 C  
HETATM   29  C   UNL     1      -9.617   8.911  71.762  1.00  0.00    -0.282 C  
HETATM   30  O   UNL     1     -11.730   9.144  70.088  1.00  0.00    -0.110 OA 
HETATM   31  C   UNL     1     -11.688   7.893  70.788  1.00  0.00    -0.218 C  
HETATM   32  H   UNL     1      -8.671   8.503  73.461  1.00  0.00     0.000 HD 
HETATM   33  C   UNL     1     -12.992   7.852  71.599  1.00  0.00    -0.359 C  
BRANCH  27  34
HETATM   34  O   UNL     1      -9.759   6.521  71.051  1.00  0.00    -0.175 OA 
BRANCH  34  35
HETATM   35  C   UNL     1     -10.120   6.115  69.733  1.00  0.00    -0.181 C  
HETATM   36  C   UNL     1      -9.162   6.602  68.654  1.00  0.00    -0.128 C  
HETATM   37  C   UNL     1      -7.771   6.065  68.953  1.00  0.00    -0.092 C  
HETATM   38  O   UNL     1      -6.826   6.518  67.980  1.00  0.00    -0.068 OA 
HETATM   39  C   UNL     1      -7.762   4.527  69.069  1.00  0.00    -0.070 C  
HETATM   40  O   UNL     1     -10.196   4.685  69.679  1.00  0.00    -0.221 OA 
HETATM   41  C   UNL     1      -8.971   3.977  69.879  1.00  0.00    -0.098 C  
HETATM   42  H   UNL     1      -5.957   6.184  68.166  1.00  0.00     0.000 HD 
HETATM   43  C   UNL     1      -8.723   3.749  71.371  1.00  0.00    -0.130 C  
BRANCH  39  44
HETATM   44  O   UNL     1      -7.823   3.854  67.793  1.00  0.00    -0.077 OA 
BRANCH  44  45
HETATM   45  C   UNL     1      -7.133   4.411  66.673  1.00  0.00    -0.067 C  
HETATM   46  C   UNL     1      -6.510   3.399  65.713  1.00  0.00    -0.033 C  
HETATM   47  C   UNL     1      -7.616   2.556  65.094  1.00  0.00    -0.076 C  
HETATM   48  C   UNL     1      -8.583   3.459  64.323  1.00  0.00    -0.093 C  
HETATM   49  O   UNL     1      -7.046   1.600  64.191  1.00  0.00    -0.040 OA 
HETATM   50  H   UNL     1      -7.736   1.074  63.805  1.00  0.00     0.000 HD 
HETATM   51  O   UNL     1      -7.893   3.974  63.169  1.00  0.00    -0.071 OA 
HETATM   52  C   UNL     1      -9.074   4.627  65.198  1.00  0.00    -0.155 C  
HETATM   53  C   UNL     1     -10.217   4.225  66.127  1.00  0.00    -0.160 C  
HETATM   54  O   UNL     1      -8.022   5.268  65.936  1.00  0.00    -0.101 OA 
HETATM   55  H   UNL     1      -8.494   4.534  62.690  1.00  0.00     0.000 HD 
ENDBRANCH  44  45
ENDBRANCH  39  44
ENDBRANCH  34  35
ENDBRANCH  27  34
ENDBRANCH  24  25
ENDBRANCH  16  24
BRANCH  14  56
HETATM   56  C   UNL     1      -6.302  17.378  66.790  1.00  0.00    -0.237 C  
HETATM   57  C   UNL     1      -5.197  18.161  67.379  1.00  0.00    -0.137 C  
HETATM   58  C   UNL     1      -6.392  19.470  65.969  1.00  0.00    -0.194 C  
HETATM   59  O   UNL     1      -5.308  19.452  66.779  1.00  0.00    -0.164 OA 
HETATM   60  O   UNL     1      -6.804  20.428  65.337  1.00  0.00    -0.284 OA 
HETATM   61  C   UNL     1      -7.016  18.156  65.973  1.00  0.00    -0.327 C  
ENDBRANCH  14  56
TORSDOF 7
ENDMDL
MODEL       10
REMARK 921   NORMALIZED FREE ENERGY PREDICTED BY IDOCK:   -5.91 KCAL/MOL
REMARK 922        TOTAL FREE ENERGY PREDICTED BY IDOCK:  -10.17 KCAL/MOL
REMARK 923 INTER-LIGAND FREE ENERGY PREDICTED BY IDOCK:   -8.96 KCAL/MOL
REMARK 924 INTRA-LIGAND FREE ENERGY PREDICTED BY IDOCK:   -1.22 KCAL/MOL
REMARK 927      BINDING AFFINITY PREDICTED BY RF-SCORE:    0.00 PKD
ROOT
HETATM    1  C   UNL     1      -8.607   5.995  70.977  1.00  0.00    -0.131 C  
HETATM    2  C   UNL     1      -7.122   5.850  70.614  1.00  0.00    -0.074 C  
HETATM    3  C   UNL     1      -6.781   6.266  69.196  1.00  0.00    -0.056 C  
HETATM    4  C   UNL     1      -7.545   5.441  68.147  1.00  0.00    -0.081 C  
HETATM    5  C   UNL     1      -9.041   5.383  68.476  1.00  0.00    -0.121 C  
HETATM    6  C   UNL     1      -9.586   5.398  69.929  1.00  0.00    -0.226 C  
HETATM    7  C   UNL     1      -9.809   4.443  67.533  1.00  0.00    -0.180 C  
HETATM    8  C   UNL     1      -9.951   3.976  70.430  1.00  0.00    -0.107 C  
HETATM    9  C   UNL     1      -9.827   5.074  66.149  1.00  0.00    -0.198 C  
HETATM   10  C   UNL     1     -10.882   6.288  69.845  1.00  0.00    -0.399 C  
HETATM   11  C   UNL     1     -10.557   7.765  69.497  1.00  0.00    -0.221 C  
HETATM   12  O   UNL     1     -10.619   6.265  66.177  1.00  0.00    -0.445 OA 
HETATM   13  C   UNL     1      -8.397   5.367  65.632  1.00  0.00    -0.130 C  
HETATM   14  C   UNL     1      -7.610   4.040  65.407  1.00  0.00    -0.082 C  
HETATM   15  C   UNL     1      -8.518   6.256  64.360  1.00  0.00     0.111 C  
HETATM   16  C   UNL     1      -9.613   8.392  70.518  1.00  0.00    -0.170 C  
HETATM   17  H   UNL     1     -10.631   6.659  65.312  1.00  0.00     0.000 HD 
HETATM   18  O   UNL     1      -7.683   7.457  66.716  1.00  0.00    -0.104 OA 
HETATM   19  C   UNL     1      -6.143   4.485  65.287  1.00  0.00    -0.023 C  
HETATM   20  H   UNL     1      -7.612   7.822  65.842  1.00  0.00     0.000 HD 
HETATM   21  C   UNL     1      -9.029   7.381  71.508  1.00  0.00    -0.132 C  
HETATM   22  C   UNL     1      -7.426   6.052  66.680  1.00  0.00    -0.090 C  
HETATM   23  C   UNL     1      -6.041   5.818  66.048  1.00  0.00    -0.029 C  
ENDROOT
BRANCH  16  24
HETATM   24  O   UNL     1      -8.527   9.133  69.967  1.00  0.00    -0.127 OA 
BRANCH  24  25
HETATM   25  C   UNL     1      -8.625  10.559  69.828  1.00  0.00     0.150 C  
HETATM   26  O   UNL     1      -7.665  11.111  66.260  1.00  0.00    -0.218 OA 
HETATM   27  C   UNL     1      -9.635  11.990  67.410  1.00  0.00    -0.176 C  
HETATM   28  C   UNL     1      -7.752  11.100  68.699  1.00  0.00    -0.135 C  
HETATM   29  C   UNL     1      -8.513  10.950  67.395  1.00  0.00    -0.120 C  
HETATM   30  O   UNL     1     -10.025  10.789  69.632  1.00  0.00    -0.130 OA 
HETATM   31  C   UNL     1     -10.508  11.747  68.681  1.00  0.00    -0.222 C  
HETATM   32  H   UNL     1      -8.141  11.017  65.443  1.00  0.00     0.000 HD 
HETATM   33  C   UNL     1     -11.917  11.260  68.314  1.00  0.00    -0.215 C  
BRANCH  27  34
HETATM   34  O   UNL     1      -9.172  13.355  67.539  1.00  0.00    -0.201 OA 
BRANCH  34  35
HETATM   35  C   UNL     1      -9.722  14.211  68.537  1.00  0.00    -0.219 C  
HETATM   36  C   UNL     1      -8.709  14.678  69.574  1.00  0.00     0.210 C  
HETATM   37  C   UNL     1      -7.590  15.428  68.866  1.00  0.00    -0.164 C  
HETATM   38  O   UNL     1      -6.597  15.864  69.797  1.00  0.00    -0.188 OA 
HETATM   39  C   UNL     1      -8.130  16.605  68.029  1.00  0.00    -0.180 C  
HETATM   40  O   UNL     1     -10.311  15.357  67.911  1.00  0.00    -0.241 OA 
HETATM   41  C   UNL     1      -9.414  16.238  67.230  1.00  0.00    -0.227 C  
HETATM   42  H   UNL     1      -5.898  16.333  69.356  1.00  0.00     0.000 HD 
HETATM   43  C   UNL     1      -9.190  15.765  65.793  1.00  0.00    -0.255 C  
BRANCH  39  44
HETATM   44  O   UNL     1      -8.494  17.756  68.823  1.00  0.00    -0.284 OA 
BRANCH  44  45
HETATM   45  C   UNL     1      -7.657  18.913  68.805  1.00  0.00    -0.333 C  
HETATM   46  C   UNL     1      -6.574  18.927  67.728  1.00  0.00    -0.220 C  
HETATM   47  C   UNL     1      -7.238  18.921  66.357  1.00  0.00    -0.237 C  
HETATM   48  C   UNL     1      -8.122  20.162  66.206  1.00  0.00    -0.229 C  
HETATM   49  O   UNL     1      -6.233  18.932  65.336  1.00  0.00    -0.232 OA 
HETATM   50  H   UNL     1      -6.647  18.928  64.481  1.00  0.00     0.000 HD 
HETATM   51  O   UNL     1      -7.265  21.317  66.138  1.00  0.00    -0.421 OA 
HETATM   52  C   UNL     1      -9.092  20.304  67.393  1.00  0.00    -0.365 C  
HETATM   53  C   UNL     1     -10.331  19.425  67.247  1.00  0.00    -0.554 C  
HETATM   54  O   UNL     1      -8.467  20.092  68.669  1.00  0.00    -0.045 OA 
HETATM   55  H   UNL     1      -7.814  22.088  66.045  1.00  0.00     0.000 HD 
ENDBRANCH  44  45
ENDBRANCH  39  44
ENDBRANCH  34  35
ENDBRANCH  27  34
ENDBRANCH  24  25
ENDBRANCH  16  24
BRANCH  14  56
HETATM   56  C   UNL     1      -8.082   3.032  64.407  1.00  0.00    -0.082 C  
HETATM   57  C   UNL     1      -7.234   2.190  63.538  1.00  0.00    -0.044 C  
HETATM   58  C   UNL     1      -9.415   1.880  63.009  1.00  0.00    -0.091 C  
HETATM   59  O   UNL     1      -8.158   1.473  62.717  1.00  0.00    -0.054 OA 
HETATM   60  O   UNL     1     -10.439   1.504  62.464  1.00  0.00    -0.094 OA 
HETATM   61  C   UNL     1      -9.365   2.861  64.082  1.00  0.00    -0.126 C  
ENDBRANCH  14  56
TORSDOF 7
ENDMDL
MODEL       11
REMARK 921   NORMALIZED FREE ENERGY PREDICTED BY IDOCK:   -5.67 KCAL/MOL
REMARK 922        TOTAL FREE ENERGY PREDICTED BY IDOCK:   -9.83 KCAL/MOL
REMARK 923 INTER-LIGAND FREE ENERGY PREDICTED BY IDOCK:   -7.59 KCAL/MOL
REMARK 924 INTRA-LIGAND FREE ENERGY PREDICTED BY IDOCK:   -2.24 KCAL/MOL
REMARK 927      BINDING AFFINITY PREDICTED BY RF-SCORE:    0.00 PKD
ROOT
HETATM    1  C   UNL     1      -7.056   2.816  68.832  1.00  0.00    -0.044 C  
HETATM    2  C   UNL     1      -5.900   3.625  69.438  1.00  0.00    -0.022 C  
HETATM    3  C   UNL     1      -6.131   5.124  69.462  1.00  0.00    -0.021 C  
HETATM    4  C   UNL     1      -6.346   5.703  68.054  1.00  0.00    -0.042 C  
HETATM    5  C   UNL     1      -7.387   4.888  67.278  1.00  0.00    -0.082 C  
HETATM    6  C   UNL     1      -7.580   3.361  67.475  1.00  0.00    -0.069 C  
HETATM    7  C   UNL     1      -7.516   5.348  65.817  1.00  0.00    -0.081 C  
HETATM    8  C   UNL     1      -6.872   2.536  66.368  1.00  0.00    -0.044 C  
HETATM    9  C   UNL     1      -8.149   6.732  65.813  1.00  0.00    -0.123 C  
HETATM   10  C   UNL     1      -9.139   3.155  67.385  1.00  0.00    -0.205 C  
HETATM   11  C   UNL     1      -9.888   3.834  68.561  1.00  0.00     0.033 C  
HETATM   12  O   UNL     1      -9.501   6.641  66.271  1.00  0.00    -0.274 OA 
HETATM   13  C   UNL     1      -7.337   7.739  66.664  1.00  0.00    -0.088 C  
HETATM   14  C   UNL     1      -5.932   7.988  66.033  1.00  0.00    -0.038 C  
HETATM   15  C   UNL     1      -8.194   9.027  66.834  1.00  0.00    -0.116 C  
HETATM   16  C   UNL     1      -9.414   3.308  69.913  1.00  0.00    -0.146 C  
HETATM   17  H   UNL     1      -9.896   7.506  66.268  1.00  0.00     0.000 HD 
HETATM   18  O   UNL     1      -7.958   7.322  69.008  1.00  0.00    -0.115 OA 
HETATM   19  C   UNL     1      -5.128   8.664  67.155  1.00  0.00    -0.033 C  
HETATM   20  H   UNL     1      -8.274   8.218  69.026  1.00  0.00     0.000 HD 
HETATM   21  C   UNL     1      -8.174   2.415  69.817  1.00  0.00    -0.063 C  
HETATM   22  C   UNL     1      -6.875   7.206  68.084  1.00  0.00    -0.074 C  
HETATM   23  C   UNL     1      -5.780   8.215  68.474  1.00  0.00    -0.037 C  
ENDROOT
BRANCH  16  24
HETATM   24  O   UNL     1      -9.153   4.306  70.897  1.00  0.00    -0.112 OA 
BRANCH  24  25
HETATM   25  C   UNL     1      -9.566   5.663  70.673  1.00  0.00    -0.168 C  
HETATM   26  O   UNL     1     -12.765   5.880  72.591  1.00  0.00    -0.514 OA 
HETATM   27  C   UNL     1     -10.871   7.421  72.702  1.00  0.00    -0.303 C  
HETATM   28  C   UNL     1     -11.072   5.851  70.833  1.00  0.00    -0.312 C  
HETATM   29  C   UNL     1     -11.376   6.032  72.309  1.00  0.00    -0.303 C  
HETATM   30  O   UNL     1      -8.790   6.416  71.613  1.00  0.00    -0.136 OA 
HETATM   31  C   UNL     1      -9.351   7.505  72.357  1.00  0.00    -0.148 C  
HETATM   32  H   UNL     1     -12.955   5.992  73.515  1.00  0.00     0.000 HD 
HETATM   33  C   UNL     1      -8.489   7.603  73.623  1.00  0.00    -0.246 C  
BRANCH  27  34
HETATM   34  O   UNL     1     -11.477   8.503  71.955  1.00  0.00    -0.290 OA 
BRANCH  34  35
HETATM   35  C   UNL     1     -10.669   9.542  71.408  1.00  0.00    -0.278 C  
HETATM   36  C   UNL     1     -10.207   9.277  69.982  1.00  0.00    -0.244 C  
HETATM   37  C   UNL     1     -11.429   9.106  69.092  1.00  0.00     0.465 C  
HETATM   38  O   UNL     1     -11.046   8.827  67.743  1.00  0.00    -0.485 OA 
HETATM   39  C   UNL     1     -12.369  10.327  69.168  1.00  0.00     0.563 C  
HETATM   40  O   UNL     1     -11.394  10.777  71.442  1.00  0.00     0.291 OA 
HETATM   41  C   UNL     1     -12.562  10.850  70.620  1.00  0.00    -0.346 C  
HETATM   42  H   UNL     1     -11.809   8.720  67.187  1.00  0.00     0.000 HD 
HETATM   43  C   UNL     1     -13.777  10.299  71.369  1.00  0.00    -0.025 C  
BRANCH  39  44
HETATM   44  O   UNL     1     -11.894  11.465  68.415  1.00  0.00    -0.463 OA 
BRANCH  44  45
HETATM   45  C   UNL     1     -10.931  12.342  69.001  1.00  0.00    -0.201 C  
HETATM   46  C   UNL     1      -9.508  12.211  68.464  1.00  0.00    -0.125 C  
HETATM   47  C   UNL     1      -9.500  12.577  66.986  1.00  0.00    -0.217 C  
HETATM   48  C   UNL     1      -9.980  14.020  66.808  1.00  0.00    -0.268 C  
HETATM   49  O   UNL     1      -8.169  12.457  66.467  1.00  0.00    -0.394 OA 
HETATM   50  H   UNL     1      -8.164  12.685  65.545  1.00  0.00     0.000 HD 
HETATM   51  O   UNL     1      -8.979  14.897  67.356  1.00  0.00    -0.175 OA 
HETATM   52  C   UNL     1     -11.323  14.253  67.524  1.00  0.00    -0.326 C  
HETATM   53  C   UNL     1     -12.517  13.773  66.703  1.00  0.00    -0.307 C  
HETATM   54  O   UNL     1     -11.365  13.704  68.850  1.00  0.00    -0.256 OA 
HETATM   55  H   UNL     1      -9.277  15.792  67.246  1.00  0.00     0.000 HD 
ENDBRANCH  44  45
ENDBRANCH  39  44
ENDBRANCH  34  35
ENDBRANCH  27  34
ENDBRANCH  24  25
ENDBRANCH  16  24
BRANCH  14  56
HETATM   56  C   UNL     1      -5.804   8.588  64.669  1.00  0.00    -0.063 C  
HETATM   57  C   UNL     1      -5.487   7.870  63.417  1.00  0.00    -0.050 C  
HETATM   58  C   UNL     1      -5.571  10.098  63.018  1.00  0.00    -0.123 C  
HETATM   59  O   UNL     1      -5.395   8.894  62.426  1.00  0.00    -0.077 OA 
HETATM   60  O   UNL     1      -5.511  11.186  62.471  1.00  0.00    -0.162 OA 
HETATM   61  C   UNL     1      -5.836   9.902  64.435  1.00  0.00    -0.105 C  
ENDBRANCH  14  56
TORSDOF 7
ENDMDL
MODEL       12
REMARK 921   NORMALIZED FREE ENERGY PREDICTED BY IDOCK:   -5.21 KCAL/MOL
REMARK 922        TOTAL FREE ENERGY PREDICTED BY IDOCK:   -9.18 KCAL/MOL
REMARK 923 INTER-LIGAND FREE ENERGY PREDICTED BY IDOCK:   -8.56 KCAL/MOL
REMARK 924 INTRA-LIGAND FREE ENERGY PREDICTED BY IDOCK:   -0.62 KCAL/MOL
REMARK 927      BINDING AFFINITY PREDICTED BY RF-SCORE:    0.00 PKD
ROOT
HETATM    1  C   UNL     1      -8.429   5.402  65.594  1.00  0.00    -0.138 C  
HETATM    2  C   UNL     1      -9.887   5.202  66.031  1.00  0.00    -0.184 C  
HETATM    3  C   UNL     1     -10.223   5.804  67.382  1.00  0.00    -0.243 C  
HETATM    4  C   UNL     1      -9.368   5.210  68.514  1.00  0.00    -0.161 C  
HETATM    5  C   UNL     1      -7.881   5.216  68.140  1.00  0.00    -0.087 C  
HETATM    6  C   UNL     1      -7.377   5.049  66.682  1.00  0.00    -0.086 C  
HETATM    7  C   UNL     1      -7.015   4.493  69.184  1.00  0.00    -0.051 C  
HETATM    8  C   UNL     1      -6.912   3.599  66.388  1.00  0.00    -0.058 C  
HETATM    9  C   UNL     1      -7.012   5.329  70.455  1.00  0.00    -0.052 C  
HETATM   10  C   UNL     1      -6.156   6.038  66.580  1.00  0.00    -0.025 C  
HETATM   11  C   UNL     1      -6.590   7.521  66.714  1.00  0.00    -0.057 C  
HETATM   12  O   UNL     1      -6.320   6.558  70.217  1.00  0.00    -0.037 OA 
HETATM   13  C   UNL     1      -8.447   5.588  70.977  1.00  0.00    -0.125 C  
HETATM   14  C   UNL     1      -9.119   4.255  71.430  1.00  0.00    -0.179 C  
HETATM   15  C   UNL     1      -8.365   6.669  72.094  1.00  0.00    -0.105 C  
HETATM   16  C   UNL     1      -7.608   7.911  65.647  1.00  0.00    -0.084 C  
HETATM   17  H   UNL     1      -6.318   7.080  71.012  1.00  0.00     0.000 HD 
HETATM   18  O   UNL     1      -9.356   7.427  69.617  1.00  0.00    -0.150 OA 
HETATM   19  C   UNL     1     -10.612   4.601  71.537  1.00  0.00    -0.013 C  
HETATM   20  H   UNL     1      -9.433   7.915  70.429  1.00  0.00     0.000 HD 
HETATM   21  C   UNL     1      -8.134   6.718  64.844  1.00  0.00    -0.112 C  
HETATM   22  C   UNL     1      -9.498   6.029  69.875  1.00  0.00    -0.151 C  
HETATM   23  C   UNL     1     -10.842   5.790  70.587  1.00  0.00    -0.337 C  
ENDROOT
BRANCH  16  24
HETATM   24  O   UNL     1      -8.735   8.643  66.121  1.00  0.00    -0.138 OA 
BRANCH  24  25
HETATM   25  C   UNL     1      -8.639  10.061  66.324  1.00  0.00    -0.129 C  
HETATM   26  O   UNL     1     -11.191  11.411  63.953  1.00  0.00    -0.420 OA 
HETATM   27  C   UNL     1     -10.943  11.961  66.322  1.00  0.00    -0.302 C  
HETATM   28  C   UNL     1      -9.117  10.861  65.115  1.00  0.00    -0.216 C  
HETATM   29  C   UNL     1     -10.628  10.982  65.189  1.00  0.00    -0.226 C  
HETATM   30  O   UNL     1      -9.414  10.291  67.507  1.00  0.00    -0.150 OA 
HETATM   31  C   UNL     1     -10.288  11.421  67.631  1.00  0.00    -0.183 C  
HETATM   32  H   UNL     1     -12.137  11.487  63.999  1.00  0.00     0.000 HD 
HETATM   33  C   UNL     1     -11.347  10.989  68.656  1.00  0.00    -0.346 C  
BRANCH  27  34
HETATM   34  O   UNL     1     -10.367  13.277  66.140  1.00  0.00    -0.278 OA 
BRANCH  34  35
HETATM   35  C   UNL     1     -10.229  14.162  67.249  1.00  0.00    -0.256 C  
HETATM   36  C   UNL     1      -8.786  14.531  67.566  1.00  0.00    -0.193 C  
HETATM   37  C   UNL     1      -8.169  15.197  66.345  1.00  0.00     0.235 C  
HETATM   38  O   UNL     1      -6.802  15.540  66.584  1.00  0.00    -0.195 OA 
HETATM   39  C   UNL     1      -8.984  16.425  65.889  1.00  0.00    -0.159 C  
HETATM   40  O   UNL     1     -10.974  15.360  66.998  1.00  0.00    -0.321 OA 
HETATM   41  C   UNL     1     -10.519  16.174  65.914  1.00  0.00    -0.352 C  
HETATM   42  H   UNL     1      -6.416  15.956  65.821  1.00  0.00     0.000 HD 
HETATM   43  C   UNL     1     -11.137  15.702  64.597  1.00  0.00    -0.387 C  
BRANCH  39  44
HETATM   44  O   UNL     1      -8.777  17.591  66.715  1.00  0.00    -0.238 OA 
BRANCH  44  45
HETATM   45  C   UNL     1      -9.874  18.465  66.984  1.00  0.00    -0.326 C  
HETATM   46  C   UNL     1     -10.842  17.994  68.066  1.00  0.00    -0.194 C  
HETATM   47  C   UNL     1     -10.099  17.904  69.392  1.00  0.00     0.009 C  
HETATM   48  C   UNL     1      -9.547  19.281  69.769  1.00  0.00     0.370 C  
HETATM   49  O   UNL     1     -10.995  17.461  70.419  1.00  0.00    -0.078 OA 
HETATM   50  H   UNL     1     -10.532  17.404  71.246  1.00  0.00     0.000 HD 
HETATM   51  O   UNL     1     -10.658  20.139  70.087  1.00  0.00    -0.570 OA 
HETATM   52  C   UNL     1      -8.734  19.892  68.613  1.00  0.00    -0.087 C  
HETATM   53  C   UNL     1      -7.306  19.356  68.551  1.00  0.00    -0.368 C  
HETATM   54  O   UNL     1      -9.378  19.768  67.335  1.00  0.00    -0.312 OA 
HETATM   55  H   UNL     1     -10.315  20.994  70.321  1.00  0.00     0.000 HD 
ENDBRANCH  44  45
ENDBRANCH  39  44
ENDBRANCH  34  35
ENDBRANCH  27  34
ENDBRANCH  24  25
ENDBRANCH  16  24
BRANCH  14  56
HETATM   56  C   UNL     1      -8.540   3.452  72.551  1.00  0.00    -0.091 C  
HETATM   57  C   UNL     1      -9.266   2.934  73.729  1.00  0.00    -0.081 C  
HETATM   58  C   UNL     1      -7.054   2.498  73.945  1.00  0.00    -0.035 C  
HETATM   59  O   UNL     1      -8.259   2.319  74.533  1.00  0.00    -0.056 OA 
HETATM   60  O   UNL     1      -5.976   2.139  74.385  1.00  0.00    -0.004 OA 
HETATM   61  C   UNL     1      -7.235   3.209  72.688  1.00  0.00    -0.047 C  
ENDBRANCH  14  56
TORSDOF 7
ENDMDL
MODEL       13
REMARK 921   NORMALIZED FREE ENERGY PREDICTED BY IDOCK:   -4.37 KCAL/MOL
REMARK 922        TOTAL FREE ENERGY PREDICTED BY IDOCK:   -7.99 KCAL/MOL
REMARK 923 INTER-LIGAND FREE ENERGY PREDICTED BY IDOCK:   -7.79 KCAL/MOL
REMARK 924 INTRA-LIGAND FREE ENERGY PREDICTED BY IDOCK:   -0.21 KCAL/MOL
REMARK 927      BINDING AFFINITY PREDICTED BY RF-SCORE:    0.00 PKD
ROOT
HETATM    1  C   UNL     1      -9.876   8.275  71.427  1.00  0.00    -0.240 C  
HETATM    2  C   UNL     1      -8.353   8.250  71.623  1.00  0.00    -0.187 C  
HETATM    3  C   UNL     1      -7.556   8.299  70.333  1.00  0.00    -0.075 C  
HETATM    4  C   UNL     1      -7.872   7.113  69.407  1.00  0.00    -0.113 C  
HETATM    5  C   UNL     1      -9.386   6.935  69.240  1.00  0.00    -0.144 C  
HETATM    6  C   UNL     1     -10.403   7.275  70.361  1.00  0.00    -0.217 C  
HETATM    7  C   UNL     1      -9.739   5.669  68.443  1.00  0.00    -0.161 C  
HETATM    8  C   UNL     1     -10.864   6.012  71.134  1.00  0.00    -0.338 C  
HETATM    9  C   UNL     1      -9.297   5.880  67.003  1.00  0.00    -0.120 C  
HETATM   10  C   UNL     1     -11.623   7.912  69.594  1.00  0.00     0.442 C  
HETATM   11  C   UNL     1     -11.255   9.263  68.927  1.00  0.00     0.151 C  
HETATM   12  O   UNL     1     -10.096   6.905  66.403  1.00  0.00    -0.414 OA 
HETATM   13  C   UNL     1      -7.789   6.220  66.906  1.00  0.00    -0.104 C  
HETATM   14  C   UNL     1      -6.921   5.010  67.370  1.00  0.00    -0.065 C  
HETATM   15  C   UNL     1      -7.494   6.693  65.454  1.00  0.00    -0.080 C  
HETATM   16  C   UNL     1     -10.752  10.279  69.948  1.00  0.00    -0.294 C  
HETATM   17  H   UNL     1      -9.820   7.037  65.503  1.00  0.00     0.000 HD 
HETATM   18  O   UNL     1      -7.582   8.610  67.456  1.00  0.00    -0.092 OA 
HETATM   19  C   UNL     1      -5.524   5.610  67.594  1.00  0.00    -0.012 C  
HETATM   20  H   UNL     1      -7.224   8.722  66.582  1.00  0.00     0.000 HD 
HETATM   21  C   UNL     1     -10.511   9.678  71.335  1.00  0.00    -0.117 C  
HETATM   22  C   UNL     1      -7.273   7.302  67.943  1.00  0.00    -0.091 C  
HETATM   23  C   UNL     1      -5.747   7.103  67.894  1.00  0.00    -0.025 C  
ENDROOT
BRANCH  16  24
HETATM   24  O   UNL     1      -9.572  10.985  69.572  1.00  0.00     0.018 OA 
BRANCH  24  25
HETATM   25  C   UNL     1      -9.655  12.360  69.164  1.00  0.00     0.539 C  
HETATM   26  O   UNL     1     -12.005  12.221  66.264  1.00  0.00    -0.588 OA 
HETATM   27  C   UNL     1     -12.126  13.721  68.190  1.00  0.00    -0.281 C  
HETATM   28  C   UNL     1     -10.053  12.513  67.699  1.00  0.00    -0.217 C  
HETATM   29  C   UNL     1     -11.565  12.425  67.604  1.00  0.00    -0.357 C  
HETATM   30  O   UNL     1     -10.597  12.933  70.079  1.00  0.00     0.815 OA 
HETATM   31  C   UNL     1     -11.594  13.869  69.649  1.00  0.00    -0.286 C  
HETATM   32  H   UNL     1     -12.951  12.165  66.204  1.00  0.00     0.000 HD 
HETATM   33  C   UNL     1     -12.725  13.739  70.679  1.00  0.00    -0.330 C  
BRANCH  27  34
HETATM   34  O   UNL     1     -11.675  14.918  67.512  1.00  0.00    -0.360 OA 
BRANCH  34  35
HETATM   35  C   UNL     1     -11.571  16.151  68.220  1.00  0.00    -0.181 C  
HETATM   36  C   UNL     1     -10.379  16.220  69.165  1.00  0.00    -0.272 C  
HETATM   37  C   UNL     1      -9.102  16.023  68.361  1.00  0.00    -0.192 C  
HETATM   38  O   UNL     1      -7.952  16.053  69.211  1.00  0.00    -0.230 OA 
HETATM   39  C   UNL     1      -8.981  17.050  67.217  1.00  0.00    -0.215 C  
HETATM   40  O   UNL     1     -11.488  17.233  67.284  1.00  0.00     0.335 OA 
HETATM   41  C   UNL     1     -10.321  17.269  66.458  1.00  0.00    -0.308 C  
HETATM   42  H   UNL     1      -7.155  15.929  68.710  1.00  0.00     0.000 HD 
HETATM   43  C   UNL     1     -10.526  16.411  65.208  1.00  0.00    -0.285 C  
BRANCH  39  44
HETATM   44  O   UNL     1      -8.579  18.363  67.664  1.00  0.00    -0.255 OA 
BRANCH  44  45
HETATM   45  C   UNL     1      -8.354  19.394  66.701  1.00  0.00    -0.310 C  
HETATM   46  C   UNL     1      -7.617  20.627  67.216  1.00  0.00    -0.381 C  
HETATM   47  C   UNL     1      -6.220  20.220  67.666  1.00  0.00    -0.224 C  
HETATM   48  C   UNL     1      -5.450  19.624  66.483  1.00  0.00    -0.161 C  
HETATM   49  O   UNL     1      -5.516  21.368  68.154  1.00  0.00    -0.397 OA 
HETATM   50  H   UNL     1      -4.645  21.114  68.435  1.00  0.00     0.000 HD 
HETATM   51  O   UNL     1      -5.184  20.682  65.543  1.00  0.00    -0.170 OA 
HETATM   52  C   UNL     1      -6.259  18.510  65.795  1.00  0.00    -0.245 C  
HETATM   53  C   UNL     1      -6.148  17.170  66.519  1.00  0.00    -0.237 C  
HETATM   54  O   UNL     1      -7.636  18.855  65.577  1.00  0.00    -0.466 OA 
HETATM   55  H   UNL     1      -4.706  20.312  64.809  1.00  0.00     0.000 HD 
ENDBRANCH  44  45
ENDBRANCH  39  44
ENDBRANCH  34  35
ENDBRANCH  27  34
ENDBRANCH  24  25
ENDBRANCH  16  24
BRANCH  14  56
HETATM   56  C   UNL     1      -6.975   3.706  66.638  1.00  0.00    -0.058 C  
HETATM   57  C   UNL     1      -7.573   2.447  67.126  1.00  0.00    -0.065 C  
HETATM   58  C   UNL     1      -6.550   2.086  65.138  1.00  0.00    -0.027 C  
HETATM   59  O   UNL     1      -7.289   1.492  66.103  1.00  0.00    -0.053 OA 
HETATM   60  O   UNL     1      -6.098   1.547  64.142  1.00  0.00    -0.012 OA 
HETATM   61  C   UNL     1      -6.358   3.488  65.475  1.00  0.00    -0.032 C  
ENDBRANCH  14  56
TORSDOF 7
ENDMDL
MODEL       14
REMARK 921   NORMALIZED FREE ENERGY PREDICTED BY IDOCK:   -4.15 KCAL/MOL
REMARK 922        TOTAL FREE ENERGY PREDICTED BY IDOCK:   -7.69 KCAL/MOL
REMARK 923 INTER-LIGAND FREE ENERGY PREDICTED BY IDOCK:   -8.45 KCAL/MOL
REMARK 924 INTRA-LIGAND FREE ENERGY PREDICTED BY IDOCK:    0.76 KCAL/MOL
REMARK 927      BINDING AFFINITY PREDICTED BY RF-SCORE:    0.00 PKD
ROOT
HETATM    1  C   UNL     1     -11.141  13.380  65.756  1.00  0.00    -0.295 C  
HETATM    2  C   UNL     1      -9.797  12.890  65.199  1.00  0.00    -0.087 C  
HETATM    3  C   UNL     1      -8.687  12.802  66.229  1.00  0.00     0.219 C  
HETATM    4  C   UNL     1      -8.391  14.162  66.883  1.00  0.00    -0.062 C  
HETATM    5  C   UNL     1      -9.683  14.836  67.361  1.00  0.00    -0.214 C  
HETATM    6  C   UNL     1     -11.044  14.656  66.638  1.00  0.00    -0.334 C  
HETATM    7  C   UNL     1      -9.438  16.261  67.882  1.00  0.00    -0.218 C  
HETATM    8  C   UNL     1     -11.375  15.856  65.712  1.00  0.00     0.164 C  
HETATM    9  C   UNL     1      -8.651  16.159  69.180  1.00  0.00    -0.235 C  
HETATM   10  C   UNL     1     -12.094  14.574  67.809  1.00  0.00    -0.269 C  
HETATM   11  C   UNL     1     -11.902  13.304  68.679  1.00  0.00    -0.380 C  
HETATM   12  O   UNL     1      -9.466  15.553  70.188  1.00  0.00    -0.279 OA 
HETATM   13  C   UNL     1      -7.326  15.380  68.990  1.00  0.00    -0.159 C  
HETATM   14  C   UNL     1      -6.358  16.160  68.047  1.00  0.00    -0.145 C  
HETATM   15  C   UNL     1      -6.736  15.083  70.399  1.00  0.00     0.060 C  
HETATM   16  C   UNL     1     -12.013  12.028  67.850  1.00  0.00    -0.134 C  
HETATM   17  H   UNL     1      -8.974  15.490  70.999  1.00  0.00     0.000 HD 
HETATM   18  O   UNL     1      -7.918  12.992  69.013  1.00  0.00    -0.330 OA 
HETATM   19  C   UNL     1      -5.300  15.120  67.648  1.00  0.00    -0.000 C  
HETATM   20  H   UNL     1      -7.354  12.916  69.775  1.00  0.00     0.000 HD 
HETATM   21  C   UNL     1     -12.058  12.286  66.341  1.00  0.00    -0.123 C  
HETATM   22  C   UNL     1      -7.446  14.036  68.160  1.00  0.00    -0.131 C  
HETATM   23  C   UNL     1      -5.979  13.747  67.788  1.00  0.00    -0.124 C  
ENDROOT
BRANCH  16  24
HETATM   24  O   UNL     1     -10.999  11.056  68.092  1.00  0.00    -0.208 OA 
BRANCH  24  25
HETATM   25  C   UNL     1     -10.466  10.885  69.414  1.00  0.00    -0.173 C  
HETATM   26  O   UNL     1     -12.640   8.201  70.839  1.00  0.00    -0.505 OA 
HETATM   27  C   UNL     1     -10.196   8.274  70.837  1.00  0.00    -0.191 C  
HETATM   28  C   UNL     1     -11.489  10.305  70.388  1.00  0.00    -0.415 C  
HETATM   29  C   UNL     1     -11.499   8.796  70.227  1.00  0.00    -0.089 C  
HETATM   30  O   UNL     1      -9.322  10.046  69.217  1.00  0.00    -0.188 OA 
HETATM   31  C   UNL     1      -9.003   8.977  70.117  1.00  0.00    -0.184 C  
HETATM   32  H   UNL     1     -12.647   7.257  70.739  1.00  0.00     0.000 HD 
HETATM   33  C   UNL     1      -8.187   7.985  69.277  1.00  0.00    -0.127 C  
BRANCH  27  34
HETATM   34  O   UNL     1     -10.027   8.603  72.236  1.00  0.00    -0.308 OA 
BRANCH  34  35
HETATM   35  C   UNL     1     -10.363   7.655  73.245  1.00  0.00    -0.345 C  
HETATM   36  C   UNL     1     -10.828   6.312  72.698  1.00  0.00    -0.273 C  
HETATM   37  C   UNL     1      -9.720   5.721  71.839  1.00  0.00    -0.159 C  
HETATM   38  O   UNL     1     -10.119   4.467  71.279  1.00  0.00    -0.192 OA 
HETATM   39  C   UNL     1      -8.396   5.590  72.621  1.00  0.00    -0.114 C  
HETATM   40  O   UNL     1      -9.232   7.445  74.099  1.00  0.00    -0.241 OA 
HETATM   41  C   UNL     1      -8.086   6.838  73.495  1.00  0.00    -0.105 C  
HETATM   42  H   UNL     1      -9.427   4.098  70.742  1.00  0.00     0.000 HD 
HETATM   43  C   UNL     1      -7.199   7.902  72.845  1.00  0.00    -0.109 C  
BRANCH  39  44
HETATM   44  O   UNL     1      -8.378   4.472  73.536  1.00  0.00    -0.101 OA 
BRANCH  44  45
HETATM   45  C   UNL     1      -8.161   3.154  73.030  1.00  0.00    -0.079 C  
HETATM   46  C   UNL     1      -7.859   3.064  71.536  1.00  0.00    -0.056 C  
HETATM   47  C   UNL     1      -6.556   3.798  71.248  1.00  0.00    -0.026 C  
HETATM   48  C   UNL     1      -5.414   3.152  72.038  1.00  0.00    -0.007 C  
HETATM   49  O   UNL     1      -6.259   3.723  69.848  1.00  0.00    -0.026 OA 
HETATM   50  H   UNL     1      -5.447   4.181  69.668  1.00  0.00     0.000 HD 
HETATM   51  O   UNL     1      -5.170   1.845  71.486  1.00  0.00    -0.003 OA 
HETATM   52  C   UNL     1      -5.769   3.027  73.531  1.00  0.00     0.000 C  
HETATM   53  C   UNL     1      -5.542   4.327  74.299  1.00  0.00    -0.008 C  
HETATM   54  O   UNL     1      -7.095   2.526  73.762  1.00  0.00    -0.030 OA 
HETATM   55  H   UNL     1      -4.461   1.444  71.977  1.00  0.00     0.000 HD 
ENDBRANCH  44  45
ENDBRANCH  39  44
ENDBRANCH  34  35
ENDBRANCH  27  34
ENDBRANCH  24  25
ENDBRANCH  16  24
BRANCH  14  56
HETATM   56  C   UNL     1      -5.850  17.515  68.427  1.00  0.00    -0.160 C  
HETATM   57  C   UNL     1      -5.467  17.964  69.781  1.00  0.00    -0.216 C  
HETATM   58  C   UNL     1      -5.357  19.707  68.340  1.00  0.00    -0.191 C  
HETATM   59  O   UNL     1      -5.138  19.344  69.625  1.00  0.00    -0.184 OA 
HETATM   60  O   UNL     1      -5.221  20.825  67.873  1.00  0.00    -0.201 OA 
HETATM   61  C   UNL     1      -5.801  18.547  67.583  1.00  0.00    -0.165 C  
ENDBRANCH  14  56
TORSDOF 7
ENDMDL
MODEL       15
REMARK 921   NORMALIZED FREE ENERGY PREDICTED BY IDOCK:   -3.89 KCAL/MOL
REMARK 922        TOTAL FREE ENERGY PREDICTED BY IDOCK:   -7.32 KCAL/MOL
REMARK 923 INTER-LIGAND FREE ENERGY PREDICTED BY IDOCK:   -9.39 KCAL/MOL
REMARK 924 INTRA-LIGAND FREE ENERGY PREDICTED BY IDOCK:    2.07 KCAL/MOL
REMARK 927      BINDING AFFINITY PREDICTED BY RF-SCORE:    0.00 PKD
ROOT
HETATM    1  C   UNL     1     -10.932  11.646  66.143  1.00  0.00    -0.339 C  
HETATM    2  C   UNL     1      -9.545  11.734  65.493  1.00  0.00    -0.222 C  
HETATM    3  C   UNL     1      -8.476  12.347  66.378  1.00  0.00     0.141 C  
HETATM    4  C   UNL     1      -8.824  13.784  66.801  1.00  0.00    -0.156 C  
HETATM    5  C   UNL     1     -10.257  13.865  67.343  1.00  0.00    -0.252 C  
HETATM    6  C   UNL     1     -11.406  12.959  66.827  1.00  0.00    -0.367 C  
HETATM    7  C   UNL     1     -10.688  15.311  67.634  1.00  0.00    -0.282 C  
HETATM    8  C   UNL     1     -12.307  13.689  65.798  1.00  0.00    -0.524 C  
HETATM    9  C   UNL     1      -9.884  15.812  68.825  1.00  0.00    -0.214 C  
HETATM   10  C   UNL     1     -12.235  12.614  68.121  1.00  0.00     0.067 C  
HETATM   11  C   UNL     1     -11.426  11.749  69.122  1.00  0.00    -0.358 C  
HETATM   12  O   UNL     1     -10.268  15.090  69.999  1.00  0.00    -0.457 OA 
HETATM   13  C   UNL     1      -8.360  15.705  68.576  1.00  0.00    -0.166 C  
HETATM   14  C   UNL     1      -7.920  16.660  67.424  1.00  0.00    -0.186 C  
HETATM   15  C   UNL     1      -7.632  15.964  69.927  1.00  0.00     0.294 C  
HETATM   16  C   UNL     1     -10.962  10.439  68.491  1.00  0.00    -0.254 C  
HETATM   17  H   UNL     1      -9.766  15.403  70.742  1.00  0.00     0.000 HD 
HETATM   18  O   UNL     1      -7.754  13.356  68.993  1.00  0.00    -0.310 OA 
HETATM   19  C   UNL     1      -6.517  16.166  67.038  1.00  0.00    -0.109 C  
HETATM   20  H   UNL     1      -7.185  13.683  69.681  1.00  0.00     0.000 HD 
HETATM   21  C   UNL     1     -11.195  10.376  66.979  1.00  0.00    -0.015 C  
HETATM   22  C   UNL     1      -7.871  14.331  67.955  1.00  0.00    -0.152 C  
HETATM   23  C   UNL     1      -6.462  14.684  67.445  1.00  0.00     0.056 C  
ENDROOT
BRANCH  16  24
HETATM   24  O   UNL     1      -9.599  10.098  68.732  1.00  0.00    -0.156 OA 
BRANCH  24  25
HETATM   25  C   UNL     1      -9.242   8.746  69.059  1.00  0.00    -0.141 C  
HETATM   26  O   UNL     1     -10.013   6.902  65.903  1.00  0.00    -0.322 OA 
HETATM   27  C   UNL     1      -7.940   6.811  67.196  1.00  0.00    -0.116 C  
HETATM   28  C   UNL     1      -9.980   7.721  68.202  1.00  0.00    -0.207 C  
HETATM   29  C   UNL     1      -9.232   7.571  66.890  1.00  0.00    -0.149 C  
HETATM   30  O   UNL     1      -7.820   8.718  68.892  1.00  0.00    -0.100 OA 
HETATM   31  C   UNL     1      -7.152   7.605  68.284  1.00  0.00    -0.080 C  
HETATM   32  H   UNL     1      -9.546   6.807  65.082  1.00  0.00     0.000 HD 
HETATM   33  C   UNL     1      -5.847   8.188  67.722  1.00  0.00    -0.042 C  
BRANCH  27  34
HETATM   34  O   UNL     1      -8.150   5.502  67.778  1.00  0.00    -0.100 OA 
BRANCH  34  35
HETATM   35  C   UNL     1      -9.105   5.322  68.820  1.00  0.00    -0.112 C  
HETATM   36  C   UNL     1      -9.824   3.981  68.773  1.00  0.00    -0.045 C  
HETATM   37  C   UNL     1      -8.793   2.866  68.874  1.00  0.00    -0.103 C  
HETATM   38  O   UNL     1      -9.418   1.582  68.807  1.00  0.00    -0.150 OA 
HETATM   39  C   UNL     1      -7.925   3.002  70.142  1.00  0.00    -0.042 C  
HETATM   40  O   UNL     1      -8.456   5.460  70.090  1.00  0.00    -0.114 OA 
HETATM   41  C   UNL     1      -7.478   4.467  70.413  1.00  0.00    -0.050 C  
HETATM   42  H   UNL     1      -8.774   0.886  68.870  1.00  0.00     0.000 HD 
HETATM   43  C   UNL     1      -6.112   4.862  69.850  1.00  0.00    -0.022 C  
BRANCH  39  44
HETATM   44  O   UNL     1      -8.599   2.582  71.348  1.00  0.00    -0.061 OA 
BRANCH  44  45
HETATM   45  C   UNL     1      -8.468   3.365  72.535  1.00  0.00    -0.084 C  
HETATM   46  C   UNL     1      -9.008   4.790  72.447  1.00  0.00    -0.138 C  
HETATM   47  C   UNL     1     -10.509   4.738  72.193  1.00  0.00    -0.175 C  
HETATM   48  C   UNL     1     -11.202   4.003  73.344  1.00  0.00    -0.217 C  
HETATM   49  O   UNL     1     -11.030   6.070  72.106  1.00  0.00    -0.242 OA 
HETATM   50  H   UNL     1     -11.966   6.038  71.948  1.00  0.00     0.000 HD 
HETATM   51  O   UNL     1     -11.108   4.824  74.523  1.00  0.00    -0.249 OA 
HETATM   52  C   UNL     1     -10.543   2.637  73.610  1.00  0.00    -0.163 C  
HETATM   53  C   UNL     1     -11.028   1.554  72.649  1.00  0.00    -0.183 C  
HETATM   54  O   UNL     1      -9.107   2.690  73.631  1.00  0.00    -0.080 OA 
HETATM   55  H   UNL     1     -11.537   4.367  75.237  1.00  0.00     0.000 HD 
ENDBRANCH  44  45
ENDBRANCH  39  44
ENDBRANCH  34  35
ENDBRANCH  27  34
ENDBRANCH  24  25
ENDBRANCH  16  24
BRANCH  14  56
HETATM   56  C   UNL     1      -8.092  18.140  67.552  1.00  0.00    -0.238 C  
HETATM   57  C   UNL     1      -9.372  18.873  67.647  1.00  0.00    -0.296 C  
HETATM   58  C   UNL     1      -7.657  20.347  67.526  1.00  0.00    -0.310 C  
HETATM   59  O   UNL     1      -9.000  20.251  67.662  1.00  0.00    -0.332 OA 
HETATM   60  O   UNL     1      -7.011  21.378  67.456  1.00  0.00    -0.539 OA 
HETATM   61  C   UNL     1      -7.085  19.010  67.463  1.00  0.00    -0.226 C  
ENDBRANCH  14  56
TORSDOF 7
ENDMDL
MODEL       16
REMARK 921   NORMALIZED FREE ENERGY PREDICTED BY IDOCK:   -3.60 KCAL/MOL
REMARK 922        TOTAL FREE ENERGY PREDICTED BY IDOCK:   -6.91 KCAL/MOL
REMARK 923 INTER-LIGAND FREE ENERGY PREDICTED BY IDOCK:   -8.14 KCAL/MOL
REMARK 924 INTRA-LIGAND FREE ENERGY PREDICTED BY IDOCK:    1.24 KCAL/MOL
REMARK 927      BINDING AFFINITY PREDICTED BY RF-SCORE:    0.00 PKD
ROOT
HETATM    1  C   UNL     1      -8.154   5.869  72.156  1.00  0.00    -0.107 C  
HETATM    2  C   UNL     1      -6.711   6.231  71.775  1.00  0.00    -0.063 C  
HETATM    3  C   UNL     1      -6.550   6.749  70.359  1.00  0.00    -0.048 C  
HETATM    4  C   UNL     1      -7.008   5.725  69.308  1.00  0.00    -0.064 C  
HETATM    5  C   UNL     1      -8.395   5.168  69.652  1.00  0.00    -0.093 C  
HETATM    6  C   UNL     1      -8.892   4.988  71.110  1.00  0.00    -0.149 C  
HETATM    7  C   UNL     1      -8.817   4.033  68.706  1.00  0.00    -0.147 C  
HETATM    8  C   UNL     1      -8.754   3.521  71.597  1.00  0.00    -0.124 C  
HETATM    9  C   UNL     1      -9.065   4.633  67.330  1.00  0.00    -0.123 C  
HETATM   10  C   UNL     1     -10.412   5.394  71.052  1.00  0.00    -0.302 C  
HETATM   11  C   UNL     1     -10.604   6.897  70.718  1.00  0.00    -0.245 C  
HETATM   12  O   UNL     1     -10.209   5.490  67.381  1.00  0.00    -0.172 OA 
HETATM   13  C   UNL     1      -7.823   5.391  66.801  1.00  0.00    -0.101 C  
HETATM   14  C   UNL     1      -6.640   4.405  66.551  1.00  0.00    -0.049 C  
HETATM   15  C   UNL     1      -8.252   6.200  65.542  1.00  0.00    -0.144 C  
HETATM   16  C   UNL     1      -9.909   7.796  71.737  1.00  0.00    -0.167 C  
HETATM   17  H   UNL     1     -10.364   5.865  66.522  1.00  0.00     0.000 HD 
HETATM   18  O   UNL     1      -7.833   7.591  67.904  1.00  0.00    -0.113 OA 
HETATM   19  C   UNL     1      -5.409   5.316  66.421  1.00  0.00    -0.012 C  
HETATM   20  H   UNL     1      -7.900   7.965  67.033  1.00  0.00     0.000 HD 
HETATM   21  C   UNL     1      -9.007   7.029  72.708  1.00  0.00    -0.149 C  
HETATM   22  C   UNL     1      -7.121   6.353  67.848  1.00  0.00    -0.085 C  
HETATM   23  C   UNL     1      -5.747   6.600  67.198  1.00  0.00    -0.013 C  
ENDROOT
BRANCH  16  24
HETATM   24  O   UNL     1      -9.142   8.862  71.184  1.00  0.00    -0.208 OA 
BRANCH  24  25
HETATM   25  C   UNL     1      -9.321   9.242  69.811  1.00  0.00    -0.188 C  
HETATM   26  O   UNL     1     -11.525  12.247  70.066  1.00  0.00    -0.505 OA 
HETATM   27  C   UNL     1      -9.442  12.049  68.803  1.00  0.00     0.039 C  
HETATM   28  C   UNL     1     -10.603  10.039  69.586  1.00  0.00    -0.278 C  
HETATM   29  C   UNL     1     -10.325  11.493  69.922  1.00  0.00     0.825 C  
HETATM   30  O   UNL     1      -8.128   9.971  69.499  1.00  0.00    -0.131 OA 
HETATM   31  C   UNL     1      -8.158  11.167  68.709  1.00  0.00    -0.140 C  
HETATM   32  H   UNL     1     -11.352  13.157  70.276  1.00  0.00     0.000 HD 
HETATM   33  C   UNL     1      -6.904  11.947  69.130  1.00  0.00    -0.099 C  
BRANCH  27  34
HETATM   34  O   UNL     1     -10.038  11.969  67.486  1.00  0.00    -0.192 OA 
BRANCH  34  35
HETATM   35  C   UNL     1      -9.441  12.646  66.383  1.00  0.00    -0.231 C  
HETATM   36  C   UNL     1     -10.446  13.192  65.378  1.00  0.00    -0.307 C  
HETATM   37  C   UNL     1     -11.375  14.165  66.089  1.00  0.00    -0.337 C  
HETATM   38  O   UNL     1     -12.357  14.686  65.190  1.00  0.00    -0.342 OA 
HETATM   39  C   UNL     1     -10.593  15.299  66.783  1.00  0.00    -0.304 C  
HETATM   40  O   UNL     1      -8.633  13.726  66.867  1.00  0.00    -0.196 OA 
HETATM   41  C   UNL     1      -9.324  14.790  67.526  1.00  0.00    -0.194 C  
HETATM   42  H   UNL     1     -12.937  15.294  65.633  1.00  0.00     0.000 HD 
HETATM   43  C   UNL     1      -9.507  14.470  69.010  1.00  0.00    -0.087 C  
BRANCH  39  44
HETATM   44  O   UNL     1     -10.117  16.312  65.870  1.00  0.00    -0.323 OA 
BRANCH  44  45
HETATM   45  C   UNL     1     -10.604  17.649  65.989  1.00  0.00    -0.220 C  
HETATM   46  C   UNL     1     -11.035  18.071  67.392  1.00  0.00    -0.095 C  
HETATM   47  C   UNL     1      -9.826  18.027  68.317  1.00  0.00    -0.355 C  
HETATM   48  C   UNL     1      -8.749  18.987  67.805  1.00  0.00    -0.298 C  
HETATM   49  O   UNL     1     -10.216  18.419  69.639  1.00  0.00    -0.228 OA 
HETATM   50  H   UNL     1      -9.462  18.391  70.216  1.00  0.00     0.000 HD 
HETATM   51  O   UNL     1      -9.230  20.334  67.977  1.00  0.00    -0.262 OA 
HETATM   52  C   UNL     1      -8.436  18.734  66.319  1.00  0.00    -0.241 C  
HETATM   53  C   UNL     1      -7.470  17.570  66.113  1.00  0.00    -0.334 C  
HETATM   54  O   UNL     1      -9.610  18.569  65.508  1.00  0.00    -0.173 OA 
HETATM   55  H   UNL     1      -8.562  20.930  67.659  1.00  0.00     0.000 HD 
ENDBRANCH  44  45
ENDBRANCH  39  44
ENDBRANCH  34  35
ENDBRANCH  27  34
ENDBRANCH  24  25
ENDBRANCH  16  24
BRANCH  14  56
HETATM   56  C   UNL     1      -6.763   3.306  65.544  1.00  0.00    -0.044 C  
HETATM   57  C   UNL     1      -5.786   2.225  65.297  1.00  0.00    -0.017 C  
HETATM   58  C   UNL     1      -7.459   2.104  63.775  1.00  0.00    -0.058 C  
HETATM   59  O   UNL     1      -6.323   1.498  64.191  1.00  0.00    -0.016 OA 
HETATM   60  O   UNL     1      -8.148   1.771  62.826  1.00  0.00    -0.055 OA 
HETATM   61  C   UNL     1      -7.739   3.243  64.635  1.00  0.00    -0.078 C  
ENDBRANCH  14  56
TORSDOF 7
ENDMDL
MODEL       17
REMARK 921   NORMALIZED FREE ENERGY PREDICTED BY IDOCK:   -3.37 KCAL/MOL
REMARK 922        TOTAL FREE ENERGY PREDICTED BY IDOCK:   -6.59 KCAL/MOL
REMARK 923 INTER-LIGAND FREE ENERGY PREDICTED BY IDOCK:   -7.71 KCAL/MOL
REMARK 924 INTRA-LIGAND FREE ENERGY PREDICTED BY IDOCK:    1.12 KCAL/MOL
REMARK 927      BINDING AFFINITY PREDICTED BY RF-SCORE:    0.00 PKD
ROOT
HETATM    1  C   UNL     1      -6.610   9.903  67.114  1.00  0.00    -0.070 C  
HETATM    2  C   UNL     1      -7.896   9.559  66.349  1.00  0.00    -0.097 C  
HETATM    3  C   UNL     1      -9.054   9.133  67.231  1.00  0.00    -0.143 C  
HETATM    4  C   UNL     1      -8.723   7.883  68.064  1.00  0.00    -0.125 C  
HETATM    5  C   UNL     1      -7.374   8.039  68.776  1.00  0.00    -0.085 C  
HETATM    6  C   UNL     1      -6.194   8.849  68.178  1.00  0.00    -0.051 C  
HETATM    7  C   UNL     1      -6.943   6.751  69.495  1.00  0.00    -0.067 C  
HETATM    8  C   UNL     1      -5.142   7.933  67.499  1.00  0.00    -0.031 C  
HETATM    9  C   UNL     1      -7.883   6.530  70.671  1.00  0.00    -0.106 C  
HETATM   10  C   UNL     1      -5.554   9.574  69.421  1.00  0.00    -0.035 C  
HETATM   11  C   UNL     1      -6.515  10.618  70.048  1.00  0.00    -0.138 C  
HETATM   12  O   UNL     1      -7.680   7.559  71.644  1.00  0.00    -0.083 OA 
HETATM   13  C   UNL     1      -9.363   6.470  70.221  1.00  0.00    -0.163 C  
HETATM   14  C   UNL     1      -9.617   5.220  69.324  1.00  0.00    -0.214 C  
HETATM   15  C   UNL     1     -10.256   6.529  71.494  1.00  0.00    -0.215 C  
HETATM   16  C   UNL     1      -6.929  11.684  69.037  1.00  0.00    -0.111 C  
HETATM   17  H   UNL     1      -8.267   7.420  72.379  1.00  0.00     0.000 HD 
HETATM   18  O   UNL     1     -10.088   8.802  69.915  1.00  0.00    -0.183 OA 
HETATM   19  C   UNL     1     -10.971   5.504  68.653  1.00  0.00     0.053 C  
HETATM   20  H   UNL     1     -10.733   8.632  70.591  1.00  0.00     0.000 HD 
HETATM   21  C   UNL     1      -6.499  11.362  67.603  1.00  0.00    -0.063 C  
HETATM   22  C   UNL     1      -9.805   7.598  69.199  1.00  0.00    -0.171 C  
HETATM   23  C   UNL     1     -11.123   7.035  68.637  1.00  0.00    -0.076 C  
ENDROOT
BRANCH  16  24
HETATM   24  O   UNL     1      -8.321  11.989  69.012  1.00  0.00     0.086 OA 
BRANCH  24  25
HETATM   25  C   UNL     1      -8.777  13.230  68.453  1.00  0.00    -0.126 C  
HETATM   26  O   UNL     1     -11.817  12.207  66.537  1.00  0.00    -0.569 OA 
HETATM   27  C   UNL     1     -11.636  14.036  68.149  1.00  0.00    -0.334 C  
HETATM   28  C   UNL     1      -9.616  13.033  67.193  1.00  0.00    -0.230 C  
HETATM   29  C   UNL     1     -11.043  12.732  67.612  1.00  0.00    -0.258 C  
HETATM   30  O   UNL     1      -9.493  13.848  69.529  1.00  0.00     0.490 OA 
HETATM   31  C   UNL     1     -10.729  14.542  69.315  1.00  0.00    -0.226 C  
HETATM   32  H   UNL     1     -12.710  12.018  66.799  1.00  0.00     0.000 HD 
HETATM   33  C   UNL     1     -11.457  14.475  70.666  1.00  0.00    -0.216 C  
BRANCH  27  34
HETATM   34  O   UNL     1     -11.640  15.120  67.191  1.00  0.00    -0.311 OA 
BRANCH  34  35
HETATM   35  C   UNL     1     -11.231  16.429  67.582  1.00  0.00    -0.072 C  
HETATM   36  C   UNL     1      -9.795  16.502  68.081  1.00  0.00    -0.244 C  
HETATM   37  C   UNL     1      -8.865  16.023  66.976  1.00  0.00    -0.211 C  
HETATM   38  O   UNL     1      -7.501  16.048  67.406  1.00  0.00    -0.144 OA 
HETATM   39  C   UNL     1      -9.057  16.830  65.675  1.00  0.00     0.291 C  
HETATM   40  O   UNL     1     -11.388  17.327  66.477  1.00  0.00     0.496 OA 
HETATM   41  C   UNL     1     -10.554  17.086  65.340  1.00  0.00    -0.134 C  
HETATM   42  H   UNL     1      -6.920  15.749  66.717  1.00  0.00     0.000 HD 
HETATM   43  C   UNL     1     -11.210  16.070  64.403  1.00  0.00    -0.218 C  
BRANCH  39  44
HETATM   44  O   UNL     1      -8.448  18.139  65.715  1.00  0.00    -0.482 OA 
BRANCH  44  45
HETATM   45  C   UNL     1      -7.059  18.257  66.027  1.00  0.00    -0.271 C  
HETATM   46  C   UNL     1      -6.235  19.098  65.055  1.00  0.00    -0.317 C  
HETATM   47  C   UNL     1      -6.750  20.531  65.078  1.00  0.00    -0.234 C  
HETATM   48  C   UNL     1      -6.612  21.106  66.491  1.00  0.00    -0.219 C  
HETATM   49  O   UNL     1      -5.986  21.333  64.169  1.00  0.00    -0.266 OA 
HETATM   50  H   UNL     1      -6.307  22.227  64.183  1.00  0.00     0.000 HD 
HETATM   51  O   UNL     1      -5.210  21.269  66.775  1.00  0.00    -0.200 OA 
HETATM   52  C   UNL     1      -7.249  20.174  67.537  1.00  0.00    -0.285 C  
HETATM   53  C   UNL     1      -8.763  20.345  67.633  1.00  0.00    -0.314 C  
HETATM   54  O   UNL     1      -6.906  18.791  67.353  1.00  0.00    -0.202 OA 
HETATM   55  H   UNL     1      -5.125  21.626  67.651  1.00  0.00     0.000 HD 
ENDBRANCH  44  45
ENDBRANCH  39  44
ENDBRANCH  34  35
ENDBRANCH  27  34
ENDBRANCH  24  25
ENDBRANCH  16  24
BRANCH  14  56
HETATM   56  C   UNL     1      -9.420   3.839  69.865  1.00  0.00    -0.267 C  
HETATM   57  C   UNL     1      -9.418   2.582  69.089  1.00  0.00    -0.073 C  
HETATM   58  C   UNL     1      -9.265   2.115  71.299  1.00  0.00    -0.109 C  
HETATM   59  O   UNL     1      -9.281   1.553  70.069  1.00  0.00    -0.084 OA 
HETATM   60  O   UNL     1      -9.204   1.521  72.363  1.00  0.00    -0.070 OA 
HETATM   61  C   UNL     1      -9.347   3.561  71.168  1.00  0.00    -0.210 C  
ENDBRANCH  14  56
TORSDOF 7
ENDMDL
MODEL       18
REMARK 921   NORMALIZED FREE ENERGY PREDICTED BY IDOCK:   -3.34 KCAL/MOL
REMARK 922        TOTAL FREE ENERGY PREDICTED BY IDOCK:   -6.55 KCAL/MOL
REMARK 923 INTER-LIGAND FREE ENERGY PREDICTED BY IDOCK:   -4.22 KCAL/MOL
REMARK 924 INTRA-LIGAND FREE ENERGY PREDICTED BY IDOCK:   -2.33 KCAL/MOL
REMARK 927      BINDING AFFINITY PREDICTED BY RF-SCORE:    0.00 PKD
ROOT
HETATM    1  C   UNL     1     -10.802  13.681  64.023  1.00  0.00    -0.025 C  
HETATM    2  C   UNL     1      -9.721  14.609  64.596  1.00  0.00     0.877 C  
HETATM    3  C   UNL     1      -9.218  14.211  65.970  1.00  0.00    -0.005 C  
HETATM    4  C   UNL     1     -10.342  14.191  67.019  1.00  0.00    -0.267 C  
HETATM    5  C   UNL     1     -11.556  13.406  66.507  1.00  0.00    -0.394 C  
HETATM    6  C   UNL     1     -11.957  13.354  65.010  1.00  0.00    -0.405 C  
HETATM    7  C   UNL     1     -12.752  13.493  67.469  1.00  0.00     0.798 C  
HETATM    8  C   UNL     1     -13.108  14.341  64.679  1.00  0.00     0.494 C  
HETATM    9  C   UNL     1     -12.401  12.720  68.731  1.00  0.00     0.247 C  
HETATM   10  C   UNL     1     -12.439  11.872  64.790  1.00  0.00     0.068 C  
HETATM   11  C   UNL     1     -11.284  10.850  64.959  1.00  0.00     0.233 C  
HETATM   12  O   UNL     1     -12.299  11.326  68.425  1.00  0.00    -0.593 OA 
HETATM   13  C   UNL     1     -11.098  13.245  69.383  1.00  0.00    -0.148 C  
HETATM   14  C   UNL     1     -11.290  14.703  69.902  1.00  0.00    -0.302 C  
HETATM   15  C   UNL     1     -10.669  12.231  70.483  1.00  0.00     2.464 C  
HETATM   16  C   UNL     1     -10.139  11.126  63.990  1.00  0.00    -0.336 C  
HETATM   17  H   UNL     1     -12.080  10.843  69.213  1.00  0.00     0.000 HD 
HETATM   18  O   UNL     1      -9.239  12.259  68.107  1.00  0.00    -0.189 OA 
HETATM   19  C   UNL     1      -9.860  15.209  70.147  1.00  0.00     0.092 C  
HETATM   20  H   UNL     1      -8.973  11.846  68.921  1.00  0.00     0.000 HD 
HETATM   21  C   UNL     1     -10.281  12.456  63.244  1.00  0.00    -0.097 C  
HETATM   22  C   UNL     1      -9.896  13.498  68.383  1.00  0.00    -0.225 C  
HETATM   23  C   UNL     1      -8.953  14.383  69.219  1.00  0.00     0.193 C  
ENDROOT
BRANCH  16  24
HETATM   24  O   UNL     1      -8.835  11.090  64.564  1.00  0.00    -0.123 OA 
BRANCH  24  25
HETATM   25  C   UNL     1      -8.601  10.357  65.776  1.00  0.00    -0.164 C  
HETATM   26  O   UNL     1      -6.499   7.494  64.619  1.00  0.00    -0.040 OA 
HETATM   27  C   UNL     1      -6.047   8.991  66.497  1.00  0.00    -0.064 C  
HETATM   28  C   UNL     1      -8.290   8.885  65.520  1.00  0.00    -0.142 C  
HETATM   29  C   UNL     1      -6.814   8.759  65.194  1.00  0.00    -0.075 C  
HETATM   30  O   UNL     1      -7.530  11.069  66.406  1.00  0.00    -0.143 OA 
HETATM   31  C   UNL     1      -6.451  10.389  67.061  1.00  0.00    -0.074 C  
HETATM   32  H   UNL     1      -5.575   7.415  64.414  1.00  0.00     0.000 HD 
HETATM   33  C   UNL     1      -5.277  11.378  67.015  1.00  0.00    -0.088 C  
BRANCH  27  34
HETATM   34  O   UNL     1      -6.383   8.059  67.553  1.00  0.00    -0.053 OA 
BRANCH  34  35
HETATM   35  C   UNL     1      -6.430   8.494  68.909  1.00  0.00    -0.049 C  
HETATM   36  C   UNL     1      -7.632   9.369  69.235  1.00  0.00    -0.081 C  
HETATM   37  C   UNL     1      -8.904   8.587  68.941  1.00  0.00    -0.139 C  
HETATM   38  O   UNL     1     -10.065   9.379  69.205  1.00  0.00    -0.182 OA 
HETATM   39  C   UNL     1      -8.947   7.252  69.712  1.00  0.00    -0.142 C  
HETATM   40  O   UNL     1      -6.435   7.352  69.776  1.00  0.00    -0.034 OA 
HETATM   41  C   UNL     1      -7.584   6.504  69.699  1.00  0.00    -0.098 C  
HETATM   42  H   UNL     1     -10.859   8.891  69.022  1.00  0.00     0.000 HD 
HETATM   43  C   UNL     1      -7.406   5.464  68.591  1.00  0.00    -0.075 C  
BRANCH  39  44
HETATM   44  O   UNL     1      -9.282   7.407  71.109  1.00  0.00    -0.154 OA 
BRANCH  44  45
HETATM   45  C   UNL     1     -10.538   6.923  71.586  1.00  0.00    -0.209 C  
HETATM   46  C   UNL     1     -10.683   5.404  71.639  1.00  0.00    -0.266 C  
HETATM   47  C   UNL     1      -9.664   4.842  72.622  1.00  0.00    -0.141 C  
HETATM   48  C   UNL     1      -9.915   5.425  74.015  1.00  0.00    -0.202 C  
HETATM   49  O   UNL     1      -9.787   3.416  72.681  1.00  0.00    -0.130 OA 
HETATM   50  H   UNL     1      -9.152   3.065  73.294  1.00  0.00     0.000 HD 
HETATM   51  O   UNL     1     -11.158   4.892  74.508  1.00  0.00    -0.274 OA 
HETATM   52  C   UNL     1      -9.992   6.962  73.972  1.00  0.00    -0.336 C  
HETATM   53  C   UNL     1      -8.613   7.619  73.964  1.00  0.00    -0.297 C  
HETATM   54  O   UNL     1     -10.797   7.463  72.893  1.00  0.00    -0.290 OA 
HETATM   55  H   UNL     1     -11.314   5.254  75.373  1.00  0.00     0.000 HD 
ENDBRANCH  44  45
ENDBRANCH  39  44
ENDBRANCH  34  35
ENDBRANCH  27  34
ENDBRANCH  24  25
ENDBRANCH  16  24
BRANCH  14  56
HETATM   56  C   UNL     1     -12.295  15.008  70.968  1.00  0.00    -0.394 C  
HETATM   57  C   UNL     1     -13.751  15.175  70.783  1.00  0.00    -0.183 C  
HETATM   58  C   UNL     1     -13.196  15.642  72.928  1.00  0.00    -0.532 C  
HETATM   59  O   UNL     1     -14.240  15.538  72.074  1.00  0.00    -0.518 OA 
HETATM   60  O   UNL     1     -13.253  15.978  74.099  1.00  0.00    -0.499 OA 
HETATM   61  C   UNL     1     -11.968  15.301  72.228  1.00  0.00    -0.511 C  
ENDBRANCH  14  56
TORSDOF 7
ENDMDL
MODEL       19
REMARK 921   NORMALIZED FREE ENERGY PREDICTED BY IDOCK:   -3.08 KCAL/MOL
REMARK 922        TOTAL FREE ENERGY PREDICTED BY IDOCK:   -6.18 KCAL/MOL
REMARK 923 INTER-LIGAND FREE ENERGY PREDICTED BY IDOCK:   -9.01 KCAL/MOL
REMARK 924 INTRA-LIGAND FREE ENERGY PREDICTED BY IDOCK:    2.83 KCAL/MOL
REMARK 927      BINDING AFFINITY PREDICTED BY RF-SCORE:    0.00 PKD
ROOT
HETATM    1  C   UNL     1     -10.943  11.628  66.191  1.00  0.00    -0.339 C  
HETATM    2  C   UNL     1      -9.549  11.650  65.547  1.00  0.00    -0.241 C  
HETATM    3  C   UNL     1      -8.460  12.225  66.432  1.00  0.00     0.096 C  
HETATM    4  C   UNL     1      -8.748  13.679  66.841  1.00  0.00    -0.162 C  
HETATM    5  C   UNL     1     -10.178  13.826  67.375  1.00  0.00    -0.252 C  
HETATM    6  C   UNL     1     -11.362  12.966  66.861  1.00  0.00    -0.358 C  
HETATM    7  C   UNL     1     -10.548  15.293  67.651  1.00  0.00    -0.270 C  
HETATM    8  C   UNL     1     -12.227  13.725  65.821  1.00  0.00    -0.495 C  
HETATM    9  C   UNL     1      -9.729  15.769  68.841  1.00  0.00    -0.225 C  
HETATM   10  C   UNL     1     -12.212  12.669  68.153  1.00  0.00     0.067 C  
HETATM   11  C   UNL     1     -11.446  11.779  69.166  1.00  0.00    -0.358 C  
HETATM   12  O   UNL     1     -10.149  15.074  70.020  1.00  0.00    -0.471 OA 
HETATM   13  C   UNL     1      -8.209  15.594  68.602  1.00  0.00    -0.168 C  
HETATM   14  C   UNL     1      -7.723  16.518  67.443  1.00  0.00    -0.174 C  
HETATM   15  C   UNL     1      -7.478  15.834  69.954  1.00  0.00     0.159 C  
HETATM   16  C   UNL     1     -11.035  10.445  68.550  1.00  0.00    -0.254 C  
HETATM   17  H   UNL     1      -9.637  15.373  70.763  1.00  0.00     0.000 HD 
HETATM   18  O   UNL     1      -7.708  13.225  69.042  1.00  0.00    -0.315 OA 
HETATM   19  C   UNL     1      -6.341  15.961  67.069  1.00  0.00     0.073 C  
HETATM   20  H   UNL     1      -7.129  13.533  69.730  1.00  0.00     0.000 HD 
HETATM   21  C   UNL     1     -11.264  10.379  67.037  1.00  0.00    -0.015 C  
HETATM   22  C   UNL     1      -7.777  14.195  67.995  1.00  0.00    -0.147 C  
HETATM   23  C   UNL     1      -6.351  14.482  67.489  1.00  0.00    -0.033 C  
ENDROOT
BRANCH  16  24
HETATM   24  O   UNL     1      -9.690  10.048  68.801  1.00  0.00    -0.159 OA 
BRANCH  24  25
HETATM   25  C   UNL     1      -9.400   8.700  69.201  1.00  0.00    -0.153 C  
HETATM   26  O   UNL     1      -6.934   9.173  71.968  1.00  0.00    -0.308 OA 
HETATM   27  C   UNL     1      -8.954   7.797  72.012  1.00  0.00    -0.134 C  
HETATM   28  C   UNL     1      -8.037   8.569  69.876  1.00  0.00    -0.118 C  
HETATM   29  C   UNL     1      -8.192   8.940  71.339  1.00  0.00    -0.120 C  
HETATM   30  O   UNL     1     -10.498   8.351  70.053  1.00  0.00    -0.214 OA 
HETATM   31  C   UNL     1     -10.310   7.606  71.263  1.00  0.00    -0.198 C  
HETATM   32  H   UNL     1      -7.031   9.406  72.884  1.00  0.00     0.000 HD 
HETATM   33  C   UNL     1     -11.504   7.988  72.150  1.00  0.00    -0.393 C  
BRANCH  27  34
HETATM   34  O   UNL     1      -8.296   6.511  71.913  1.00  0.00    -0.115 OA 
BRANCH  34  35
HETATM   35  C   UNL     1      -7.845   6.029  70.651  1.00  0.00    -0.106 C  
HETATM   36  C   UNL     1      -6.662   5.074  70.743  1.00  0.00    -0.036 C  
HETATM   37  C   UNL     1      -7.060   3.879  71.596  1.00  0.00    -0.038 C  
HETATM   38  O   UNL     1      -5.971   2.963  71.735  1.00  0.00    -0.012 OA 
HETATM   39  C   UNL     1      -8.318   3.175  71.045  1.00  0.00    -0.062 C  
HETATM   40  O   UNL     1      -8.926   5.369  69.979  1.00  0.00    -0.125 OA 
HETATM   41  C   UNL     1      -9.419   4.175  70.591  1.00  0.00    -0.172 C  
HETATM   42  H   UNL     1      -6.219   2.216  72.268  1.00  0.00     0.000 HD 
HETATM   43  C   UNL     1     -10.483   4.512  71.637  1.00  0.00    -0.084 C  
BRANCH  39  44
HETATM   44  O   UNL     1      -8.054   2.350  69.889  1.00  0.00    -0.042 OA 
BRANCH  44  45
HETATM   45  C   UNL     1      -9.012   2.299  68.831  1.00  0.00    -0.115 C  
HETATM   46  C   UNL     1      -9.428   3.649  68.252  1.00  0.00    -0.214 C  
HETATM   47  C   UNL     1      -8.211   4.317  67.626  1.00  0.00    -0.098 C  
HETATM   48  C   UNL     1      -7.656   3.433  66.506  1.00  0.00    -0.077 C  
HETATM   49  O   UNL     1      -8.585   5.588  67.080  1.00  0.00    -0.111 OA 
HETATM   50  H   UNL     1      -7.826   6.004  66.689  1.00  0.00     0.000 HD 
HETATM   51  O   UNL     1      -8.606   3.429  65.424  1.00  0.00    -0.105 OA 
HETATM   52  C   UNL     1      -7.422   1.992  66.996  1.00  0.00    -0.060 C  
HETATM   53  C   UNL     1      -6.104   1.835  67.750  1.00  0.00    -0.024 C  
HETATM   54  O   UNL     1      -8.514   1.468  67.769  1.00  0.00    -0.064 OA 
HETATM   55  H   UNL     1      -8.262   2.880  64.729  1.00  0.00     0.000 HD 
ENDBRANCH  44  45
ENDBRANCH  39  44
ENDBRANCH  34  35
ENDBRANCH  27  34
ENDBRANCH  24  25
ENDBRANCH  16  24
BRANCH  14  56
HETATM   56  C   UNL     1      -7.832  18.006  67.557  1.00  0.00    -0.217 C  
HETATM   57  C   UNL     1      -6.980  18.891  68.379  1.00  0.00    -0.254 C  
HETATM   58  C   UNL     1      -8.645  20.100  67.430  1.00  0.00    -0.343 C  
HETATM   59  O   UNL     1      -7.543  20.193  68.210  1.00  0.00    -0.268 OA 
HETATM   60  O   UNL     1      -9.390  21.014  67.123  1.00  0.00    -0.288 OA 
HETATM   61  C   UNL     1      -8.822  18.717  67.013  1.00  0.00    -0.302 C  
ENDBRANCH  14  56
TORSDOF 7
ENDMDL
MODEL       20
REMARK 921   NORMALIZED FREE ENERGY PREDICTED BY IDOCK:   -2.87 KCAL/MOL
REMARK 922        TOTAL FREE ENERGY PREDICTED BY IDOCK:   -5.88 KCAL/MOL
REMARK 923 INTER-LIGAND FREE ENERGY PREDICTED BY IDOCK:   -5.65 KCAL/MOL
REMARK 924 INTRA-LIGAND FREE ENERGY PREDICTED BY IDOCK:   -0.23 KCAL/MOL
REMARK 927      BINDING AFFINITY PREDICTED BY RF-SCORE:    0.00 PKD
ROOT
HETATM    1  C   UNL     1      -6.184   2.455  68.324  1.00  0.00    -0.025 C  
HETATM    2  C   UNL     1      -5.327   3.514  69.032  1.00  0.00    -0.012 C  
HETATM    3  C   UNL     1      -5.973   4.883  69.124  1.00  0.00    -0.021 C  
HETATM    4  C   UNL     1      -6.294   5.470  67.740  1.00  0.00    -0.042 C  
HETATM    5  C   UNL     1      -7.034   4.449  66.868  1.00  0.00    -0.063 C  
HETATM    6  C   UNL     1      -6.793   2.920  66.972  1.00  0.00    -0.045 C  
HETATM    7  C   UNL     1      -7.236   4.950  65.429  1.00  0.00    -0.068 C  
HETATM    8  C   UNL     1      -5.841   2.402  65.862  1.00  0.00    -0.022 C  
HETATM    9  C   UNL     1      -8.234   6.097  65.465  1.00  0.00    -0.144 C  
HETATM   10  C   UNL     1      -8.225   2.290  66.790  1.00  0.00    -0.086 C  
HETATM   11  C   UNL     1      -9.177   2.653  67.960  1.00  0.00    -0.254 C  
HETATM   12  O   UNL     1      -9.521   5.600  65.847  1.00  0.00    -0.250 OA 
HETATM   13  C   UNL     1      -7.772   7.233  66.411  1.00  0.00    -0.093 C  
HETATM   14  C   UNL     1      -6.474   7.908  65.869  1.00  0.00    -0.042 C  
HETATM   15  C   UNL     1      -8.964   8.214  66.604  1.00  0.00    -0.181 C  
HETATM   16  C   UNL     1      -8.622   2.192  69.305  1.00  0.00    -0.061 C  
HETATM   17  H   UNL     1     -10.144   6.317  65.869  1.00  0.00     0.000 HD 
HETATM   18  O   UNL     1      -8.332   6.504  68.693  1.00  0.00    -0.120 OA 
HETATM   19  C   UNL     1      -5.934   8.706  67.066  1.00  0.00    -0.053 C  
HETATM   20  H   UNL     1      -8.889   7.273  68.743  1.00  0.00     0.000 HD 
HETATM   21  C   UNL     1      -7.177   1.692  69.226  1.00  0.00    -0.036 C  
HETATM   22  C   UNL     1      -7.228   6.758  67.822  1.00  0.00    -0.091 C  
HETATM   23  C   UNL     1      -6.479   8.006  68.323  1.00  0.00    -0.055 C  
ENDROOT
BRANCH  16  24
HETATM   24  O   UNL     1      -8.689   3.156  70.352  1.00  0.00    -0.060 OA 
BRANCH  24  25
HETATM   25  C   UNL     1      -8.865   4.547  70.042  1.00  0.00    -0.082 C  
HETATM   26  O   UNL     1     -11.861   5.474  72.073  1.00  0.00    -0.047 OA 
HETATM   27  C   UNL     1      -9.720   6.649  71.981  1.00  0.00    -0.151 C  
HETATM   28  C   UNL     1     -10.302   5.017  70.251  1.00  0.00    -0.299 C  
HETATM   29  C   UNL     1     -10.486   5.351  71.720  1.00  0.00    -0.226 C  
HETATM   30  O   UNL     1      -7.916   5.209  70.885  1.00  0.00    -0.092 OA 
HETATM   31  C   UNL     1      -8.231   6.432  71.565  1.00  0.00    -0.117 C  
HETATM   32  H   UNL     1     -11.976   5.683  72.992  1.00  0.00     0.000 HD 
HETATM   33  C   UNL     1      -7.295   6.458  72.782  1.00  0.00    -0.090 C  
BRANCH  27  34
HETATM   34  O   UNL     1     -10.165   7.769  71.178  1.00  0.00    -0.195 OA 
BRANCH  34  35
HETATM   35  C   UNL     1      -9.713   9.088  71.469  1.00  0.00    -0.295 C  
HETATM   36  C   UNL     1      -9.450   9.936  70.232  1.00  0.00    -0.162 C  
HETATM   37  C   UNL     1     -10.735  10.040  69.424  1.00  0.00    -0.233 C  
HETATM   38  O   UNL     1     -10.532  10.806  68.234  1.00  0.00    -0.165 OA 
HETATM   39  C   UNL     1     -11.896  10.607  70.266  1.00  0.00    -0.342 C  
HETATM   40  O   UNL     1     -10.679   9.753  72.293  1.00  0.00     0.917 OA 
HETATM   41  C   UNL     1     -11.954  10.003  71.698  1.00  0.00    -0.286 C  
HETATM   42  H   UNL     1     -11.334  10.871  67.729  1.00  0.00     0.000 HD 
HETATM   43  C   UNL     1     -12.872   8.792  71.873  1.00  0.00    -0.423 C  
BRANCH  39  44
HETATM   44  O   UNL     1     -11.821  12.037  70.459  1.00  0.00    -0.302 OA 
BRANCH  44  45
HETATM   45  C   UNL     1     -12.974  12.841  70.208  1.00  0.00     0.491 C  
HETATM   46  C   UNL     1     -13.699  13.359  71.448  1.00  0.00     0.018 C  
HETATM   47  C   UNL     1     -12.763  14.275  72.224  1.00  0.00    -0.298 C  
HETATM   48  C   UNL     1     -12.352  15.459  71.344  1.00  0.00    -0.379 C  
HETATM   49  O   UNL     1     -13.429  14.768  73.393  1.00  0.00    -0.553 OA 
HETATM   50  H   UNL     1     -12.846  15.340  73.877  1.00  0.00     0.000 HD 
HETATM   51  O   UNL     1     -13.510  16.289  71.139  1.00  0.00     0.005 OA 
HETATM   52  C   UNL     1     -11.809  14.981  69.984  1.00  0.00    -0.319 C  
HETATM   53  C   UNL     1     -10.347  14.548  70.055  1.00  0.00     0.299 C  
HETATM   54  O   UNL     1     -12.612  13.957  69.377  1.00  0.00    -0.178 OA 
HETATM   55  H   UNL     1     -13.255  17.024  70.592  1.00  0.00     0.000 HD 
ENDBRANCH  44  45
ENDBRANCH  39  44
ENDBRANCH  34  35
ENDBRANCH  27  34
ENDBRANCH  24  25
ENDBRANCH  16  24
BRANCH  14  56
HETATM   56  C   UNL     1      -6.473   8.609  64.547  1.00  0.00    -0.066 C  
HETATM   57  C   UNL     1      -5.960   8.075  63.268  1.00  0.00    -0.067 C  
HETATM   58  C   UNL     1      -6.593  10.233  62.996  1.00  0.00    -0.127 C  
HETATM   59  O   UNL     1      -6.108   9.152  62.342  1.00  0.00    -0.094 OA 
HETATM   60  O   UNL     1      -6.798  11.335  62.516  1.00  0.00     0.162 OA 
HETATM   61  C   UNL     1      -6.829   9.885  64.389  1.00  0.00    -0.125 C  
ENDBRANCH  14  56
TORSDOF 7
ENDMDL
MODEL       21
REMARK 921   NORMALIZED FREE ENERGY PREDICTED BY IDOCK:   -2.77 KCAL/MOL
REMARK 922        TOTAL FREE ENERGY PREDICTED BY IDOCK:   -5.74 KCAL/MOL
REMARK 923 INTER-LIGAND FREE ENERGY PREDICTED BY IDOCK:   -4.59 KCAL/MOL
REMARK 924 INTRA-LIGAND FREE ENERGY PREDICTED BY IDOCK:   -1.15 KCAL/MOL
REMARK 927      BINDING AFFINITY PREDICTED BY RF-SCORE:    0.00 PKD
ROOT
HETATM    1  C   UNL     1      -6.788   6.110  71.253  1.00  0.00    -0.067 C  
HETATM    2  C   UNL     1      -5.505   5.947  70.425  1.00  0.00    -0.013 C  
HETATM    3  C   UNL     1      -5.627   6.407  68.985  1.00  0.00    -0.016 C  
HETATM    4  C   UNL     1      -6.713   5.635  68.217  1.00  0.00    -0.054 C  
HETATM    5  C   UNL     1      -8.025   5.597  69.011  1.00  0.00    -0.096 C  
HETATM    6  C   UNL     1      -8.071   5.572  70.561  1.00  0.00    -0.104 C  
HETATM    7  C   UNL     1      -9.084   4.707  68.342  1.00  0.00    -0.154 C  
HETATM    8  C   UNL     1      -8.300   4.140  71.115  1.00  0.00    -0.094 C  
HETATM    9  C   UNL     1      -9.527   5.387  67.055  1.00  0.00    -0.132 C  
HETATM   10  C   UNL     1      -9.296   6.491  70.925  1.00  0.00    -0.165 C  
HETATM   11  C   UNL     1      -9.055   7.972  70.530  1.00  0.00    -0.153 C  
HETATM   12  O   UNL     1     -10.231   6.593  67.370  1.00  0.00    -0.152 OA 
HETATM   13  C   UNL     1      -8.332   5.668  66.111  1.00  0.00    -0.120 C  
HETATM   14  C   UNL     1      -7.701   4.334  65.608  1.00  0.00    -0.090 C  
HETATM   15  C   UNL     1      -8.829   6.605  64.972  1.00  0.00     0.277 C  
HETATM   16  C   UNL     1      -7.813   8.543  71.208  1.00  0.00    -0.118 C  
HETATM   17  H   UNL     1     -10.508   7.018  66.566  1.00  0.00     0.000 HD 
HETATM   18  O   UNL     1      -7.242   7.703  66.963  1.00  0.00    -0.084 OA 
HETATM   19  C   UNL     1      -6.339   4.752  65.033  1.00  0.00    -0.035 C  
HETATM   20  H   UNL     1      -7.445   8.097  66.122  1.00  0.00     0.000 HD 
HETATM   21  C   UNL     1      -6.973   7.485  71.928  1.00  0.00    -0.062 C  
HETATM   22  C   UNL     1      -7.054   6.295  66.808  1.00  0.00    -0.073 C  
HETATM   23  C   UNL     1      -5.955   6.055  65.756  1.00  0.00    -0.029 C  
ENDROOT
BRANCH  16  24
HETATM   24  O   UNL     1      -6.940   9.280  70.356  1.00  0.00    -0.062 OA 
BRANCH  24  25
HETATM   25  C   UNL     1      -7.401  10.482  69.719  1.00  0.00    -0.134 C  
HETATM   26  O   UNL     1      -5.143  13.092  71.151  1.00  0.00    -0.130 OA 
HETATM   27  C   UNL     1      -5.652  12.717  68.790  1.00  0.00    -0.066 C  
HETATM   28  C   UNL     1      -7.074  11.736  70.527  1.00  0.00     1.933 C  
HETATM   29  C   UNL     1      -5.648  12.148  70.210  1.00  0.00    -0.152 C  
HETATM   30  O   UNL     1      -6.774  10.449  68.431  1.00  0.00    -0.059 OA 
HETATM   31  C   UNL     1      -6.221  11.627  67.829  1.00  0.00    -0.059 C  
HETATM   32  H   UNL     1      -4.251  13.351  70.954  1.00  0.00     0.000 HD 
HETATM   33  C   UNL     1      -5.145  11.107  66.864  1.00  0.00    -0.069 C  
BRANCH  27  34
HETATM   34  O   UNL     1      -6.529  13.855  68.613  1.00  0.00    -0.081 OA 
BRANCH  34  35
HETATM   35  C   UNL     1      -6.170  15.129  69.141  1.00  0.00    -0.106 C  
HETATM   36  C   UNL     1      -5.445  16.026  68.147  1.00  0.00    -0.115 C  
HETATM   37  C   UNL     1      -6.342  16.247  66.939  1.00  0.00    -0.002 C  
HETATM   38  O   UNL     1      -5.693  17.064  65.961  1.00  0.00    -0.246 OA 
HETATM   39  C   UNL     1      -7.711  16.834  67.340  1.00  0.00    -0.169 C  
HETATM   40  O   UNL     1      -7.347  15.802  69.605  1.00  0.00    -0.199 OA 
HETATM   41  C   UNL     1      -8.308  16.157  68.607  1.00  0.00    -0.211 C  
HETATM   42  H   UNL     1      -6.252  17.203  65.206  1.00  0.00     0.000 HD 
HETATM   43  C   UNL     1      -9.266  14.993  68.351  1.00  0.00    -0.193 C  
BRANCH  39  44
HETATM   44  O   UNL     1      -7.663  18.244  67.650  1.00  0.00    -0.224 OA 
BRANCH  44  45
HETATM   45  C   UNL     1      -7.938  19.197  66.622  1.00  0.00    -0.272 C  
HETATM   46  C   UNL     1      -8.789  18.688  65.462  1.00  0.00     1.053 C  
HETATM   47  C   UNL     1     -10.163  18.295  65.989  1.00  0.00    -0.323 C  
HETATM   48  C   UNL     1     -10.842  19.514  66.621  1.00  0.00    -0.370 C  
HETATM   49  O   UNL     1     -10.974  17.813  64.910  1.00  0.00    -0.866 OA 
HETATM   50  H   UNL     1     -11.830  17.568  65.238  1.00  0.00     0.000 HD 
HETATM   51  O   UNL     1     -11.160  20.445  65.570  1.00  0.00     0.088 OA 
HETATM   52  C   UNL     1      -9.923  20.191  67.653  1.00  0.00    -0.420 C  
HETATM   53  C   UNL     1      -9.950  19.493  69.011  1.00  0.00    -0.490 C  
HETATM   54  O   UNL     1      -8.571  20.354  67.195  1.00  0.00    -0.339 OA 
HETATM   55  H   UNL     1     -11.581  21.201  65.962  1.00  0.00     0.000 HD 
ENDBRANCH  44  45
ENDBRANCH  39  44
ENDBRANCH  34  35
ENDBRANCH  27  34
ENDBRANCH  24  25
ENDBRANCH  16  24
BRANCH  14  56
HETATM   56  C   UNL     1      -8.502   3.372  64.788  1.00  0.00    -0.097 C  
HETATM   57  C   UNL     1      -7.974   2.389  63.820  1.00  0.00    -0.080 C  
HETATM   58  C   UNL     1     -10.238   2.379  63.760  1.00  0.00    -0.124 C  
HETATM   59  O   UNL     1      -9.135   1.786  63.247  1.00  0.00    -0.086 OA 
HETATM   60  O   UNL     1     -11.394   2.137  63.456  1.00  0.00    -0.265 OA 
HETATM   61  C   UNL     1      -9.836   3.377  64.739  1.00  0.00    -0.124 C  
ENDBRANCH  14  56
TORSDOF 7
ENDMDL
MODEL       22
REMARK 921   NORMALIZED FREE ENERGY PREDICTED BY IDOCK:   -2.60 KCAL/MOL
REMARK 922        TOTAL FREE ENERGY PREDICTED BY IDOCK:   -5.50 KCAL/MOL
REMARK 923 INTER-LIGAND FREE ENERGY PREDICTED BY IDOCK:   -9.00 KCAL/MOL
REMARK 924 INTRA-LIGAND FREE ENERGY PREDICTED BY IDOCK:    3.50 KCAL/MOL
REMARK 927      BINDING AFFINITY PREDICTED BY RF-SCORE:    0.00 PKD
ROOT
HETATM    1  C   UNL     1     -10.403   7.973  66.938  1.00  0.00    -0.408 C  
HETATM    2  C   UNL     1     -11.010   8.788  68.089  1.00  0.00     0.084 C  
HETATM    3  C   UNL     1     -10.204   8.751  69.374  1.00  0.00    -0.210 C  
HETATM    4  C   UNL     1     -10.042   7.323  69.920  1.00  0.00    -0.196 C  
HETATM    5  C   UNL     1      -9.572   6.364  68.819  1.00  0.00    -0.127 C  
HETATM    6  C   UNL     1      -9.968   6.534  67.328  1.00  0.00    -0.189 C  
HETATM    7  C   UNL     1      -9.545   4.902  69.293  1.00  0.00    -0.241 C  
HETATM    8  C   UNL     1     -11.137   5.597  66.925  1.00  0.00     0.016 C  
HETATM    9  C   UNL     1      -8.428   4.759  70.317  1.00  0.00    -0.083 C  
HETATM   10  C   UNL     1      -8.665   6.140  66.537  1.00  0.00    -0.133 C  
HETATM   11  C   UNL     1      -7.504   7.138  66.786  1.00  0.00    -0.089 C  
HETATM   12  O   UNL     1      -7.163   4.943  69.673  1.00  0.00    -0.053 OA 
HETATM   13  C   UNL     1      -8.601   5.745  71.499  1.00  0.00    -0.132 C  
HETATM   14  C   UNL     1      -9.882   5.402  72.320  1.00  0.00    -0.199 C  
HETATM   15  C   UNL     1      -7.289   5.730  72.334  1.00  0.00    -0.095 C  
HETATM   16  C   UNL     1      -7.887   8.562  66.394  1.00  0.00    -0.099 C  
HETATM   17  H   UNL     1      -6.466   4.853  70.313  1.00  0.00     0.000 HD 
HETATM   18  O   UNL     1      -7.773   7.924  70.709  1.00  0.00    -0.079 OA 
HETATM   19  C   UNL     1     -10.130   6.654  73.176  1.00  0.00    -0.213 C  
HETATM   20  H   UNL     1      -7.131   7.870  71.408  1.00  0.00     0.000 HD 
HETATM   21  C   UNL     1      -9.374   8.721  66.065  1.00  0.00    -0.296 C  
HETATM   22  C   UNL     1      -8.964   7.233  71.090  1.00  0.00    -0.147 C  
HETATM   23  C   UNL     1      -9.477   7.822  72.417  1.00  0.00    -0.234 C  
ENDROOT
BRANCH  16  24
HETATM   24  O   UNL     1      -7.545   9.568  67.343  1.00  0.00    -0.094 OA 
BRANCH  24  25
HETATM   25  C   UNL     1      -8.467  10.629  67.633  1.00  0.00    -0.118 C  
HETATM   26  O   UNL     1      -6.353  13.686  67.250  1.00  0.00    -0.420 OA 
HETATM   27  C   UNL     1      -8.542  13.271  66.244  1.00  0.00     0.512 C  
HETATM   28  C   UNL     1      -7.768  11.897  68.118  1.00  0.00    -0.126 C  
HETATM   29  C   UNL     1      -7.297  12.676  66.904  1.00  0.00     0.189 C  
HETATM   30  O   UNL     1      -9.185  10.803  66.406  1.00  0.00    -0.163 OA 
HETATM   31  C   UNL     1      -9.520  12.104  65.903  1.00  0.00    -0.179 C  
HETATM   32  H   UNL     1      -6.058  14.174  66.491  1.00  0.00     0.000 HD 
HETATM   33  C   UNL     1      -9.666  11.914  64.386  1.00  0.00    -0.134 C  
BRANCH  27  34
HETATM   34  O   UNL     1      -9.305  14.148  67.107  1.00  0.00    -0.218 OA 
BRANCH  34  35
HETATM   35  C   UNL     1     -10.088  15.202  66.552  1.00  0.00    -0.269 C  
HETATM   36  C   UNL     1     -10.974  15.911  67.567  1.00  0.00    -0.280 C  
HETATM   37  C   UNL     1     -10.095  16.496  68.663  1.00  0.00    -0.255 C  
HETATM   38  O   UNL     1     -10.886  17.152  69.658  1.00  0.00    -0.384 OA 
HETATM   39  C   UNL     1      -9.018  17.440  68.091  1.00  0.00    -0.260 C  
HETATM   40  O   UNL     1      -9.223  16.163  65.934  1.00  0.00    -0.341 OA 
HETATM   41  C   UNL     1      -8.344  16.878  66.806  1.00  0.00    -0.235 C  
HETATM   42  H   UNL     1     -10.338  17.518  70.343  1.00  0.00     0.000 HD 
HETATM   43  C   UNL     1      -7.051  16.090  67.024  1.00  0.00    -0.233 C  
BRANCH  39  44
HETATM   44  O   UNL     1      -9.531  18.737  67.714  1.00  0.00    -0.292 OA 
BRANCH  44  45
HETATM   45  C   UNL     1      -9.111  19.895  68.437  1.00  0.00    -0.208 C  
HETATM   46  C   UNL     1      -8.055  19.653  69.513  1.00  0.00     0.208 C  
HETATM   47  C   UNL     1      -6.782  19.139  68.853  1.00  0.00    -0.301 C  
HETATM   48  C   UNL     1      -6.263  20.177  67.854  1.00  0.00    -0.232 C  
HETATM   49  O   UNL     1      -5.781  18.905  69.851  1.00  0.00    -0.228 OA 
HETATM   50  H   UNL     1      -4.988  18.585  69.440  1.00  0.00     0.000 HD 
HETATM   51  O   UNL     1      -5.795  21.319  68.597  1.00  0.00    -0.293 OA 
HETATM   52  C   UNL     1      -7.368  20.612  66.875  1.00  0.00    -0.282 C  
HETATM   53  C   UNL     1      -7.556  19.626  65.725  1.00  0.00    -0.275 C  
HETATM   54  O   UNL     1      -8.624  20.887  67.517  1.00  0.00    -0.208 OA 
HETATM   55  H   UNL     1      -5.473  21.963  67.977  1.00  0.00     0.000 HD 
ENDBRANCH  44  45
ENDBRANCH  39  44
ENDBRANCH  34  35
ENDBRANCH  27  34
ENDBRANCH  24  25
ENDBRANCH  16  24
BRANCH  14  56
HETATM   56  C   UNL     1     -10.012   4.084  73.016  1.00  0.00    -0.194 C  
HETATM   57  C   UNL     1      -8.931   3.107  73.261  1.00  0.00    -0.086 C  
HETATM   58  C   UNL     1     -10.911   2.237  73.932  1.00  0.00    -0.183 C  
HETATM   59  O   UNL     1      -9.582   1.993  73.872  1.00  0.00    -0.074 OA 
HETATM   60  O   UNL     1     -11.766   1.477  74.354  1.00  0.00     0.039 OA 
HETATM   61  C   UNL     1     -11.180   3.563  73.396  1.00  0.00    -0.258 C  
ENDBRANCH  14  56
TORSDOF 7
ENDMDL
MODEL       23
REMARK 921   NORMALIZED FREE ENERGY PREDICTED BY IDOCK:   -2.38 KCAL/MOL
REMARK 922        TOTAL FREE ENERGY PREDICTED BY IDOCK:   -5.20 KCAL/MOL
REMARK 923 INTER-LIGAND FREE ENERGY PREDICTED BY IDOCK:   -5.85 KCAL/MOL
REMARK 924 INTRA-LIGAND FREE ENERGY PREDICTED BY IDOCK:    0.65 KCAL/MOL
REMARK 927      BINDING AFFINITY PREDICTED BY RF-SCORE:    0.00 PKD
ROOT
HETATM    1  C   UNL     1     -10.689   5.717  67.281  1.00  0.00    -0.345 C  
HETATM    2  C   UNL     1     -11.636   5.919  68.472  1.00  0.00     0.947 C  
HETATM    3  C   UNL     1     -11.036   6.707  69.621  1.00  0.00    -0.390 C  
HETATM    4  C   UNL     1      -9.783   6.030  70.201  1.00  0.00    -0.204 C  
HETATM    5  C   UNL     1      -8.805   5.640  69.086  1.00  0.00    -0.111 C  
HETATM    6  C   UNL     1      -9.268   5.222  67.666  1.00  0.00    -0.121 C  
HETATM    7  C   UNL     1      -7.612   4.828  69.617  1.00  0.00    -0.055 C  
HETATM    8  C   UNL     1      -9.277   3.681  67.486  1.00  0.00    -0.224 C  
HETATM    9  C   UNL     1      -6.753   5.752  70.466  1.00  0.00    -0.048 C  
HETATM   10  C   UNL     1      -8.201   5.870  66.706  1.00  0.00    -0.105 C  
HETATM   11  C   UNL     1      -8.255   7.420  66.733  1.00  0.00    -0.121 C  
HETATM   12  O   UNL     1      -6.154   6.749  69.632  1.00  0.00    -0.030 OA 
HETATM   13  C   UNL     1      -7.565   6.399  71.615  1.00  0.00    -0.095 C  
HETATM   14  C   UNL     1      -8.038   5.317  72.634  1.00  0.00    -0.110 C  
HETATM   15  C   UNL     1      -6.695   7.526  72.244  1.00  0.00    -0.055 C  
HETATM   16  C   UNL     1      -9.632   7.946  66.338  1.00  0.00    -0.181 C  
HETATM   17  H   UNL     1      -5.617   7.326  70.163  1.00  0.00     0.000 HD 
HETATM   18  O   UNL     1      -8.811   8.270  70.613  1.00  0.00    -0.134 OA 
HETATM   19  C   UNL     1      -9.124   6.024  73.460  1.00  0.00    -0.131 C  
HETATM   20  H   UNL     1      -8.332   8.835  71.208  1.00  0.00     0.000 HD 
HETATM   21  C   UNL     1     -10.693   6.847  66.230  1.00  0.00     0.585 C  
HETATM   22  C   UNL     1      -8.981   6.978  71.199  1.00  0.00    -0.146 C  
HETATM   23  C   UNL     1      -9.683   7.139  72.560  1.00  0.00    -0.180 C  
ENDROOT
BRANCH  16  24
HETATM   24  O   UNL     1     -10.155   8.970  67.179  1.00  0.00    -0.202 OA 
BRANCH  24  25
HETATM   25  C   UNL     1      -9.265   9.861  67.869  1.00  0.00    -0.130 C  
HETATM   26  O   UNL     1      -8.984  12.741  65.506  1.00  0.00    -0.195 OA 
HETATM   27  C   UNL     1      -9.488  12.838  67.896  1.00  0.00    -0.208 C  
HETATM   28  C   UNL     1      -8.530  10.805  66.921  1.00  0.00    -0.131 C  
HETATM   29  C   UNL     1      -9.437  11.986  66.626  1.00  0.00    -0.217 C  
HETATM   30  O   UNL     1     -10.113  10.534  68.807  1.00  0.00    -0.173 OA 
HETATM   31  C   UNL     1      -9.986  11.938  69.069  1.00  0.00     0.100 C  
HETATM   32  H   UNL     1      -9.551  13.480  65.321  1.00  0.00     0.000 HD 
HETATM   33  C   UNL     1     -11.374  12.372  69.564  1.00  0.00    -0.250 C  
BRANCH  27  34
HETATM   34  O   UNL     1      -8.196  13.326  68.331  1.00  0.00    -0.154 OA 
BRANCH  34  35
HETATM   35  C   UNL     1      -8.108  14.429  69.230  1.00  0.00     0.092 C  
HETATM   36  C   UNL     1      -6.781  15.173  69.165  1.00  0.00    -0.130 C  
HETATM   37  C   UNL     1      -6.579  15.694  67.750  1.00  0.00    -0.161 C  
HETATM   38  O   UNL     1      -5.329  16.379  67.630  1.00  0.00    -0.120 OA 
HETATM   39  C   UNL     1      -7.753  16.584  67.293  1.00  0.00    -0.164 C  
HETATM   40  O   UNL     1      -9.173  15.349  68.960  1.00  0.00    -0.202 OA 
HETATM   41  C   UNL     1      -9.140  16.003  67.689  1.00  0.00    -0.199 C  
HETATM   42  H   UNL     1      -5.202  16.704  66.746  1.00  0.00     0.000 HD 
HETATM   43  C   UNL     1      -9.828  15.141  66.628  1.00  0.00    -0.265 C  
BRANCH  39  44
HETATM   44  O   UNL     1      -7.721  17.912  67.861  1.00  0.00    -0.215 OA 
BRANCH  44  45
HETATM   45  C   UNL     1      -7.803  19.046  66.997  1.00  0.00    -0.242 C  
HETATM   46  C   UNL     1      -8.688  18.873  65.764  1.00  0.00     0.371 C  
HETATM   47  C   UNL     1     -10.124  18.636  66.212  1.00  0.00    -0.400 C  
HETATM   48  C   UNL     1     -10.615  19.836  67.026  1.00  0.00    -0.461 C  
HETATM   49  O   UNL     1     -10.966  18.470  65.065  1.00  0.00    -0.602 OA 
HETATM   50  H   UNL     1     -11.861  18.322  65.344  1.00  0.00     0.000 HD 
HETATM   51  O   UNL     1     -10.743  20.960  66.136  1.00  0.00     0.563 OA 
HETATM   52  C   UNL     1      -9.633  20.182  68.160  1.00  0.00    -0.256 C  
HETATM   53  C   UNL     1      -9.819  19.294  69.389  1.00  0.00    -0.186 C  
HETATM   54  O   UNL     1      -8.258  20.188  67.743  1.00  0.00    -0.304 OA 
HETATM   55  H   UNL     1     -11.048  21.705  66.641  1.00  0.00     0.000 HD 
ENDBRANCH  44  45
ENDBRANCH  39  44
ENDBRANCH  34  35
ENDBRANCH  27  34
ENDBRANCH  24  25
ENDBRANCH  16  24
BRANCH  14  56
HETATM   56  C   UNL     1      -7.043   4.504  73.401  1.00  0.00    -0.071 C  
HETATM   57  C   UNL     1      -5.797   4.997  74.025  1.00  0.00    -0.034 C  
HETATM   58  C   UNL     1      -5.912   2.744  74.226  1.00  0.00    -0.004 C  
HETATM   59  O   UNL     1      -5.169   3.827  74.549  1.00  0.00    -0.003 OA 
HETATM   60  O   UNL     1      -5.643   1.582  74.479  1.00  0.00     0.000 OA 
HETATM   61  C   UNL     1      -7.100   3.175  73.505  1.00  0.00    -0.041 C  
ENDBRANCH  14  56
TORSDOF 7
ENDMDL
MODEL       24
REMARK 921   NORMALIZED FREE ENERGY PREDICTED BY IDOCK:   -1.73 KCAL/MOL
REMARK 922        TOTAL FREE ENERGY PREDICTED BY IDOCK:   -4.27 KCAL/MOL
REMARK 923 INTER-LIGAND FREE ENERGY PREDICTED BY IDOCK:   -7.69 KCAL/MOL
REMARK 924 INTRA-LIGAND FREE ENERGY PREDICTED BY IDOCK:    3.41 KCAL/MOL
REMARK 927      BINDING AFFINITY PREDICTED BY RF-SCORE:    0.00 PKD
ROOT
HETATM    1  C   UNL     1      -9.895   4.650  70.260  1.00  0.00    -0.314 C  
HETATM    2  C   UNL     1     -10.759   4.985  69.037  1.00  0.00     0.270 C  
HETATM    3  C   UNL     1     -10.491   6.353  68.438  1.00  0.00    -0.266 C  
HETATM    4  C   UNL     1     -10.742   7.489  69.443  1.00  0.00    -0.200 C  
HETATM    5  C   UNL     1     -10.042   7.205  70.778  1.00  0.00    -0.197 C  
HETATM    6  C   UNL     1      -9.838   5.771  71.335  1.00  0.00    -0.213 C  
HETATM    7  C   UNL     1     -10.395   8.245  71.853  1.00  0.00    -0.324 C  
HETATM    8  C   UNL     1     -10.899   5.405  72.406  1.00  0.00    -0.297 C  
HETATM    9  C   UNL     1      -9.762   9.569  71.454  1.00  0.00     0.151 C  
HETATM   10  C   UNL     1      -8.406   5.811  71.986  1.00  0.00    -0.122 C  
HETATM   11  C   UNL     1      -7.288   6.022  70.931  1.00  0.00    -0.082 C  
HETATM   12  O   UNL     1      -8.337   9.459  71.528  1.00  0.00    -0.270 OA 
HETATM   13  C   UNL     1     -10.214  10.022  70.044  1.00  0.00    -0.306 C  
HETATM   14  C   UNL     1     -11.741  10.341  70.031  1.00  0.00    -0.330 C  
HETATM   15  C   UNL     1      -9.313  11.215  69.609  1.00  0.00     0.632 C  
HETATM   16  C   UNL     1      -7.298   4.926  69.870  1.00  0.00    -0.055 C  
HETATM   17  H   UNL     1      -7.941  10.287  71.279  1.00  0.00     0.000 HD 
HETATM   18  O   UNL     1      -8.858   8.743  68.438  1.00  0.00    -0.137 OA 
HETATM   19  C   UNL     1     -12.105  10.383  68.538  1.00  0.00     0.536 C  
HETATM   20  H   UNL     1      -8.529   9.580  68.133  1.00  0.00     0.000 HD 
HETATM   21  C   UNL     1      -8.524   4.012  69.951  1.00  0.00    -0.089 C  
HETATM   22  C   UNL     1     -10.190   8.893  68.932  1.00  0.00    -0.206 C  
HETATM   23  C   UNL     1     -11.064   9.507  67.822  1.00  0.00    -0.034 C  
ENDROOT
BRANCH  16  24
HETATM   24  O   UNL     1      -7.188   5.382  68.524  1.00  0.00    -0.070 OA 
BRANCH  24  25
HETATM   25  C   UNL     1      -7.906   6.551  68.098  1.00  0.00    -0.106 C  
HETATM   26  O   UNL     1      -5.171   8.850  67.008  1.00  0.00    -0.035 OA 
HETATM   27  C   UNL     1      -7.185   8.257  65.757  1.00  0.00    -0.072 C  
HETATM   28  C   UNL     1      -7.056   7.817  68.163  1.00  0.00    -0.085 C  
HETATM   29  C   UNL     1      -6.227   7.900  66.895  1.00  0.00    -0.054 C  
HETATM   30  O   UNL     1      -8.345   6.220  66.775  1.00  0.00    -0.109 OA 
HETATM   31  C   UNL     1      -8.309   7.174  65.706  1.00  0.00    -0.143 C  
HETATM   32  H   UNL     1      -4.651   8.902  66.214  1.00  0.00     0.000 HD 
HETATM   33  C   UNL     1      -8.221   6.329  64.427  1.00  0.00    -0.040 C  
BRANCH  27  34
HETATM   34  O   UNL     1      -7.889   9.507  65.949  1.00  0.00    -0.099 OA 
BRANCH  34  35
HETATM   35  C   UNL     1      -7.726  10.575  65.020  1.00  0.00    -0.039 C  
HETATM   36  C   UNL     1      -9.038  11.155  64.510  1.00  0.00    -0.068 C  
HETATM   37  C   UNL     1      -9.841  11.672  65.694  1.00  0.00    -0.240 C  
HETATM   38  O   UNL     1     -11.099  12.203  65.269  1.00  0.00    -0.303 OA 
HETATM   39  C   UNL     1      -9.046  12.705  66.518  1.00  0.00    -0.162 C  
HETATM   40  O   UNL     1      -6.958  11.622  65.627  1.00  0.00     0.616 OA 
HETATM   41  C   UNL     1      -7.563  12.288  66.738  1.00  0.00     0.104 C  
HETATM   42  H   UNL     1     -11.601  12.526  66.008  1.00  0.00     0.000 HD 
HETATM   43  C   UNL     1      -7.270  11.535  68.037  1.00  0.00    -0.085 C  
BRANCH  39  44
HETATM   44  O   UNL     1      -8.986  14.009  65.901  1.00  0.00     0.176 OA 
BRANCH  44  45
HETATM   45  C   UNL     1     -10.148  14.839  65.900  1.00  0.00    -0.321 C  
HETATM   46  C   UNL     1     -10.922  14.891  67.215  1.00  0.00    -0.323 C  
HETATM   47  C   UNL     1     -10.030  15.494  68.293  1.00  0.00    -0.213 C  
HETATM   48  C   UNL     1      -9.619  16.912  67.888  1.00  0.00    -0.244 C  
HETATM   49  O   UNL     1     -10.743  15.548  69.534  1.00  0.00    -0.233 OA 
HETATM   50  H   UNL     1     -10.186  15.923  70.206  1.00  0.00     0.000 HD 
HETATM   51  O   UNL     1     -10.788  17.750  67.940  1.00  0.00    -0.365 OA 
HETATM   52  C   UNL     1      -9.024  16.937  66.468  1.00  0.00    -0.272 C  
HETATM   53  C   UNL     1      -7.556  16.521  66.438  1.00  0.00    -0.249 C  
HETATM   54  O   UNL     1      -9.786  16.176  65.517  1.00  0.00    -0.455 OA 
HETATM   55  H   UNL     1     -10.532  18.631  67.688  1.00  0.00     0.000 HD 
ENDBRANCH  44  45
ENDBRANCH  39  44
ENDBRANCH  34  35
ENDBRANCH  27  34
ENDBRANCH  24  25
ENDBRANCH  16  24
BRANCH  14  56
HETATM   56  C   UNL     1     -12.300  11.436  70.883  1.00  0.00    -0.483 C  
HETATM   57  C   UNL     1     -13.157  11.273  72.076  1.00  0.00    -0.326 C  
HETATM   58  C   UNL     1     -12.948  13.473  71.581  1.00  0.00    -0.359 C  
HETATM   59  O   UNL     1     -13.487  12.605  72.468  1.00  0.00    -0.488 OA 
HETATM   60  O   UNL     1     -13.072  14.686  71.592  1.00  0.00    -0.313 OA 
HETATM   61  C   UNL     1     -12.192  12.732  70.583  1.00  0.00    -0.374 C  
ENDBRANCH  14  56
TORSDOF 7
ENDMDL
MODEL       25
REMARK 921   NORMALIZED FREE ENERGY PREDICTED BY IDOCK:   -1.50 KCAL/MOL
REMARK 922        TOTAL FREE ENERGY PREDICTED BY IDOCK:   -3.96 KCAL/MOL
REMARK 923 INTER-LIGAND FREE ENERGY PREDICTED BY IDOCK:   -6.47 KCAL/MOL
REMARK 924 INTRA-LIGAND FREE ENERGY PREDICTED BY IDOCK:    2.51 KCAL/MOL
REMARK 927      BINDING AFFINITY PREDICTED BY RF-SCORE:    0.00 PKD
ROOT
HETATM    1  C   UNL     1     -10.266   5.015  69.443  1.00  0.00    -0.268 C  
HETATM    2  C   UNL     1     -11.021   5.532  68.211  1.00  0.00     0.108 C  
HETATM    3  C   UNL     1     -10.686   6.960  67.825  1.00  0.00    -0.321 C  
HETATM    4  C   UNL     1     -11.004   7.958  68.952  1.00  0.00     0.101 C  
HETATM    5  C   UNL     1     -10.422   7.481  70.288  1.00  0.00    -0.227 C  
HETATM    6  C   UNL     1     -10.285   5.981  70.661  1.00  0.00    -0.260 C  
HETATM    7  C   UNL     1     -10.849   8.377  71.462  1.00  0.00    -0.323 C  
HETATM    8  C   UNL     1     -11.435   5.501  71.584  1.00  0.00     0.038 C  
HETATM    9  C   UNL     1     -10.167   9.726  71.298  1.00  0.00     0.191 C  
HETATM   10  C   UNL     1      -8.911   5.898  71.425  1.00  0.00    -0.137 C  
HETATM   11  C   UNL     1      -7.707   6.220  70.502  1.00  0.00    -0.101 C  
HETATM   12  O   UNL     1      -8.755   9.572  71.471  1.00  0.00    -0.257 OA 
HETATM   13  C   UNL     1     -10.494  10.374  69.930  1.00  0.00    -0.266 C  
HETATM   14  C   UNL     1     -12.010  10.729  69.836  1.00  0.00    -0.418 C  
HETATM   15  C   UNL     1      -9.544  11.591  69.734  1.00  0.00     1.256 C  
HETATM   16  C   UNL     1      -7.643   5.277  69.305  1.00  0.00    -0.073 C  
HETATM   17  H   UNL     1      -8.329  10.415  71.369  1.00  0.00     0.000 HD 
HETATM   18  O   UNL     1      -9.026   9.287  68.281  1.00  0.00    -0.129 OA 
HETATM   19  C   UNL     1     -12.248  10.980  68.339  1.00  0.00     0.208 C  
HETATM   20  H   UNL     1      -8.662  10.150  68.119  1.00  0.00     0.000 HD 
HETATM   21  C   UNL     1      -8.883   4.391  69.163  1.00  0.00    -0.132 C  
HETATM   22  C   UNL     1     -10.393   9.404  68.681  1.00  0.00    -0.203 C  
HETATM   23  C   UNL     1     -11.162  10.182  67.597  1.00  0.00    -0.169 C  
ENDROOT
BRANCH  16  24
HETATM   24  O   UNL     1      -7.415   5.906  68.046  1.00  0.00    -0.082 OA 
BRANCH  24  25
HETATM   25  C   UNL     1      -7.719   7.298  67.871  1.00  0.00    -0.113 C  
HETATM   26  O   UNL     1      -5.132   8.981  69.976  1.00  0.00    -0.029 OA 
HETATM   27  C   UNL     1      -5.702   9.488  67.653  1.00  0.00    -0.040 C  
HETATM   28  C   UNL     1      -7.227   8.157  69.033  1.00  0.00    -0.074 C  
HETATM   29  C   UNL     1      -5.762   8.478  68.801  1.00  0.00    -0.040 C  
HETATM   30  O   UNL     1      -7.112   7.626  66.616  1.00  0.00    -0.075 OA 
HETATM   31  C   UNL     1      -6.415   8.862  66.414  1.00  0.00    -0.066 C  
HETATM   32  H   UNL     1      -4.215   9.182  69.831  1.00  0.00     0.000 HD 
HETATM   33  C   UNL     1      -5.422   8.573  65.278  1.00  0.00    -0.035 C  
BRANCH  27  34
HETATM   34  O   UNL     1      -6.424  10.716  67.910  1.00  0.00    -0.058 OA 
BRANCH  34  35
HETATM   35  C   UNL     1      -6.302  11.823  67.022  1.00  0.00    -0.150 C  
HETATM   36  C   UNL     1      -7.632  12.327  66.478  1.00  0.00     0.356 C  
HETATM   37  C   UNL     1      -8.513  12.748  67.645  1.00  0.00    -0.178 C  
HETATM   38  O   UNL     1      -9.788  13.205  67.186  1.00  0.00    -0.226 OA 
HETATM   39  C   UNL     1      -7.823  13.805  68.531  1.00  0.00    -0.132 C  
HETATM   40  O   UNL     1      -5.633  12.899  67.691  1.00  0.00    -0.122 OA 
HETATM   41  C   UNL     1      -6.324  13.485  68.797  1.00  0.00    -0.093 C  
HETATM   42  H   UNL     1     -10.338  13.467  67.914  1.00  0.00     0.000 HD 
HETATM   43  C   UNL     1      -6.027  12.711  70.082  1.00  0.00    -0.138 C  
BRANCH  39  44
HETATM   44  O   UNL     1      -7.832  15.131  67.956  1.00  0.00    -0.119 OA 
BRANCH  44  45
HETATM   45  C   UNL     1      -6.698  15.980  68.134  1.00  0.00    -0.124 C  
HETATM   46  C   UNL     1      -6.109  16.569  66.854  1.00  0.00    -0.116 C  
HETATM   47  C   UNL     1      -7.150  17.464  66.194  1.00  0.00    -0.284 C  
HETATM   48  C   UNL     1      -7.534  18.599  67.147  1.00  0.00    -0.222 C  
HETATM   49  O   UNL     1      -6.612  18.023  64.990  1.00  0.00    -0.246 OA 
HETATM   50  H   UNL     1      -7.261  18.580  64.578  1.00  0.00     0.000 HD 
HETATM   51  O   UNL     1      -6.400  19.477  67.278  1.00  0.00    -0.190 OA 
HETATM   52  C   UNL     1      -7.933  18.056  68.531  1.00  0.00    -0.303 C  
HETATM   53  C   UNL     1      -9.375  17.557  68.573  1.00  0.00    -0.286 C  
HETATM   54  O   UNL     1      -7.034  17.052  69.031  1.00  0.00    -0.209 OA 
HETATM   55  H   UNL     1      -6.639  20.182  67.870  1.00  0.00     0.000 HD 
ENDBRANCH  44  45
ENDBRANCH  39  44
ENDBRANCH  34  35
ENDBRANCH  27  34
ENDBRANCH  24  25
ENDBRANCH  16  24
BRANCH  14  56
HETATM   56  C   UNL     1     -12.623  11.714  70.781  1.00  0.00    -0.365 C  
HETATM   57  C   UNL     1     -13.208  11.417  72.105  1.00  0.00    -0.188 C  
HETATM   58  C   UNL     1     -13.541  13.599  71.596  1.00  0.00    -0.293 C  
HETATM   59  O   UNL     1     -13.729  12.667  72.558  1.00  0.00    -0.471 OA 
HETATM   60  O   UNL     1     -13.906  14.761  71.636  1.00  0.00    -0.379 OA 
HETATM   61  C   UNL     1     -12.836  12.996  70.475  1.00  0.00     0.009 C  
ENDBRANCH  14  56
TORSDOF 7
ENDMDL
MODEL       26
REMARK 921   NORMALIZED FREE ENERGY PREDICTED BY IDOCK:   -1.36 KCAL/MOL
REMARK 922        TOTAL FREE ENERGY PREDICTED BY IDOCK:   -3.75 KCAL/MOL
REMARK 923 INTER-LIGAND FREE ENERGY PREDICTED BY IDOCK:   -4.83 KCAL/MOL
REMARK 924 INTRA-LIGAND FREE ENERGY PREDICTED BY IDOCK:    1.07 KCAL/MOL
REMARK 927      BINDING AFFINITY PREDICTED BY RF-SCORE:    0.00 PKD
ROOT
HETATM    1  C   UNL     1     -12.005  11.278  68.392  1.00  0.00    -0.255 C  
HETATM    2  C   UNL     1     -12.507  11.726  67.012  1.00  0.00     1.683 C  
HETATM    3  C   UNL     1     -11.510  12.550  66.220  1.00  0.00    -0.421 C  
HETATM    4  C   UNL     1     -11.109  13.841  66.952  1.00  0.00    -0.311 C  
HETATM    5  C   UNL     1     -10.717  13.550  68.406  1.00  0.00    -0.273 C  
HETATM    6  C   UNL     1     -11.359  12.409  69.239  1.00  0.00    -0.315 C  
HETATM    7  C   UNL     1     -10.457  14.835  69.207  1.00  0.00    -0.231 C  
HETATM    8  C   UNL     1     -12.468  12.933  70.189  1.00  0.00    -0.144 C  
HETATM    9  C   UNL     1      -9.184  15.474  68.672  1.00  0.00    -0.202 C  
HETATM   10  C   UNL     1     -10.162  11.826  70.080  1.00  0.00     1.507 C  
HETATM   11  C   UNL     1      -9.092  11.149  69.183  1.00  0.00     0.048 C  
HETATM   12  O   UNL     1      -8.064  14.638  68.978  1.00  0.00    -0.158 OA 
HETATM   13  C   UNL     1      -9.275  15.752  67.152  1.00  0.00    -0.224 C  
HETATM   14  C   UNL     1     -10.365  16.827  66.852  1.00  0.00    -0.294 C  
HETATM   15  C   UNL     1      -7.853  16.133  66.646  1.00  0.00    -0.288 C  
HETATM   16  C   UNL     1      -9.685  10.017  68.351  1.00  0.00    -0.146 C  
HETATM   17  H   UNL     1      -7.269  15.038  68.644  1.00  0.00     0.000 HD 
HETATM   18  O   UNL     1      -8.823  13.610  66.028  1.00  0.00    -0.348 OA 
HETATM   19  C   UNL     1     -10.609  16.706  65.339  1.00  0.00    -0.254 C  
HETATM   20  H   UNL     1      -8.077  14.041  65.628  1.00  0.00     0.000 HD 
HETATM   21  C   UNL     1     -11.214   9.953  68.413  1.00  0.00    -0.134 C  
HETATM   22  C   UNL     1      -9.857  14.563  66.281  1.00  0.00    -0.304 C  
HETATM   23  C   UNL     1     -10.215  15.268  64.959  1.00  0.00    -0.324 C  
ENDROOT
BRANCH  16  24
HETATM   24  O   UNL     1      -9.309  10.011  66.976  1.00  0.00    -0.150 OA 
BRANCH  24  25
HETATM   25  C   UNL     1      -8.412   9.005  66.479  1.00  0.00    -0.119 C  
HETATM   26  O   UNL     1      -9.257   8.871  62.842  1.00  0.00    -0.453 OA 
HETATM   27  C   UNL     1      -7.032   9.085  63.833  1.00  0.00    -0.088 C  
HETATM   28  C   UNL     1      -8.923   8.344  65.202  1.00  0.00    -0.005 C  
HETATM   29  C   UNL     1      -8.544   9.223  64.025  1.00  0.00    -0.186 C  
HETATM   30  O   UNL     1      -7.174   9.705  66.308  1.00  0.00    -0.091 OA 
HETATM   31  C   UNL     1      -6.331   9.483  65.169  1.00  0.00    -0.078 C  
HETATM   32  H   UNL     1      -9.020   9.421  62.105  1.00  0.00     0.000 HD 
HETATM   33  C   UNL     1      -5.524  10.781  65.019  1.00  0.00    -0.096 C  
BRANCH  27  34
HETATM   34  O   UNL     1      -6.592   7.730  63.577  1.00  0.00    -0.061 OA 
BRANCH  34  35
HETATM   35  C   UNL     1      -7.453   6.629  63.854  1.00  0.00    -0.094 C  
HETATM   36  C   UNL     1      -7.165   5.394  63.011  1.00  0.00    -0.043 C  
HETATM   37  C   UNL     1      -5.731   4.952  63.261  1.00  0.00    -0.017 C  
HETATM   38  O   UNL     1      -5.402   3.807  62.469  1.00  0.00    -0.005 OA 
HETATM   39  C   UNL     1      -5.463   4.694  64.758  1.00  0.00    -0.013 C  
HETATM   40  O   UNL     1      -7.352   6.282  65.241  1.00  0.00    -0.071 OA 
HETATM   41  C   UNL     1      -6.086   5.782  65.679  1.00  0.00    -0.032 C  
HETATM   42  H   UNL     1      -4.506   3.531  62.625  1.00  0.00     0.000 HD 
HETATM   43  C   UNL     1      -5.161   6.937  66.063  1.00  0.00    -0.022 C  
BRANCH  39  44
HETATM   44  O   UNL     1      -6.005   3.441  65.231  1.00  0.00    -0.021 OA 
BRANCH  44  45
HETATM   45  C   UNL     1      -5.336   2.738  66.279  1.00  0.00    -0.012 C  
HETATM   46  C   UNL     1      -5.208   3.493  67.601  1.00  0.00    -0.008 C  
HETATM   47  C   UNL     1      -6.601   3.762  68.156  1.00  0.00    -0.042 C  
HETATM   48  C   UNL     1      -7.326   2.435  68.396  1.00  0.00    -0.048 C  
HETATM   49  O   UNL     1      -6.497   4.471  69.396  1.00  0.00    -0.033 OA 
HETATM   50  H   UNL     1      -7.365   4.639  69.742  1.00  0.00     0.000 HD 
HETATM   51  O   UNL     1      -6.675   1.759  69.488  1.00  0.00    -0.029 OA 
HETATM   52  C   UNL     1      -7.292   1.545  67.140  1.00  0.00    -0.050 C  
HETATM   53  C   UNL     1      -8.362   1.926  66.121  1.00  0.00    -0.095 C  
HETATM   54  O   UNL     1      -5.998   1.485  66.518  1.00  0.00    -0.018 OA 
HETATM   55  H   UNL     1      -7.126   0.935  69.637  1.00  0.00     0.000 HD 
ENDBRANCH  44  45
ENDBRANCH  39  44
ENDBRANCH  34  35
ENDBRANCH  27  34
ENDBRANCH  24  25
ENDBRANCH  16  24
BRANCH  14  56
HETATM   56  C   UNL     1     -10.240  18.215  67.396  1.00  0.00    -0.383 C  
HETATM   57  C   UNL     1      -9.698  19.393  66.688  1.00  0.00    -0.359 C  
HETATM   58  C   UNL     1     -10.154  19.939  68.838  1.00  0.00    -0.335 C  
HETATM   59  O   UNL     1      -9.715  20.438  67.660  1.00  0.00    -0.406 OA 
HETATM   60  O   UNL     1     -10.250  20.548  69.889  1.00  0.00     0.154 OA 
HETATM   61  C   UNL     1     -10.491  18.534  68.667  1.00  0.00    -0.130 C  
ENDBRANCH  14  56
TORSDOF 7
ENDMDL
MODEL       27
REMARK 921   NORMALIZED FREE ENERGY PREDICTED BY IDOCK:   -0.69 KCAL/MOL
REMARK 922        TOTAL FREE ENERGY PREDICTED BY IDOCK:   -2.82 KCAL/MOL
REMARK 923 INTER-LIGAND FREE ENERGY PREDICTED BY IDOCK:   -3.59 KCAL/MOL
REMARK 924 INTRA-LIGAND FREE ENERGY PREDICTED BY IDOCK:    0.77 KCAL/MOL
REMARK 927      BINDING AFFINITY PREDICTED BY RF-SCORE:    0.00 PKD
ROOT
HETATM    1  C   UNL     1     -11.384  15.090  65.265  1.00  0.00    -0.349 C  
HETATM    2  C   UNL     1     -10.045  14.608  64.688  1.00  0.00     0.146 C  
HETATM    3  C   UNL     1      -9.030  14.184  65.732  1.00  0.00     0.645 C  
HETATM    4  C   UNL     1      -8.675  15.327  66.697  1.00  0.00    -0.327 C  
HETATM    5  C   UNL     1      -9.941  15.999  67.243  1.00  0.00    -0.242 C  
HETATM    6  C   UNL     1     -11.252  16.120  66.421  1.00  0.00     0.220 C  
HETATM    7  C   UNL     1      -9.622  17.240  68.091  1.00  0.00    -0.283 C  
HETATM    8  C   UNL     1     -11.410  17.523  65.779  1.00  0.00     1.058 C  
HETATM    9  C   UNL     1      -8.950  16.774  69.374  1.00  0.00     0.142 C  
HETATM   10  C   UNL     1     -12.393  15.880  67.479  1.00  0.00     1.373 C  
HETATM   11  C   UNL     1     -12.375  14.435  68.043  1.00  0.00     0.001 C  
HETATM   12  O   UNL     1      -9.888  16.040  70.166  1.00  0.00    -0.020 OA 
HETATM   13  C   UNL     1      -7.682  15.932  69.086  1.00  0.00    -0.220 C  
HETATM   14  C   UNL     1      -6.583  16.805  68.406  1.00  0.00    -0.149 C  
HETATM   15  C   UNL     1      -7.231  15.271  70.420  1.00  0.00     0.436 C  
HETATM   16  C   UNL     1     -12.524  13.394  66.937  1.00  0.00    -0.058 C  
HETATM   17  H   UNL     1      -9.468  15.749  70.968  1.00  0.00     0.000 HD 
HETATM   18  O   UNL     1      -8.468  13.669  68.525  1.00  0.00    -0.210 OA 
HETATM   19  C   UNL     1      -5.585  15.783  67.839  1.00  0.00    -0.156 C  
HETATM   20  H   UNL     1      -7.973  13.370  69.279  1.00  0.00     0.000 HD 
HETATM   21  C   UNL     1     -12.430  13.987  65.528  1.00  0.00    -0.533 C  
HETATM   22  C   UNL     1      -7.846  14.827  67.963  1.00  0.00    -0.130 C  
HETATM   23  C   UNL     1      -6.384  14.487  67.620  1.00  0.00    -0.128 C  
ENDROOT
BRANCH  16  24
HETATM   24  O   UNL     1     -11.615  12.299  67.006  1.00  0.00    -0.335 OA 
BRANCH  24  25
HETATM   25  C   UNL     1     -10.877  12.050  68.213  1.00  0.00    -0.229 C  
HETATM   26  O   UNL     1     -12.639   9.093  69.665  1.00  0.00     0.672 OA 
HETATM   27  C   UNL     1     -10.234   9.350  69.312  1.00  0.00    -0.202 C  
HETATM   28  C   UNL     1     -11.702  11.310  69.263  1.00  0.00    -0.403 C  
HETATM   29  C   UNL     1     -11.643   9.825  68.955  1.00  0.00     0.243 C  
HETATM   30  O   UNL     1      -9.727  11.321  67.767  1.00  0.00    -0.169 OA 
HETATM   31  C   UNL     1      -9.210  10.203  68.500  1.00  0.00    -0.144 C  
HETATM   32  H   UNL     1     -12.603   8.163  69.472  1.00  0.00     0.000 HD 
HETATM   33  C   UNL     1      -8.472   9.355  67.454  1.00  0.00    -0.125 C  
BRANCH  27  34
HETATM   34  O   UNL     1      -9.873   9.565  70.698  1.00  0.00    -0.263 OA 
BRANCH  34  35
HETATM   35  C   UNL     1     -10.006   8.511  71.648  1.00  0.00    -0.259 C  
HETATM   36  C   UNL     1     -10.783   7.308  71.130  1.00  0.00    -0.244 C  
HETATM   37  C   UNL     1     -10.072   6.756  69.903  1.00  0.00    -0.180 C  
HETATM   38  O   UNL     1     -10.780   5.638  69.361  1.00  0.00    -0.297 OA 
HETATM   39  C   UNL     1      -8.603   6.398  70.204  1.00  0.00    -0.135 C  
HETATM   40  O   UNL     1      -8.706   8.081  72.069  1.00  0.00    -0.122 OA 
HETATM   41  C   UNL     1      -7.885   7.473  71.069  1.00  0.00    -0.091 C  
HETATM   42  H   UNL     1     -10.337   5.293  68.594  1.00  0.00     0.000 HD 
HETATM   43  C   UNL     1      -7.108   8.539  70.295  1.00  0.00    -0.043 C  
BRANCH  39  44
HETATM   44  O   UNL     1      -8.451   5.160  70.934  1.00  0.00    -0.114 OA 
BRANCH  44  45
HETATM   45  C   UNL     1      -8.865   5.096  72.300  1.00  0.00    -0.129 C  
HETATM   46  C   UNL     1      -9.974   4.092  72.606  1.00  0.00    -0.214 C  
HETATM   47  C   UNL     1      -9.471   2.688  72.298  1.00  0.00    -0.107 C  
HETATM   48  C   UNL     1      -8.248   2.376  73.166  1.00  0.00    -0.065 C  
HETATM   49  O   UNL     1     -10.502   1.733  72.579  1.00  0.00    -0.150 OA 
HETATM   50  H   UNL     1     -10.189   0.858  72.387  1.00  0.00     0.000 HD 
HETATM   51  O   UNL     1      -8.685   2.263  74.533  1.00  0.00    -0.068 OA 
HETATM   52  C   UNL     1      -7.185   3.483  73.051  1.00  0.00    -0.054 C  
HETATM   53  C   UNL     1      -6.316   3.336  71.804  1.00  0.00    -0.015 C  
HETATM   54  O   UNL     1      -7.730   4.809  73.134  1.00  0.00    -0.090 OA 
HETATM   55  H   UNL     1      -7.926   2.069  75.071  1.00  0.00     0.000 HD 
ENDBRANCH  44  45
ENDBRANCH  39  44
ENDBRANCH  34  35
ENDBRANCH  27  34
ENDBRANCH  24  25
ENDBRANCH  16  24
BRANCH  14  56
HETATM   56  C   UNL     1      -5.997  17.984  69.116  1.00  0.00    -0.225 C  
HETATM   57  C   UNL     1      -5.535  18.027  70.518  1.00  0.00    -0.243 C  
HETATM   58  C   UNL     1      -5.408  20.098  69.610  1.00  0.00    -0.235 C  
HETATM   59  O   UNL     1      -5.151  19.386  70.731  1.00  0.00    -0.187 OA 
HETATM   60  O   UNL     1      -5.241  21.297  69.463  1.00  0.00    -0.344 OA 
HETATM   61  C   UNL     1      -5.938  19.209  68.588  1.00  0.00    -0.235 C  
ENDBRANCH  14  56
TORSDOF 7
ENDMDL
MODEL       28
REMARK 921   NORMALIZED FREE ENERGY PREDICTED BY IDOCK:    0.34 KCAL/MOL
REMARK 922        TOTAL FREE ENERGY PREDICTED BY IDOCK:   -1.36 KCAL/MOL
REMARK 923 INTER-LIGAND FREE ENERGY PREDICTED BY IDOCK:   -6.24 KCAL/MOL
REMARK 924 INTRA-LIGAND FREE ENERGY PREDICTED BY IDOCK:    4.88 KCAL/MOL
REMARK 927      BINDING AFFINITY PREDICTED BY RF-SCORE:    0.00 PKD
ROOT
HETATM    1  C   UNL     1      -6.372   8.713  69.962  1.00  0.00    -0.034 C  
HETATM    2  C   UNL     1      -5.160   8.970  69.056  1.00  0.00    -0.037 C  
HETATM    3  C   UNL     1      -5.503   9.167  67.592  1.00  0.00    -0.034 C  
HETATM    4  C   UNL     1      -6.214   7.944  66.990  1.00  0.00    -0.054 C  
HETATM    5  C   UNL     1      -7.374   7.488  67.884  1.00  0.00    -0.099 C  
HETATM    6  C   UNL     1      -7.355   7.633  69.429  1.00  0.00    -0.087 C  
HETATM    7  C   UNL     1      -8.011   6.180  67.390  1.00  0.00    -0.105 C  
HETATM    8  C   UNL     1      -6.974   6.306  70.135  1.00  0.00    -0.066 C  
HETATM    9  C   UNL     1      -8.732   6.470  66.082  1.00  0.00    -0.147 C  
HETATM   10  C   UNL     1      -8.833   8.033  69.797  1.00  0.00    -0.144 C  
HETATM   11  C   UNL     1      -9.217   9.430  69.242  1.00  0.00    -0.159 C  
HETATM   12  O   UNL     1      -9.848   7.330  66.332  1.00  0.00    -0.378 OA 
HETATM   13  C   UNL     1      -7.781   7.083  65.025  1.00  0.00    -0.115 C  
HETATM   14  C   UNL     1      -6.686   6.055  64.606  1.00  0.00    -0.046 C  
HETATM   15  C   UNL     1      -8.648   7.604  63.842  1.00  0.00     0.410 C  
HETATM   16  C   UNL     1      -8.286  10.521  69.761  1.00  0.00     0.071 C  
HETATM   17  H   UNL     1     -10.298   7.511  65.515  1.00  0.00     0.000 HD 
HETATM   18  O   UNL     1      -7.568   9.470  65.587  1.00  0.00    -0.097 OA 
HETATM   19  C   UNL     1      -5.624   6.903  63.888  1.00  0.00    -0.032 C  
HETATM   20  H   UNL     1      -7.939   9.647  64.730  1.00  0.00     0.000 HD 
HETATM   21  C   UNL     1      -7.069   9.974  70.513  1.00  0.00    -0.080 C  
HETATM   22  C   UNL     1      -6.838   8.242  65.555  1.00  0.00    -0.066 C  
HETATM   23  C   UNL     1      -5.770   8.328  64.448  1.00  0.00    -0.059 C  
ENDROOT
BRANCH  16  24
HETATM   24  O   UNL     1      -7.810  11.434  68.776  1.00  0.00    -0.136 OA 
BRANCH  24  25
HETATM   25  C   UNL     1      -8.558  12.621  68.472  1.00  0.00    -0.051 C  
HETATM   26  O   UNL     1      -9.572  12.070  64.918  1.00  0.00    -0.415 OA 
HETATM   27  C   UNL     1     -11.016  12.720  66.780  1.00  0.00    -0.270 C  
HETATM   28  C   UNL     1      -8.584  12.931  66.977  1.00  0.00    -0.171 C  
HETATM   29  C   UNL     1      -9.686  12.107  66.338  1.00  0.00    -0.231 C  
HETATM   30  O   UNL     1      -9.853  12.361  69.027  1.00  0.00     0.052 OA 
HETATM   31  C   UNL     1     -11.057  12.727  68.340  1.00  0.00    -0.262 C  
HETATM   32  H   UNL     1     -10.262  11.555  64.518  1.00  0.00     0.000 HD 
HETATM   33  C   UNL     1     -12.126  11.765  68.881  1.00  0.00    -0.238 C  
BRANCH  27  34
HETATM   34  O   UNL     1     -11.179  14.108  66.404  1.00  0.00    -0.315 OA 
BRANCH  34  35
HETATM   35  C   UNL     1     -11.642  15.063  67.355  1.00  0.00    -0.291 C  
HETATM   36  C   UNL     1     -10.633  15.381  68.450  1.00  0.00    -0.247 C  
HETATM   37  C   UNL     1      -9.365  15.924  67.808  1.00  0.00    -0.207 C  
HETATM   38  O   UNL     1      -8.373  16.212  68.797  1.00  0.00    -0.203 OA 
HETATM   39  C   UNL     1      -9.652  17.155  66.925  1.00  0.00    -0.262 C  
HETATM   40  O   UNL     1     -11.995  16.277  66.680  1.00  0.00     1.036 OA 
HETATM   41  C   UNL     1     -10.926  16.985  66.049  1.00  0.00     0.161 C  
HETATM   42  H   UNL     1      -7.581  16.552  68.397  1.00  0.00     0.000 HD 
HETATM   43  C   UNL     1     -10.693  16.451  64.634  1.00  0.00     0.080 C  
BRANCH  39  44
HETATM   44  O   UNL     1      -9.870  18.366  67.681  1.00  0.00    -0.295 OA 
BRANCH  44  45
HETATM   45  C   UNL     1      -9.110  19.535  67.371  1.00  0.00    -0.309 C  
HETATM   46  C   UNL     1      -8.205  20.048  68.488  1.00  0.00    -0.092 C  
HETATM   47  C   UNL     1      -7.157  18.990  68.805  1.00  0.00    -0.318 C  
HETATM   48  C   UNL     1      -6.315  18.708  67.558  1.00  0.00    -0.195 C  
HETATM   49  O   UNL     1      -6.301  19.457  69.854  1.00  0.00    -0.286 OA 
HETATM   50  H   UNL     1      -5.647  18.797  70.052  1.00  0.00     0.000 HD 
HETATM   51  O   UNL     1      -5.515  19.873  67.284  1.00  0.00    -0.166 OA 
HETATM   52  C   UNL     1      -7.205  18.392  66.342  1.00  0.00    -0.243 C  
HETATM   53  C   UNL     1      -7.684  16.943  66.325  1.00  0.00    -0.332 C  
HETATM   54  O   UNL     1      -8.314  19.294  66.198  1.00  0.00    -0.331 OA 
HETATM   55  H   UNL     1      -4.992  19.698  66.510  1.00  0.00     0.000 HD 
ENDBRANCH  44  45
ENDBRANCH  39  44
ENDBRANCH  34  35
ENDBRANCH  27  34
ENDBRANCH  24  25
ENDBRANCH  16  24
BRANCH  14  56
HETATM   56  C   UNL     1      -7.062   4.764  63.948  1.00  0.00    -0.049 C  
HETATM   57  C   UNL     1      -7.421   4.572  62.528  1.00  0.00    -0.044 C  
HETATM   58  C   UNL     1      -7.705   2.629  63.657  1.00  0.00    -0.068 C  
HETATM   59  O   UNL     1      -7.778   3.193  62.429  1.00  0.00    -0.055 OA 
HETATM   60  O   UNL     1      -7.986   1.477  63.939  1.00  0.00    -0.059 OA 
HETATM   61  C   UNL     1      -7.247   3.624  64.615  1.00  0.00    -0.066 C  
ENDBRANCH  14  56
TORSDOF 7
ENDMDL
MODEL       29
REMARK 921   NORMALIZED FREE ENERGY PREDICTED BY IDOCK:    0.86 KCAL/MOL
REMARK 922        TOTAL FREE ENERGY PREDICTED BY IDOCK:   -0.63 KCAL/MOL
REMARK 923 INTER-LIGAND FREE ENERGY PREDICTED BY IDOCK:   -4.77 KCAL/MOL
REMARK 924 INTRA-LIGAND FREE ENERGY PREDICTED BY IDOCK:    4.15 KCAL/MOL
REMARK 927      BINDING AFFINITY PREDICTED BY RF-SCORE:    0.00 PKD
ROOT
HETATM    1  C   UNL     1      -8.286  11.260  65.431  1.00  0.00     0.262 C  
HETATM    2  C   UNL     1      -9.170  10.488  64.441  1.00  0.00    -0.281 C  
HETATM    3  C   UNL     1      -9.784   9.222  65.006  1.00  0.00     0.105 C  
HETATM    4  C   UNL     1      -8.719   8.217  65.476  1.00  0.00    -0.173 C  
HETATM    5  C   UNL     1      -7.676   8.900  66.369  1.00  0.00    -0.095 C  
HETATM    6  C   UNL     1      -7.251  10.381  66.188  1.00  0.00    -0.131 C  
HETATM    7  C   UNL     1      -6.516   7.960  66.733  1.00  0.00    -0.055 C  
HETATM    8  C   UNL     1      -5.914  10.514  65.413  1.00  0.00    -0.129 C  
HETATM    9  C   UNL     1      -7.054   6.884  67.663  1.00  0.00    -0.085 C  
HETATM   10  C   UNL     1      -7.076  10.915  67.658  1.00  0.00    -0.087 C  
HETATM   11  C   UNL     1      -8.420  10.949  68.433  1.00  0.00    -0.141 C  
HETATM   12  O   UNL     1      -7.430   7.476  68.911  1.00  0.00    -0.092 OA 
HETATM   13  C   UNL     1      -8.241   6.116  67.030  1.00  0.00    -0.106 C  
HETATM   14  C   UNL     1      -7.770   5.305  65.784  1.00  0.00    -0.091 C  
HETATM   15  C   UNL     1      -8.900   5.248  68.140  1.00  0.00    -0.107 C  
HETATM   16  C   UNL     1      -9.456  11.820  67.730  1.00  0.00    -0.181 C  
HETATM   17  H   UNL     1      -7.766   6.803  69.492  1.00  0.00     0.000 HD 
HETATM   18  O   UNL     1     -10.224   7.543  67.323  1.00  0.00    -0.211 OA 
HETATM   19  C   UNL     1      -9.073   4.938  65.057  1.00  0.00    -0.133 C  
HETATM   20  H   UNL     1     -10.593   6.831  67.832  1.00  0.00     0.000 HD 
HETATM   21  C   UNL     1      -9.024  12.271  66.332  1.00  0.00    -0.117 C  
HETATM   22  C   UNL     1      -9.337   7.023  66.331  1.00  0.00    -0.138 C  
HETATM   23  C   UNL     1     -10.102   6.005  65.465  1.00  0.00     0.785 C  
ENDROOT
BRANCH  16  24
HETATM   24  O   UNL     1     -10.756  11.247  67.616  1.00  0.00    -0.201 OA 
BRANCH  24  25
HETATM   25  C   UNL     1     -11.113  10.106  68.411  1.00  0.00    -0.218 C  
HETATM   26  O   UNL     1      -8.480  10.091  71.061  1.00  0.00    -0.202 OA 
HETATM   27  C   UNL     1     -10.898   9.945  71.385  1.00  0.00     0.058 C  
HETATM   28  C   UNL     1      -9.924   9.530  69.176  1.00  0.00    -0.185 C  
HETATM   29  C   UNL     1      -9.747  10.329  70.454  1.00  0.00     0.382 C  
HETATM   30  O   UNL     1     -12.160  10.593  69.259  1.00  0.00    -0.259 OA 
HETATM   31  C   UNL     1     -12.242  10.230  70.644  1.00  0.00    -0.329 C  
HETATM   32  H   UNL     1      -8.368  10.591  71.861  1.00  0.00     0.000 HD 
HETATM   33  C   UNL     1     -13.019  11.378  71.305  1.00  0.00    -0.415 C  
BRANCH  27  34
HETATM   34  O   UNL     1     -10.950   8.535  71.707  1.00  0.00    -0.261 OA 
BRANCH  34  35
HETATM   35  C   UNL     1      -9.972   7.640  71.185  1.00  0.00    -0.177 C  
HETATM   36  C   UNL     1      -8.858   7.302  72.167  1.00  0.00    -0.143 C  
HETATM   37  C   UNL     1      -9.471   6.667  73.406  1.00  0.00    -0.144 C  
HETATM   38  O   UNL     1      -8.465   6.356  74.374  1.00  0.00    -0.123 OA 
HETATM   39  C   UNL     1     -10.316   5.425  73.055  1.00  0.00    -0.197 C  
HETATM   40  O   UNL     1     -10.610   6.427  70.767  1.00  0.00    -0.220 OA 
HETATM   41  C   UNL     1     -11.208   5.638  71.799  1.00  0.00    -0.158 C  
HETATM   42  H   UNL     1      -8.848   5.959  75.148  1.00  0.00     0.000 HD 
HETATM   43  C   UNL     1     -12.637   6.110  72.071  1.00  0.00     0.077 C  
BRANCH  39  44
HETATM   44  O   UNL     1      -9.522   4.254  72.763  1.00  0.00    -0.122 OA 
BRANCH  44  45
HETATM   45  C   UNL     1      -8.495   4.332  71.773  1.00  0.00    -0.105 C  
HETATM   46  C   UNL     1      -7.093   3.962  72.249  1.00  0.00    -0.051 C  
HETATM   47  C   UNL     1      -7.085   2.503  72.687  1.00  0.00    -0.031 C  
HETATM   48  C   UNL     1      -7.474   1.608  71.507  1.00  0.00    -0.036 C  
HETATM   49  O   UNL     1      -5.774   2.141  73.138  1.00  0.00     0.000 OA 
HETATM   50  H   UNL     1      -5.769   1.232  73.411  1.00  0.00     0.000 HD 
HETATM   51  O   UNL     1      -6.410   1.654  70.538  1.00  0.00    -0.022 OA 
HETATM   52  C   UNL     1      -8.787   2.081  70.856  1.00  0.00    -0.068 C  
HETATM   53  C   UNL     1     -10.024   1.596  71.610  1.00  0.00    -0.207 C  
HETATM   54  O   UNL     1      -8.843   3.502  70.652  1.00  0.00    -0.071 OA 
HETATM   55  H   UNL     1      -6.651   1.098  69.806  1.00  0.00     0.000 HD 
ENDBRANCH  44  45
ENDBRANCH  39  44
ENDBRANCH  34  35
ENDBRANCH  27  34
ENDBRANCH  24  25
ENDBRANCH  16  24
BRANCH  14  56
HETATM   56  C   UNL     1      -6.755   4.214  65.922  1.00  0.00    -0.049 C  
HETATM   57  C   UNL     1      -5.889   3.677  64.852  1.00  0.00    -0.022 C  
HETATM   58  C   UNL     1      -5.604   2.466  66.745  1.00  0.00    -0.018 C  
HETATM   59  O   UNL     1      -5.175   2.605  65.469  1.00  0.00    -0.008 OA 
HETATM   60  O   UNL     1      -5.236   1.619  67.541  1.00  0.00    -0.011 OA 
HETATM   61  C   UNL     1      -6.598   3.489  67.031  1.00  0.00    -0.038 C  
ENDBRANCH  14  56
TORSDOF 7
ENDMDL
MODEL       30
REMARK 921   NORMALIZED FREE ENERGY PREDICTED BY IDOCK:    1.53 KCAL/MOL
REMARK 922        TOTAL FREE ENERGY PREDICTED BY IDOCK:    0.32 KCAL/MOL
REMARK 923 INTER-LIGAND FREE ENERGY PREDICTED BY IDOCK:   -5.75 KCAL/MOL
REMARK 924 INTRA-LIGAND FREE ENERGY PREDICTED BY IDOCK:    6.07 KCAL/MOL
REMARK 927      BINDING AFFINITY PREDICTED BY RF-SCORE:    0.00 PKD
ROOT
HETATM    1  C   UNL     1     -10.300   7.645  66.601  1.00  0.00    -0.258 C  
HETATM    2  C   UNL     1     -10.589   8.296  67.961  1.00  0.00    -0.188 C  
HETATM    3  C   UNL     1      -9.387   8.382  68.882  1.00  0.00    -0.147 C  
HETATM    4  C   UNL     1      -8.799   6.998  69.205  1.00  0.00    -0.135 C  
HETATM    5  C   UNL     1      -8.593   6.177  67.926  1.00  0.00    -0.114 C  
HETATM    6  C   UNL     1      -9.514   6.306  66.684  1.00  0.00    -0.178 C  
HETATM    7  C   UNL     1      -8.149   4.736  68.224  1.00  0.00    -0.085 C  
HETATM    8  C   UNL     1     -10.571   5.173  66.621  1.00  0.00    -0.295 C  
HETATM    9  C   UNL     1      -6.736   4.784  68.785  1.00  0.00    -0.050 C  
HETATM   10  C   UNL     1      -8.529   6.193  65.460  1.00  0.00    -0.149 C  
HETATM   11  C   UNL     1      -7.545   7.389  65.388  1.00  0.00    -0.096 C  
HETATM   12  O   UNL     1      -5.833   5.225  67.767  1.00  0.00    -0.016 OA 
HETATM   13  C   UNL     1      -6.645   5.687  70.040  1.00  0.00    -0.043 C  
HETATM   14  C   UNL     1      -7.473   5.081  71.215  1.00  0.00    -0.082 C  
HETATM   15  C   UNL     1      -5.140   5.903  70.370  1.00  0.00    -0.009 C  
HETATM   16  C   UNL     1      -8.280   8.722  65.285  1.00  0.00    -0.144 C  
HETATM   17  H   UNL     1      -4.950   5.255  68.117  1.00  0.00     0.000 HD 
HETATM   18  O   UNL     1      -6.537   8.004  69.221  1.00  0.00    -0.035 OA 
HETATM   19  C   UNL     1      -7.612   6.239  72.217  1.00  0.00    -0.095 C  
HETATM   20  H   UNL     1      -5.690   8.057  69.648  1.00  0.00     0.000 HD 
HETATM   21  C   UNL     1      -9.791   8.600  65.502  1.00  0.00     0.369 C  
HETATM   22  C   UNL     1      -7.379   7.087  69.921  1.00  0.00    -0.085 C  
HETATM   23  C   UNL     1      -7.481   7.531  71.392  1.00  0.00    -0.079 C  
ENDROOT
BRANCH  16  24
HETATM   24  O   UNL     1      -7.801   9.750  66.148  1.00  0.00    -0.104 OA 
BRANCH  24  25
HETATM   25  C   UNL     1      -8.701  10.408  67.052  1.00  0.00    -0.130 C  
HETATM   26  O   UNL     1      -6.939  13.622  67.776  1.00  0.00    -0.130 OA 
HETATM   27  C   UNL     1      -9.267  13.339  67.088  1.00  0.00    -0.235 C  
HETATM   28  C   UNL     1      -7.995  11.428  67.942  1.00  0.00    -0.120 C  
HETATM   29  C   UNL     1      -7.868  12.728  67.169  1.00  0.00    -0.092 C  
HETATM   30  O   UNL     1      -9.691  10.984  66.192  1.00  0.00    -0.202 OA 
HETATM   31  C   UNL     1     -10.218  12.298  66.419  1.00  0.00    -0.225 C  
HETATM   32  H   UNL     1      -6.858  14.435  67.292  1.00  0.00     0.000 HD 
HETATM   33  C   UNL     1     -10.695  12.774  65.038  1.00  0.00    -0.321 C  
BRANCH  27  34
HETATM   34  O   UNL     1      -9.868  13.609  68.377  1.00  0.00    -0.225 OA 
BRANCH  34  35
HETATM   35  C   UNL     1     -10.604  14.810  68.591  1.00  0.00    -0.255 C  
HETATM   36  C   UNL     1     -10.026  15.700  69.684  1.00  0.00    -0.290 C  
HETATM   37  C   UNL     1      -8.600  16.075  69.310  1.00  0.00    -0.224 C  
HETATM   38  O   UNL     1      -8.002  16.891  70.321  1.00  0.00     1.726 OA 
HETATM   39  C   UNL     1      -8.529  16.754  67.927  1.00  0.00    -0.200 C  
HETATM   40  O   UNL     1     -10.668  15.555  67.368  1.00  0.00    -0.290 OA 
HETATM   41  C   UNL     1      -9.426  16.056  66.865  1.00  0.00    -0.226 C  
HETATM   42  H   UNL     1      -7.112  17.125  70.089  1.00  0.00     0.000 HD 
HETATM   43  C   UNL     1      -8.736  14.999  66.002  1.00  0.00     0.279 C  
BRANCH  39  44
HETATM   44  O   UNL     1      -8.961  18.132  67.941  1.00  0.00    -0.260 OA 
BRANCH  44  45
HETATM   45  C   UNL     1      -7.991  19.170  68.085  1.00  0.00    -0.304 C  
HETATM   46  C   UNL     1      -6.674  18.948  67.344  1.00  0.00    -0.205 C  
HETATM   47  C   UNL     1      -6.949  18.894  65.847  1.00  0.00    -0.269 C  
HETATM   48  C   UNL     1      -7.574  20.214  65.389  1.00  0.00     0.010 C  
HETATM   49  O   UNL     1      -5.722  18.684  65.139  1.00  0.00    -0.198 OA 
HETATM   50  H   UNL     1      -5.893  18.649  64.205  1.00  0.00     0.000 HD 
HETATM   51  O   UNL     1      -6.572  21.243  65.489  1.00  0.00    -0.491 OA 
HETATM   52  C   UNL     1      -8.790  20.588  66.256  1.00  0.00     0.105 C  
HETATM   53  C   UNL     1     -10.061  19.858  65.830  1.00  0.00    -0.519 C  
HETATM   54  O   UNL     1      -8.558  20.423  67.664  1.00  0.00    -0.303 OA 
HETATM   55  H   UNL     1      -6.960  22.063  65.205  1.00  0.00     0.000 HD 
ENDBRANCH  44  45
ENDBRANCH  39  44
ENDBRANCH  34  35
ENDBRANCH  27  34
ENDBRANCH  24  25
ENDBRANCH  16  24
BRANCH  14  56
HETATM   56  C   UNL     1      -7.120   3.745  71.789  1.00  0.00    -0.038 C  
HETATM   57  C   UNL     1      -7.450   2.425  71.213  1.00  0.00    -0.033 C  
HETATM   58  C   UNL     1      -6.473   2.151  73.238  1.00  0.00    -0.013 C  
HETATM   59  O   UNL     1      -6.975   1.482  72.174  1.00  0.00    -0.021 OA 
HETATM   60  O   UNL     1      -6.025   1.654  74.256  1.00  0.00    -0.003 OA 
HETATM   61  C   UNL     1      -6.561   3.582  72.989  1.00  0.00    -0.033 C  
ENDBRANCH  14  56
TORSDOF 7
ENDMDL
MODEL       31
REMARK 921   NORMALIZED FREE ENERGY PREDICTED BY IDOCK:    1.59 KCAL/MOL
REMARK 922        TOTAL FREE ENERGY PREDICTED BY IDOCK:    0.40 KCAL/MOL
REMARK 923 INTER-LIGAND FREE ENERGY PREDICTED BY IDOCK:   -2.38 KCAL/MOL
REMARK 924 INTRA-LIGAND FREE ENERGY PREDICTED BY IDOCK:    2.78 KCAL/MOL
REMARK 927      BINDING AFFINITY PREDICTED BY RF-SCORE:    0.00 PKD
ROOT
HETATM    1  C   UNL     1     -10.161  10.545  70.297  1.00  0.00     0.201 C  
HETATM    2  C   UNL     1      -8.772  10.920  69.763  1.00  0.00     0.575 C  
HETATM    3  C   UNL     1      -8.328  10.119  68.554  1.00  0.00    -0.116 C  
HETATM    4  C   UNL     1      -8.264   8.610  68.847  1.00  0.00    -0.123 C  
HETATM    5  C   UNL     1      -9.553   8.127  69.523  1.00  0.00    -0.168 C  
HETATM    6  C   UNL     1     -10.390   9.019  70.477  1.00  0.00    -0.266 C  
HETATM    7  C   UNL     1      -9.462   6.657  69.964  1.00  0.00    -0.161 C  
HETATM    8  C   UNL     1     -10.105   8.705  71.969  1.00  0.00    -0.401 C  
HETATM    9  C   UNL     1      -9.431   5.790  68.715  1.00  0.00    -0.124 C  
HETATM   10  C   UNL     1     -11.883   8.661  70.127  1.00  0.00     0.284 C  
HETATM   11  C   UNL     1     -12.268   9.095  68.689  1.00  0.00     2.979 C  
HETATM   12  O   UNL     1     -10.691   5.876  68.042  1.00  0.00    -0.250 OA 
HETATM   13  C   UNL     1      -8.267   6.181  67.772  1.00  0.00    -0.117 C  
HETATM   14  C   UNL     1      -6.890   5.885  68.444  1.00  0.00    -0.066 C  
HETATM   15  C   UNL     1      -8.480   5.450  66.415  1.00  0.00    -0.114 C  
HETATM   16  C   UNL     1     -12.077  10.595  68.480  1.00  0.00     0.292 C  
HETATM   17  H   UNL     1     -10.671   5.334  67.261  1.00  0.00     0.000 HD 
HETATM   18  O   UNL     1      -9.019   8.168  66.530  1.00  0.00    -0.141 OA 
HETATM   19  C   UNL     1      -5.877   6.666  67.591  1.00  0.00    -0.020 C  
HETATM   20  H   UNL     1      -8.914   7.647  65.742  1.00  0.00     0.000 HD 
HETATM   21  C   UNL     1     -11.347  11.281  69.638  1.00  0.00    -0.359 C  
HETATM   22  C   UNL     1      -8.089   7.737  67.526  1.00  0.00    -0.124 C  
HETATM   23  C   UNL     1      -6.666   7.817  66.943  1.00  0.00    -0.067 C  
ENDROOT
BRANCH  16  24
HETATM   24  O   UNL     1     -11.413  10.961  67.274  1.00  0.00    -0.458 OA 
BRANCH  24  25
HETATM   25  C   UNL     1     -10.577  12.128  67.237  1.00  0.00    -0.227 C  
HETATM   26  O   UNL     1     -12.148  14.183  64.541  1.00  0.00    -0.430 OA 
HETATM   27  C   UNL     1     -11.538  14.920  66.791  1.00  0.00    -0.269 C  
HETATM   28  C   UNL     1     -10.619  12.837  65.886  1.00  0.00    -0.295 C  
HETATM   29  C   UNL     1     -11.837  13.743  65.860  1.00  0.00    -0.383 C  
HETATM   30  O   UNL     1     -11.061  12.930  68.321  1.00  0.00    -0.237 OA 
HETATM   31  C   UNL     1     -11.203  14.352  68.206  1.00  0.00    -0.275 C  
HETATM   32  H   UNL     1     -12.909  14.750  64.524  1.00  0.00     0.000 HD 
HETATM   33  C   UNL     1     -12.283  14.723  69.232  1.00  0.00    -0.234 C  
BRANCH  27  34
HETATM   34  O   UNL     1     -10.366  15.684  66.417  1.00  0.00    -0.276 OA 
BRANCH  34  35
HETATM   35  C   UNL     1     -10.470  16.743  65.468  1.00  0.00    -0.237 C  
HETATM   36  C   UNL     1     -11.125  18.002  66.020  1.00  0.00     0.523 C  
HETATM   37  C   UNL     1     -10.312  18.501  67.204  1.00  0.00    -0.399 C  
HETATM   38  O   UNL     1     -10.904  19.671  67.776  1.00  0.00    -0.394 OA 
HETATM   39  C   UNL     1      -8.837  18.747  66.824  1.00  0.00    -0.305 C  
HETATM   40  O   UNL     1      -9.165  17.072  64.977  1.00  0.00     0.913 OA 
HETATM   41  C   UNL     1      -8.249  17.619  65.929  1.00  0.00     0.026 C  
HETATM   42  H   UNL     1     -10.396  19.983  68.516  1.00  0.00     0.000 HD 
HETATM   43  C   UNL     1      -7.515  16.499  66.668  1.00  0.00    -0.296 C  
BRANCH  39  44
HETATM   44  O   UNL     1      -8.632  19.968  66.080  1.00  0.00    -0.341 OA 
BRANCH  44  45
HETATM   45  C   UNL     1      -8.071  21.105  66.737  1.00  0.00     0.505 C  
HETATM   46  C   UNL     1      -8.043  21.037  68.262  1.00  0.00     0.713 C  
HETATM   47  C   UNL     1      -7.155  19.877  68.692  1.00  0.00    -0.303 C  
HETATM   48  C   UNL     1      -5.733  20.094  68.167  1.00  0.00    -0.226 C  
HETATM   49  O   UNL     1      -7.120  19.799  70.122  1.00  0.00    -0.109 OA 
HETATM   50  H   UNL     1      -6.566  19.076  70.390  1.00  0.00     0.000 HD 
HETATM   51  O   UNL     1      -5.160  21.210  68.873  1.00  0.00    -0.385 OA 
HETATM   52  C   UNL     1      -5.734  20.382  66.654  1.00  0.00    -0.175 C  
HETATM   53  C   UNL     1      -5.832  19.111  65.814  1.00  0.00    -0.198 C  
HETATM   54  O   UNL     1      -6.736  21.331  66.255  1.00  0.00    -0.156 OA 
HETATM   55  H   UNL     1      -4.277  21.345  68.546  1.00  0.00     0.000 HD 
ENDBRANCH  44  45
ENDBRANCH  39  44
ENDBRANCH  34  35
ENDBRANCH  27  34
ENDBRANCH  24  25
ENDBRANCH  16  24
BRANCH  14  56
HETATM   56  C   UNL     1      -6.508   4.488  68.818  1.00  0.00    -0.037 C  
HETATM   57  C   UNL     1      -6.032   3.431  67.902  1.00  0.00    -0.027 C  
HETATM   58  C   UNL     1      -6.294   2.577  69.984  1.00  0.00    -0.028 C  
HETATM   59  O   UNL     1      -5.891   2.274  68.728  1.00  0.00    -0.022 OA 
HETATM   60  O   UNL     1      -6.346   1.809  70.929  1.00  0.00    -0.021 OA 
HETATM   61  C   UNL     1      -6.679   3.979  70.040  1.00  0.00    -0.034 C  
ENDBRANCH  14  56
TORSDOF 7
ENDMDL
MODEL       32
REMARK 921   NORMALIZED FREE ENERGY PREDICTED BY IDOCK:    1.93 KCAL/MOL
REMARK 922        TOTAL FREE ENERGY PREDICTED BY IDOCK:    0.88 KCAL/MOL
REMARK 923 INTER-LIGAND FREE ENERGY PREDICTED BY IDOCK:   -0.46 KCAL/MOL
REMARK 924 INTRA-LIGAND FREE ENERGY PREDICTED BY IDOCK:    1.34 KCAL/MOL
REMARK 927      BINDING AFFINITY PREDICTED BY RF-SCORE:    0.00 PKD
ROOT
HETATM    1  C   UNL     1     -10.454  12.376  63.545  1.00  0.00    -0.430 C  
HETATM    2  C   UNL     1      -9.661  13.621  63.968  1.00  0.00     1.814 C  
HETATM    3  C   UNL     1      -9.137  13.575  65.391  1.00  0.00     0.934 C  
HETATM    4  C   UNL     1     -10.267  13.435  66.424  1.00  0.00    -0.293 C  
HETATM    5  C   UNL     1     -11.227  12.304  66.038  1.00  0.00    -0.375 C  
HETATM    6  C   UNL     1     -11.536  11.926  64.566  1.00  0.00    -0.363 C  
HETATM    7  C   UNL     1     -12.449  12.235  66.968  1.00  0.00     0.989 C  
HETATM    8  C   UNL     1     -12.878  12.530  64.077  1.00  0.00    -0.323 C  
HETATM    9  C   UNL     1     -11.975  11.776  68.338  1.00  0.00    -0.183 C  
HETATM   10  C   UNL     1     -11.628  10.354  64.583  1.00  0.00     2.720 C  
HETATM   11  C   UNL     1     -10.266   9.691  64.917  1.00  0.00     0.540 C  
HETATM   12  O   UNL     1     -11.520  10.422  68.258  1.00  0.00    -0.471 OA 
HETATM   13  C   UNL     1     -10.871  12.703  68.905  1.00  0.00    -0.238 C  
HETATM   14  C   UNL     1     -11.439  14.129  69.185  1.00  0.00    -0.338 C  
HETATM   15  C   UNL     1     -10.255  12.009  70.155  1.00  0.00     2.189 C  
HETATM   16  C   UNL     1      -9.182  10.094  63.922  1.00  0.00    -0.280 C  
HETATM   17  H   UNL     1     -11.223  10.135  69.115  1.00  0.00     0.000 HD 
HETATM   18  O   UNL     1      -8.772  12.030  67.811  1.00  0.00    -0.147 OA 
HETATM   19  C   UNL     1     -10.189  15.007  69.353  1.00  0.00    -0.229 C  
HETATM   20  H   UNL     1      -8.449  11.827  68.681  1.00  0.00     0.000 HD 
HETATM   21  C   UNL     1      -9.613  11.216  62.974  1.00  0.00    -0.389 C  
HETATM   22  C   UNL     1      -9.725  13.093  67.883  1.00  0.00    -0.221 C  
HETATM   23  C   UNL     1      -9.067  14.303  68.572  1.00  0.00    -0.191 C  
ENDROOT
BRANCH  16  24
HETATM   24  O   UNL     1      -7.936  10.473  64.500  1.00  0.00    -0.127 OA 
BRANCH  24  25
HETATM   25  C   UNL     1      -7.379   9.705  65.579  1.00  0.00    -0.106 C  
HETATM   26  O   UNL     1      -9.563   6.675  65.650  1.00  0.00    -0.353 OA 
HETATM   27  C   UNL     1      -7.119   6.731  65.621  1.00  0.00    -0.072 C  
HETATM   28  C   UNL     1      -8.391   8.744  66.198  1.00  0.00    -0.126 C  
HETATM   29  C   UNL     1      -8.426   7.482  65.356  1.00  0.00    -0.094 C  
HETATM   30  O   UNL     1      -6.252   9.050  64.986  1.00  0.00    -0.063 OA 
HETATM   31  C   UNL     1      -5.931   7.684  65.280  1.00  0.00    -0.038 C  
HETATM   32  H   UNL     1      -9.586   5.885  65.123  1.00  0.00     0.000 HD 
HETATM   33  C   UNL     1      -5.146   7.192  64.055  1.00  0.00    -0.028 C  
BRANCH  27  34
HETATM   34  O   UNL     1      -6.916   6.373  67.009  1.00  0.00    -0.067 OA 
BRANCH  34  35
HETATM   35  C   UNL     1      -7.909   5.633  67.714  1.00  0.00    -0.097 C  
HETATM   36  C   UNL     1      -7.370   4.395  68.418  1.00  0.00    -0.064 C  
HETATM   37  C   UNL     1      -6.299   4.821  69.410  1.00  0.00    -0.031 C  
HETATM   38  O   UNL     1      -5.740   3.687  70.080  1.00  0.00    -0.016 OA 
HETATM   39  C   UNL     1      -6.831   5.861  70.417  1.00  0.00    -0.057 C  
HETATM   40  O   UNL     1      -8.540   6.482  68.680  1.00  0.00    -0.123 OA 
HETATM   41  C   UNL     1      -7.712   6.954  69.747  1.00  0.00    -0.113 C  
HETATM   42  H   UNL     1      -5.071   3.952  70.700  1.00  0.00     0.000 HD 
HETATM   43  C   UNL     1      -6.984   8.233  69.331  1.00  0.00    -0.050 C  
BRANCH  39  44
HETATM   44  O   UNL     1      -7.659   5.288  71.452  1.00  0.00    -0.092 OA 
BRANCH  44  45
HETATM   45  C   UNL     1      -9.077   5.255  71.279  1.00  0.00    -0.144 C  
HETATM   46  C   UNL     1      -9.702   3.863  71.231  1.00  0.00    -0.247 C  
HETATM   47  C   UNL     1      -9.470   3.168  72.566  1.00  0.00    -0.113 C  
HETATM   48  C   UNL     1     -10.120   3.979  73.690  1.00  0.00    -0.130 C  
HETATM   49  O   UNL     1     -10.051   1.859  72.536  1.00  0.00    -0.120 OA 
HETATM   50  H   UNL     1      -9.906   1.425  73.368  1.00  0.00     0.000 HD 
HETATM   51  O   UNL     1     -11.549   3.897  73.535  1.00  0.00    -0.195 OA 
HETATM   52  C   UNL     1      -9.677   5.453  73.643  1.00  0.00    -0.146 C  
HETATM   53  C   UNL     1      -8.313   5.678  74.292  1.00  0.00    -0.110 C  
HETATM   54  O   UNL     1      -9.708   6.016  72.322  1.00  0.00    -0.157 OA 
HETATM   55  H   UNL     1     -11.952   4.401  74.233  1.00  0.00     0.000 HD 
ENDBRANCH  44  45
ENDBRANCH  39  44
ENDBRANCH  34  35
ENDBRANCH  27  34
ENDBRANCH  24  25
ENDBRANCH  16  24
BRANCH  14  56
HETATM   56  C   UNL     1     -12.534  14.332  70.184  1.00  0.00    -0.393 C  
HETATM   57  C   UNL     1     -13.331  15.561  70.379  1.00  0.00     0.118 C  
HETATM   58  C   UNL     1     -13.874  14.040  71.966  1.00  0.00    -0.490 C  
HETATM   59  O   UNL     1     -14.171  15.274  71.497  1.00  0.00    -0.494 OA 
HETATM   60  O   UNL     1     -14.372  13.499  72.939  1.00  0.00    -0.466 OA 
HETATM   61  C   UNL     1     -12.843  13.444  71.131  1.00  0.00    -0.372 C  
ENDBRANCH  14  56
TORSDOF 7
ENDMDL
MODEL       33
REMARK 921   NORMALIZED FREE ENERGY PREDICTED BY IDOCK:    2.72 KCAL/MOL
REMARK 922        TOTAL FREE ENERGY PREDICTED BY IDOCK:    1.99 KCAL/MOL
REMARK 923 INTER-LIGAND FREE ENERGY PREDICTED BY IDOCK:   -2.50 KCAL/MOL
REMARK 924 INTRA-LIGAND FREE ENERGY PREDICTED BY IDOCK:    4.49 KCAL/MOL
REMARK 927      BINDING AFFINITY PREDICTED BY RF-SCORE:    0.00 PKD
ROOT
HETATM    1  C   UNL     1      -9.014   7.245  65.266  1.00  0.00     0.259 C  
HETATM    2  C   UNL     1     -10.215   6.384  65.682  1.00  0.00     1.065 C  
HETATM    3  C   UNL     1     -10.891   6.830  66.964  1.00  0.00    -0.453 C  
HETATM    4  C   UNL     1      -9.933   6.807  68.166  1.00  0.00    -0.161 C  
HETATM    5  C   UNL     1      -8.616   7.518  67.832  1.00  0.00    -0.121 C  
HETATM    6  C   UNL     1      -7.999   7.526  66.409  1.00  0.00    -0.107 C  
HETATM    7  C   UNL     1      -7.579   7.383  68.959  1.00  0.00    -0.102 C  
HETATM    8  C   UNL     1      -6.867   6.475  66.258  1.00  0.00    -0.057 C  
HETATM    9  C   UNL     1      -8.069   8.193  70.150  1.00  0.00    -0.113 C  
HETATM   10  C   UNL     1      -7.410   8.978  66.252  1.00  0.00    -0.091 C  
HETATM   11  C   UNL     1      -8.520  10.061  66.241  1.00  0.00    -0.134 C  
HETATM   12  O   UNL     1      -8.049   9.586  69.822  1.00  0.00    -0.107 OA 
HETATM   13  C   UNL     1      -9.479   7.748  70.609  1.00  0.00    -0.162 C  
HETATM   14  C   UNL     1      -9.444   6.290  71.161  1.00  0.00    -0.183 C  
HETATM   15  C   UNL     1     -10.009   8.799  71.626  1.00  0.00    -0.381 C  
HETATM   16  C   UNL     1      -9.525   9.831  65.117  1.00  0.00    -0.273 C  
HETATM   17  H   UNL     1      -8.354  10.092  70.566  1.00  0.00     0.000 HD 
HETATM   18  O   UNL     1     -11.076   8.810  69.067  1.00  0.00    -0.437 OA 
HETATM   19  C   UNL     1     -10.921   5.864  71.198  1.00  0.00    -0.327 C  
HETATM   20  H   UNL     1     -11.435   9.249  69.830  1.00  0.00     0.000 HD 
HETATM   21  C   UNL     1      -9.348   8.484  64.410  1.00  0.00     1.000 C  
HETATM   22  C   UNL     1     -10.535   7.543  69.445  1.00  0.00    -0.222 C  
HETATM   23  C   UNL     1     -11.636   6.721  70.140  1.00  0.00    -0.397 C  
ENDROOT
BRANCH  16  24
HETATM   24  O   UNL     1     -10.895   9.944  65.494  1.00  0.00     0.328 OA 
BRANCH  24  25
HETATM   25  C   UNL     1     -11.505  11.239  65.612  1.00  0.00     0.227 C  
HETATM   26  O   UNL     1      -9.839  12.663  68.638  1.00  0.00    -0.362 OA 
HETATM   27  C   UNL     1     -10.099  13.734  66.455  1.00  0.00    -0.286 C  
HETATM   28  C   UNL     1     -11.458  11.781  67.038  1.00  0.00    -0.368 C  
HETATM   29  C   UNL     1     -10.104  12.431  67.257  1.00  0.00    -0.208 C  
HETATM   30  O   UNL     1     -10.788  12.043  64.668  1.00  0.00    -0.285 OA 
HETATM   31  C   UNL     1     -10.401  13.391  64.963  1.00  0.00    -0.347 C  
HETATM   32  H   UNL     1      -8.992  13.070  68.775  1.00  0.00     0.000 HD 
HETATM   33  C   UNL     1      -9.183  13.656  64.066  1.00  0.00     3.794 C  
BRANCH  27  34
HETATM   34  O   UNL     1     -11.142  14.664  66.836  1.00  0.00    -0.316 OA 
BRANCH  34  35
HETATM   35  C   UNL     1     -10.889  16.066  66.838  1.00  0.00    -0.203 C  
HETATM   36  C   UNL     1     -11.253  16.756  68.147  1.00  0.00    -0.154 C  
HETATM   37  C   UNL     1     -10.450  16.125  69.275  1.00  0.00    -0.267 C  
HETATM   38  O   UNL     1     -10.777  16.722  70.532  1.00  0.00    -0.055 OA 
HETATM   39  C   UNL     1      -8.933  16.187  69.002  1.00  0.00    -0.247 C  
HETATM   40  O   UNL     1      -9.504  16.302  66.556  1.00  0.00    -0.232 OA 
HETATM   41  C   UNL     1      -8.570  15.834  67.531  1.00  0.00    -0.166 C  
HETATM   42  H   UNL     1     -10.276  16.328  71.237  1.00  0.00     0.000 HD 
HETATM   43  C   UNL     1      -8.212  14.370  67.267  1.00  0.00    -0.223 C  
BRANCH  39  44
HETATM   44  O   UNL     1      -8.361  17.493  69.231  1.00  0.00     0.005 OA 
BRANCH  44  45
HETATM   45  C   UNL     1      -8.154  18.372  68.125  1.00  0.00    -0.290 C  
HETATM   46  C   UNL     1      -7.929  19.839  68.483  1.00  0.00    -0.293 C  
HETATM   47  C   UNL     1      -6.652  19.960  69.305  1.00  0.00    -0.342 C  
HETATM   48  C   UNL     1      -5.462  19.448  68.487  1.00  0.00    -0.194 C  
HETATM   49  O   UNL     1      -6.428  21.332  69.650  1.00  0.00     0.683 OA 
HETATM   50  H   UNL     1      -5.631  21.408  70.162  1.00  0.00     0.000 HD 
HETATM   51  O   UNL     1      -5.231  20.369  67.405  1.00  0.00    -0.170 OA 
HETATM   52  C   UNL     1      -5.738  18.042  67.922  1.00  0.00    -0.158 C  
HETATM   53  C   UNL     1      -5.487  16.938  68.946  1.00  0.00    -0.134 C  
HETATM   54  O   UNL     1      -7.044  17.907  67.340  1.00  0.00    -0.183 OA 
HETATM   55  H   UNL     1      -4.493  20.051  66.898  1.00  0.00     0.000 HD 
ENDBRANCH  44  45
ENDBRANCH  39  44
ENDBRANCH  34  35
ENDBRANCH  27  34
ENDBRANCH  24  25
ENDBRANCH  16  24
BRANCH  14  56
HETATM   56  C   UNL     1      -8.624   5.949  72.365  1.00  0.00    -0.120 C  
HETATM   57  C   UNL     1      -8.048   6.901  73.337  1.00  0.00    -0.101 C  
HETATM   58  C   UNL     1      -7.346   4.802  73.818  1.00  0.00    -0.082 C  
HETATM   59  O   UNL     1      -7.290   6.089  74.233  1.00  0.00    -0.087 OA 
HETATM   60  O   UNL     1      -6.775   3.854  74.329  1.00  0.00    -0.048 OA 
HETATM   61  C   UNL     1      -8.195   4.715  72.640  1.00  0.00    -0.107 C  
ENDBRANCH  14  56
TORSDOF 7
ENDMDL
MODEL       34
REMARK 921   NORMALIZED FREE ENERGY PREDICTED BY IDOCK:    2.74 KCAL/MOL
REMARK 922        TOTAL FREE ENERGY PREDICTED BY IDOCK:    2.02 KCAL/MOL
REMARK 923 INTER-LIGAND FREE ENERGY PREDICTED BY IDOCK:   -5.16 KCAL/MOL
REMARK 924 INTRA-LIGAND FREE ENERGY PREDICTED BY IDOCK:    7.19 KCAL/MOL
REMARK 927      BINDING AFFINITY PREDICTED BY RF-SCORE:    0.00 PKD
ROOT
HETATM    1  C   UNL     1      -6.454   8.806  69.915  1.00  0.00    -0.038 C  
HETATM    2  C   UNL     1      -5.138   8.802  69.125  1.00  0.00    -0.036 C  
HETATM    3  C   UNL     1      -5.299   9.062  67.640  1.00  0.00    -0.034 C  
HETATM    4  C   UNL     1      -6.193   8.013  66.958  1.00  0.00    -0.055 C  
HETATM    5  C   UNL     1      -7.498   7.812  67.738  1.00  0.00    -0.104 C  
HETATM    6  C   UNL     1      -7.588   7.954  69.280  1.00  0.00    -0.097 C  
HETATM    7  C   UNL     1      -8.346   6.664  67.168  1.00  0.00    -0.113 C  
HETATM    8  C   UNL     1      -7.556   6.578  69.996  1.00  0.00    -0.100 C  
HETATM    9  C   UNL     1      -8.869   7.094  65.806  1.00  0.00    -0.064 C  
HETATM   10  C   UNL     1      -8.978   8.655  69.522  1.00  0.00    -0.145 C  
HETATM   11  C   UNL     1      -9.011  10.099  68.957  1.00  0.00    -0.168 C  
HETATM   12  O   UNL     1      -9.800   8.169  65.970  1.00  0.00    -0.456 OA 
HETATM   13  C   UNL     1      -7.721   7.493  64.848  1.00  0.00    -0.115 C  
HETATM   14  C   UNL     1      -6.830   6.257  64.511  1.00  0.00    -0.046 C  
HETATM   15  C   UNL     1      -8.350   8.179  63.601  1.00  0.00     0.007 C  
HETATM   16  C   UNL     1      -7.924  10.973  69.575  1.00  0.00     0.147 C  
HETATM   17  H   UNL     1     -10.128   8.438  65.119  1.00  0.00     0.000 HD 
HETATM   18  O   UNL     1      -7.067   9.784  65.464  1.00  0.00    -0.097 OA 
HETATM   19  C   UNL     1      -5.555   6.864  63.903  1.00  0.00    -0.032 C  
HETATM   20  H   UNL     1      -7.315  10.032  64.581  1.00  0.00     0.000 HD 
HETATM   21  C   UNL     1      -6.921  10.187  70.423  1.00  0.00    -0.119 C  
HETATM   22  C   UNL     1      -6.609   8.430  65.477  1.00  0.00    -0.055 C  
HETATM   23  C   UNL     1      -5.451   8.289  64.472  1.00  0.00    -0.040 C  
ENDROOT
BRANCH  16  24
HETATM   24  O   UNL     1      -7.181  11.764  68.650  1.00  0.00    -0.098 OA 
BRANCH  24  25
HETATM   25  C   UNL     1      -7.787  12.911  68.033  1.00  0.00    -0.149 C  
HETATM   26  O   UNL     1      -8.487  15.143  70.946  1.00  0.00     0.931 OA 
HETATM   27  C   UNL     1      -7.353  15.745  68.866  1.00  0.00    -0.162 C  
HETATM   28  C   UNL     1      -8.681  13.690  68.995  1.00  0.00     0.315 C  
HETATM   29  C   UNL     1      -7.804  14.626  69.807  1.00  0.00     0.191 C  
HETATM   30  O   UNL     1      -6.673  13.666  67.544  1.00  0.00    -0.171 OA 
HETATM   31  C   UNL     1      -6.624  15.095  67.648  1.00  0.00    -0.171 C  
HETATM   32  H   UNL     1      -7.939  15.729  71.455  1.00  0.00     0.000 HD 
HETATM   33  C   UNL     1      -5.127  15.439  67.638  1.00  0.00    -0.025 C  
BRANCH  27  34
HETATM   34  O   UNL     1      -8.442  16.498  68.281  1.00  0.00    -0.186 OA 
BRANCH  34  35
HETATM   35  C   UNL     1      -8.420  16.840  66.897  1.00  0.00    -0.212 C  
HETATM   36  C   UNL     1      -8.340  15.637  65.967  1.00  0.00     0.358 C  
HETATM   37  C   UNL     1      -9.543  14.741  66.217  1.00  0.00    -0.312 C  
HETATM   38  O   UNL     1      -9.500  13.580  65.383  1.00  0.00    -0.499 OA 
HETATM   39  C   UNL     1     -10.872  15.505  66.046  1.00  0.00    -0.300 C  
HETATM   40  O   UNL     1      -9.590  17.602  66.576  1.00  0.00    -0.274 OA 
HETATM   41  C   UNL     1     -10.842  16.921  66.690  1.00  0.00     0.023 C  
HETATM   42  H   UNL     1     -10.251  13.020  65.539  1.00  0.00     0.000 HD 
HETATM   43  C   UNL     1     -11.369  17.011  68.123  1.00  0.00     0.119 C  
BRANCH  39  44
HETATM   44  O   UNL     1     -11.235  15.725  64.665  1.00  0.00    -0.445 OA 
BRANCH  44  45
HETATM   45  C   UNL     1     -12.457  15.179  64.165  1.00  0.00     0.029 C  
HETATM   46  C   UNL     1     -12.307  14.068  63.129  1.00  0.00     0.595 C  
HETATM   47  C   UNL     1     -11.599  12.882  63.770  1.00  0.00    -0.475 C  
HETATM   48  C   UNL     1     -12.425  12.366  64.952  1.00  0.00    -0.361 C  
HETATM   49  O   UNL     1     -11.450  11.831  62.808  1.00  0.00    -0.475 OA 
HETATM   50  H   UNL     1     -11.008  11.092  63.208  1.00  0.00     0.000 HD 
HETATM   51  O   UNL     1     -13.630  11.773  64.433  1.00  0.00    -0.118 OA 
HETATM   52  C   UNL     1     -12.784  13.507  65.922  1.00  0.00    -0.321 C  
HETATM   53  C   UNL     1     -11.646  13.840  66.884  1.00  0.00    -0.394 C  
HETATM   54  O   UNL     1     -13.251  14.693  65.260  1.00  0.00    -0.381 OA 
HETATM   55  H   UNL     1     -14.142  11.453  65.167  1.00  0.00     0.000 HD 
ENDBRANCH  44  45
ENDBRANCH  39  44
ENDBRANCH  34  35
ENDBRANCH  27  34
ENDBRANCH  24  25
ENDBRANCH  16  24
BRANCH  14  56
HETATM   56  C   UNL     1      -7.406   5.072  63.802  1.00  0.00    -0.051 C  
HETATM   57  C   UNL     1      -8.232   5.094  62.577  1.00  0.00    -0.096 C  
HETATM   58  C   UNL     1      -8.103   2.977  63.373  1.00  0.00    -0.084 C  
HETATM   59  O   UNL     1      -8.596   3.730  62.363  1.00  0.00    -0.079 OA 
HETATM   60  O   UNL     1      -8.266   1.778  63.525  1.00  0.00    -0.064 OA 
HETATM   61  C   UNL     1      -7.346   3.827  64.279  1.00  0.00    -0.066 C  
ENDBRANCH  14  56
TORSDOF 7
ENDMDL
MODEL       35
REMARK 921   NORMALIZED FREE ENERGY PREDICTED BY IDOCK:    2.81 KCAL/MOL
REMARK 922        TOTAL FREE ENERGY PREDICTED BY IDOCK:    2.12 KCAL/MOL
REMARK 923 INTER-LIGAND FREE ENERGY PREDICTED BY IDOCK:   -5.02 KCAL/MOL
REMARK 924 INTRA-LIGAND FREE ENERGY PREDICTED BY IDOCK:    7.14 KCAL/MOL
REMARK 927      BINDING AFFINITY PREDICTED BY RF-SCORE:    0.00 PKD
ROOT
HETATM    1  C   UNL     1     -10.986   6.397  67.235  1.00  0.00    -0.474 C  
HETATM    2  C   UNL     1     -11.878   6.563  68.473  1.00  0.00     1.000 C  
HETATM    3  C   UNL     1     -11.228   7.319  69.616  1.00  0.00    -0.109 C  
HETATM    4  C   UNL     1      -9.950   6.627  70.120  1.00  0.00    -0.190 C  
HETATM    5  C   UNL     1      -9.022   6.270  68.952  1.00  0.00    -0.126 C  
HETATM    6  C   UNL     1      -9.548   5.892  67.543  1.00  0.00    -0.114 C  
HETATM    7  C   UNL     1      -7.808   5.445  69.406  1.00  0.00    -0.089 C  
HETATM    8  C   UNL     1      -9.565   4.357  67.319  1.00  0.00    -0.220 C  
HETATM    9  C   UNL     1      -6.911   6.345  70.242  1.00  0.00    -0.063 C  
HETATM   10  C   UNL     1      -8.525   6.569  66.555  1.00  0.00    -0.120 C  
HETATM   11  C   UNL     1      -8.578   8.117  66.629  1.00  0.00    -0.140 C  
HETATM   12  O   UNL     1      -6.350   7.366  69.411  1.00  0.00    -0.034 OA 
HETATM   13  C   UNL     1      -7.671   6.958  71.444  1.00  0.00    -0.092 C  
HETATM   14  C   UNL     1      -8.098   5.847  72.451  1.00  0.00    -0.110 C  
HETATM   15  C   UNL     1      -6.774   8.068  72.065  1.00  0.00    -0.067 C  
HETATM   16  C   UNL     1      -9.971   8.652  66.311  1.00  0.00    -0.217 C  
HETATM   17  H   UNL     1      -5.789   7.928  69.934  1.00  0.00     0.000 HD 
HETATM   18  O   UNL     1      -8.960   8.855  70.552  1.00  0.00    -0.158 OA 
HETATM   19  C   UNL     1      -9.147   6.529  73.345  1.00  0.00    -0.140 C  
HETATM   20  H   UNL     1      -8.456   9.404  71.141  1.00  0.00     0.000 HD 
HETATM   21  C   UNL     1     -11.036   7.556  66.218  1.00  0.00     1.508 C  
HETATM   22  C   UNL     1      -9.104   7.547  71.108  1.00  0.00    -0.147 C  
HETATM   23  C   UNL     1      -9.745   7.669  72.503  1.00  0.00    -0.238 C  
ENDROOT
BRANCH  16  24
HETATM   24  O   UNL     1     -10.456   9.652  67.203  1.00  0.00    -0.247 OA 
BRANCH  24  25
HETATM   25  C   UNL     1      -9.544  10.364  68.053  1.00  0.00    -0.143 C  
HETATM   26  O   UNL     1      -8.321  13.110  65.834  1.00  0.00     0.432 OA 
HETATM   27  C   UNL     1      -9.197  13.329  68.105  1.00  0.00    -0.212 C  
HETATM   28  C   UNL     1      -8.492  11.139  67.264  1.00  0.00    -0.137 C  
HETATM   29  C   UNL     1      -9.094  12.468  66.845  1.00  0.00    -0.213 C  
HETATM   30  O   UNL     1     -10.395  11.197  68.848  1.00  0.00    -0.195 OA 
HETATM   31  C   UNL     1     -10.050  12.554  69.158  1.00  0.00     0.320 C  
HETATM   32  H   UNL     1      -8.697  13.941  65.571  1.00  0.00     0.000 HD 
HETATM   33  C   UNL     1     -11.393  13.251  69.420  1.00  0.00    -0.280 C  
BRANCH  27  34
HETATM   34  O   UNL     1      -7.930  13.566  68.763  1.00  0.00    -0.106 OA 
BRANCH  34  35
HETATM   35  C   UNL     1      -7.629  14.849  69.306  1.00  0.00    -0.170 C  
HETATM   36  C   UNL     1      -6.344  15.460  68.765  1.00  0.00    -0.101 C  
HETATM   37  C   UNL     1      -6.462  15.597  67.255  1.00  0.00    -0.058 C  
HETATM   38  O   UNL     1      -5.265  16.144  66.695  1.00  0.00    -0.256 OA 
HETATM   39  C   UNL     1      -7.699  16.424  66.849  1.00  0.00    -0.241 C  
HETATM   40  O   UNL     1      -8.717  15.743  69.045  1.00  0.00    -0.202 OA 
HETATM   41  C   UNL     1      -8.967  16.056  67.673  1.00  0.00    -0.190 C  
HETATM   42  H   UNL     1      -5.338  16.230  65.751  1.00  0.00     0.000 HD 
HETATM   43  C   UNL     1      -9.886  15.007  67.045  1.00  0.00    -0.241 C  
BRANCH  39  44
HETATM   44  O   UNL     1      -7.526  17.846  67.035  1.00  0.00    -0.189 OA 
BRANCH  44  45
HETATM   45  C   UNL     1      -7.964  18.454  68.250  1.00  0.00    -0.300 C  
HETATM   46  C   UNL     1      -7.298  17.937  69.523  1.00  0.00     0.221 C  
HETATM   47  C   UNL     1      -5.807  18.245  69.464  1.00  0.00    -0.246 C  
HETATM   48  C   UNL     1      -5.597  19.758  69.358  1.00  0.00    -0.224 C  
HETATM   49  O   UNL     1      -5.168  17.763  70.652  1.00  0.00    -0.253 OA 
HETATM   50  H   UNL     1      -4.238  17.955  70.615  1.00  0.00     0.000 HD 
HETATM   51  O   UNL     1      -5.994  20.354  70.607  1.00  0.00    -0.461 OA 
HETATM   52  C   UNL     1      -6.428  20.358  68.209  1.00  0.00    -0.309 C  
HETATM   53  C   UNL     1      -5.757  20.187  66.848  1.00  0.00    -0.188 C  
HETATM   54  O   UNL     1      -7.781  19.877  68.171  1.00  0.00    -0.301 OA 
HETATM   55  H   UNL     1      -5.863  21.293  70.541  1.00  0.00     0.000 HD 
ENDBRANCH  44  45
ENDBRANCH  39  44
ENDBRANCH  34  35
ENDBRANCH  27  34
ENDBRANCH  24  25
ENDBRANCH  16  24
BRANCH  14  56
HETATM   56  C   UNL     1      -7.070   5.014  73.150  1.00  0.00    -0.084 C  
HETATM   57  C   UNL     1      -6.105   5.477  74.168  1.00  0.00    -0.058 C  
HETATM   58  C   UNL     1      -5.686   3.313  73.649  1.00  0.00     0.000 C  
HETATM   59  O   UNL     1      -5.299   4.333  74.449  1.00  0.00    -0.007 OA 
HETATM   60  O   UNL     1      -5.180   2.205  73.597  1.00  0.00     0.000 OA 
HETATM   61  C   UNL     1      -6.810   3.744  72.832  1.00  0.00    -0.039 C  
ENDBRANCH  14  56
TORSDOF 7
ENDMDL
MODEL       36
REMARK 921   NORMALIZED FREE ENERGY PREDICTED BY IDOCK:    3.01 KCAL/MOL
REMARK 922        TOTAL FREE ENERGY PREDICTED BY IDOCK:    2.40 KCAL/MOL
REMARK 923 INTER-LIGAND FREE ENERGY PREDICTED BY IDOCK:   -5.95 KCAL/MOL
REMARK 924 INTRA-LIGAND FREE ENERGY PREDICTED BY IDOCK:    8.36 KCAL/MOL
REMARK 927      BINDING AFFINITY PREDICTED BY RF-SCORE:    0.00 PKD
ROOT
HETATM    1  C   UNL     1      -7.899   2.019  66.875  1.00  0.00    -0.067 C  
HETATM    2  C   UNL     1      -6.438   2.327  66.517  1.00  0.00    -0.024 C  
HETATM    3  C   UNL     1      -5.978   3.719  66.904  1.00  0.00    -0.024 C  
HETATM    4  C   UNL     1      -6.810   4.818  66.221  1.00  0.00    -0.062 C  
HETATM    5  C   UNL     1      -8.312   4.550  66.382  1.00  0.00    -0.106 C  
HETATM    6  C   UNL     1      -8.910   3.120  66.451  1.00  0.00    -0.146 C  
HETATM    7  C   UNL     1      -9.169   5.546  65.584  1.00  0.00    -0.100 C  
HETATM    8  C   UNL     1      -9.503   2.670  65.090  1.00  0.00    -0.041 C  
HETATM    9  C   UNL     1      -9.033   6.913  66.237  1.00  0.00    -0.151 C  
HETATM   10  C   UNL     1     -10.055   3.233  67.526  1.00  0.00     0.861 C  
HETATM   11  C   UNL     1      -9.499   3.532  68.943  1.00  0.00    -0.210 C  
HETATM   12  O   UNL     1      -9.641   6.887  67.532  1.00  0.00    -0.126 OA 
HETATM   13  C   UNL     1      -7.555   7.366  66.322  1.00  0.00    -0.088 C  
HETATM   14  C   UNL     1      -6.964   7.592  64.897  1.00  0.00    -0.055 C  
HETATM   15  C   UNL     1      -7.488   8.619  67.243  1.00  0.00    -0.089 C  
HETATM   16  C   UNL     1      -8.517   2.459  69.404  1.00  0.00    -0.055 C  
HETATM   17  H   UNL     1      -9.556   7.742  67.940  1.00  0.00     0.000 HD 
HETATM   18  O   UNL     1      -6.586   6.202  68.262  1.00  0.00    -0.053 OA 
HETATM   19  C   UNL     1      -5.444   7.643  65.120  1.00  0.00    -0.033 C  
HETATM   20  H   UNL     1      -6.424   7.064  68.628  1.00  0.00     0.000 HD 
HETATM   21  C   UNL     1      -8.133   1.472  68.298  1.00  0.00    -0.065 C  
HETATM   22  C   UNL     1      -6.539   6.263  66.835  1.00  0.00    -0.059 C  
HETATM   23  C   UNL     1      -5.179   6.845  66.409  1.00  0.00    -0.021 C  
ENDROOT
BRANCH  16  24
HETATM   24  O   UNL     1      -7.311   2.947  69.985  1.00  0.00    -0.043 OA 
BRANCH  24  25
HETATM   25  C   UNL     1      -7.346   3.646  71.239  1.00  0.00    -0.037 C  
HETATM   26  O   UNL     1      -8.378   7.094  70.236  1.00  0.00    -0.132 OA 
HETATM   27  C   UNL     1      -9.358   5.716  72.001  1.00  0.00    -0.150 C  
HETATM   28  C   UNL     1      -7.161   5.152  71.076  1.00  0.00    -0.059 C  
HETATM   29  C   UNL     1      -8.506   5.763  70.731  1.00  0.00    -0.125 C  
HETATM   30  O   UNL     1      -8.613   3.280  71.799  1.00  0.00    -0.074 OA 
HETATM   31  C   UNL     1      -9.443   4.232  72.477  1.00  0.00    -0.130 C  
HETATM   32  H   UNL     1      -9.219   7.477  70.019  1.00  0.00     0.000 HD 
HETATM   33  C   UNL     1     -10.869   3.676  72.342  1.00  0.00     0.159 C  
BRANCH  27  34
HETATM   34  O   UNL     1      -8.785   6.428  73.123  1.00  0.00    -0.123 OA 
BRANCH  34  35
HETATM   35  C   UNL     1      -9.365   7.650  73.572  1.00  0.00    -0.282 C  
HETATM   36  C   UNL     1      -8.649   8.895  73.066  1.00  0.00     0.554 C  
HETATM   37  C   UNL     1      -8.669   8.889  71.544  1.00  0.00    -0.162 C  
HETATM   38  O   UNL     1      -7.983  10.029  71.018  1.00  0.00    -0.277 OA 
HETATM   39  C   UNL     1     -10.106   8.794  70.991  1.00  0.00    -0.237 C  
HETATM   40  O   UNL     1     -10.738   7.703  73.166  1.00  0.00    -0.365 OA 
HETATM   41  C   UNL     1     -10.981   7.763  71.758  1.00  0.00    -0.239 C  
HETATM   42  H   UNL     1      -7.996  10.026  70.068  1.00  0.00     0.000 HD 
HETATM   43  C   UNL     1     -11.024   6.354  71.165  1.00  0.00    -0.327 C  
BRANCH  39  44
HETATM   44  O   UNL     1     -10.834  10.040  71.065  1.00  0.00    -0.298 OA 
BRANCH  44  45
HETATM   45  C   UNL     1     -11.968  10.240  70.220  1.00  0.00    -0.264 C  
HETATM   46  C   UNL     1     -12.728  11.547  70.438  1.00  0.00    -0.138 C  
HETATM   47  C   UNL     1     -11.807  12.717  70.116  1.00  0.00    -0.249 C  
HETATM   48  C   UNL     1     -11.353  12.630  68.657  1.00  0.00    -0.291 C  
HETATM   49  O   UNL     1     -12.506  13.951  70.317  1.00  0.00    -0.335 OA 
HETATM   50  H   UNL     1     -11.932  14.680  70.117  1.00  0.00     0.000 HD 
HETATM   51  O   UNL     1     -12.493  12.884  67.816  1.00  0.00    -0.061 OA 
HETATM   52  C   UNL     1     -10.771  11.241  68.335  1.00  0.00    -0.203 C  
HETATM   53  C   UNL     1      -9.317  11.097  68.778  1.00  0.00    -0.156 C  
HETATM   54  O   UNL     1     -11.565  10.157  68.843  1.00  0.00    -0.133 OA 
HETATM   55  H   UNL     1     -12.211  12.830  66.910  1.00  0.00     0.000 HD 
ENDBRANCH  44  45
ENDBRANCH  39  44
ENDBRANCH  34  35
ENDBRANCH  27  34
ENDBRANCH  24  25
ENDBRANCH  16  24
BRANCH  14  56
HETATM   56  C   UNL     1      -7.538   8.635  63.989  1.00  0.00    -0.126 C  
HETATM   57  C   UNL     1      -6.838   9.320  62.883  1.00  0.00    -0.092 C  
HETATM   58  C   UNL     1      -8.900  10.217  63.154  1.00  0.00    -0.223 C  
HETATM   59  O   UNL     1      -7.782  10.273  62.394  1.00  0.00    -0.130 OA 
HETATM   60  O   UNL     1      -9.886  10.925  63.040  1.00  0.00    -0.319 OA 
HETATM   61  C   UNL     1      -8.746   9.176  64.159  1.00  0.00    -0.170 C  
ENDBRANCH  14  56
TORSDOF 7
ENDMDL
MODEL       37
REMARK 921   NORMALIZED FREE ENERGY PREDICTED BY IDOCK:    3.56 KCAL/MOL
REMARK 922        TOTAL FREE ENERGY PREDICTED BY IDOCK:    3.18 KCAL/MOL
REMARK 923 INTER-LIGAND FREE ENERGY PREDICTED BY IDOCK:   -1.13 KCAL/MOL
REMARK 924 INTRA-LIGAND FREE ENERGY PREDICTED BY IDOCK:    4.30 KCAL/MOL
REMARK 927      BINDING AFFINITY PREDICTED BY RF-SCORE:    0.00 PKD
ROOT
HETATM    1  C   UNL     1     -11.844  14.078  65.287  1.00  0.00    -0.363 C  
HETATM    2  C   UNL     1     -12.382  14.834  66.511  1.00  0.00     0.096 C  
HETATM    3  C   UNL     1     -11.751  14.422  67.827  1.00  0.00    -0.407 C  
HETATM    4  C   UNL     1     -11.968  12.931  68.135  1.00  0.00    -0.306 C  
HETATM    5  C   UNL     1     -11.601  12.061  66.927  1.00  0.00    -0.389 C  
HETATM    6  C   UNL     1     -11.781  12.535  65.461  1.00  0.00    -0.457 C  
HETATM    7  C   UNL     1     -11.948  10.580  67.149  1.00  0.00     1.838 C  
HETATM    8  C   UNL     1     -13.075  11.969  64.819  1.00  0.00     0.799 C  
HETATM    9  C   UNL     1     -11.011  10.031  68.214  1.00  0.00    -0.227 C  
HETATM   10  C   UNL     1     -10.517  11.968  64.713  1.00  0.00    -0.335 C  
HETATM   11  C   UNL     1      -9.200  12.618  65.213  1.00  0.00     0.475 C  
HETATM   12  O   UNL     1      -9.673  10.005  67.707  1.00  0.00    -0.147 OA 
HETATM   13  C   UNL     1     -11.093  10.845  69.529  1.00  0.00    -0.326 C  
HETATM   14  C   UNL     1     -12.501  10.695  70.183  1.00  0.00    -0.342 C  
HETATM   15  C   UNL     1      -9.917  10.400  70.446  1.00  0.00     0.362 C  
HETATM   16  C   UNL     1      -9.216  14.134  65.039  1.00  0.00     1.430 C  
HETATM   17  H   UNL     1      -9.088   9.661  68.372  1.00  0.00     0.000 HD 
HETATM   18  O   UNL     1      -9.725  12.861  69.182  1.00  0.00    -0.331 OA 
HETATM   19  C   UNL     1     -12.562  11.831  71.217  1.00  0.00    -0.401 C  
HETATM   20  H   UNL     1      -9.192  12.556  69.907  1.00  0.00     0.000 HD 
HETATM   21  C   UNL     1     -10.586  14.684  64.631  1.00  0.00    -0.268 C  
HETATM   22  C   UNL     1     -11.074  12.420  69.351  1.00  0.00    -0.084 C  
HETATM   23  C   UNL     1     -11.588  12.912  70.717  1.00  0.00     0.614 C  
ENDROOT
BRANCH  16  24
HETATM   24  O   UNL     1      -8.769  14.881  66.167  1.00  0.00    -0.097 OA 
BRANCH  24  25
HETATM   25  C   UNL     1      -8.504  14.216  67.412  1.00  0.00    -0.203 C  
HETATM   26  O   UNL     1      -5.945  11.667  66.461  1.00  0.00    -0.248 OA 
HETATM   27  C   UNL     1      -5.827  13.254  68.316  1.00  0.00    -0.090 C  
HETATM   28  C   UNL     1      -7.969  12.800  67.219  1.00  0.00    -0.156 C  
HETATM   29  C   UNL     1      -6.473  12.885  66.979  1.00  0.00     0.373 C  
HETATM   30  O   UNL     1      -7.587  15.091  68.079  1.00  0.00    -0.104 OA 
HETATM   31  C   UNL     1      -6.462  14.590  68.813  1.00  0.00    -0.089 C  
HETATM   32  H   UNL     1      -5.008  11.719  66.311  1.00  0.00     0.000 HD 
HETATM   33  C   UNL     1      -5.443  15.739  68.803  1.00  0.00    -0.103 C  
BRANCH  27  34
HETATM   34  O   UNL     1      -6.087  12.307  69.379  1.00  0.00    -0.089 OA 
BRANCH  34  35
HETATM   35  C   UNL     1      -5.126  11.304  69.700  1.00  0.00    -0.041 C  
HETATM   36  C   UNL     1      -5.309  10.696  71.084  1.00  0.00    -0.085 C  
HETATM   37  C   UNL     1      -6.695  10.074  71.169  1.00  0.00     0.285 C  
HETATM   38  O   UNL     1      -6.926   9.512  72.464  1.00  0.00     0.079 OA 
HETATM   39  C   UNL     1      -6.924   9.031  70.056  1.00  0.00    -0.050 C  
HETATM   40  O   UNL     1      -5.182  10.259  68.721  1.00  0.00    -0.039 OA 
HETATM   41  C   UNL     1      -6.394   9.501  68.671  1.00  0.00    -0.048 C  
HETATM   42  H   UNL     1      -7.792   9.123  72.517  1.00  0.00     0.000 HD 
HETATM   43  C   UNL     1      -7.416  10.189  67.765  1.00  0.00    -0.089 C  
BRANCH  39  44
HETATM   44  O   UNL     1      -6.266   7.770  70.306  1.00  0.00    -0.033 OA 
BRANCH  44  45
HETATM   45  C   UNL     1      -7.052   6.617  70.611  1.00  0.00    -0.069 C  
HETATM   46  C   UNL     1      -8.543   6.735  70.303  1.00  0.00    -0.140 C  
HETATM   47  C   UNL     1      -8.726   6.930  68.803  1.00  0.00    -0.129 C  
HETATM   48  C   UNL     1      -8.145   5.729  68.052  1.00  0.00    -0.104 C  
HETATM   49  O   UNL     1     -10.121   7.045  68.498  1.00  0.00    -0.154 OA 
HETATM   50  H   UNL     1     -10.235   7.166  67.563  1.00  0.00     0.000 HD 
HETATM   51  O   UNL     1      -8.974   4.585  68.326  1.00  0.00    -0.107 OA 
HETATM   52  C   UNL     1      -6.699   5.440  68.495  1.00  0.00    -0.054 C  
HETATM   53  C   UNL     1      -5.681   6.343  67.803  1.00  0.00    -0.009 C  
HETATM   54  O   UNL     1      -6.520   5.474  69.920  1.00  0.00    -0.032 OA 
HETATM   55  H   UNL     1      -8.613   3.839  67.860  1.00  0.00     0.000 HD 
ENDBRANCH  44  45
ENDBRANCH  39  44
ENDBRANCH  34  35
ENDBRANCH  27  34
ENDBRANCH  24  25
ENDBRANCH  16  24
BRANCH  14  56
HETATM   56  C   UNL     1     -12.994   9.357  70.635  1.00  0.00     0.120 C  
HETATM   57  C   UNL     1     -14.404   8.946  70.794  1.00  0.00     0.445 C  
HETATM   58  C   UNL     1     -13.041   7.293  71.529  1.00  0.00    -0.384 C  
HETATM   59  O   UNL     1     -14.337   7.623  71.327  1.00  0.00    -0.397 OA 
HETATM   60  O   UNL     1     -12.627   6.254  72.014  1.00  0.00    -0.269 OA 
HETATM   61  C   UNL     1     -12.193   8.389  71.085  1.00  0.00    -0.248 C  
ENDBRANCH  14  56
TORSDOF 7
ENDMDL
MODEL       38
REMARK 921   NORMALIZED FREE ENERGY PREDICTED BY IDOCK:    3.59 KCAL/MOL
REMARK 922        TOTAL FREE ENERGY PREDICTED BY IDOCK:    3.22 KCAL/MOL
REMARK 923 INTER-LIGAND FREE ENERGY PREDICTED BY IDOCK:   -1.47 KCAL/MOL
REMARK 924 INTRA-LIGAND FREE ENERGY PREDICTED BY IDOCK:    4.69 KCAL/MOL
REMARK 927      BINDING AFFINITY PREDICTED BY RF-SCORE:    0.00 PKD
ROOT
HETATM    1  C   UNL     1     -10.245  12.825  63.648  1.00  0.00    -0.044 C  
HETATM    2  C   UNL     1      -9.435  13.992  64.230  1.00  0.00     2.542 C  
HETATM    3  C   UNL     1      -8.979  13.786  65.661  1.00  0.00     0.880 C  
HETATM    4  C   UNL     1     -10.159  13.584  66.626  1.00  0.00    -0.277 C  
HETATM    5  C   UNL     1     -11.136  12.531  66.086  1.00  0.00    -0.336 C  
HETATM    6  C   UNL     1     -11.387  12.314  64.570  1.00  0.00    -0.385 C  
HETATM    7  C   UNL     1     -12.401  12.414  66.950  1.00  0.00     0.440 C  
HETATM    8  C   UNL     1     -12.686  13.012  64.088  1.00  0.00    -0.203 C  
HETATM    9  C   UNL     1     -12.005  11.804  68.286  1.00  0.00    -0.165 C  
HETATM   10  C   UNL     1     -11.529  10.752  64.423  1.00  0.00     1.091 C  
HETATM   11  C   UNL     1     -10.206  10.011  64.747  1.00  0.00     0.030 C  
HETATM   12  O   UNL     1     -11.590  10.449  68.088  1.00  0.00    -0.631 OA 
HETATM   13  C   UNL     1     -10.901  12.629  68.991  1.00  0.00    -0.192 C  
HETATM   14  C   UNL     1     -11.436  14.039  69.389  1.00  0.00    -0.343 C  
HETATM   15  C   UNL     1     -10.366  11.792  70.189  1.00  0.00     1.657 C  
HETATM   16  C   UNL     1      -9.064  10.472  63.846  1.00  0.00    -0.233 C  
HETATM   17  H   UNL     1     -11.343  10.067  68.923  1.00  0.00     0.000 HD 
HETATM   18  O   UNL     1      -8.776  11.994  67.926  1.00  0.00    -0.154 OA 
HETATM   19  C   UNL     1     -10.169  14.851  69.700  1.00  0.00    -0.112 C  
HETATM   20  H   UNL     1      -8.500  11.693  68.784  1.00  0.00     0.000 HD 
HETATM   21  C   UNL     1      -9.416  11.698  62.999  1.00  0.00    -0.265 C  
HETATM   22  C   UNL     1      -9.697  13.078  68.064  1.00  0.00    -0.224 C  
HETATM   23  C   UNL     1      -9.034  14.188  68.900  1.00  0.00     0.019 C  
ENDROOT
BRANCH  16  24
HETATM   24  O   UNL     1      -7.835  10.747  64.513  1.00  0.00     0.033 OA 
BRANCH  24  25
HETATM   25  C   UNL     1      -7.349   9.850  65.524  1.00  0.00    -0.122 C  
HETATM   26  O   UNL     1     -10.132   7.379  65.846  1.00  0.00    -0.218 OA 
HETATM   27  C   UNL     1      -7.755   6.893  65.543  1.00  0.00    -0.101 C  
HETATM   28  C   UNL     1      -8.475   9.124  66.255  1.00  0.00    -0.131 C  
HETATM   29  C   UNL     1      -8.882   7.920  65.425  1.00  0.00     0.021 C  
HETATM   30  O   UNL     1      -6.468   8.975  64.810  1.00  0.00    -0.066 OA 
HETATM   31  C   UNL     1      -6.429   7.565  65.070  1.00  0.00    -0.038 C  
HETATM   32  H   UNL     1     -10.388   6.626  65.327  1.00  0.00     0.000 HD 
HETATM   33  C   UNL     1      -5.913   6.939  63.765  1.00  0.00    -0.039 C  
BRANCH  27  34
HETATM   34  O   UNL     1      -7.486   6.467  66.900  1.00  0.00    -0.081 OA 
BRANCH  34  35
HETATM   35  C   UNL     1      -7.904   7.268  68.003  1.00  0.00    -0.118 C  
HETATM   36  C   UNL     1      -9.296   6.929  68.518  1.00  0.00    -0.134 C  
HETATM   37  C   UNL     1      -9.318   5.472  68.953  1.00  0.00    -0.125 C  
HETATM   38  O   UNL     1     -10.616   5.096  69.422  1.00  0.00    -0.212 OA 
HETATM   39  C   UNL     1      -8.233   5.171  70.007  1.00  0.00    -0.082 C  
HETATM   40  O   UNL     1      -6.963   7.131  69.075  1.00  0.00    -0.069 OA 
HETATM   41  C   UNL     1      -6.867   5.836  69.673  1.00  0.00    -0.061 C  
HETATM   42  H   UNL     1     -10.630   4.186  69.693  1.00  0.00     0.000 HD 
HETATM   43  C   UNL     1      -5.874   4.965  68.901  1.00  0.00    -0.020 C  
BRANCH  39  44
HETATM   44  O   UNL     1      -8.570   5.643  71.330  1.00  0.00    -0.125 OA 
BRANCH  44  45
HETATM   45  C   UNL     1      -7.526   5.914  72.266  1.00  0.00    -0.099 C  
HETATM   46  C   UNL     1      -6.668   7.140  71.960  1.00  0.00    -0.056 C  
HETATM   47  C   UNL     1      -7.546   8.384  72.003  1.00  0.00    -0.117 C  
HETATM   48  C   UNL     1      -8.164   8.531  73.397  1.00  0.00     0.006 C  
HETATM   49  O   UNL     1      -6.754   9.543  71.716  1.00  0.00    -0.304 OA 
HETATM   50  H   UNL     1      -7.301  10.319  71.743  1.00  0.00     0.000 HD 
HETATM   51  O   UNL     1      -7.110   8.854  74.323  1.00  0.00    -0.384 OA 
HETATM   52  C   UNL     1      -8.862   7.232  73.838  1.00  0.00    -0.205 C  
HETATM   53  C   UNL     1     -10.264   7.090  73.250  1.00  0.00    -0.309 C  
HETATM   54  O   UNL     1      -8.084   6.051  73.584  1.00  0.00    -0.106 OA 
HETATM   55  H   UNL     1      -7.494   8.946  75.188  1.00  0.00     0.000 HD 
ENDBRANCH  44  45
ENDBRANCH  39  44
ENDBRANCH  34  35
ENDBRANCH  27  34
ENDBRANCH  24  25
ENDBRANCH  16  24
BRANCH  14  56
HETATM   56  C   UNL     1     -12.570  14.180  70.356  1.00  0.00    -0.397 C  
HETATM   57  C   UNL     1     -13.554  15.282  70.403  1.00  0.00     0.179 C  
HETATM   58  C   UNL     1     -13.883  13.888  72.158  1.00  0.00    -0.541 C  
HETATM   59  O   UNL     1     -14.361  14.996  71.546  1.00  0.00    -0.477 OA 
HETATM   60  O   UNL     1     -14.309  13.392  73.187  1.00  0.00     0.343 OA 
HETATM   61  C   UNL     1     -12.755  13.370  71.400  1.00  0.00    -0.411 C  
ENDBRANCH  14  56
TORSDOF 7
ENDMDL
MODEL       39
REMARK 921   NORMALIZED FREE ENERGY PREDICTED BY IDOCK:    4.48 KCAL/MOL
REMARK 922        TOTAL FREE ENERGY PREDICTED BY IDOCK:    4.47 KCAL/MOL
REMARK 923 INTER-LIGAND FREE ENERGY PREDICTED BY IDOCK:   -0.55 KCAL/MOL
REMARK 924 INTRA-LIGAND FREE ENERGY PREDICTED BY IDOCK:    5.02 KCAL/MOL
REMARK 927      BINDING AFFINITY PREDICTED BY RF-SCORE:    0.00 PKD
ROOT
HETATM    1  C   UNL     1      -7.090  10.445  64.649  1.00  0.00    -0.017 C  
HETATM    2  C   UNL     1      -8.027   9.706  63.683  1.00  0.00    -0.142 C  
HETATM    3  C   UNL     1      -9.109   8.889  64.364  1.00  0.00     0.180 C  
HETATM    4  C   UNL     1      -8.527   7.803  65.284  1.00  0.00    -0.099 C  
HETATM    5  C   UNL     1      -7.457   8.387  66.215  1.00  0.00    -0.089 C  
HETATM    6  C   UNL     1      -6.536   9.566  65.805  1.00  0.00    -0.074 C  
HETATM    7  C   UNL     1      -6.750   7.302  67.042  1.00  0.00    -0.068 C  
HETATM    8  C   UNL     1      -5.134   9.080  65.352  1.00  0.00    -0.037 C  
HETATM    9  C   UNL     1      -7.750   6.743  68.042  1.00  0.00    -0.112 C  
HETATM   10  C   UNL     1      -6.408  10.430  67.115  1.00  0.00    -0.067 C  
HETATM   11  C   UNL     1      -7.760  11.069  67.528  1.00  0.00    -0.114 C  
HETATM   12  O   UNL     1      -8.083   7.753  69.000  1.00  0.00    -0.121 OA 
HETATM   13  C   UNL     1      -9.020   6.198  67.342  1.00  0.00    -0.112 C  
HETATM   14  C   UNL     1      -8.673   4.961  66.458  1.00  0.00    -0.112 C  
HETATM   15  C   UNL     1     -10.089   5.915  68.437  1.00  0.00    -0.206 C  
HETATM   16  C   UNL     1      -8.326  11.958  66.425  1.00  0.00     0.005 C  
HETATM   17  H   UNL     1      -8.708   7.403  69.625  1.00  0.00     0.000 HD 
HETATM   18  O   UNL     1     -10.425   8.154  66.835  1.00  0.00    -0.328 OA 
HETATM   19  C   UNL     1      -9.903   4.788  65.552  1.00  0.00    -0.163 C  
HETATM   20  H   UNL     1     -11.083   7.756  67.393  1.00  0.00     0.000 HD 
HETATM   21  C   UNL     1      -7.567  11.841  65.101  1.00  0.00     1.839 C  
HETATM   22  C   UNL     1      -9.630   7.137  66.221  1.00  0.00    -0.034 C  
HETATM   23  C   UNL     1     -10.559   6.176  65.456  1.00  0.00     1.629 C  
ENDROOT
BRANCH  16  24
HETATM   24  O   UNL     1      -9.711  11.774  66.146  1.00  0.00    -0.217 OA 
BRANCH  24  25
HETATM   25  C   UNL     1     -10.526  10.988  67.030  1.00  0.00    -0.240 C  
HETATM   26  O   UNL     1      -8.793  11.379  70.317  1.00  0.00     1.351 OA 
HETATM   27  C   UNL     1     -11.173  11.693  69.858  1.00  0.00    -0.060 C  
HETATM   28  C   UNL     1      -9.758  10.498  68.255  1.00  0.00    -0.163 C  
HETATM   29  C   UNL     1      -9.755  11.608  69.290  1.00  0.00     0.359 C  
HETATM   30  O   UNL     1     -11.622  11.854  67.347  1.00  0.00    -0.408 OA 
HETATM   31  C   UNL     1     -12.160  11.938  68.673  1.00  0.00    -0.095 C  
HETATM   32  H   UNL     1      -8.791  12.073  70.965  1.00  0.00     0.000 HD 
HETATM   33  C   UNL     1     -12.799  13.332  68.750  1.00  0.00     1.356 C  
BRANCH  27  34
HETATM   34  O   UNL     1     -11.637  10.468  70.473  1.00  0.00    -0.306 OA 
BRANCH  34  35
HETATM   35  C   UNL     1     -11.092   9.212  70.076  1.00  0.00    -0.190 C  
HETATM   36  C   UNL     1      -9.667   8.978  70.560  1.00  0.00    -0.262 C  
HETATM   37  C   UNL     1      -9.646   9.048  72.079  1.00  0.00    -0.050 C  
HETATM   38  O   UNL     1      -8.320   8.861  72.583  1.00  0.00    -0.392 OA 
HETATM   39  C   UNL     1     -10.633   8.047  72.713  1.00  0.00    -0.351 C  
HETATM   40  O   UNL     1     -11.929   8.155  70.561  1.00  0.00    -0.114 OA 
HETATM   41  C   UNL     1     -12.005   8.007  71.982  1.00  0.00    -0.327 C  
HETATM   42  H   UNL     1      -8.306   8.905  73.532  1.00  0.00     0.000 HD 
HETATM   43  C   UNL     1     -13.091   8.917  72.555  1.00  0.00    -0.426 C  
BRANCH  39  44
HETATM   44  O   UNL     1     -10.156   6.683  72.700  1.00  0.00    -0.171 OA 
BRANCH  44  45
HETATM   45  C   UNL     1      -9.837   6.040  73.935  1.00  0.00    -0.197 C  
HETATM   46  C   UNL     1     -10.411   4.636  74.113  1.00  0.00    -0.333 C  
HETATM   47  C   UNL     1      -9.824   3.720  73.048  1.00  0.00    -0.132 C  
HETATM   48  C   UNL     1      -8.301   3.668  73.194  1.00  0.00    -0.087 C  
HETATM   49  O   UNL     1     -10.355   2.398  73.202  1.00  0.00    -0.116 OA 
HETATM   50  H   UNL     1      -9.990   1.827  72.538  1.00  0.00     0.000 HD 
HETATM   51  O   UNL     1      -7.990   2.973  74.416  1.00  0.00    -0.066 OA 
HETATM   52  C   UNL     1      -7.696   5.084  73.234  1.00  0.00    -0.093 C  
HETATM   53  C   UNL     1      -7.525   5.689  71.843  1.00  0.00    -0.095 C  
HETATM   54  O   UNL     1      -8.409   5.985  74.095  1.00  0.00    -0.109 OA 
HETATM   55  H   UNL     1      -7.044   2.941  74.506  1.00  0.00     0.000 HD 
ENDBRANCH  44  45
ENDBRANCH  39  44
ENDBRANCH  34  35
ENDBRANCH  27  34
ENDBRANCH  24  25
ENDBRANCH  16  24
BRANCH  14  56
HETATM   56  C   UNL     1      -8.119   3.714  67.072  1.00  0.00    -0.091 C  
HETATM   57  C   UNL     1      -8.827   2.791  67.982  1.00  0.00    -0.133 C  
HETATM   58  C   UNL     1      -6.663   2.153  67.780  1.00  0.00    -0.039 C  
HETATM   59  O   UNL     1      -7.845   1.822  68.350  1.00  0.00    -0.052 OA 
HETATM   60  O   UNL     1      -5.605   1.565  67.922  1.00  0.00    -0.017 OA 
HETATM   61  C   UNL     1      -6.840   3.347  66.968  1.00  0.00    -0.050 C  
ENDBRANCH  14  56
TORSDOF 7
ENDMDL
MODEL       40
REMARK 921   NORMALIZED FREE ENERGY PREDICTED BY IDOCK:    5.44 KCAL/MOL
REMARK 922        TOTAL FREE ENERGY PREDICTED BY IDOCK:    5.83 KCAL/MOL
REMARK 923 INTER-LIGAND FREE ENERGY PREDICTED BY IDOCK:   -2.85 KCAL/MOL
REMARK 924 INTRA-LIGAND FREE ENERGY PREDICTED BY IDOCK:    8.68 KCAL/MOL
REMARK 927      BINDING AFFINITY PREDICTED BY RF-SCORE:    0.00 PKD
ROOT
HETATM    1  C   UNL     1      -7.312   5.653  72.308  1.00  0.00    -0.095 C  
HETATM    2  C   UNL     1      -5.990   5.460  71.553  1.00  0.00    -0.025 C  
HETATM    3  C   UNL     1      -5.960   6.087  70.172  1.00  0.00    -0.025 C  
HETATM    4  C   UNL     1      -7.049   5.515  69.249  1.00  0.00    -0.064 C  
HETATM    5  C   UNL     1      -8.415   5.515  69.945  1.00  0.00    -0.116 C  
HETATM    6  C   UNL     1      -8.582   5.322  71.475  1.00  0.00    -0.132 C  
HETATM    7  C   UNL     1      -9.496   4.812  69.108  1.00  0.00    -0.215 C  
HETATM    8  C   UNL     1      -8.978   3.867  71.840  1.00  0.00    -0.153 C  
HETATM    9  C   UNL     1      -9.777   5.671  67.884  1.00  0.00    -0.125 C  
HETATM   10  C   UNL     1      -9.745   6.309  71.864  1.00  0.00    -0.166 C  
HETATM   11  C   UNL     1      -9.344   7.794  71.663  1.00  0.00    -0.174 C  
HETATM   12  O   UNL     1     -10.394   6.897  68.292  1.00  0.00    -0.174 OA 
HETATM   13  C   UNL     1      -8.494   5.939  67.061  1.00  0.00    -0.107 C  
HETATM   14  C   UNL     1      -7.947   4.614  66.446  1.00  0.00    -0.103 C  
HETATM   15  C   UNL     1      -8.817   7.040  66.009  1.00  0.00    -0.155 C  
HETATM   16  C   UNL     1      -8.112   8.164  72.484  1.00  0.00    -0.150 C  
HETATM   17  H   UNL     1     -10.570   7.433  67.528  1.00  0.00     0.000 HD 
HETATM   18  O   UNL     1      -7.296   7.751  68.216  1.00  0.00    -0.096 OA 
HETATM   19  C   UNL     1      -6.513   4.961  66.014  1.00  0.00    -0.040 C  
HETATM   20  H   UNL     1      -7.399   8.254  67.416  1.00  0.00     0.000 HD 
HETATM   21  C   UNL     1      -7.426   6.956  73.128  1.00  0.00    -0.077 C  
HETATM   22  C   UNL     1      -7.222   6.358  67.908  1.00  0.00    -0.087 C  
HETATM   23  C   UNL     1      -6.072   6.131  66.910  1.00  0.00    -0.025 C  
ENDROOT
BRANCH  16  24
HETATM   24  O   UNL     1      -7.115   8.903  71.784  1.00  0.00    -0.219 OA 
BRANCH  24  25
HETATM   25  C   UNL     1      -7.360  10.268  71.410  1.00  0.00     1.964 C  
HETATM   26  O   UNL     1      -5.246  10.682  68.358  1.00  0.00    -0.035 OA 
HETATM   27  C   UNL     1      -7.606  11.270  68.609  1.00  0.00    -0.129 C  
HETATM   28  C   UNL     1      -6.220  10.865  70.588  1.00  0.00    -0.003 C  
HETATM   29  C   UNL     1      -6.418  10.463  69.138  1.00  0.00    -0.048 C  
HETATM   30  O   UNL     1      -8.607  10.213  70.709  1.00  0.00     0.220 OA 
HETATM   31  C   UNL     1      -8.840  10.978  69.518  1.00  0.00     0.383 C  
HETATM   32  H   UNL     1      -5.369  10.431  67.450  1.00  0.00     0.000 HD 
HETATM   33  C   UNL     1      -9.929  10.204  68.761  1.00  0.00    -0.187 C  
BRANCH  27  34
HETATM   34  O   UNL     1      -7.425  12.704  68.686  1.00  0.00    -0.116 OA 
BRANCH  34  35
HETATM   35  C   UNL     1      -7.903  13.430  69.815  1.00  0.00     1.288 C  
HETATM   36  C   UNL     1      -7.187  14.755  70.044  1.00  0.00     0.035 C  
HETATM   37  C   UNL     1      -7.359  15.627  68.809  1.00  0.00    -0.144 C  
HETATM   38  O   UNL     1      -6.680  16.875  68.964  1.00  0.00    -0.190 OA 
HETATM   39  C   UNL     1      -8.847  15.837  68.459  1.00  0.00    -0.193 C  
HETATM   40  O   UNL     1      -9.306  13.678  69.664  1.00  0.00     0.909 OA 
HETATM   41  C   UNL     1      -9.686  14.533  68.582  1.00  0.00    -0.221 C  
HETATM   42  H   UNL     1      -6.787  17.420  68.193  1.00  0.00     0.000 HD 
HETATM   43  C   UNL     1      -9.850  13.724  67.295  1.00  0.00    -0.241 C  
BRANCH  39  44
HETATM   44  O   UNL     1      -9.508  16.796  69.313  1.00  0.00    -0.211 OA 
BRANCH  44  45
HETATM   45  C   UNL     1      -9.702  18.133  68.849  1.00  0.00    -0.271 C  
HETATM   46  C   UNL     1      -8.427  18.932  68.590  1.00  0.00    -0.381 C  
HETATM   47  C   UNL     1      -7.636  18.257  67.477  1.00  0.00    -0.215 C  
HETATM   48  C   UNL     1      -8.477  18.214  66.199  1.00  0.00    -0.111 C  
HETATM   49  O   UNL     1      -6.434  18.996  67.224  1.00  0.00    -0.188 OA 
HETATM   50  H   UNL     1      -5.941  18.575  66.530  1.00  0.00     0.000 HD 
HETATM   51  O   UNL     1      -8.623  19.562  65.712  1.00  0.00    -0.407 OA 
HETATM   52  C   UNL     1      -9.866  17.606  66.465  1.00  0.00    -0.319 C  
HETATM   53  C   UNL     1      -9.845  16.079  66.482  1.00  0.00    -0.284 C  
HETATM   54  O   UNL     1     -10.496  18.116  67.651  1.00  0.00    -0.385 OA 
HETATM   55  H   UNL     1      -9.146  19.535  64.919  1.00  0.00     0.000 HD 
ENDBRANCH  44  45
ENDBRANCH  39  44
ENDBRANCH  34  35
ENDBRANCH  27  34
ENDBRANCH  24  25
ENDBRANCH  16  24
BRANCH  14  56
HETATM   56  C   UNL     1      -8.765   3.832  65.467  1.00  0.00    -0.118 C  
HETATM   57  C   UNL     1      -8.406   2.534  64.858  1.00  0.00    -0.089 C  
HETATM   58  C   UNL     1     -10.332   3.299  63.944  1.00  0.00    -0.215 C  
HETATM   59  O   UNL     1      -9.465   2.260  63.941  1.00  0.00    -0.108 OA 
HETATM   60  O   UNL     1     -11.325   3.412  63.246  1.00  0.00    -0.130 OA 
HETATM   61  C   UNL     1      -9.891   4.289  64.915  1.00  0.00    -0.184 C  
ENDBRANCH  14  56
TORSDOF 7
ENDMDL
MODEL       41
REMARK 921   NORMALIZED FREE ENERGY PREDICTED BY IDOCK:    6.22 KCAL/MOL
REMARK 922        TOTAL FREE ENERGY PREDICTED BY IDOCK:    6.93 KCAL/MOL
REMARK 923 INTER-LIGAND FREE ENERGY PREDICTED BY IDOCK:   -6.60 KCAL/MOL
REMARK 924 INTRA-LIGAND FREE ENERGY PREDICTED BY IDOCK:   13.52 KCAL/MOL
REMARK 927      BINDING AFFINITY PREDICTED BY RF-SCORE:    0.00 PKD
ROOT
HETATM    1  C   UNL     1      -6.191   5.582  71.776  1.00  0.00    -0.038 C  
HETATM    2  C   UNL     1      -5.158   5.958  70.705  1.00  0.00    -0.012 C  
HETATM    3  C   UNL     1      -5.754   6.545  69.440  1.00  0.00    -0.014 C  
HETATM    4  C   UNL     1      -6.728   5.575  68.750  1.00  0.00    -0.053 C  
HETATM    5  C   UNL     1      -7.738   5.006  69.753  1.00  0.00    -0.064 C  
HETATM    6  C   UNL     1      -7.396   4.755  71.245  1.00  0.00    -0.068 C  
HETATM    7  C   UNL     1      -8.630   3.920  69.128  1.00  0.00    -0.113 C  
HETATM    8  C   UNL     1      -7.063   3.266  71.526  1.00  0.00    -0.032 C  
HETATM    9  C   UNL     1      -9.549   4.588  68.117  1.00  0.00    -0.146 C  
HETATM   10  C   UNL     1      -8.705   5.169  72.016  1.00  0.00    -0.134 C  
HETATM   11  C   UNL     1      -9.001   6.687  71.895  1.00  0.00    -0.136 C  
HETATM   12  O   UNL     1     -10.468   5.446  68.801  1.00  0.00    -0.197 OA 
HETATM   13  C   UNL     1      -8.752   5.368  67.042  1.00  0.00    -0.107 C  
HETATM   14  C   UNL     1      -7.909   4.392  66.165  1.00  0.00    -0.095 C  
HETATM   15  C   UNL     1      -9.758   6.239  66.235  1.00  0.00    -0.090 C  
HETATM   16  C   UNL     1      -7.848   7.532  72.428  1.00  0.00    -0.098 C  
HETATM   17  H   UNL     1     -11.043   5.863  68.169  1.00  0.00     0.000 HD 
HETATM   18  O   UNL     1      -8.115   7.511  68.071  1.00  0.00    -0.120 OA 
HETATM   19  C   UNL     1      -6.907   5.305  65.441  1.00  0.00    -0.060 C  
HETATM   20  H   UNL     1      -8.621   7.928  67.384  1.00  0.00     0.000 HD 
HETATM   21  C   UNL     1      -6.591   6.716  72.743  1.00  0.00    -0.063 C  
HETATM   22  C   UNL     1      -7.577   6.275  67.597  1.00  0.00    -0.097 C  
HETATM   23  C   UNL     1      -6.747   6.550  66.330  1.00  0.00    -0.053 C  
ENDROOT
BRANCH  16  24
HETATM   24  O   UNL     1      -7.458   8.622  71.596  1.00  0.00    -0.100 OA 
BRANCH  24  25
HETATM   25  C   UNL     1      -7.999   8.747  70.272  1.00  0.00    -0.106 C  
HETATM   26  O   UNL     1      -7.939  12.439  69.700  1.00  0.00     0.267 OA 
HETATM   27  C   UNL     1      -7.076  10.701  68.212  1.00  0.00    -0.081 C  
HETATM   28  C   UNL     1      -8.622  10.118  70.020  1.00  0.00    -0.019 C  
HETATM   29  C   UNL     1      -7.516  11.079  69.628  1.00  0.00     0.039 C  
HETATM   30  O   UNL     1      -6.886   8.457  69.418  1.00  0.00    -0.045 OA 
HETATM   31  C   UNL     1      -6.637   9.204  68.220  1.00  0.00    -0.059 C  
HETATM   32  H   UNL     1      -7.247  13.041  69.455  1.00  0.00     0.000 HD 
HETATM   33  C   UNL     1      -5.128   9.057  67.972  1.00  0.00    -0.034 C  
BRANCH  27  34
HETATM   34  O   UNL     1      -8.136  10.767  67.228  1.00  0.00    -0.114 OA 
BRANCH  34  35
HETATM   35  C   UNL     1      -9.493  10.567  67.617  1.00  0.00    -0.149 C  
HETATM   36  C   UNL     1     -10.043  11.664  68.519  1.00  0.00    -0.210 C  
HETATM   37  C   UNL     1      -9.947  12.995  67.790  1.00  0.00    -0.227 C  
HETATM   38  O   UNL     1     -10.428  14.064  68.609  1.00  0.00    -0.239 OA 
HETATM   39  C   UNL     1     -10.677  12.958  66.431  1.00  0.00    -0.270 C  
HETATM   40  O   UNL     1     -10.315  10.469  66.447  1.00  0.00    -0.232 OA 
HETATM   41  C   UNL     1     -10.410  11.645  65.640  1.00  0.00    -0.262 C  
HETATM   42  H   UNL     1     -10.369  14.896  68.154  1.00  0.00     0.000 HD 
HETATM   43  C   UNL     1      -9.259  11.697  64.634  1.00  0.00     0.119 C  
BRANCH  39  44
HETATM   44  O   UNL     1     -12.114  13.046  66.548  1.00  0.00    -0.398 OA 
BRANCH  44  45
HETATM   45  C   UNL     1     -12.766  14.285  66.266  1.00  0.00    -0.044 C  
HETATM   46  C   UNL     1     -11.925  15.539  66.495  1.00  0.00     0.589 C  
HETATM   47  C   UNL     1     -10.732  15.517  65.548  1.00  0.00    -0.381 C  
HETATM   48  C   UNL     1     -11.225  15.493  64.098  1.00  0.00     0.117 C  
HETATM   49  O   UNL     1      -9.933  16.688  65.752  1.00  0.00    -0.466 OA 
HETATM   50  H   UNL     1      -9.189  16.675  65.162  1.00  0.00     0.000 HD 
HETATM   51  O   UNL     1     -11.835  16.764  63.810  1.00  0.00    -1.011 OA 
HETATM   52  C   UNL     1     -12.248  14.364  63.875  1.00  0.00    -0.139 C  
HETATM   53  C   UNL     1     -11.586  13.006  63.655  1.00  0.00    -0.507 C  
HETATM   54  O   UNL     1     -13.242  14.282  64.909  1.00  0.00    -0.550 OA 
HETATM   55  H   UNL     1     -12.141  16.749  62.910  1.00  0.00     0.000 HD 
ENDBRANCH  44  45
ENDBRANCH  39  44
ENDBRANCH  34  35
ENDBRANCH  27  34
ENDBRANCH  24  25
ENDBRANCH  16  24
BRANCH  14  56
HETATM   56  C   UNL     1      -8.577   3.344  65.332  1.00  0.00    -0.111 C  
HETATM   57  C   UNL     1      -9.466   2.269  65.817  1.00  0.00     0.162 C  
HETATM   58  C   UNL     1      -9.083   2.000  63.601  1.00  0.00    -0.096 C  
HETATM   59  O   UNL     1      -9.763   1.494  64.655  1.00  0.00    -0.085 OA 
HETATM   60  O   UNL     1      -9.073   1.553  62.467  1.00  0.00    -0.074 OA 
HETATM   61  C   UNL     1      -8.338   3.174  64.030  1.00  0.00    -0.090 C  
ENDBRANCH  14  56
TORSDOF 7
ENDMDL
MODEL       42
REMARK 921   NORMALIZED FREE ENERGY PREDICTED BY IDOCK:    6.74 KCAL/MOL
REMARK 922        TOTAL FREE ENERGY PREDICTED BY IDOCK:    7.65 KCAL/MOL
REMARK 923 INTER-LIGAND FREE ENERGY PREDICTED BY IDOCK:   -1.90 KCAL/MOL
REMARK 924 INTRA-LIGAND FREE ENERGY PREDICTED BY IDOCK:    9.55 KCAL/MOL
REMARK 927      BINDING AFFINITY PREDICTED BY RF-SCORE:    0.00 PKD
ROOT
HETATM    1  C   UNL     1      -9.700   6.098  68.613  1.00  0.00    -0.145 C  
HETATM    2  C   UNL     1      -8.981   5.779  67.294  1.00  0.00    -0.112 C  
HETATM    3  C   UNL     1      -8.238   6.953  66.687  1.00  0.00    -0.115 C  
HETATM    4  C   UNL     1      -9.171   8.134  66.372  1.00  0.00    -0.250 C  
HETATM    5  C   UNL     1     -10.060   8.467  67.576  1.00  0.00    -0.282 C  
HETATM    6  C   UNL     1     -10.557   7.394  68.580  1.00  0.00    -0.182 C  
HETATM    7  C   UNL     1     -11.108   9.542  67.246  1.00  0.00     0.112 C  
HETATM    8  C   UNL     1     -12.014   6.949  68.286  1.00  0.00     1.748 C  
HETATM    9  C   UNL     1     -10.380  10.861  67.032  1.00  0.00    -0.231 C  
HETATM   10  C   UNL     1     -10.486   8.113  69.979  1.00  0.00    -0.231 C  
HETATM   11  C   UNL     1      -9.028   8.443  70.394  1.00  0.00    -0.152 C  
HETATM   12  O   UNL     1      -9.808  11.297  68.269  1.00  0.00    -0.182 OA 
HETATM   13  C   UNL     1      -9.301  10.750  65.927  1.00  0.00    -0.220 C  
HETATM   14  C   UNL     1      -9.959  10.478  64.539  1.00  0.00    -0.413 C  
HETATM   15  C   UNL     1      -8.429  12.038  65.975  1.00  0.00     0.271 C  
HETATM   16  C   UNL     1      -8.160   7.190  70.458  1.00  0.00    -0.113 C  
HETATM   17  H   UNL     1      -9.354  12.121  68.135  1.00  0.00     0.000 HD 
HETATM   18  O   UNL     1      -7.343   9.691  66.976  1.00  0.00    -0.087 OA 
HETATM   19  C   UNL     1      -8.793  10.010  63.653  1.00  0.00    -0.249 C  
HETATM   20  H   UNL     1      -6.868  10.486  66.761  1.00  0.00     0.000 HD 
HETATM   21  C   UNL     1      -8.847   5.946  69.889  1.00  0.00    -0.130 C  
HETATM   22  C   UNL     1      -8.375   9.467  66.013  1.00  0.00    -0.119 C  
HETATM   23  C   UNL     1      -7.742   9.422  64.610  1.00  0.00    -0.117 C  
ENDROOT
BRANCH  16  24
HETATM   24  O   UNL     1      -6.883   7.302  69.834  1.00  0.00    -0.053 OA 
BRANCH  24  25
HETATM   25  C   UNL     1      -6.421   8.578  69.363  1.00  0.00    -0.037 C  
HETATM   26  O   UNL     1      -9.300  10.833  70.127  1.00  0.00    -0.019 OA 
HETATM   27  C   UNL     1      -6.950  11.199  70.691  1.00  0.00     1.256 C  
HETATM   28  C   UNL     1      -7.567   9.524  69.014  1.00  0.00    -0.075 C  
HETATM   29  C   UNL     1      -8.035  10.198  70.291  1.00  0.00     0.123 C  
HETATM   30  O   UNL     1      -5.587   9.054  70.426  1.00  0.00    -0.032 OA 
HETATM   31  C   UNL     1      -5.603  10.425  70.843  1.00  0.00    -0.092 C  
HETATM   32  H   UNL     1      -9.593  11.255  70.926  1.00  0.00     0.000 HD 
HETATM   33  C   UNL     1      -5.130  10.397  72.304  1.00  0.00     0.055 C  
BRANCH  27  34
HETATM   34  O   UNL     1      -6.681  12.209  69.690  1.00  0.00    -0.075 OA 
BRANCH  34  35
HETATM   35  C   UNL     1      -6.011  13.415  70.046  1.00  0.00    -0.137 C  
HETATM   36  C   UNL     1      -5.131  13.981  68.939  1.00  0.00    -0.076 C  
HETATM   37  C   UNL     1      -5.996  14.259  67.718  1.00  0.00    -0.098 C  
HETATM   38  O   UNL     1      -5.209  14.768  66.638  1.00  0.00     1.074 OA 
HETATM   39  C   UNL     1      -7.170  15.202  68.050  1.00  0.00    -0.127 C  
HETATM   40  O   UNL     1      -6.976  14.403  70.426  1.00  0.00     0.020 OA 
HETATM   41  C   UNL     1      -7.863  14.852  69.398  1.00  0.00    -0.139 C  
HETATM   42  H   UNL     1      -5.748  14.942  65.875  1.00  0.00     0.000 HD 
HETATM   43  C   UNL     1      -9.079  13.929  69.301  1.00  0.00     0.506 C  
BRANCH  39  44
HETATM   44  O   UNL     1      -6.778  16.587  68.173  1.00  0.00    -0.133 OA 
BRANCH  44  45
HETATM   45  C   UNL     1      -6.889  17.451  67.041  1.00  0.00    -0.182 C  
HETATM   46  C   UNL     1      -8.191  18.242  66.941  1.00  0.00    -0.260 C  
HETATM   47  C   UNL     1      -8.299  19.175  68.140  1.00  0.00    -0.316 C  
HETATM   48  C   UNL     1      -7.114  20.145  68.147  1.00  0.00    -0.275 C  
HETATM   49  O   UNL     1      -9.518  19.923  68.061  1.00  0.00    -0.348 OA 
HETATM   50  H   UNL     1      -9.586  20.505  68.808  1.00  0.00     0.000 HD 
HETATM   51  O   UNL     1      -7.263  21.043  67.032  1.00  0.00    -0.477 OA 
HETATM   52  C   UNL     1      -5.776  19.393  68.032  1.00  0.00    -0.199 C  
HETATM   53  C   UNL     1      -5.301  18.830  69.369  1.00  0.00    -0.206 C  
HETATM   54  O   UNL     1      -5.782  18.368  67.025  1.00  0.00    -0.144 OA 
HETATM   55  H   UNL     1      -6.528  21.645  67.036  1.00  0.00     0.000 HD 
ENDBRANCH  44  45
ENDBRANCH  39  44
ENDBRANCH  34  35
ENDBRANCH  27  34
ENDBRANCH  24  25
ENDBRANCH  16  24
BRANCH  14  56
HETATM   56  C   UNL     1     -10.898  11.472  63.932  1.00  0.00    -0.469 C  
HETATM   57  C   UNL     1     -11.512  11.397  62.591  1.00  0.00     1.163 C  
HETATM   58  C   UNL     1     -12.048  13.370  63.566  1.00  0.00    -0.432 C  
HETATM   59  O   UNL     1     -12.246  12.615  62.460  1.00  0.00     0.691 OA 
HETATM   60  O   UNL     1     -12.492  14.488  63.765  1.00  0.00    -0.809 OA 
HETATM   61  C   UNL     1     -11.201  12.642  64.498  1.00  0.00    -0.375 C  
ENDBRANCH  14  56
TORSDOF 7
ENDMDL
MODEL       43
REMARK 921   NORMALIZED FREE ENERGY PREDICTED BY IDOCK:    7.68 KCAL/MOL
REMARK 922        TOTAL FREE ENERGY PREDICTED BY IDOCK:    8.98 KCAL/MOL
REMARK 923 INTER-LIGAND FREE ENERGY PREDICTED BY IDOCK:    5.64 KCAL/MOL
REMARK 924 INTRA-LIGAND FREE ENERGY PREDICTED BY IDOCK:    3.34 KCAL/MOL
REMARK 927      BINDING AFFINITY PREDICTED BY RF-SCORE:    0.00 PKD
ROOT
HETATM    1  C   UNL     1     -10.937  15.031  69.798  1.00  0.00    -0.291 C  
HETATM    2  C   UNL     1      -9.931  14.253  68.939  1.00  0.00    -0.160 C  
HETATM    3  C   UNL     1     -10.384  12.858  68.553  1.00  0.00    -0.239 C  
HETATM    4  C   UNL     1     -10.649  11.971  69.781  1.00  0.00     0.605 C  
HETATM    5  C   UNL     1     -11.537  12.695  70.800  1.00  0.00     0.676 C  
HETATM    6  C   UNL     1     -11.504  14.232  71.006  1.00  0.00     0.053 C  
HETATM    7  C   UNL     1     -11.698  11.897  72.104  1.00  0.00     3.654 C  
HETATM    8  C   UNL     1     -10.652  14.638  72.238  1.00  0.00     2.408 C  
HETATM    9  C   UNL     1     -12.530  10.660  71.800  1.00  0.00    -0.219 C  
HETATM   10  C   UNL     1     -13.011  14.623  71.241  1.00  0.00    -0.407 C  
HETATM   11  C   UNL     1     -13.882  14.380  69.980  1.00  0.00     1.875 C  
HETATM   12  O   UNL     1     -13.864  11.053  71.464  1.00  0.00     0.271 OA 
HETATM   13  C   UNL     1     -11.900   9.804  70.674  1.00  0.00    -0.360 C  
HETATM   14  C   UNL     1     -10.534   9.208  71.134  1.00  0.00    -0.385 C  
HETATM   15  C   UNL     1     -12.944   8.735  70.240  1.00  0.00     1.177 C  
HETATM   16  C   UNL     1     -13.368  15.166  68.777  1.00  0.00     2.860 C  
HETATM   17  H   UNL     1     -14.384  10.280  71.274  1.00  0.00     0.000 HD 
HETATM   18  O   UNL     1     -12.509  10.893  68.553  1.00  0.00    -0.742 OA 
HETATM   19  C   UNL     1      -9.867   8.739  69.830  1.00  0.00    -0.189 C  
HETATM   20  H   UNL     1     -12.956  10.084  68.330  1.00  0.00     0.000 HD 
HETATM   21  C   UNL     1     -12.006  15.823  69.017  1.00  0.00    -0.294 C  
HETATM   22  C   UNL     1     -11.398  10.615  69.408  1.00  0.00    -0.284 C  
HETATM   23  C   UNL     1     -10.477   9.599  68.709  1.00  0.00    -0.238 C  
ENDROOT
BRANCH  16  24
HETATM   24  O   UNL     1     -13.284  14.428  67.561  1.00  0.00     1.661 OA 
BRANCH  24  25
HETATM   25  C   UNL     1     -12.024  13.889  67.131  1.00  0.00    -0.420 C  
HETATM   26  O   UNL     1     -13.009  11.622  64.329  1.00  0.00    -0.200 OA 
HETATM   27  C   UNL     1     -11.265  13.335  64.297  1.00  0.00    -0.387 C  
HETATM   28  C   UNL     1     -12.172  12.541  66.430  1.00  0.00    -0.100 C  
HETATM   29  C   UNL     1     -12.526  12.797  64.976  1.00  0.00    -0.506 C  
HETATM   30  O   UNL     1     -11.480  14.916  66.293  1.00  0.00    -0.337 OA 
HETATM   31  C   UNL     1     -10.803  14.611  65.067  1.00  0.00    -0.417 C  
HETATM   32  H   UNL     1     -13.231  11.781  63.420  1.00  0.00     0.000 HD 
HETATM   33  C   UNL     1     -10.956  15.875  64.209  1.00  0.00     0.191 C  
BRANCH  27  34
HETATM   34  O   UNL     1     -10.132  12.437  64.361  1.00  0.00    -0.305 OA 
BRANCH  34  35
HETATM   35  C   UNL     1     -10.304  11.042  64.127  1.00  0.00    -0.369 C  
HETATM   36  C   UNL     1      -9.420  10.490  63.017  1.00  0.00    -0.364 C  
HETATM   37  C   UNL     1      -7.964  10.736  63.380  1.00  0.00     0.126 C  
HETATM   38  O   UNL     1      -7.091  10.257  62.352  1.00  0.00    -0.130 OA 
HETATM   39  C   UNL     1      -7.604  10.125  64.750  1.00  0.00    -0.139 C  
HETATM   40  O   UNL     1     -10.041  10.320  65.336  1.00  0.00    -0.293 OA 
HETATM   41  C   UNL     1      -8.699  10.372  65.827  1.00  0.00    -0.168 C  
HETATM   42  H   UNL     1      -6.181  10.411  62.578  1.00  0.00     0.000 HD 
HETATM   43  C   UNL     1      -8.501  11.606  66.707  1.00  0.00    -0.177 C  
BRANCH  39  44
HETATM   44  O   UNL     1      -7.424   8.693  64.712  1.00  0.00    -0.091 OA 
BRANCH  44  45
HETATM   45  C   UNL     1      -8.273   7.858  65.501  1.00  0.00    -0.140 C  
HETATM   46  C   UNL     1      -8.629   6.508  64.883  1.00  0.00     0.105 C  
HETATM   47  C   UNL     1      -7.355   5.691  64.706  1.00  0.00    -0.068 C  
HETATM   48  C   UNL     1      -6.693   5.468  66.069  1.00  0.00    -0.056 C  
HETATM   49  O   UNL     1      -7.673   4.421  64.125  1.00  0.00    -0.076 OA 
HETATM   50  H   UNL     1      -6.879   3.912  64.015  1.00  0.00     0.000 HD 
HETATM   51  O   UNL     1      -7.532   4.585  66.837  1.00  0.00    -0.080 OA 
HETATM   52  C   UNL     1      -6.510   6.797  66.825  1.00  0.00    -0.043 C  
HETATM   53  C   UNL     1      -5.273   7.566  66.369  1.00  0.00    -0.024 C  
HETATM   54  O   UNL     1      -7.673   7.639  66.788  1.00  0.00    -0.098 OA 
HETATM   55  H   UNL     1      -7.121   4.446  67.682  1.00  0.00     0.000 HD 
ENDBRANCH  44  45
ENDBRANCH  39  44
ENDBRANCH  34  35
ENDBRANCH  27  34
ENDBRANCH  24  25
ENDBRANCH  16  24
BRANCH  14  56
HETATM   56  C   UNL     1     -10.463   8.265  72.293  1.00  0.00    -0.392 C  
HETATM   57  C   UNL     1      -9.471   8.288  73.387  1.00  0.00    -0.059 C  
HETATM   58  C   UNL     1     -10.800   6.467  73.601  1.00  0.00    -0.116 C  
HETATM   59  O   UNL     1      -9.781   7.141  74.180  1.00  0.00    -0.274 OA 
HETATM   60  O   UNL     1     -11.286   5.418  73.991  1.00  0.00    -0.080 OA 
HETATM   61  C   UNL     1     -11.234   7.182  72.411  1.00  0.00    -0.309 C  
ENDBRANCH  14  56
TORSDOF 7
ENDMDL
MODEL       44
REMARK 921   NORMALIZED FREE ENERGY PREDICTED BY IDOCK:    8.30 KCAL/MOL
REMARK 922        TOTAL FREE ENERGY PREDICTED BY IDOCK:    9.86 KCAL/MOL
REMARK 923 INTER-LIGAND FREE ENERGY PREDICTED BY IDOCK:   -3.01 KCAL/MOL
REMARK 924 INTRA-LIGAND FREE ENERGY PREDICTED BY IDOCK:   12.87 KCAL/MOL
REMARK 927      BINDING AFFINITY PREDICTED BY RF-SCORE:    0.00 PKD
ROOT
HETATM    1  C   UNL     1      -8.288   2.580  66.384  1.00  0.00    -0.093 C  
HETATM    2  C   UNL     1      -6.799   2.770  66.064  1.00  0.00    -0.048 C  
HETATM    3  C   UNL     1      -6.225   4.098  66.521  1.00  0.00    -0.032 C  
HETATM    4  C   UNL     1      -6.941   5.296  65.875  1.00  0.00    -0.066 C  
HETATM    5  C   UNL     1      -8.463   5.157  65.999  1.00  0.00    -0.118 C  
HETATM    6  C   UNL     1      -9.188   3.786  65.994  1.00  0.00    -0.161 C  
HETATM    7  C   UNL     1      -9.212   6.260  65.234  1.00  0.00     0.347 C  
HETATM    8  C   UNL     1      -9.792   3.450  64.605  1.00  0.00    -0.146 C  
HETATM    9  C   UNL     1      -8.968   7.580  65.949  1.00  0.00    -0.089 C  
HETATM   10  C   UNL     1     -10.340   3.954  67.055  1.00  0.00     0.738 C  
HETATM   11  C   UNL     1      -9.789   4.140  68.493  1.00  0.00    -0.085 C  
HETATM   12  O   UNL     1      -9.602   7.553  67.232  1.00  0.00    -0.142 OA 
HETATM   13  C   UNL     1      -7.457   7.894  66.079  1.00  0.00    -0.078 C  
HETATM   14  C   UNL     1      -6.820   8.128  64.675  1.00  0.00    -0.067 C  
HETATM   15  C   UNL     1      -7.297   9.094  67.057  1.00  0.00    -0.090 C  
HETATM   16  C   UNL     1      -8.916   2.964  68.920  1.00  0.00    -0.130 C  
HETATM   17  H   UNL     1      -9.449   8.378  67.679  1.00  0.00     0.000 HD 
HETATM   18  O   UNL     1      -6.636   6.564  67.980  1.00  0.00    -0.056 OA 
HETATM   19  C   UNL     1      -5.307   8.031  64.925  1.00  0.00    -0.032 C  
HETATM   20  H   UNL     1      -6.404   7.391  68.387  1.00  0.00     0.000 HD 
HETATM   21  C   UNL     1      -8.599   1.995  67.777  1.00  0.00    -0.110 C  
HETATM   22  C   UNL     1      -6.554   6.682  66.558  1.00  0.00    -0.044 C  
HETATM   23  C   UNL     1      -5.139   7.158  66.180  1.00  0.00    -0.023 C  
ENDROOT
BRANCH  16  24
HETATM   24  O   UNL     1      -7.683   3.316  69.542  1.00  0.00    -0.050 OA 
BRANCH  24  25
HETATM   25  C   UNL     1      -7.682   4.040  70.782  1.00  0.00    -0.051 C  
HETATM   26  O   UNL     1      -6.600   7.461  69.740  1.00  0.00    -0.038 OA 
HETATM   27  C   UNL     1      -8.535   6.881  71.117  1.00  0.00    -0.123 C  
HETATM   28  C   UNL     1      -6.747   5.246  70.756  1.00  0.00    -0.043 C  
HETATM   29  C   UNL     1      -7.484   6.406  70.112  1.00  0.00    -0.094 C  
HETATM   30  O   UNL     1      -9.058   4.384  70.978  1.00  0.00    -0.118 OA 
HETATM   31  C   UNL     1      -9.453   5.671  71.473  1.00  0.00    -0.150 C  
HETATM   32  H   UNL     1      -7.060   8.187  69.337  1.00  0.00     0.000 HD 
HETATM   33  C   UNL     1     -10.882   5.872  70.948  1.00  0.00    -0.347 C  
BRANCH  27  34
HETATM   34  O   UNL     1      -7.986   7.310  72.386  1.00  0.00    -0.094 OA 
BRANCH  34  35
HETATM   35  C   UNL     1      -7.997   8.689  72.746  1.00  0.00     0.075 C  
HETATM   36  C   UNL     1      -6.708   9.425  72.408  1.00  0.00     0.551 C  
HETATM   37  C   UNL     1      -6.463   9.326  70.910  1.00  0.00    -0.080 C  
HETATM   38  O   UNL     1      -5.245   9.981  70.545  1.00  0.00    -0.039 OA 
HETATM   39  C   UNL     1      -7.656   9.868  70.097  1.00  0.00    -0.175 C  
HETATM   40  O   UNL     1      -9.092   9.343  72.093  1.00  0.00     0.001 OA 
HETATM   41  C   UNL     1      -9.030   9.413  70.666  1.00  0.00    -0.228 C  
HETATM   42  H   UNL     1      -5.091   9.919  69.609  1.00  0.00     0.000 HD 
HETATM   43  C   UNL     1      -9.621   8.146  70.044  1.00  0.00    -0.171 C  
BRANCH  39  44
HETATM   44  O   UNL     1      -7.719  11.310  70.061  1.00  0.00     0.398 OA 
BRANCH  44  45
HETATM   45  C   UNL     1      -6.514  12.062  69.907  1.00  0.00    -0.029 C  
HETATM   46  C   UNL     1      -5.730  11.794  68.624  1.00  0.00    -0.045 C  
HETATM   47  C   UNL     1      -6.582  12.198  67.428  1.00  0.00    -0.147 C  
HETATM   48  C   UNL     1      -6.921  13.689  67.515  1.00  0.00    -0.143 C  
HETATM   49  O   UNL     1      -5.860  11.951  66.216  1.00  0.00    -0.503 OA 
HETATM   50  H   UNL     1      -6.391  12.203  65.470  1.00  0.00     0.000 HD 
HETATM   51  O   UNL     1      -5.708  14.437  67.308  1.00  0.00    -0.290 OA 
HETATM   52  C   UNL     1      -7.522  14.045  68.887  1.00  0.00    -0.095 C  
HETATM   53  C   UNL     1      -9.011  13.720  68.978  1.00  0.00     0.275 C  
HETATM   54  O   UNL     1      -6.808  13.467  69.991  1.00  0.00     0.147 OA 
HETATM   55  H   UNL     1      -5.919  15.363  67.362  1.00  0.00     0.000 HD 
ENDBRANCH  44  45
ENDBRANCH  39  44
ENDBRANCH  34  35
ENDBRANCH  27  34
ENDBRANCH  24  25
ENDBRANCH  16  24
BRANCH  14  56
HETATM   56  C   UNL     1      -7.280   9.256  63.807  1.00  0.00    -0.095 C  
HETATM   57  C   UNL     1      -6.424  10.259  63.140  1.00  0.00    -0.127 C  
HETATM   58  C   UNL     1      -8.604  10.782  62.818  1.00  0.00    -0.218 C  
HETATM   59  O   UNL     1      -7.340  11.157  62.514  1.00  0.00     0.031 OA 
HETATM   60  O   UNL     1      -9.627  11.355  62.484  1.00  0.00    -0.249 OA 
HETATM   61  C   UNL     1      -8.564   9.576  63.631  1.00  0.00    -0.222 C  
ENDBRANCH  14  56
TORSDOF 7
ENDMDL
MODEL       45
REMARK 921   NORMALIZED FREE ENERGY PREDICTED BY IDOCK:    9.91 KCAL/MOL
REMARK 922        TOTAL FREE ENERGY PREDICTED BY IDOCK:   12.13 KCAL/MOL
REMARK 923 INTER-LIGAND FREE ENERGY PREDICTED BY IDOCK:   -2.68 KCAL/MOL
REMARK 924 INTRA-LIGAND FREE ENERGY PREDICTED BY IDOCK:   14.81 KCAL/MOL
REMARK 927      BINDING AFFINITY PREDICTED BY RF-SCORE:    0.00 PKD
ROOT
HETATM    1  C   UNL     1      -7.305   8.210  72.286  1.00  0.00    -0.122 C  
HETATM    2  C   UNL     1      -6.791   9.362  71.410  1.00  0.00     0.065 C  
HETATM    3  C   UNL     1      -7.434   9.438  70.038  1.00  0.00    -0.107 C  
HETATM    4  C   UNL     1      -7.205   8.160  69.215  1.00  0.00    -0.072 C  
HETATM    5  C   UNL     1      -7.547   6.910  70.035  1.00  0.00    -0.099 C  
HETATM    6  C   UNL     1      -7.354   6.831  71.572  1.00  0.00    -0.085 C  
HETATM    7  C   UNL     1      -7.187   5.612  69.295  1.00  0.00    -0.066 C  
HETATM    8  C   UNL     1      -6.046   6.091  71.958  1.00  0.00    -0.041 C  
HETATM    9  C   UNL     1      -8.131   5.467  68.111  1.00  0.00    -0.095 C  
HETATM   10  C   UNL     1      -8.602   6.015  72.076  1.00  0.00    -0.136 C  
HETATM   11  C   UNL     1      -9.932   6.782  71.853  1.00  0.00    -0.187 C  
HETATM   12  O   UNL     1      -9.462   5.241  68.585  1.00  0.00    -0.116 OA 
HETATM   13  C   UNL     1      -8.074   6.698  67.174  1.00  0.00    -0.113 C  
HETATM   14  C   UNL     1      -6.673   6.813  66.499  1.00  0.00    -0.049 C  
HETATM   15  C   UNL     1      -9.257   6.594  66.168  1.00  0.00    -0.120 C  
HETATM   16  C   UNL     1      -9.930   8.135  72.559  1.00  0.00    -0.302 C  
HETATM   17  H   UNL     1     -10.052   5.150  67.846  1.00  0.00     0.000 HD 
HETATM   18  O   UNL     1      -9.460   8.436  68.230  1.00  0.00    -0.138 OA 
HETATM   19  C   UNL     1      -6.638   8.244  65.939  1.00  0.00    -0.053 C  
HETATM   20  H   UNL     1      -9.999   8.403  67.448  1.00  0.00     0.000 HD 
HETATM   21  C   UNL     1      -8.562   8.523  73.125  1.00  0.00    -0.096 C  
HETATM   22  C   UNL     1      -8.109   8.105  67.904  1.00  0.00    -0.128 C  
HETATM   23  C   UNL     1      -7.616   9.060  66.801  1.00  0.00    -0.090 C  
ENDROOT
BRANCH  16  24
HETATM   24  O   UNL     1     -10.400   9.230  71.776  1.00  0.00    -0.328 OA 
BRANCH  24  25
HETATM   25  C   UNL     1     -10.126   9.278  70.367  1.00  0.00    -0.236 C  
HETATM   26  O   UNL     1     -13.118  11.052  69.004  1.00  0.00     0.070 OA 
HETATM   27  C   UNL     1     -10.770  11.571  68.566  1.00  0.00    -0.209 C  
HETATM   28  C   UNL     1     -11.394   9.406  69.527  1.00  0.00     0.026 C  
HETATM   29  C   UNL     1     -11.784  10.871  69.473  1.00  0.00    -0.328 C  
HETATM   30  O   UNL     1      -9.232  10.390  70.231  1.00  0.00     0.229 OA 
HETATM   31  C   UNL     1      -9.342  11.319  69.145  1.00  0.00     0.102 C  
HETATM   32  H   UNL     1     -13.363  11.969  68.970  1.00  0.00     0.000 HD 
HETATM   33  C   UNL     1      -8.711  12.616  69.672  1.00  0.00     2.000 C  
BRANCH  27  34
HETATM   34  O   UNL     1     -10.718  11.040  67.220  1.00  0.00    -0.233 OA 
BRANCH  34  35
HETATM   35  C   UNL     1     -10.072  11.773  66.182  1.00  0.00    -0.224 C  
HETATM   36  C   UNL     1     -11.015  12.249  65.085  1.00  0.00    -0.344 C  
HETATM   37  C   UNL     1     -12.081  13.140  65.706  1.00  0.00    -0.447 C  
HETATM   38  O   UNL     1     -13.010  13.592  64.717  1.00  0.00    -0.685 OA 
HETATM   39  C   UNL     1     -11.461  14.324  66.476  1.00  0.00    -0.360 C  
HETATM   40  O   UNL     1      -9.401  12.907  66.746  1.00  0.00    -0.232 OA 
HETATM   41  C   UNL     1     -10.234  13.907  67.337  1.00  0.00    -0.252 C  
HETATM   42  H   UNL     1     -13.676  14.149  65.104  1.00  0.00     0.000 HD 
HETATM   43  C   UNL     1     -10.533  13.558  68.796  1.00  0.00    -0.212 C  
BRANCH  39  44
HETATM   44  O   UNL     1     -10.980  15.380  65.616  1.00  0.00    -0.333 OA 
BRANCH  44  45
HETATM   45  C   UNL     1     -11.333  16.734  65.902  1.00  0.00     0.677 C  
HETATM   46  C   UNL     1     -12.206  16.940  67.138  1.00  0.00     2.702 C  
HETATM   47  C   UNL     1     -11.437  16.482  68.371  1.00  0.00    -0.104 C  
HETATM   48  C   UNL     1     -10.153  17.304  68.513  1.00  0.00    -0.341 C  
HETATM   49  O   UNL     1     -12.245  16.668  69.540  1.00  0.00     0.019 OA 
HETATM   50  H   UNL     1     -11.766  16.383  70.308  1.00  0.00     0.000 HD 
HETATM   51  O   UNL     1     -10.519  18.655  68.851  1.00  0.00    -0.442 OA 
HETATM   52  C   UNL     1      -9.340  17.299  67.205  1.00  0.00    -0.237 C  
HETATM   53  C   UNL     1      -8.495  16.038  67.044  1.00  0.00    -0.245 C  
HETATM   54  O   UNL     1     -10.141  17.526  66.034  1.00  0.00    -0.451 OA 
HETATM   55  H   UNL     1      -9.722  19.165  68.939  1.00  0.00     0.000 HD 
ENDBRANCH  44  45
ENDBRANCH  39  44
ENDBRANCH  34  35
ENDBRANCH  27  34
ENDBRANCH  24  25
ENDBRANCH  16  24
BRANCH  14  56
HETATM   56  C   UNL     1      -6.171   5.732  65.593  1.00  0.00    -0.037 C  
HETATM   57  C   UNL     1      -5.573   4.446  66.005  1.00  0.00    -0.017 C  
HETATM   58  C   UNL     1      -5.456   4.656  63.753  1.00  0.00    -0.013 C  
HETATM   59  O   UNL     1      -5.184   3.820  64.782  1.00  0.00    -0.008 OA 
HETATM   60  O   UNL     1      -5.210   4.454  62.576  1.00  0.00    -0.008 OA 
HETATM   61  C   UNL     1      -6.085   5.862  64.268  1.00  0.00    -0.025 C  
ENDBRANCH  14  56
TORSDOF 7
ENDMDL
MODEL       46
REMARK 921   NORMALIZED FREE ENERGY PREDICTED BY IDOCK:   10.73 KCAL/MOL
REMARK 922        TOTAL FREE ENERGY PREDICTED BY IDOCK:   13.28 KCAL/MOL
REMARK 923 INTER-LIGAND FREE ENERGY PREDICTED BY IDOCK:    7.21 KCAL/MOL
REMARK 924 INTRA-LIGAND FREE ENERGY PREDICTED BY IDOCK:    6.07 KCAL/MOL
REMARK 927      BINDING AFFINITY PREDICTED BY RF-SCORE:    0.00 PKD
ROOT
HETATM    1  C   UNL     1     -10.630  13.599  68.821  1.00  0.00    -0.247 C  
HETATM    2  C   UNL     1      -9.426  12.844  68.241  1.00  0.00    -0.206 C  
HETATM    3  C   UNL     1      -9.659  11.360  68.033  1.00  0.00    -0.184 C  
HETATM    4  C   UNL     1     -10.006  10.635  69.344  1.00  0.00    -0.183 C  
HETATM    5  C   UNL     1     -11.113  11.377  70.104  1.00  0.00     0.064 C  
HETATM    6  C   UNL     1     -11.281  12.918  70.057  1.00  0.00     0.216 C  
HETATM    7  C   UNL     1     -11.379  10.764  71.488  1.00  0.00     1.152 C  
HETATM    8  C   UNL     1     -10.675  13.609  71.307  1.00  0.00     3.720 C  
HETATM    9  C   UNL     1     -12.015   9.397  71.284  1.00  0.00    -0.353 C  
HETATM   10  C   UNL     1     -12.840  13.136  70.024  1.00  0.00     0.329 C  
HETATM   11  C   UNL     1     -13.478  12.597  68.717  1.00  0.00     5.032 C  
HETATM   12  O   UNL     1     -13.318   9.555  70.715  1.00  0.00    -0.584 OA 
HETATM   13  C   UNL     1     -11.131   8.476  70.408  1.00  0.00    -0.246 C  
HETATM   14  C   UNL     1      -9.792   8.141  71.135  1.00  0.00    -0.207 C  
HETATM   15  C   UNL     1     -11.973   7.226  70.021  1.00  0.00     0.137 C  
HETATM   16  C   UNL     1     -12.879  13.259  67.480  1.00  0.00     1.561 C  
HETATM   17  H   UNL     1     -13.715   8.701  70.588  1.00  0.00     0.000 HD 
HETATM   18  O   UNL     1     -11.529   9.151  68.075  1.00  0.00    -0.174 OA 
HETATM   19  C   UNL     1      -8.889   7.578  70.026  1.00  0.00    -0.144 C  
HETATM   20  H   UNL     1     -11.845   8.267  67.931  1.00  0.00     0.000 HD 
HETATM   21  C   UNL     1     -11.650  14.119  67.786  1.00  0.00    -0.379 C  
HETATM   22  C   UNL     1     -10.537   9.152  69.103  1.00  0.00    -0.208 C  
HETATM   23  C   UNL     1      -9.414   8.175  68.708  1.00  0.00    -0.148 C  
ENDROOT
BRANCH  16  24
HETATM   24  O   UNL     1     -12.531  12.369  66.422  1.00  0.00    -0.418 OA 
BRANCH  24  25
HETATM   25  C   UNL     1     -11.154  12.037  66.184  1.00  0.00    -0.322 C  
HETATM   26  O   UNL     1     -11.215  10.720  62.688  1.00  0.00    -0.204 OA 
HETATM   27  C   UNL     1      -9.713  12.421  63.598  1.00  0.00     0.115 C  
HETATM   28  C   UNL     1     -10.987  10.970  65.105  1.00  0.00    -0.103 C  
HETATM   29  C   UNL     1     -11.027  11.652  63.750  1.00  0.00    -0.422 C  
HETATM   30  O   UNL     1     -10.552  13.292  65.848  1.00  0.00    -0.274 OA 
HETATM   31  C   UNL     1      -9.584  13.410  64.798  1.00  0.00     0.410 C  
HETATM   32  H   UNL     1     -11.241  11.146  61.840  1.00  0.00     0.000 HD 
HETATM   33  C   UNL     1      -9.678  14.872  64.337  1.00  0.00     2.009 C  
BRANCH  27  34
HETATM   34  O   UNL     1      -8.531  11.589  63.679  1.00  0.00     0.423 OA 
BRANCH  34  35
HETATM   35  C   UNL     1      -8.458  10.531  64.630  1.00  0.00    -0.139 C  
HETATM   36  C   UNL     1      -9.055   9.219  64.140  1.00  0.00    -0.045 C  
HETATM   37  C   UNL     1      -8.317   8.782  62.884  1.00  0.00    -0.182 C  
HETATM   38  O   UNL     1      -8.860   7.564  62.367  1.00  0.00    -0.380 OA 
HETATM   39  C   UNL     1      -6.798   8.660  63.125  1.00  0.00    -0.090 C  
HETATM   40  O   UNL     1      -7.090  10.313  64.997  1.00  0.00    -0.136 OA 
HETATM   41  C   UNL     1      -6.224   9.838  63.963  1.00  0.00    -0.116 C  
HETATM   42  H   UNL     1      -8.399   7.290  61.583  1.00  0.00     0.000 HD 
HETATM   43  C   UNL     1      -5.658  11.011  63.162  1.00  0.00     0.111 C  
BRANCH  39  44
HETATM   44  O   UNL     1      -6.424   7.465  63.845  1.00  0.00    -0.047 OA 
BRANCH  44  45
HETATM   45  C   UNL     1      -7.373   6.408  63.989  1.00  0.00    -0.073 C  
HETATM   46  C   UNL     1      -6.853   5.008  63.670  1.00  0.00    -0.046 C  
HETATM   47  C   UNL     1      -5.743   4.655  64.651  1.00  0.00    -0.014 C  
HETATM   48  C   UNL     1      -6.290   4.680  66.081  1.00  0.00    -0.036 C  
HETATM   49  O   UNL     1      -5.243   3.343  64.363  1.00  0.00    -0.008 OA 
HETATM   50  H   UNL     1      -4.551   3.123  64.974  1.00  0.00     0.000 HD 
HETATM   51  O   UNL     1      -7.206   3.580  66.231  1.00  0.00    -0.065 OA 
HETATM   52  C   UNL     1      -7.017   6.005  66.377  1.00  0.00    -0.067 C  
HETATM   53  C   UNL     1      -6.056   7.133  66.743  1.00  0.00    -0.038 C  
HETATM   54  O   UNL     1      -7.904   6.416  65.325  1.00  0.00    -0.095 OA 
HETATM   55  H   UNL     1      -7.546   3.596  67.118  1.00  0.00     0.000 HD 
ENDBRANCH  44  45
ENDBRANCH  39  44
ENDBRANCH  34  35
ENDBRANCH  27  34
ENDBRANCH  24  25
ENDBRANCH  16  24
BRANCH  14  56
HETATM   56  C   UNL     1      -9.795   7.395  72.432  1.00  0.00    -0.207 C  
HETATM   57  C   UNL     1      -8.875   7.605  73.569  1.00  0.00    -0.230 C  
HETATM   58  C   UNL     1     -10.210   5.824  73.987  1.00  0.00    -0.266 C  
HETATM   59  O   UNL     1      -9.232   6.596  74.514  1.00  0.00    -0.183 OA 
HETATM   60  O   UNL     1     -10.717   4.846  74.508  1.00  0.00    -0.360 OA 
HETATM   61  C   UNL     1     -10.569   6.335  72.673  1.00  0.00    -0.243 C  
ENDBRANCH  14  56
TORSDOF 7
ENDMDL
MODEL       47
REMARK 921   NORMALIZED FREE ENERGY PREDICTED BY IDOCK:   11.94 KCAL/MOL
REMARK 922        TOTAL FREE ENERGY PREDICTED BY IDOCK:   14.99 KCAL/MOL
REMARK 923 INTER-LIGAND FREE ENERGY PREDICTED BY IDOCK:    9.19 KCAL/MOL
REMARK 924 INTRA-LIGAND FREE ENERGY PREDICTED BY IDOCK:    5.80 KCAL/MOL
REMARK 927      BINDING AFFINITY PREDICTED BY RF-SCORE:    0.00 PKD
ROOT
HETATM    1  C   UNL     1     -10.775  14.752  69.597  1.00  0.00    -0.207 C  
HETATM    2  C   UNL     1      -9.805  13.893  68.773  1.00  0.00    -0.117 C  
HETATM    3  C   UNL     1     -10.327  12.510  68.434  1.00  0.00    -0.237 C  
HETATM    4  C   UNL     1     -10.644  11.682  69.690  1.00  0.00     0.214 C  
HETATM    5  C   UNL     1     -11.499  12.487  70.676  1.00  0.00     0.743 C  
HETATM    6  C   UNL     1     -11.388  14.027  70.827  1.00  0.00     0.261 C  
HETATM    7  C   UNL     1     -11.707  11.745  72.006  1.00  0.00     3.103 C  
HETATM    8  C   UNL     1     -10.524  14.432  72.050  1.00  0.00     3.387 C  
HETATM    9  C   UNL     1     -12.600  10.542  71.741  1.00  0.00    -0.342 C  
HETATM   10  C   UNL     1     -12.875  14.502  71.037  1.00  0.00    -0.418 C  
HETATM   11  C   UNL     1     -13.750  14.258  69.780  1.00  0.00     2.397 C  
HETATM   12  O   UNL     1     -13.911  10.990  71.381  1.00  0.00     0.372 OA 
HETATM   13  C   UNL     1     -12.008   9.615  70.651  1.00  0.00    -0.304 C  
HETATM   14  C   UNL     1     -10.677   8.967  71.141  1.00  0.00    -0.358 C  
HETATM   15  C   UNL     1     -13.104   8.586  70.247  1.00  0.00     1.410 C  
HETATM   16  C   UNL     1     -13.190  14.973  68.554  1.00  0.00     2.774 C  
HETATM   17  H   UNL     1     -14.469  10.239  71.215  1.00  0.00     0.000 HD 
HETATM   18  O   UNL     1     -12.550  10.657  68.488  1.00  0.00    -0.483 OA 
HETATM   19  C   UNL     1     -10.029   8.419  69.860  1.00  0.00    -0.190 C  
HETATM   20  H   UNL     1     -13.036   9.864  68.291  1.00  0.00     0.000 HD 
HETATM   21  C   UNL     1     -11.798  15.568  68.780  1.00  0.00    -0.335 C  
HETATM   22  C   UNL     1     -11.459  10.354  69.360  1.00  0.00    -0.227 C  
HETATM   23  C   UNL     1     -10.587   9.267  68.705  1.00  0.00    -0.220 C  
ENDROOT
BRANCH  16  24
HETATM   24  O   UNL     1     -13.137  14.190  67.364  1.00  0.00     1.022 OA 
BRANCH  24  25
HETATM   25  C   UNL     1     -11.925  13.509  67.004  1.00  0.00    -0.394 C  
HETATM   26  O   UNL     1     -12.808  11.925  63.737  1.00  0.00    -0.595 OA 
HETATM   27  C   UNL     1     -10.836  13.283  64.233  1.00  0.00    -0.392 C  
HETATM   28  C   UNL     1     -12.170  12.337  66.057  1.00  0.00    -0.050 C  
HETATM   29  C   UNL     1     -12.254  12.878  64.641  1.00  0.00    -0.435 C  
HETATM   30  O   UNL     1     -11.107  14.541  66.441  1.00  0.00    -0.318 OA 
HETATM   31  C   UNL     1     -10.305  14.318  65.273  1.00  0.00    -0.395 C  
HETATM   32  H   UNL     1     -12.860  12.263  62.851  1.00  0.00     0.000 HD 
HETATM   33  C   UNL     1     -10.129  15.709  64.646  1.00  0.00     0.668 C  
BRANCH  27  34
HETATM   34  O   UNL     1      -9.878  12.199  64.274  1.00  0.00    -0.234 OA 
BRANCH  34  35
HETATM   35  C   UNL     1      -9.208  11.875  65.489  1.00  0.00    -0.007 C  
HETATM   36  C   UNL     1      -9.740  10.623  66.173  1.00  0.00    -0.253 C  
HETATM   37  C   UNL     1      -9.598   9.445  65.222  1.00  0.00    -0.180 C  
HETATM   38  O   UNL     1     -10.111   8.246  65.809  1.00  0.00    -0.338 OA 
HETATM   39  C   UNL     1      -8.140   9.260  64.753  1.00  0.00    -0.133 C  
HETATM   40  O   UNL     1      -7.808  11.706  65.231  1.00  0.00     0.699 OA 
HETATM   41  C   UNL     1      -7.447  10.605  64.393  1.00  0.00     0.201 C  
HETATM   42  H   UNL     1     -10.022   7.510  65.216  1.00  0.00     0.000 HD 
HETATM   43  C   UNL     1      -7.508  11.012  62.920  1.00  0.00     0.286 C  
BRANCH  39  44
HETATM   44  O   UNL     1      -7.290   8.649  65.748  1.00  0.00    -0.079 OA 
BRANCH  44  45
HETATM   45  C   UNL     1      -7.685   8.676  67.121  1.00  0.00    -0.096 C  
HETATM   46  C   UNL     1      -7.177   7.516  67.975  1.00  0.00    -0.090 C  
HETATM   47  C   UNL     1      -5.656   7.560  68.020  1.00  0.00    -0.027 C  
HETATM   48  C   UNL     1      -5.196   8.885  68.635  1.00  0.00    -0.034 C  
HETATM   49  O   UNL     1      -5.165   6.476  68.817  1.00  0.00    -0.013 OA 
HETATM   50  H   UNL     1      -4.216   6.504  68.845  1.00  0.00     0.000 HD 
HETATM   51  O   UNL     1      -5.554   8.879  70.030  1.00  0.00    -0.028 OA 
HETATM   52  C   UNL     1      -5.858  10.086  67.935  1.00  0.00    -0.038 C  
HETATM   53  C   UNL     1      -5.155  10.467  66.634  1.00  0.00    -0.042 C  
HETATM   54  O   UNL     1      -7.267   9.915  67.718  1.00  0.00    -0.086 OA 
HETATM   55  H   UNL     1      -5.268   9.702  70.412  1.00  0.00     0.000 HD 
ENDBRANCH  44  45
ENDBRANCH  39  44
ENDBRANCH  34  35
ENDBRANCH  27  34
ENDBRANCH  24  25
ENDBRANCH  16  24
BRANCH  14  56
HETATM   56  C   UNL     1     -10.662   8.064  72.334  1.00  0.00    -0.386 C  
HETATM   57  C   UNL     1      -9.835   8.223  73.548  1.00  0.00     0.386 C  
HETATM   58  C   UNL     1     -10.974   6.268  73.651  1.00  0.00     0.007 C  
HETATM   59  O   UNL     1     -10.123   7.067  74.335  1.00  0.00    -0.271 OA 
HETATM   60  O   UNL     1     -11.390   5.181  74.013  1.00  0.00    -0.079 OA 
HETATM   61  C   UNL     1     -11.318   6.904  72.389  1.00  0.00    -0.308 C  
ENDBRANCH  14  56
TORSDOF 7
ENDMDL
MODEL       48
REMARK 921   NORMALIZED FREE ENERGY PREDICTED BY IDOCK:   12.68 KCAL/MOL
REMARK 922        TOTAL FREE ENERGY PREDICTED BY IDOCK:   16.03 KCAL/MOL
REMARK 923 INTER-LIGAND FREE ENERGY PREDICTED BY IDOCK:   -1.19 KCAL/MOL
REMARK 924 INTRA-LIGAND FREE ENERGY PREDICTED BY IDOCK:   17.21 KCAL/MOL
REMARK 927      BINDING AFFINITY PREDICTED BY RF-SCORE:    0.00 PKD
ROOT
HETATM    1  C   UNL     1     -10.910   7.977  66.188  1.00  0.00     1.730 C  
HETATM    2  C   UNL     1     -11.184   9.142  67.149  1.00  0.00     0.649 C  
HETATM    3  C   UNL     1     -10.059   9.424  68.127  1.00  0.00    -0.215 C  
HETATM    4  C   UNL     1      -9.750   8.215  69.025  1.00  0.00    -0.163 C  
HETATM    5  C   UNL     1      -9.594   6.937  68.190  1.00  0.00    -0.124 C  
HETATM    6  C   UNL     1     -10.380   6.688  66.876  1.00  0.00    -0.324 C  
HETATM    7  C   UNL     1      -9.434   5.685  69.067  1.00  0.00    -0.159 C  
HETATM    8  C   UNL     1     -11.612   5.771  67.098  1.00  0.00     1.283 C  
HETATM    9  C   UNL     1      -8.082   5.763  69.758  1.00  0.00    -0.104 C  
HETATM   10  C   UNL     1      -9.340   5.973  65.934  1.00  0.00    -0.047 C  
HETATM   11  C   UNL     1      -8.158   6.903  65.555  1.00  0.00    -0.132 C  
HETATM   12  O   UNL     1      -7.040   5.644  68.785  1.00  0.00    -0.068 OA 
HETATM   13  C   UNL     1      -7.930   7.066  70.582  1.00  0.00    -0.109 C  
HETATM   14  C   UNL     1      -8.939   7.086  71.771  1.00  0.00    -0.135 C  
HETATM   15  C   UNL     1      -6.440   7.193  71.012  1.00  0.00    -0.044 C  
HETATM   16  C   UNL     1      -8.638   8.172  64.857  1.00  0.00    -0.012 C  
HETATM   17  H   UNL     1      -6.194   5.693  69.217  1.00  0.00     0.000 HD 
HETATM   18  O   UNL     1      -7.354   8.838  68.975  1.00  0.00    -0.071 OA 
HETATM   19  C   UNL     1      -8.949   8.552  72.234  1.00  0.00    -0.299 C  
HETATM   20  H   UNL     1      -6.546   8.942  69.464  1.00  0.00     0.000 HD 
HETATM   21  C   UNL     1     -10.159   8.347  64.892  1.00  0.00     2.702 C  
HETATM   22  C   UNL     1      -8.395   8.389  69.845  1.00  0.00    -0.124 C  
HETATM   23  C   UNL     1      -8.530   9.386  71.011  1.00  0.00    -0.036 C  
ENDROOT
BRANCH  16  24
HETATM   24  O   UNL     1      -8.054   9.384  65.328  1.00  0.00    -0.115 OA 
BRANCH  24  25
HETATM   25  C   UNL     1      -8.487   9.957  66.570  1.00  0.00    -0.125 C  
HETATM   26  O   UNL     1      -6.159  12.847  67.003  1.00  0.00    -0.478 OA 
HETATM   27  C   UNL     1      -8.597  12.880  67.172  1.00  0.00    -0.198 C  
HETATM   28  C   UNL     1      -7.385  10.753  67.265  1.00  0.00    -0.097 C  
HETATM   29  C   UNL     1      -7.353  12.147  66.666  1.00  0.00     0.201 C  
HETATM   30  O   UNL     1      -9.624  10.749  66.204  1.00  0.00    -0.182 OA 
HETATM   31  C   UNL     1      -9.854  12.047  66.767  1.00  0.00    -0.204 C  
HETATM   32  H   UNL     1      -6.138  13.719  66.629  1.00  0.00     0.000 HD 
HETATM   33  C   UNL     1     -10.706  12.783  65.723  1.00  0.00    -0.296 C  
BRANCH  27  34
HETATM   34  O   UNL     1      -8.675  12.982  68.614  1.00  0.00    -0.084 OA 
BRANCH  34  35
HETATM   35  C   UNL     1      -9.347  14.081  69.223  1.00  0.00     0.407 C  
HETATM   36  C   UNL     1      -8.417  15.056  69.933  1.00  0.00     0.256 C  
HETATM   37  C   UNL     1      -7.419  15.606  68.925  1.00  0.00    -0.162 C  
HETATM   38  O   UNL     1      -6.503  16.509  69.550  1.00  0.00    -0.210 OA 
HETATM   39  C   UNL     1      -8.124  16.267  67.722  1.00  0.00    -0.149 C  
HETATM   40  O   UNL     1     -10.096  14.791  68.229  1.00  0.00    -0.213 OA 
HETATM   41  C   UNL     1      -9.337  15.441  67.206  1.00  0.00    -0.210 C  
HETATM   42  H   UNL     1      -5.879  16.853  68.921  1.00  0.00     0.000 HD 
HETATM   43  C   UNL     1      -9.042  14.469  66.063  1.00  0.00     0.026 C  
BRANCH  39  44
HETATM   44  O   UNL     1      -8.655  17.577  68.016  1.00  0.00    -0.236 OA 
BRANCH  44  45
HETATM   45  C   UNL     1      -8.746  18.548  66.973  1.00  0.00    -0.277 C  
HETATM   46  C   UNL     1      -8.268  19.952  67.336  1.00  0.00    -0.356 C  
HETATM   47  C   UNL     1      -6.784  19.900  67.674  1.00  0.00    -0.239 C  
HETATM   48  C   UNL     1      -5.996  19.392  66.463  1.00  0.00    -0.164 C  
HETATM   49  O   UNL     1      -6.321  21.211  68.019  1.00  0.00    -0.344 OA 
HETATM   50  H   UNL     1      -5.396  21.179  68.230  1.00  0.00     0.000 HD 
HETATM   51  O   UNL     1      -6.051  20.400  65.437  1.00  0.00    -0.200 OA 
HETATM   52  C   UNL     1      -6.584  18.074  65.928  1.00  0.00    -0.284 C  
HETATM   53  C   UNL     1      -6.115  16.856  66.722  1.00  0.00    -0.216 C  
HETATM   54  O   UNL     1      -8.016  18.089  65.822  1.00  0.00    -0.532 OA 
HETATM   55  H   UNL     1      -5.562  20.084  64.685  1.00  0.00     0.000 HD 
ENDBRANCH  44  45
ENDBRANCH  39  44
ENDBRANCH  34  35
ENDBRANCH  27  34
ENDBRANCH  24  25
ENDBRANCH  16  24
BRANCH  14  56
HETATM   56  C   UNL     1      -8.871   6.049  72.848  1.00  0.00    -0.122 C  
HETATM   57  C   UNL     1      -7.755   5.831  73.791  1.00  0.00    -0.097 C  
HETATM   58  C   UNL     1      -9.319   4.219  74.075  1.00  0.00    -0.105 C  
HETATM   59  O   UNL     1      -8.139   4.682  74.547  1.00  0.00    -0.094 OA 
HETATM   60  O   UNL     1      -9.911   3.226  74.463  1.00  0.00    -0.122 OA 
HETATM   61  C   UNL     1      -9.783   5.088  73.005  1.00  0.00    -0.167 C  
ENDBRANCH  14  56
TORSDOF 7
ENDMDL
MODEL       49
REMARK 921   NORMALIZED FREE ENERGY PREDICTED BY IDOCK:   12.91 KCAL/MOL
REMARK 922        TOTAL FREE ENERGY PREDICTED BY IDOCK:   16.35 KCAL/MOL
REMARK 923 INTER-LIGAND FREE ENERGY PREDICTED BY IDOCK:   14.50 KCAL/MOL
REMARK 924 INTRA-LIGAND FREE ENERGY PREDICTED BY IDOCK:    1.85 KCAL/MOL
REMARK 927      BINDING AFFINITY PREDICTED BY RF-SCORE:    0.00 PKD
ROOT
HETATM    1  C   UNL     1      -8.037  12.002  66.232  1.00  0.00     0.256 C  
HETATM    2  C   UNL     1      -8.027  11.742  67.745  1.00  0.00    -0.141 C  
HETATM    3  C   UNL     1      -9.247  12.267  68.478  1.00  0.00    -0.089 C  
HETATM    4  C   UNL     1      -9.410  13.788  68.323  1.00  0.00    -0.209 C  
HETATM    5  C   UNL     1      -9.294  14.205  66.852  1.00  0.00    -0.274 C  
HETATM    6  C   UNL     1      -8.390  13.462  65.833  1.00  0.00     1.698 C  
HETATM    7  C   UNL     1      -9.303  15.733  66.677  1.00  0.00    -0.284 C  
HETATM    8  C   UNL     1      -7.041  14.194  65.608  1.00  0.00     7.797 C  
HETATM    9  C   UNL     1     -10.693  16.240  67.028  1.00  0.00    -0.233 C  
HETATM   10  C   UNL     1      -9.231  13.460  64.501  1.00  0.00     1.796 C  
HETATM   11  C   UNL     1     -10.522  12.610  64.625  1.00  0.00    -0.361 C  
HETATM   12  O   UNL     1     -11.632  15.771  66.055  1.00  0.00     0.145 OA 
HETATM   13  C   UNL     1     -11.115  15.821  68.458  1.00  0.00    -0.335 C  
HETATM   14  C   UNL     1     -10.207  16.508  69.524  1.00  0.00    -0.217 C  
HETATM   15  C   UNL     1     -12.631  16.130  68.623  1.00  0.00     1.313 C  
HETATM   16  C   UNL     1     -10.214  11.162  64.996  1.00  0.00    -0.296 C  
HETATM   17  H   UNL     1     -12.501  16.089  66.275  1.00  0.00     0.000 HD 
HETATM   18  O   UNL     1     -11.867  13.483  68.301  1.00  0.00    -0.337 OA 
HETATM   19  C   UNL     1     -10.473  15.717  70.814  1.00  0.00     0.091 C  
HETATM   20  H   UNL     1     -12.713  13.793  68.605  1.00  0.00     0.000 HD 
HETATM   21  C   UNL     1      -8.749  10.932  65.378  1.00  0.00    -0.162 C  
HETATM   22  C   UNL     1     -10.828  14.308  68.832  1.00  0.00    -0.257 C  
HETATM   23  C   UNL     1     -10.940  14.321  70.367  1.00  0.00     0.237 C  
ENDROOT
BRANCH  16  24
HETATM   24  O   UNL     1     -11.023  10.615  66.033  1.00  0.00    -0.050 OA 
BRANCH  24  25
HETATM   25  C   UNL     1     -11.011   9.201  66.286  1.00  0.00     1.001 C  
HETATM   26  O   UNL     1      -7.410   8.521  67.014  1.00  0.00    -0.082 OA 
HETATM   27  C   UNL     1      -9.340   7.834  68.347  1.00  0.00    -0.143 C  
HETATM   28  C   UNL     1      -9.644   8.571  66.031  1.00  0.00    -0.236 C  
HETATM   29  C   UNL     1      -8.790   8.770  67.270  1.00  0.00    -0.132 C  
HETATM   30  O   UNL     1     -11.450   9.092  67.645  1.00  0.00     0.598 OA 
HETATM   31  C   UNL     1     -10.849   8.168  68.561  1.00  0.00     0.093 C  
HETATM   32  H   UNL     1      -6.875   8.646  67.788  1.00  0.00     0.000 HD 
HETATM   33  C   UNL     1     -11.102   8.772  69.951  1.00  0.00    -0.129 C  
BRANCH  27  34
HETATM   34  O   UNL     1      -9.324   6.434  67.976  1.00  0.00    -0.118 OA 
BRANCH  34  35
HETATM   35  C   UNL     1      -8.414   5.534  68.603  1.00  0.00    -0.104 C  
HETATM   36  C   UNL     1      -7.559   6.177  69.687  1.00  0.00    -0.093 C  
HETATM   37  C   UNL     1      -8.473   6.754  70.758  1.00  0.00    -0.133 C  
HETATM   38  O   UNL     1      -7.716   7.394  71.788  1.00  0.00    -0.084 OA 
HETATM   39  C   UNL     1      -9.420   5.684  71.340  1.00  0.00    -0.147 C  
HETATM   40  O   UNL     1      -9.144   4.440  69.173  1.00  0.00    -0.106 OA 
HETATM   41  C   UNL     1     -10.030   4.759  70.248  1.00  0.00    -0.250 C  
HETATM   42  H   UNL     1      -8.286   7.755  72.456  1.00  0.00     0.000 HD 
HETATM   43  C   UNL     1     -11.396   5.182  69.706  1.00  0.00     1.740 C  
BRANCH  39  44
HETATM   44  O   UNL     1      -8.773   4.792  72.275  1.00  0.00    -0.118 OA 
BRANCH  44  45
HETATM   45  C   UNL     1      -7.671   3.996  71.837  1.00  0.00    -0.067 C  
HETATM   46  C   UNL     1      -6.321   4.341  72.460  1.00  0.00    -0.021 C  
HETATM   47  C   UNL     1      -6.389   4.096  73.962  1.00  0.00    -0.041 C  
HETATM   48  C   UNL     1      -6.712   2.624  74.231  1.00  0.00    -0.030 C  
HETATM   49  O   UNL     1      -5.128   4.418  74.562  1.00  0.00    -0.007 OA 
HETATM   50  H   UNL     1      -5.171   4.265  75.498  1.00  0.00     0.000 HD 
HETATM   51  O   UNL     1      -5.575   1.835  73.833  1.00  0.00     0.000 OA 
HETATM   52  C   UNL     1      -7.956   2.173  73.444  1.00  0.00    -0.046 C  
HETATM   53  C   UNL     1      -9.261   2.566  74.133  1.00  0.00    -0.091 C  
HETATM   54  O   UNL     1      -7.955   2.607  72.075  1.00  0.00    -0.052 OA 
HETATM   55  H   UNL     1      -5.776   0.921  74.000  1.00  0.00     0.000 HD 
ENDBRANCH  44  45
ENDBRANCH  39  44
ENDBRANCH  34  35
ENDBRANCH  27  34
ENDBRANCH  24  25
ENDBRANCH  16  24
BRANCH  14  56
HETATM   56  C   UNL     1     -10.174  17.998  69.653  1.00  0.00     0.388 C  
HETATM   57  C   UNL     1     -10.608  18.791  70.822  1.00  0.00     2.482 C  
HETATM   58  C   UNL     1     -10.045  20.181  69.125  1.00  0.00    -0.082 C  
HETATM   59  O   UNL     1     -10.459  20.150  70.413  1.00  0.00     0.435 OA 
HETATM   60  O   UNL     1      -9.861  21.179  68.450  1.00  0.00     0.427 OA 
HETATM   61  C   UNL     1      -9.860  18.819  68.649  1.00  0.00    -0.441 C  
ENDBRANCH  14  56
TORSDOF 7
ENDMDL
MODEL       50
REMARK 921   NORMALIZED FREE ENERGY PREDICTED BY IDOCK:   13.51 KCAL/MOL
REMARK 922        TOTAL FREE ENERGY PREDICTED BY IDOCK:   17.20 KCAL/MOL
REMARK 923 INTER-LIGAND FREE ENERGY PREDICTED BY IDOCK:    8.03 KCAL/MOL
REMARK 924 INTRA-LIGAND FREE ENERGY PREDICTED BY IDOCK:    9.17 KCAL/MOL
REMARK 927      BINDING AFFINITY PREDICTED BY RF-SCORE:    0.00 PKD
ROOT
HETATM    1  C   UNL     1     -10.928   8.386  65.992  1.00  0.00     2.421 C  
HETATM    2  C   UNL     1     -11.839   8.416  67.227  1.00  0.00     3.772 C  
HETATM    3  C   UNL     1     -11.245   9.132  68.425  1.00  0.00     0.265 C  
HETATM    4  C   UNL     1      -9.932   8.486  68.898  1.00  0.00    -0.197 C  
HETATM    5  C   UNL     1      -8.974   8.264  67.721  1.00  0.00    -0.139 C  
HETATM    6  C   UNL     1      -9.465   7.949  66.283  1.00  0.00    -0.220 C  
HETATM    7  C   UNL     1      -7.716   7.485  68.133  1.00  0.00    -0.120 C  
HETATM    8  C   UNL     1      -9.387   6.434  65.959  1.00  0.00    -0.053 C  
HETATM    9  C   UNL     1      -6.882   8.380  69.038  1.00  0.00    -0.056 C  
HETATM   10  C   UNL     1      -8.477   8.750  65.354  1.00  0.00    -0.186 C  
HETATM   11  C   UNL     1      -8.624  10.285  65.529  1.00  0.00    -0.173 C  
HETATM   12  O   UNL     1      -6.377   9.486  68.283  1.00  0.00    -0.052 OA 
HETATM   13  C   UNL     1      -7.687   8.865  70.268  1.00  0.00    -0.090 C  
HETATM   14  C   UNL     1      -8.054   7.666  71.195  1.00  0.00    -0.098 C  
HETATM   15  C   UNL     1      -6.865   9.983  70.972  1.00  0.00     0.216 C  
HETATM   16  C   UNL     1     -10.045  10.755  65.230  1.00  0.00    -0.290 C  
HETATM   17  H   UNL     1      -5.856  10.045  68.848  1.00  0.00     0.000 HD 
HETATM   18  O   UNL     1      -9.082  10.736  69.487  1.00  0.00    -0.398 OA 
HETATM   19  C   UNL     1      -9.149   8.223  72.119  1.00  0.00    -0.279 C  
HETATM   20  H   UNL     1      -8.617  11.274  70.117  1.00  0.00     0.000 HD 
HETATM   21  C   UNL     1     -11.040   9.605  65.053  1.00  0.00     3.389 C  
HETATM   22  C   UNL     1      -9.151   9.388  69.954  1.00  0.00    -0.204 C  
HETATM   23  C   UNL     1      -9.809   9.378  71.347  1.00  0.00    -0.180 C  
ENDROOT
BRANCH  16  24
HETATM   24  O   UNL     1     -10.597  11.662  66.180  1.00  0.00    -0.245 OA 
BRANCH  24  25
HETATM   25  C   UNL     1      -9.921  11.903  67.424  1.00  0.00    -0.190 C  
HETATM   26  O   UNL     1      -7.439  14.543  66.516  1.00  0.00    -0.026 OA 
HETATM   27  C   UNL     1      -9.003  14.573  68.395  1.00  0.00    -0.186 C  
HETATM   28  C   UNL     1      -8.519  12.474  67.228  1.00  0.00    -0.185 C  
HETATM   29  C   UNL     1      -8.638  13.974  67.035  1.00  0.00    -0.174 C  
HETATM   30  O   UNL     1     -10.806  12.781  68.130  1.00  0.00    -0.213 OA 
HETATM   31  C   UNL     1     -10.318  13.894  68.891  1.00  0.00    -0.155 C  
HETATM   32  H   UNL     1      -7.512  15.482  66.395  1.00  0.00     0.000 HD 
HETATM   33  C   UNL     1     -11.487  14.889  68.926  1.00  0.00    -0.320 C  
BRANCH  27  34
HETATM   34  O   UNL     1      -8.035  14.301  69.437  1.00  0.00     0.045 OA 
BRANCH  34  35
HETATM   35  C   UNL     1      -7.417  15.374  70.143  1.00  0.00     0.275 C  
HETATM   36  C   UNL     1      -6.101  15.836  69.532  1.00  0.00    -0.147 C  
HETATM   37  C   UNL     1      -6.355  16.290  68.102  1.00  0.00    -0.123 C  
HETATM   38  O   UNL     1      -5.141  16.709  67.474  1.00  0.00    -0.113 OA 
HETATM   39  C   UNL     1      -7.432  17.392  68.033  1.00  0.00    -0.201 C  
HETATM   40  O   UNL     1      -8.318  16.486  70.205  1.00  0.00     1.143 OA 
HETATM   41  C   UNL     1      -8.648  17.105  68.959  1.00  0.00    -0.101 C  
HETATM   42  H   UNL     1      -5.299  16.993  66.581  1.00  0.00     0.000 HD 
HETATM   43  C   UNL     1      -9.829  16.387  68.303  1.00  0.00    -0.229 C  
BRANCH  39  44
HETATM   44  O   UNL     1      -6.949  18.693  68.434  1.00  0.00    -0.244 OA 
BRANCH  44  45
HETATM   45  C   UNL     1      -7.556  19.356  69.544  1.00  0.00    -0.007 C  
HETATM   46  C   UNL     1      -7.095  18.888  70.923  1.00  0.00     2.109 C  
HETATM   47  C   UNL     1      -5.608  19.181  71.075  1.00  0.00    -0.179 C  
HETATM   48  C   UNL     1      -5.363  20.687  70.941  1.00  0.00    -0.194 C  
HETATM   49  O   UNL     1      -5.161  18.746  72.365  1.00  0.00    -0.551 OA 
HETATM   50  H   UNL     1      -4.234  18.929  72.460  1.00  0.00     0.000 HD 
HETATM   51  O   UNL     1      -5.934  21.339  72.090  1.00  0.00    -0.078 OA 
HETATM   52  C   UNL     1      -6.003  21.244  69.656  1.00  0.00     0.893 C  
HETATM   53  C   UNL     1      -5.139  21.010  68.420  1.00  0.00    -0.306 C  
HETATM   54  O   UNL     1      -7.342  20.773  69.435  1.00  0.00     0.657 OA 
HETATM   55  H   UNL     1      -5.782  22.274  72.006  1.00  0.00     0.000 HD 
ENDBRANCH  44  45
ENDBRANCH  39  44
ENDBRANCH  34  35
ENDBRANCH  27  34
ENDBRANCH  24  25
ENDBRANCH  16  24
BRANCH  14  56
HETATM   56  C   UNL     1      -6.983   6.852  71.849  1.00  0.00    -0.069 C  
HETATM   57  C   UNL     1      -6.220   5.745  71.236  1.00  0.00    -0.039 C  
HETATM   58  C   UNL     1      -5.670   5.929  73.425  1.00  0.00    -0.037 C  
HETATM   59  O   UNL     1      -5.395   5.248  72.289  1.00  0.00    -0.011 OA 
HETATM   60  O   UNL     1      -5.177   5.731  74.523  1.00  0.00    -0.027 OA 
HETATM   61  C   UNL     1      -6.670   6.947  73.143  1.00  0.00    -0.070 C  
ENDBRANCH  14  56
TORSDOF 7
ENDMDL
MODEL       51
REMARK 921   NORMALIZED FREE ENERGY PREDICTED BY IDOCK:   14.71 KCAL/MOL
REMARK 922        TOTAL FREE ENERGY PREDICTED BY IDOCK:   18.90 KCAL/MOL
REMARK 923 INTER-LIGAND FREE ENERGY PREDICTED BY IDOCK:    7.88 KCAL/MOL
REMARK 924 INTRA-LIGAND FREE ENERGY PREDICTED BY IDOCK:   11.02 KCAL/MOL
REMARK 927      BINDING AFFINITY PREDICTED BY RF-SCORE:    0.00 PKD
ROOT
HETATM    1  C   UNL     1     -11.234  11.166  69.289  1.00  0.00    -0.331 C  
HETATM    2  C   UNL     1     -11.825  11.065  67.876  1.00  0.00    -0.085 C  
HETATM    3  C   UNL     1     -11.034  11.804  66.813  1.00  0.00    -0.336 C  
HETATM    4  C   UNL     1     -10.929  13.310  67.108  1.00  0.00    -0.288 C  
HETATM    5  C   UNL     1     -10.481  13.556  68.554  1.00  0.00    -0.250 C  
HETATM    6  C   UNL     1     -10.854  12.609  69.725  1.00  0.00     0.431 C  
HETATM    7  C   UNL     1     -10.511  15.047  68.926  1.00  0.00    -0.241 C  
HETATM    8  C   UNL     1     -12.051  13.147  70.552  1.00  0.00    -0.385 C  
HETATM    9  C   UNL     1      -9.412  15.750  68.144  1.00  0.00    -0.199 C  
HETATM   10  C   UNL     1      -9.558  12.570  70.617  1.00  0.00     6.887 C  
HETATM   11  C   UNL     1      -8.365  11.898  69.888  1.00  0.00     2.172 C  
HETATM   12  O   UNL     1      -8.134  15.300  68.605  1.00  0.00    -0.139 OA 
HETATM   13  C   UNL     1      -9.562  15.535  66.618  1.00  0.00    -0.273 C  
HETATM   14  C   UNL     1     -10.863  16.214  66.091  1.00  0.00    -0.138 C  
HETATM   15  C   UNL     1      -8.260  16.037  65.930  1.00  0.00     0.460 C  
HETATM   16  C   UNL     1      -8.694  10.470  69.463  1.00  0.00    -0.020 C  
HETATM   17  H   UNL     1      -7.447  15.739  68.116  1.00  0.00     0.000 HD 
HETATM   18  O   UNL     1      -8.649  13.300  66.141  1.00  0.00    -0.249 OA 
HETATM   19  C   UNL     1     -11.076  15.598  64.699  1.00  0.00    -0.387 C  
HETATM   20  H   UNL     1      -8.017  13.738  65.583  1.00  0.00     0.000 HD 
HETATM   21  C   UNL     1     -10.170  10.107  69.643  1.00  0.00    -0.272 C  
HETATM   22  C   UNL     1      -9.868  14.044  66.173  1.00  0.00    -0.303 C  
HETATM   23  C   UNL     1     -10.374  14.229  64.730  1.00  0.00    -0.373 C  
ENDROOT
BRANCH  16  24
HETATM   24  O   UNL     1      -8.326  10.132  68.128  1.00  0.00    -0.115 OA 
BRANCH  24  25
HETATM   25  C   UNL     1      -8.178   8.756  67.748  1.00  0.00    -0.111 C  
HETATM   26  O   UNL     1      -9.836   8.641  64.402  1.00  0.00     0.760 OA 
HETATM   27  C   UNL     1      -7.621   7.784  64.980  1.00  0.00    -0.096 C  
HETATM   28  C   UNL     1      -9.238   8.308  66.744  1.00  0.00    -0.212 C  
HETATM   29  C   UNL     1      -8.779   8.711  65.355  1.00  0.00    -0.174 C  
HETATM   30  O   UNL     1      -6.840   8.681  67.242  1.00  0.00    -0.066 OA 
HETATM   31  C   UNL     1      -6.515   7.918  66.073  1.00  0.00    -0.046 C  
HETATM   32  H   UNL     1      -9.549   8.893  63.532  1.00  0.00     0.000 HD 
HETATM   33  C   UNL     1      -5.245   8.576  65.514  1.00  0.00    -0.034 C  
BRANCH  27  34
HETATM   34  O   UNL     1      -7.967   6.379  64.979  1.00  0.00    -0.109 OA 
BRANCH  34  35
HETATM   35  C   UNL     1      -8.822   5.847  65.987  1.00  0.00    -0.149 C  
HETATM   36  C   UNL     1      -8.954   4.331  65.947  1.00  0.00    -0.124 C  
HETATM   37  C   UNL     1      -7.574   3.712  66.117  1.00  0.00    -0.081 C  
HETATM   38  O   UNL     1      -7.642   2.285  66.059  1.00  0.00    -0.066 OA 
HETATM   39  C   UNL     1      -6.889   4.189  67.414  1.00  0.00    -0.051 C  
HETATM   40  O   UNL     1      -8.338   6.239  67.278  1.00  0.00    -0.109 OA 
HETATM   41  C   UNL     1      -7.066   5.714  67.665  1.00  0.00    -0.071 C  
HETATM   42  H   UNL     1      -6.780   1.898  66.165  1.00  0.00     0.000 HD 
HETATM   43  C   UNL     1      -5.939   6.608  67.145  1.00  0.00    -0.021 C  
BRANCH  39  44
HETATM   44  O   UNL     1      -7.399   3.547  68.603  1.00  0.00    -0.050 OA 
BRANCH  44  45
HETATM   45  C   UNL     1      -6.534   3.353  69.723  1.00  0.00    -0.033 C  
HETATM   46  C   UNL     1      -5.801   4.599  70.213  1.00  0.00    -0.017 C  
HETATM   47  C   UNL     1      -6.824   5.617  70.701  1.00  0.00    -0.052 C  
HETATM   48  C   UNL     1      -7.639   5.020  71.851  1.00  0.00    -0.102 C  
HETATM   49  O   UNL     1      -6.151   6.794  71.163  1.00  0.00    -0.035 OA 
HETATM   50  H   UNL     1      -6.789   7.429  71.467  1.00  0.00     0.000 HD 
HETATM   51  O   UNL     1      -6.769   4.875  72.989  1.00  0.00    -0.061 OA 
HETATM   52  C   UNL     1      -8.223   3.648  71.468  1.00  0.00    -0.068 C  
HETATM   53  C   UNL     1      -9.504   3.764  70.645  1.00  0.00    -0.240 C  
HETATM   54  O   UNL     1      -7.278   2.787  70.815  1.00  0.00    -0.033 OA 
HETATM   55  H   UNL     1      -7.275   4.505  73.704  1.00  0.00     0.000 HD 
ENDBRANCH  44  45
ENDBRANCH  39  44
ENDBRANCH  34  35
ENDBRANCH  27  34
ENDBRANCH  24  25
ENDBRANCH  16  24
BRANCH  14  56
HETATM   56  C   UNL     1     -11.048  17.696  66.197  1.00  0.00     0.512 C  
HETATM   57  C   UNL     1     -11.391  18.455  67.417  1.00  0.00     0.627 C  
HETATM   58  C   UNL     1     -11.364  19.849  65.633  1.00  0.00     0.647 C  
HETATM   59  O   UNL     1     -11.536  19.804  66.975  1.00  0.00     0.038 OA 
HETATM   60  O   UNL     1     -11.464  20.838  64.926  1.00  0.00     0.775 OA 
HETATM   61  C   UNL     1     -11.050  18.516  65.145  1.00  0.00     1.162 C  
ENDBRANCH  14  56
TORSDOF 7
ENDMDL
MODEL       52
REMARK 921   NORMALIZED FREE ENERGY PREDICTED BY IDOCK:   14.86 KCAL/MOL
REMARK 922        TOTAL FREE ENERGY PREDICTED BY IDOCK:   19.10 KCAL/MOL
REMARK 923 INTER-LIGAND FREE ENERGY PREDICTED BY IDOCK:   10.19 KCAL/MOL
REMARK 924 INTRA-LIGAND FREE ENERGY PREDICTED BY IDOCK:    8.91 KCAL/MOL
REMARK 927      BINDING AFFINITY PREDICTED BY RF-SCORE:    0.00 PKD
ROOT
HETATM    1  C   UNL     1      -6.433   8.519  73.134  1.00  0.00    -0.097 C  
HETATM    2  C   UNL     1      -5.679   9.290  72.042  1.00  0.00    -0.055 C  
HETATM    3  C   UNL     1      -6.287   9.172  70.658  1.00  0.00    -0.058 C  
HETATM    4  C   UNL     1      -6.343   7.715  70.169  1.00  0.00    -0.034 C  
HETATM    5  C   UNL     1      -6.952   6.800  71.238  1.00  0.00    -0.074 C  
HETATM    6  C   UNL     1      -6.782   7.051  72.760  1.00  0.00    -0.068 C  
HETATM    7  C   UNL     1      -6.884   5.316  70.841  1.00  0.00    -0.048 C  
HETATM    8  C   UNL     1      -5.668   6.165  73.377  1.00  0.00    -0.041 C  
HETATM    9  C   UNL     1      -7.836   5.096  69.675  1.00  0.00    -0.072 C  
HETATM   10  C   UNL     1      -8.179   6.664  73.373  1.00  0.00    -0.124 C  
HETATM   11  C   UNL     1      -9.308   7.620  72.906  1.00  0.00    -0.253 C  
HETATM   12  O   UNL     1      -9.184   5.279  70.118  1.00  0.00    -0.131 OA 
HETATM   13  C   UNL     1      -7.509   6.026  68.482  1.00  0.00    -0.087 C  
HETATM   14  C   UNL     1      -6.116   5.676  67.874  1.00  0.00    -0.025 C  
HETATM   15  C   UNL     1      -8.685   5.938  67.466  1.00  0.00    -0.104 C  
HETATM   16  C   UNL     1      -9.011   9.070  73.276  1.00  0.00     1.311 C  
HETATM   17  H   UNL     1      -9.779   5.141  69.389  1.00  0.00     0.000 HD 
HETATM   18  O   UNL     1      -8.482   8.220  69.028  1.00  0.00    -0.128 OA 
HETATM   19  C   UNL     1      -5.768   6.890  67.000  1.00  0.00    -0.018 C  
HETATM   20  H   UNL     1      -9.014   8.116  68.247  1.00  0.00     0.000 HD 
HETATM   21  C   UNL     1      -7.592   9.283  73.808  1.00  0.00     1.173 C  
HETATM   22  C   UNL     1      -7.235   7.541  68.861  1.00  0.00    -0.082 C  
HETATM   23  C   UNL     1      -6.545   8.078  67.593  1.00  0.00    -0.057 C  
ENDROOT
BRANCH  16  24
HETATM   24  O   UNL     1      -9.229  10.020  72.236  1.00  0.00     2.797 OA 
BRANCH  24  25
HETATM   25  C   UNL     1      -8.673   9.799  70.930  1.00  0.00     0.501 C  
HETATM   26  O   UNL     1     -11.591  10.399  68.676  1.00  0.00    -0.470 OA 
HETATM   27  C   UNL     1      -9.354  11.364  68.481  1.00  0.00    -0.180 C  
HETATM   28  C   UNL     1      -9.729   9.404  69.902  1.00  0.00    -0.236 C  
HETATM   29  C   UNL     1     -10.381  10.671  69.378  1.00  0.00    -0.208 C  
HETATM   30  O   UNL     1      -8.009  11.032  70.628  1.00  0.00     1.359 OA 
HETATM   31  C   UNL     1      -8.064  11.620  69.322  1.00  0.00     0.324 C  
HETATM   32  H   UNL     1     -12.000  11.191  68.348  1.00  0.00     0.000 HD 
HETATM   33  C   UNL     1      -7.830  13.119  69.555  1.00  0.00     0.899 C  
BRANCH  27  34
HETATM   34  O   UNL     1      -8.909  10.559  67.363  1.00  0.00    -0.132 OA 
BRANCH  34  35
HETATM   35  C   UNL     1      -8.337  11.177  66.214  1.00  0.00    -0.163 C  
HETATM   36  C   UNL     1      -8.603  10.429  64.914  1.00  0.00    -0.190 C  
HETATM   37  C   UNL     1     -10.107  10.331  64.703  1.00  0.00    -0.247 C  
HETATM   38  O   UNL     1     -10.411   9.610  63.506  1.00  0.00     0.306 OA 
HETATM   39  C   UNL     1     -10.779  11.719  64.708  1.00  0.00    -0.302 C  
HETATM   40  O   UNL     1      -8.836  12.515  66.093  1.00  0.00    -0.022 OA 
HETATM   41  C   UNL     1     -10.236  12.648  65.832  1.00  0.00    -0.274 C  
HETATM   42  H   UNL     1     -11.349   9.548  63.373  1.00  0.00     0.000 HD 
HETATM   43  C   UNL     1     -11.026  12.639  67.141  1.00  0.00    -0.296 C  
BRANCH  39  44
HETATM   44  O   UNL     1     -10.585  12.455  63.481  1.00  0.00    -0.438 OA 
BRANCH  44  45
HETATM   45  C   UNL     1     -11.702  13.094  62.861  1.00  0.00     0.714 C  
HETATM   46  C   UNL     1     -13.031  12.960  63.601  1.00  0.00     0.190 C  
HETATM   47  C   UNL     1     -12.914  13.640  64.959  1.00  0.00    -0.157 C  
HETATM   48  C   UNL     1     -12.586  15.123  64.767  1.00  0.00     0.145 C  
HETATM   49  O   UNL     1     -14.154  13.521  65.667  1.00  0.00     0.874 OA 
HETATM   50  H   UNL     1     -14.081  13.945  66.513  1.00  0.00     0.000 HD 
HETATM   51  O   UNL     1     -13.737  15.766  64.189  1.00  0.00     0.928 OA 
HETATM   52  C   UNL     1     -11.369  15.310  63.843  1.00  0.00     0.589 C  
HETATM   53  C   UNL     1     -10.041  15.130  64.576  1.00  0.00     0.680 C  
HETATM   54  O   UNL     1     -11.414  14.488  62.666  1.00  0.00     2.365 OA 
HETATM   55  H   UNL     1     -13.533  16.687  64.070  1.00  0.00     0.000 HD 
ENDBRANCH  44  45
ENDBRANCH  39  44
ENDBRANCH  34  35
ENDBRANCH  27  34
ENDBRANCH  24  25
ENDBRANCH  16  24
BRANCH  14  56
HETATM   56  C   UNL     1      -5.862   4.329  67.274  1.00  0.00    -0.023 C  
HETATM   57  C   UNL     1      -5.564   3.081  68.006  1.00  0.00    -0.018 C  
HETATM   58  C   UNL     1      -5.396   2.717  65.777  1.00  0.00    -0.009 C  
HETATM   59  O   UNL     1      -5.319   2.113  66.985  1.00  0.00    -0.015 OA 
HETATM   60  O   UNL     1      -5.197   2.192  64.694  1.00  0.00    -0.007 OA 
HETATM   61  C   UNL     1      -5.746   4.117  65.961  1.00  0.00    -0.022 C  
ENDBRANCH  14  56
TORSDOF 7
ENDMDL
MODEL       53
REMARK 921   NORMALIZED FREE ENERGY PREDICTED BY IDOCK:   16.83 KCAL/MOL
REMARK 922        TOTAL FREE ENERGY PREDICTED BY IDOCK:   21.87 KCAL/MOL
REMARK 923 INTER-LIGAND FREE ENERGY PREDICTED BY IDOCK:    1.05 KCAL/MOL
REMARK 924 INTRA-LIGAND FREE ENERGY PREDICTED BY IDOCK:   20.82 KCAL/MOL
REMARK 927      BINDING AFFINITY PREDICTED BY RF-SCORE:    0.00 PKD
ROOT
HETATM    1  C   UNL     1      -7.141   3.195  66.374  1.00  0.00    -0.058 C  
HETATM    2  C   UNL     1      -5.780   3.900  66.450  1.00  0.00    -0.018 C  
HETATM    3  C   UNL     1      -5.750   5.106  67.369  1.00  0.00    -0.014 C  
HETATM    4  C   UNL     1      -6.752   6.191  66.939  1.00  0.00    -0.061 C  
HETATM    5  C   UNL     1      -8.139   5.587  66.687  1.00  0.00    -0.105 C  
HETATM    6  C   UNL     1      -8.347   4.148  66.146  1.00  0.00    -0.109 C  
HETATM    7  C   UNL     1      -9.126   6.617  66.112  1.00  0.00    -0.143 C  
HETATM    8  C   UNL     1      -8.635   4.134  64.622  1.00  0.00    -0.120 C  
HETATM    9  C   UNL     1      -9.431   7.636  67.199  1.00  0.00    -0.155 C  
HETATM   10  C   UNL     1      -9.601   3.617  66.936  1.00  0.00    -0.180 C  
HETATM   11  C   UNL     1      -9.317   3.465  68.453  1.00  0.00    -0.238 C  
HETATM   12  O   UNL     1     -10.161   7.004  68.255  1.00  0.00    -0.167 OA 
HETATM   13  C   UNL     1      -8.144   8.309  67.735  1.00  0.00    -0.127 C  
HETATM   14  C   UNL     1      -7.467   9.168  66.623  1.00  0.00    -0.086 C  
HETATM   15  C   UNL     1      -8.517   9.109  69.017  1.00  0.00    -0.132 C  
HETATM   16  C   UNL     1      -8.151   2.518  68.718  1.00  0.00    -0.052 C  
HETATM   17  H   UNL     1     -10.352   7.641  68.934  1.00  0.00     0.000 HD 
HETATM   18  O   UNL     1      -7.144   6.721  69.326  1.00  0.00    -0.081 OA 
HETATM   19  C   UNL     1      -6.051   9.433  67.160  1.00  0.00    -0.063 C  
HETATM   20  H   UNL     1      -7.257   7.395  69.986  1.00  0.00     0.000 HD 
HETATM   21  C   UNL     1      -7.393   2.117  67.450  1.00  0.00    -0.056 C  
HETATM   22  C   UNL     1      -6.944   7.321  68.045  1.00  0.00    -0.079 C  
HETATM   23  C   UNL     1      -5.742   8.281  68.130  1.00  0.00    -0.035 C  
ENDROOT
BRANCH  16  24
HETATM   24  O   UNL     1      -7.193   2.983  69.665  1.00  0.00    -0.044 OA 
BRANCH  24  25
HETATM   25  C   UNL     1      -7.606   3.337  70.994  1.00  0.00    -0.040 C  
HETATM   26  O   UNL     1      -9.520   6.499  70.449  1.00  0.00    -0.161 OA 
HETATM   27  C   UNL     1     -10.243   4.537  71.714  1.00  0.00    -0.156 C  
HETATM   28  C   UNL     1      -7.879   4.831  71.144  1.00  0.00    -0.083 C  
HETATM   29  C   UNL     1      -9.291   5.109  70.662  1.00  0.00    -0.159 C  
HETATM   30  O   UNL     1      -8.758   2.516  71.225  1.00  0.00    -0.062 OA 
HETATM   31  C   UNL     1      -9.924   3.019  71.890  1.00  0.00    -0.140 C  
HETATM   32  H   UNL     1     -10.403   6.673  70.147  1.00  0.00     0.000 HD 
HETATM   33  C   UNL     1     -11.075   2.138  71.386  1.00  0.00     2.159 C  
BRANCH  27  34
HETATM   34  O   UNL     1     -10.071   5.103  73.035  1.00  0.00    -0.160 OA 
BRANCH  34  35
HETATM   35  C   UNL     1     -10.658   6.360  73.362  1.00  0.00    -0.276 C  
HETATM   36  C   UNL     1      -9.799   7.559  72.983  1.00  0.00    -0.292 C  
HETATM   37  C   UNL     1      -9.544   7.527  71.483  1.00  0.00    -0.154 C  
HETATM   38  O   UNL     1      -8.716   8.621  71.081  1.00  0.00    -0.160 OA 
HETATM   39  C   UNL     1     -10.861   7.494  70.680  1.00  0.00    -0.240 C  
HETATM   40  O   UNL     1     -11.931   6.474  72.714  1.00  0.00    -0.034 OA 
HETATM   41  C   UNL     1     -11.913   6.521  71.285  1.00  0.00    -0.306 C  
HETATM   42  H   UNL     1      -8.557   8.602  70.144  1.00  0.00     0.000 HD 
HETATM   43  C   UNL     1     -11.922   5.106  70.705  1.00  0.00     3.020 C  
BRANCH  39  44
HETATM   44  O   UNL     1     -11.524   8.775  70.610  1.00  0.00    -0.265 OA 
BRANCH  44  45
HETATM   45  C   UNL     1     -11.384   9.697  71.692  1.00  0.00    -0.265 C  
HETATM   46  C   UNL     1     -11.021  11.127  71.296  1.00  0.00     2.370 C  
HETATM   47  C   UNL     1     -12.146  11.708  70.449  1.00  0.00    -0.373 C  
HETATM   48  C   UNL     1     -13.447  11.718  71.255  1.00  0.00     0.432 C  
HETATM   49  O   UNL     1     -11.819  13.050  70.068  1.00  0.00    -0.397 OA 
HETATM   50  H   UNL     1     -12.519  13.412  69.539  1.00  0.00     0.000 HD 
HETATM   51  O   UNL     1     -13.313  12.687  72.311  1.00  0.00    -0.533 OA 
HETATM   52  C   UNL     1     -13.742  10.332  71.857  1.00  0.00    -0.073 C  
HETATM   53  C   UNL     1     -14.391   9.381  70.854  1.00  0.00     0.411 C  
HETATM   54  O   UNL     1     -12.594   9.719  72.467  1.00  0.00    -0.174 OA 
HETATM   55  H   UNL     1     -14.121  12.693  72.812  1.00  0.00     0.000 HD 
ENDBRANCH  44  45
ENDBRANCH  39  44
ENDBRANCH  34  35
ENDBRANCH  27  34
ENDBRANCH  24  25
ENDBRANCH  16  24
BRANCH  14  56
HETATM   56  C   UNL     1      -8.180  10.338  66.022  1.00  0.00    -0.141 C  
HETATM   57  C   UNL     1      -8.001  11.759  66.383  1.00  0.00     0.065 C  
HETATM   58  C   UNL     1      -9.686  11.560  64.883  1.00  0.00    -0.234 C  
HETATM   59  O   UNL     1      -8.964  12.457  65.593  1.00  0.00     0.144 OA 
HETATM   60  O   UNL     1     -10.620  11.811  64.141  1.00  0.00    -0.294 OA 
HETATM   61  C   UNL     1      -9.185  10.221  65.152  1.00  0.00    -0.252 C  
ENDBRANCH  14  56
TORSDOF 7
ENDMDL
MODEL       54
REMARK 921   NORMALIZED FREE ENERGY PREDICTED BY IDOCK:   16.91 KCAL/MOL
REMARK 922        TOTAL FREE ENERGY PREDICTED BY IDOCK:   21.99 KCAL/MOL
REMARK 923 INTER-LIGAND FREE ENERGY PREDICTED BY IDOCK:    4.61 KCAL/MOL
REMARK 924 INTRA-LIGAND FREE ENERGY PREDICTED BY IDOCK:   17.39 KCAL/MOL
REMARK 927      BINDING AFFINITY PREDICTED BY RF-SCORE:    0.00 PKD
ROOT
HETATM    1  C   UNL     1      -9.017  10.828  64.118  1.00  0.00    -0.167 C  
HETATM    2  C   UNL     1      -7.958  11.744  64.748  1.00  0.00     1.806 C  
HETATM    3  C   UNL     1      -7.926  11.713  66.264  1.00  0.00     0.082 C  
HETATM    4  C   UNL     1      -9.265  12.143  66.885  1.00  0.00    -0.203 C  
HETATM    5  C   UNL     1     -10.437  11.398  66.235  1.00  0.00    -0.301 C  
HETATM    6  C   UNL     1     -10.432  10.954  64.748  1.00  0.00    -0.373 C  
HETATM    7  C   UNL     1     -11.799  11.913  66.726  1.00  0.00    -0.170 C  
HETATM    8  C   UNL     1     -11.229  11.931  63.845  1.00  0.00    -0.497 C  
HETATM    9  C   UNL     1     -11.956  11.512  68.185  1.00  0.00    -0.135 C  
HETATM   10  C   UNL     1     -11.133   9.544  64.765  1.00  0.00     4.599 C  
HETATM   11  C   UNL     1     -10.297   8.484  65.530  1.00  0.00     1.754 C  
HETATM   12  O   UNL     1     -12.066  10.089  68.281  1.00  0.00    -0.224 OA 
HETATM   13  C   UNL     1     -10.792  12.043  69.057  1.00  0.00    -0.223 C  
HETATM   14  C   UNL     1     -10.810  13.601  69.113  1.00  0.00    -0.189 C  
HETATM   15  C   UNL     1     -10.882  11.357  70.451  1.00  0.00     0.855 C  
HETATM   16  C   UNL     1      -8.906   8.317  64.926  1.00  0.00     0.120 C  
HETATM   17  H   UNL     1     -12.164   9.839  69.192  1.00  0.00     0.000 HD 
HETATM   18  O   UNL     1      -8.906  10.502  68.704  1.00  0.00    -0.132 OA 
HETATM   19  C   UNL     1      -9.422  13.977  69.654  1.00  0.00     0.893 C  
HETATM   20  H   UNL     1      -8.952  10.320  69.635  1.00  0.00     0.000 HD 
HETATM   21  C   UNL     1      -8.572   9.372  63.868  1.00  0.00    -0.225 C  
HETATM   22  C   UNL     1      -9.343  11.838  68.447  1.00  0.00    -0.185 C  
HETATM   23  C   UNL     1      -8.492  12.808  69.287  1.00  0.00     0.877 C  
ENDROOT
BRANCH  16  24
HETATM   24  O   UNL     1      -7.834   8.293  65.865  1.00  0.00    -0.087 OA 
BRANCH  24  25
HETATM   25  C   UNL     1      -7.427   7.052  66.462  1.00  0.00    -0.081 C  
HETATM   26  O   UNL     1     -10.561   5.865  68.115  1.00  0.00    -0.214 OA 
HETATM   27  C   UNL     1      -9.104   4.587  66.624  1.00  0.00    -0.123 C  
HETATM   28  C   UNL     1      -8.300   6.660  67.652  1.00  0.00    -0.122 C  
HETATM   29  C   UNL     1      -9.542   5.966  67.123  1.00  0.00    -0.127 C  
HETATM   30  O   UNL     1      -7.479   6.117  65.379  1.00  0.00    -0.077 OA 
HETATM   31  C   UNL     1      -7.989   4.788  65.551  1.00  0.00    -0.095 C  
HETATM   32  H   UNL     1     -11.338   5.430  67.785  1.00  0.00     0.000 HD 
HETATM   33  C   UNL     1      -8.467   4.366  64.154  1.00  0.00    -0.116 C  
BRANCH  27  34
HETATM   34  O   UNL     1      -8.490   3.759  67.640  1.00  0.00    -0.093 OA 
BRANCH  34  35
HETATM   35  C   UNL     1      -8.995   3.762  68.973  1.00  0.00    -0.122 C  
HETATM   36  C   UNL     1      -8.157   2.951  69.951  1.00  0.00    -0.056 C  
HETATM   37  C   UNL     1      -6.745   3.517  69.976  1.00  0.00    -0.034 C  
HETATM   38  O   UNL     1      -5.908   2.770  70.863  1.00  0.00    -0.016 OA 
HETATM   39  C   UNL     1      -6.735   5.019  70.327  1.00  0.00    -0.036 C  
HETATM   40  O   UNL     1      -9.088   5.112  69.445  1.00  0.00    -0.103 OA 
HETATM   41  C   UNL     1      -7.853   5.816  69.597  1.00  0.00    -0.096 C  
HETATM   42  H   UNL     1      -5.026   3.123  70.878  1.00  0.00     0.000 HD 
HETATM   43  C   UNL     1      -7.447   6.473  68.276  1.00  0.00    -0.095 C  
BRANCH  39  44
HETATM   44  O   UNL     1      -6.939   5.281  71.733  1.00  0.00    -0.064 OA 
BRANCH  44  45
HETATM   45  C   UNL     1      -6.628   6.572  72.259  1.00  0.00    -0.059 C  
HETATM   46  C   UNL     1      -7.610   7.684  71.898  1.00  0.00    -0.086 C  
HETATM   47  C   UNL     1      -8.974   7.354  72.490  1.00  0.00    -0.132 C  
HETATM   48  C   UNL     1      -8.863   7.249  74.014  1.00  0.00    -0.218 C  
HETATM   49  O   UNL     1      -9.908   8.389  72.158  1.00  0.00    -0.243 OA 
HETATM   50  H   UNL     1     -10.758   8.184  72.527  1.00  0.00     0.000 HD 
HETATM   51  O   UNL     1      -8.600   8.565  74.536  1.00  0.00    -0.252 OA 
HETATM   52  C   UNL     1      -7.730   6.291  74.426  1.00  0.00    -0.098 C  
HETATM   53  C   UNL     1      -8.152   4.825  74.373  1.00  0.00    -0.095 C  
HETATM   54  O   UNL     1      -6.514   6.496  73.690  1.00  0.00    -0.065 OA 
HETATM   55  H   UNL     1      -8.531   8.499  75.482  1.00  0.00     0.000 HD 
ENDBRANCH  44  45
ENDBRANCH  39  44
ENDBRANCH  34  35
ENDBRANCH  27  34
ENDBRANCH  24  25
ENDBRANCH  16  24
BRANCH  14  56
HETATM   56  C   UNL     1     -11.975  14.330  69.705  1.00  0.00    -0.394 C  
HETATM   57  C   UNL     1     -12.961  15.153  68.976  1.00  0.00     0.993 C  
HETATM   58  C   UNL     1     -13.345  15.297  71.203  1.00  0.00    -0.498 C  
HETATM   59  O   UNL     1     -13.805  15.694  69.994  1.00  0.00     0.462 OA 
HETATM   60  O   UNL     1     -13.804  15.613  72.288  1.00  0.00    -0.493 OA 
HETATM   61  C   UNL     1     -12.192  14.430  71.018  1.00  0.00    -0.422 C  
ENDBRANCH  14  56
TORSDOF 7
ENDMDL
MODEL       55
REMARK 921   NORMALIZED FREE ENERGY PREDICTED BY IDOCK:   21.73 KCAL/MOL
REMARK 922        TOTAL FREE ENERGY PREDICTED BY IDOCK:   28.78 KCAL/MOL
REMARK 923 INTER-LIGAND FREE ENERGY PREDICTED BY IDOCK:   17.64 KCAL/MOL
REMARK 924 INTRA-LIGAND FREE ENERGY PREDICTED BY IDOCK:   11.14 KCAL/MOL
REMARK 927      BINDING AFFINITY PREDICTED BY RF-SCORE:    0.00 PKD
ROOT
HETATM    1  C   UNL     1     -10.799   7.194  66.603  1.00  0.00     0.016 C  
HETATM    2  C   UNL     1     -11.315   8.335  65.715  1.00  0.00     5.397 C  
HETATM    3  C   UNL     1     -10.833   9.714  66.124  1.00  0.00     0.392 C  
HETATM    4  C   UNL     1     -11.260  10.080  67.554  1.00  0.00    -0.052 C  
HETATM    5  C   UNL     1     -10.929   8.948  68.534  1.00  0.00     0.066 C  
HETATM    6  C   UNL     1     -10.948   7.450  68.129  1.00  0.00    -0.013 C  
HETATM    7  C   UNL     1     -11.478   9.218  69.944  1.00  0.00    -0.006 C  
HETATM    8  C   UNL     1     -12.258   6.744  68.566  1.00  0.00     2.651 C  
HETATM    9  C   UNL     1     -10.693  10.376  70.542  1.00  0.00    -0.027 C  
HETATM   10  C   UNL     1      -9.720   6.828  68.894  1.00  0.00    -0.137 C  
HETATM   11  C   UNL     1      -8.367   7.390  68.385  1.00  0.00    -0.125 C  
HETATM   12  O   UNL     1      -9.339   9.971  70.765  1.00  0.00    -0.289 OA 
HETATM   13  C   UNL     1     -10.758  11.638  69.647  1.00  0.00     0.100 C  
HETATM   14  C   UNL     1     -12.214  12.193  69.580  1.00  0.00    -0.183 C  
HETATM   15  C   UNL     1      -9.713  12.661  70.181  1.00  0.00     3.538 C  
HETATM   16  C   UNL     1      -8.175   7.138  66.892  1.00  0.00    -0.117 C  
HETATM   17  H   UNL     1      -8.849  10.694  71.139  1.00  0.00     0.000 HD 
HETATM   18  O   UNL     1      -9.120  11.292  67.843  1.00  0.00    -0.142 OA 
HETATM   19  C   UNL     1     -12.196  13.161  68.387  1.00  0.00    -0.065 C  
HETATM   20  H   UNL     1      -8.681  12.069  68.168  1.00  0.00     0.000 HD 
HETATM   21  C   UNL     1      -9.432   6.604  66.200  1.00  0.00    -0.057 C  
HETATM   22  C   UNL     1     -10.523  11.383  68.100  1.00  0.00    -0.187 C  
HETATM   23  C   UNL     1     -11.060  12.680  67.468  1.00  0.00    -0.313 C  
ENDROOT
BRANCH  16  24
HETATM   24  O   UNL     1      -7.712   8.258  66.141  1.00  0.00    -0.092 OA 
BRANCH  24  25
HETATM   25  C   UNL     1      -8.111   9.587  66.508  1.00  0.00    -0.112 C  
HETATM   26  O   UNL     1      -5.282  10.736  68.660  1.00  0.00    -0.041 OA 
HETATM   27  C   UNL     1      -6.275  11.926  66.770  1.00  0.00    -0.044 C  
HETATM   28  C   UNL     1      -7.466  10.055  67.810  1.00  0.00    -0.089 C  
HETATM   29  C   UNL     1      -6.082  10.590  67.490  1.00  0.00    -0.052 C  
HETATM   30  O   UNL     1      -7.751  10.379  65.371  1.00  0.00    -0.144 OA 
HETATM   31  C   UNL     1      -7.163  11.679  65.511  1.00  0.00     1.212 C  
HETATM   32  H   UNL     1      -4.416  11.071  68.461  1.00  0.00     0.000 HD 
HETATM   33  C   UNL     1      -6.371  11.895  64.212  1.00  0.00     4.443 C  
BRANCH  27  34
HETATM   34  O   UNL     1      -7.001  12.912  67.542  1.00  0.00    -0.136 OA 
BRANCH  34  35
HETATM   35  C   UNL     1      -6.950  14.290  67.182  1.00  0.00     0.371 C  
HETATM   36  C   UNL     1      -7.792  14.640  65.963  1.00  0.00     2.499 C  
HETATM   37  C   UNL     1      -9.242  14.276  66.246  1.00  0.00    -0.151 C  
HETATM   38  O   UNL     1     -10.072  14.561  65.117  1.00  0.00    -0.406 OA 
HETATM   39  C   UNL     1      -9.769  14.969  67.519  1.00  0.00    -0.215 C  
HETATM   40  O   UNL     1      -7.379  15.090  68.291  1.00  0.00    -0.102 OA 
HETATM   41  C   UNL     1      -8.744  14.941  68.689  1.00  0.00    -0.177 C  
HETATM   42  H   UNL     1     -10.978  14.334  65.293  1.00  0.00     0.000 HD 
HETATM   43  C   UNL     1      -8.889  13.780  69.673  1.00  0.00     1.305 C  
BRANCH  39  44
HETATM   44  O   UNL     1     -10.085  16.364  67.324  1.00  0.00    -0.258 OA 
BRANCH  44  45
HETATM   45  C   UNL     1     -10.258  17.210  68.462  1.00  0.00    -0.346 C  
HETATM   46  C   UNL     1      -9.037  18.035  68.862  1.00  0.00    -0.139 C  
HETATM   47  C   UNL     1      -8.692  18.993  67.729  1.00  0.00    -0.298 C  
HETATM   48  C   UNL     1      -9.875  19.930  67.468  1.00  0.00    -0.406 C  
HETATM   49  O   UNL     1      -7.546  19.774  68.089  1.00  0.00    -0.295 OA 
HETATM   50  H   UNL     1      -7.331  20.371  67.383  1.00  0.00     0.000 HD 
HETATM   51  O   UNL     1     -10.008  20.811  68.598  1.00  0.00     0.160 OA 
HETATM   52  C   UNL     1     -11.181  19.138  67.270  1.00  0.00     0.094 C  
HETATM   53  C   UNL     1     -11.326  18.588  65.854  1.00  0.00     1.173 C  
HETATM   54  O   UNL     1     -11.369  18.096  68.241  1.00  0.00     0.383 OA 
HETATM   55  H   UNL     1     -10.743  21.392  68.436  1.00  0.00     0.000 HD 
ENDBRANCH  44  45
ENDBRANCH  39  44
ENDBRANCH  34  35
ENDBRANCH  27  34
ENDBRANCH  24  25
ENDBRANCH  16  24
BRANCH  14  56
HETATM   56  C   UNL     1     -12.904  12.675  70.817  1.00  0.00    -0.102 C  
HETATM   57  C   UNL     1     -13.914  11.938  71.605  1.00  0.00     1.093 C  
HETATM   58  C   UNL     1     -13.679  14.033  72.433  1.00  0.00    -0.568 C  
HETATM   59  O   UNL     1     -14.319  12.856  72.621  1.00  0.00    -0.471 OA 
HETATM   60  O   UNL     1     -13.826  15.048  73.094  1.00  0.00    -0.451 OA 
HETATM   61  C   UNL     1     -12.780  13.915  71.295  1.00  0.00    -0.444 C  
ENDBRANCH  14  56
TORSDOF 7
ENDMDL
MODEL       56
REMARK 921   NORMALIZED FREE ENERGY PREDICTED BY IDOCK:   22.00 KCAL/MOL
REMARK 922        TOTAL FREE ENERGY PREDICTED BY IDOCK:   29.16 KCAL/MOL
REMARK 923 INTER-LIGAND FREE ENERGY PREDICTED BY IDOCK:   13.51 KCAL/MOL
REMARK 924 INTRA-LIGAND FREE ENERGY PREDICTED BY IDOCK:   15.65 KCAL/MOL
REMARK 927      BINDING AFFINITY PREDICTED BY RF-SCORE:    0.00 PKD
ROOT
HETATM    1  C   UNL     1     -12.485  16.824  67.343  1.00  0.00     3.088 C  
HETATM    2  C   UNL     1     -13.061  16.610  68.750  1.00  0.00     4.049 C  
HETATM    3  C   UNL     1     -12.209  15.733  69.648  1.00  0.00    -0.207 C  
HETATM    4  C   UNL     1     -12.010  14.324  69.066  1.00  0.00    -0.360 C  
HETATM    5  C   UNL     1     -11.568  14.393  67.600  1.00  0.00    -0.396 C  
HETATM    6  C   UNL     1     -12.018  15.522  66.636  1.00  0.00     0.568 C  
HETATM    7  C   UNL     1     -11.505  13.003  66.945  1.00  0.00    -0.387 C  
HETATM    8  C   UNL     1     -13.189  15.075  65.721  1.00  0.00     1.266 C  
HETATM    9  C   UNL     1     -10.352  12.237  67.574  1.00  0.00    -0.203 C  
HETATM   10  C   UNL     1     -10.739  15.819  65.766  1.00  0.00    -0.337 C  
HETATM   11  C   UNL     1      -9.583  16.415  66.611  1.00  0.00    -0.273 C  
HETATM   12  O   UNL     1      -9.113  12.852  67.208  1.00  0.00    -0.191 OA 
HETATM   13  C   UNL     1     -10.495  12.142  69.113  1.00  0.00     0.019 C  
HETATM   14  C   UNL     1     -11.741  11.288  69.499  1.00  0.00    -0.415 C  
HETATM   15  C   UNL     1      -9.153  11.603  69.689  1.00  0.00     1.312 C  
HETATM   16  C   UNL     1      -9.998  17.709  67.306  1.00  0.00    -0.322 C  
HETATM   17  H   UNL     1      -8.392  12.373  67.601  1.00  0.00     0.000 HD 
HETATM   18  O   UNL     1      -9.723  14.298  70.014  1.00  0.00     0.106 OA 
HETATM   19  C   UNL     1     -11.974  11.607  70.984  1.00  0.00    -0.038 C  
HETATM   20  H   UNL     1      -9.055  13.803  70.475  1.00  0.00     0.000 HD 
HETATM   21  C   UNL     1     -11.497  18.000  67.201  1.00  0.00     1.082 C  
HETATM   22  C   UNL     1     -10.891  13.494  69.840  1.00  0.00     0.454 C  
HETATM   23  C   UNL     1     -11.363  12.999  71.219  1.00  0.00     2.426 C  
ENDROOT
BRANCH  16  24
HETATM   24  O   UNL     1      -9.634  17.805  68.680  1.00  0.00    -0.309 OA 
BRANCH  24  25
HETATM   25  C   UNL     1      -9.046  16.679  69.350  1.00  0.00     0.070 C  
HETATM   26  O   UNL     1      -7.464  14.783  66.547  1.00  0.00    -0.133 OA 
HETATM   27  C   UNL     1      -6.419  15.442  68.657  1.00  0.00    -0.094 C  
HETATM   28  C   UNL     1      -8.857  15.479  68.426  1.00  0.00    -0.183 C  
HETATM   29  C   UNL     1      -7.559  15.666  67.662  1.00  0.00    -0.158 C  
HETATM   30  O   UNL     1      -7.819  17.197  69.877  1.00  0.00     0.755 OA 
HETATM   31  C   UNL     1      -6.602  16.440  69.843  1.00  0.00    -0.011 C  
HETATM   32  H   UNL     1      -6.652  14.899  66.068  1.00  0.00     0.000 HD 
HETATM   33  C   UNL     1      -5.483  17.492  69.873  1.00  0.00    -0.227 C  
BRANCH  27  34
HETATM   34  O   UNL     1      -6.425  14.133  69.275  1.00  0.00    -0.104 OA 
BRANCH  34  35
HETATM   35  C   UNL     1      -5.274  13.295  69.198  1.00  0.00    -0.073 C  
HETATM   36  C   UNL     1      -5.281  12.146  70.196  1.00  0.00    -0.097 C  
HETATM   37  C   UNL     1      -6.513  11.287  69.950  1.00  0.00    -0.132 C  
HETATM   38  O   UNL     1      -6.579  10.206  70.883  1.00  0.00    -0.310 OA 
HETATM   39  C   UNL     1      -6.575  10.778  68.495  1.00  0.00    -0.055 C  
HETATM   40  O   UNL     1      -5.161  12.762  67.872  1.00  0.00    -0.082 OA 
HETATM   41  C   UNL     1      -6.201  11.873  67.456  1.00  0.00    -0.102 C  
HETATM   42  H   UNL     1      -7.348   9.670  70.730  1.00  0.00     0.000 HD 
HETATM   43  C   UNL     1      -7.373  12.660  66.869  1.00  0.00     0.176 C  
BRANCH  39  44
HETATM   44  O   UNL     1      -5.673   9.681  68.232  1.00  0.00    -0.040 OA 
BRANCH  44  45
HETATM   45  C   UNL     1      -5.708   8.526  69.072  1.00  0.00    -0.039 C  
HETATM   46  C   UNL     1      -7.087   8.137  69.600  1.00  0.00    -0.057 C  
HETATM   47  C   UNL     1      -7.985   7.775  68.424  1.00  0.00    -0.122 C  
HETATM   48  C   UNL     1      -7.382   6.594  67.658  1.00  0.00    -0.096 C  
HETATM   49  O   UNL     1      -9.284   7.409  68.904  1.00  0.00    -0.143 OA 
HETATM   50  H   UNL     1      -9.844   7.184  68.171  1.00  0.00     0.000 HD 
HETATM   51  O   UNL     1      -7.469   5.426  68.495  1.00  0.00    -0.073 OA 
HETATM   52  C   UNL     1      -5.910   6.860  67.291  1.00  0.00    -0.014 C  
HETATM   53  C   UNL     1      -5.765   7.723  66.040  1.00  0.00    -0.037 C  
HETATM   54  O   UNL     1      -5.140   7.405  68.374  1.00  0.00    -0.022 OA 
HETATM   55  H   UNL     1      -7.094   4.693  68.019  1.00  0.00     0.000 HD 
ENDBRANCH  44  45
ENDBRANCH  39  44
ENDBRANCH  34  35
ENDBRANCH  27  34
ENDBRANCH  24  25
ENDBRANCH  16  24
BRANCH  14  56
HETATM   56  C   UNL     1     -11.830   9.846  69.107  1.00  0.00     0.275 C  
HETATM   57  C   UNL     1     -12.393   8.747  69.918  1.00  0.00     1.212 C  
HETATM   58  C   UNL     1     -11.483   7.908  68.021  1.00  0.00     1.186 C  
HETATM   59  O   UNL     1     -12.163   7.571  69.142  1.00  0.00     1.472 OA 
HETATM   60  O   UNL     1     -11.086   7.141  67.161  1.00  0.00    -0.326 OA 
HETATM   61  C   UNL     1     -11.279   9.348  67.999  1.00  0.00     0.160 C  
ENDBRANCH  14  56
TORSDOF 7
ENDMDL
MODEL       57
REMARK 921   NORMALIZED FREE ENERGY PREDICTED BY IDOCK:   22.42 KCAL/MOL
REMARK 922        TOTAL FREE ENERGY PREDICTED BY IDOCK:   29.76 KCAL/MOL
REMARK 923 INTER-LIGAND FREE ENERGY PREDICTED BY IDOCK:   16.05 KCAL/MOL
REMARK 924 INTRA-LIGAND FREE ENERGY PREDICTED BY IDOCK:   13.71 KCAL/MOL
REMARK 927      BINDING AFFINITY PREDICTED BY RF-SCORE:    0.00 PKD
ROOT
HETATM    1  C   UNL     1      -6.276  16.345  68.563  1.00  0.00    -0.128 C  
HETATM    2  C   UNL     1      -7.060  15.960  67.300  1.00  0.00    -0.242 C  
HETATM    3  C   UNL     1      -8.565  16.082  67.436  1.00  0.00    -0.194 C  
HETATM    4  C   UNL     1      -9.123  15.187  68.556  1.00  0.00    -0.191 C  
HETATM    5  C   UNL     1      -8.326  15.370  69.853  1.00  0.00     0.159 C  
HETATM    6  C   UNL     1      -6.811  15.700  69.872  1.00  0.00    -0.073 C  
HETATM    7  C   UNL     1      -8.762  14.382  70.947  1.00  0.00     3.563 C  
HETATM    8  C   UNL     1      -5.942  14.440  70.127  1.00  0.00    -0.151 C  
HETATM    9  C   UNL     1     -10.164  14.763  71.396  1.00  0.00     1.911 C  
HETATM   10  C   UNL     1      -6.652  16.714  71.067  1.00  0.00     2.225 C  
HETATM   11  C   UNL     1      -7.378  18.057  70.795  1.00  0.00     3.606 C  
HETATM   12  O   UNL     1     -10.125  16.028  72.063  1.00  0.00     2.603 OA 
HETATM   13  C   UNL     1     -11.161  14.786  70.212  1.00  0.00    -0.239 C  
HETATM   14  C   UNL     1     -11.353  13.354  69.625  1.00  0.00    -0.206 C  
HETATM   15  C   UNL     1     -12.479  15.452  70.705  1.00  0.00    -0.478 C  
HETATM   16  C   UNL     1      -6.864  18.732  69.526  1.00  0.00    -0.109 C  
HETATM   17  H   UNL     1     -11.002  16.266  72.344  1.00  0.00     0.000 HD 
HETATM   18  O   UNL     1     -10.811  16.929  69.054  1.00  0.00    -0.314 OA 
HETATM   19  C   UNL     1     -12.025  13.591  68.263  1.00  0.00    -0.377 C  
HETATM   20  H   UNL     1     -11.717  17.127  69.263  1.00  0.00     0.000 HD 
HETATM   21  C   UNL     1      -5.931  17.842  68.701  1.00  0.00    -0.187 C  
HETATM   22  C   UNL     1     -10.642  15.518  68.906  1.00  0.00    -0.240 C  
HETATM   23  C   UNL     1     -11.624  15.012  67.833  1.00  0.00    -0.350 C  
ENDROOT
BRANCH  16  24
HETATM   24  O   UNL     1      -7.872  19.230  68.651  1.00  0.00    -0.338 OA 
BRANCH  24  25
HETATM   25  C   UNL     1      -8.477  18.361  67.680  1.00  0.00    -0.255 C  
HETATM   26  O   UNL     1     -12.109  19.183  67.984  1.00  0.00     1.475 OA 
HETATM   27  C   UNL     1     -10.787  19.077  65.930  1.00  0.00    -0.192 C  
HETATM   28  C   UNL     1      -9.941  18.062  67.993  1.00  0.00    -0.346 C  
HETATM   29  C   UNL     1     -10.785  19.202  67.455  1.00  0.00    -0.458 C  
HETATM   30  O   UNL     1      -8.283  19.047  66.438  1.00  0.00    -0.290 OA 
HETATM   31  C   UNL     1      -9.307  19.101  65.436  1.00  0.00     1.197 C  
HETATM   32  H   UNL     1     -12.638  19.897  67.648  1.00  0.00     0.000 HD 
HETATM   33  C   UNL     1      -9.002  20.372  64.630  1.00  0.00     2.524 C  
BRANCH  27  34
HETATM   34  O   UNL     1     -11.316  17.821  65.443  1.00  0.00     0.221 OA 
BRANCH  34  35
HETATM   35  C   UNL     1     -10.797  17.235  64.251  1.00  0.00     2.290 C  
HETATM   36  C   UNL     1      -9.576  16.355  64.479  1.00  0.00     3.270 C  
HETATM   37  C   UNL     1      -9.949  15.234  65.438  1.00  0.00    -0.329 C  
HETATM   38  O   UNL     1      -8.823  14.393  65.705  1.00  0.00    -0.221 OA 
HETATM   39  C   UNL     1     -11.151  14.416  64.923  1.00  0.00    -0.398 C  
HETATM   40  O   UNL     1     -11.821  16.458  63.617  1.00  0.00    -0.871 OA 
HETATM   41  C   UNL     1     -12.280  15.309  64.334  1.00  0.00    -0.210 C  
HETATM   42  H   UNL     1      -9.056  13.693  66.304  1.00  0.00     0.000 HD 
HETATM   43  C   UNL     1     -13.396  15.697  65.305  1.00  0.00     2.326 C  
BRANCH  39  44
HETATM   44  O   UNL     1     -10.808  13.493  63.867  1.00  0.00    -0.209 OA 
BRANCH  44  45
HETATM   45  C   UNL     1     -11.436  12.211  63.825  1.00  0.00    -0.465 C  
HETATM   46  C   UNL     1     -10.776  11.184  62.907  1.00  0.00     0.189 C  
HETATM   47  C   UNL     1      -9.369  10.897  63.413  1.00  0.00    -0.290 C  
HETATM   48  C   UNL     1      -9.436  10.338  64.837  1.00  0.00    -0.279 C  
HETATM   49  O   UNL     1      -8.736   9.936  62.560  1.00  0.00    -0.170 OA 
HETATM   50  H   UNL     1      -7.858   9.757  62.875  1.00  0.00     0.000 HD 
HETATM   51  O   UNL     1     -10.024   9.025  64.775  1.00  0.00     0.058 OA 
HETATM   52  C   UNL     1     -10.280  11.242  65.753  1.00  0.00    -0.251 C  
HETATM   53  C   UNL     1      -9.495  12.441  66.279  1.00  0.00    -0.220 C  
HETATM   54  O   UNL     1     -11.515  11.668  65.154  1.00  0.00    -0.231 OA 
HETATM   55  H   UNL     1     -10.065   8.678  65.659  1.00  0.00     0.000 HD 
ENDBRANCH  44  45
ENDBRANCH  39  44
ENDBRANCH  34  35
ENDBRANCH  27  34
ENDBRANCH  24  25
ENDBRANCH  16  24
BRANCH  14  56
HETATM   56  C   UNL     1     -11.922  12.255  70.465  1.00  0.00    -0.296 C  
HETATM   57  C   UNL     1     -12.948  12.393  71.519  1.00  0.00    -0.285 C  
HETATM   58  C   UNL     1     -12.189  10.260  71.468  1.00  0.00    -0.353 C  
HETATM   59  O   UNL     1     -13.077  11.083  72.072  1.00  0.00    -0.496 OA 
HETATM   60  O   UNL     1     -12.003   9.083  71.729  1.00  0.00    -0.321 OA 
HETATM   61  C   UNL     1     -11.464  11.001  70.448  1.00  0.00    -0.316 C  
ENDBRANCH  14  56
TORSDOF 7
ENDMDL
MODEL       58
REMARK 921   NORMALIZED FREE ENERGY PREDICTED BY IDOCK:   24.51 KCAL/MOL
REMARK 922        TOTAL FREE ENERGY PREDICTED BY IDOCK:   32.70 KCAL/MOL
REMARK 923 INTER-LIGAND FREE ENERGY PREDICTED BY IDOCK:   21.16 KCAL/MOL
REMARK 924 INTRA-LIGAND FREE ENERGY PREDICTED BY IDOCK:   11.54 KCAL/MOL
REMARK 927      BINDING AFFINITY PREDICTED BY RF-SCORE:    0.00 PKD
ROOT
HETATM    1  C   UNL     1      -9.260   8.570  65.539  1.00  0.00    -0.109 C  
HETATM    2  C   UNL     1     -10.305   7.475  65.797  1.00  0.00     1.634 C  
HETATM    3  C   UNL     1     -10.996   7.574  67.144  1.00  0.00    -0.164 C  
HETATM    4  C   UNL     1     -10.004   7.482  68.316  1.00  0.00    -0.193 C  
HETATM    5  C   UNL     1      -8.820   8.435  68.109  1.00  0.00    -0.142 C  
HETATM    6  C   UNL     1      -8.260   8.792  66.708  1.00  0.00    -0.108 C  
HETATM    7  C   UNL     1      -7.737   8.259  69.186  1.00  0.00    -0.097 C  
HETATM    8  C   UNL     1      -6.990   7.972  66.360  1.00  0.00    -0.070 C  
HETATM    9  C   UNL     1      -8.301   8.757  70.508  1.00  0.00    -0.148 C  
HETATM   10  C   UNL     1      -7.900  10.321  66.815  1.00  0.00    -0.114 C  
HETATM   11  C   UNL     1      -9.159  11.207  67.010  1.00  0.00    -0.158 C  
HETATM   12  O   UNL     1      -8.501  10.172  70.440  1.00  0.00    -0.362 OA 
HETATM   13  C   UNL     1      -9.613   8.026  70.886  1.00  0.00    -0.179 C  
HETATM   14  C   UNL     1      -9.342   6.515  71.162  1.00  0.00    -0.167 C  
HETATM   15  C   UNL     1     -10.259   8.784  72.082  1.00  0.00    -0.371 C  
HETATM   16  C   UNL     1     -10.157  11.031  65.869  1.00  0.00    -0.249 C  
HETATM   17  H   UNL     1      -8.853  10.483  71.266  1.00  0.00     0.000 HD 
HETATM   18  O   UNL     1     -11.402   9.092  69.575  1.00  0.00    -0.441 OA 
HETATM   19  C   UNL     1     -10.736   5.869  71.130  1.00  0.00    -0.328 C  
HETATM   20  H   UNL     1     -11.796   9.326  70.407  1.00  0.00     0.000 HD 
HETATM   21  C   UNL     1      -9.805   9.877  64.926  1.00  0.00    -0.282 C  
HETATM   22  C   UNL     1     -10.666   7.875  69.711  1.00  0.00    -0.233 C  
HETATM   23  C   UNL     1     -11.608   6.783  70.251  1.00  0.00    -0.417 C  
ENDROOT
BRANCH  16  24
HETATM   24  O   UNL     1     -11.515  10.864  66.268  1.00  0.00    -0.057 OA 
BRANCH  24  25
HETATM   25  C   UNL     1     -12.284  11.998  66.699  1.00  0.00     0.524 C  
HETATM   26  O   UNL     1     -11.917  11.881  70.415  1.00  0.00    -0.380 OA 
HETATM   27  C   UNL     1     -11.561  13.811  68.958  1.00  0.00    -0.313 C  
HETATM   28  C   UNL     1     -12.784  11.855  68.134  1.00  0.00     2.014 C  
HETATM   29  C   UNL     1     -11.673  12.289  69.072  1.00  0.00    -0.324 C  
HETATM   30  O   UNL     1     -11.397  13.106  66.507  1.00  0.00    -0.295 OA 
HETATM   31  C   UNL     1     -11.300  14.171  67.462  1.00  0.00    -0.322 C  
HETATM   32  H   UNL     1     -11.222  12.152  71.003  1.00  0.00     0.000 HD 
HETATM   33  C   UNL     1      -9.895  14.755  67.259  1.00  0.00    -0.230 C  
BRANCH  27  34
HETATM   34  O   UNL     1     -12.777  14.519  69.299  1.00  0.00    -0.006 OA 
BRANCH  34  35
HETATM   35  C   UNL     1     -12.738  15.911  69.601  1.00  0.00     0.492 C  
HETATM   36  C   UNL     1     -13.127  16.241  71.036  1.00  0.00     1.394 C  
HETATM   37  C   UNL     1     -12.175  15.522  71.981  1.00  0.00    -0.404 C  
HETATM   38  O   UNL     1     -12.517  15.779  73.346  1.00  0.00    -0.415 OA 
HETATM   39  C   UNL     1     -10.703  15.880  71.694  1.00  0.00     0.748 C  
HETATM   40  O   UNL     1     -11.423  16.418  69.345  1.00  0.00    -0.265 OA 
HETATM   41  C   UNL     1     -10.374  15.909  70.174  1.00  0.00    -0.175 C  
HETATM   42  H   UNL     1     -11.923  15.330  73.936  1.00  0.00     0.000 HD 
HETATM   43  C   UNL     1      -9.816  14.610  69.589  1.00  0.00     0.165 C  
BRANCH  39  44
HETATM   44  O   UNL     1     -10.321  17.182  72.189  1.00  0.00     3.720 OA 
BRANCH  44  45
HETATM   45  C   UNL     1     -11.129  18.317  71.875  1.00  0.00     3.317 C  
HETATM   46  C   UNL     1     -10.720  19.624  72.549  1.00  0.00     4.697 C  
HETATM   47  C   UNL     1      -9.325  20.012  72.076  1.00  0.00     2.871 C  
HETATM   48  C   UNL     1      -9.331  20.203  70.557  1.00  0.00     1.435 C  
HETATM   49  O   UNL     1      -8.926  21.237  72.702  1.00  0.00     0.980 OA 
HETATM   50  H   UNL     1      -8.056  21.479  72.407  1.00  0.00     0.000 HD 
HETATM   51  O   UNL     1     -10.105  21.379  70.255  1.00  0.00     1.390 OA 
HETATM   52  C   UNL     1      -9.940  18.983  69.842  1.00  0.00     0.659 C  
HETATM   53  C   UNL     1      -8.942  17.840  69.677  1.00  0.00     0.932 C  
HETATM   54  O   UNL     1     -11.153  18.513  70.451  1.00  0.00     2.221 OA 
HETATM   55  H   UNL     1     -10.109  21.497  69.312  1.00  0.00     0.000 HD 
ENDBRANCH  44  45
ENDBRANCH  39  44
ENDBRANCH  34  35
ENDBRANCH  27  34
ENDBRANCH  24  25
ENDBRANCH  16  24
BRANCH  14  56
HETATM   56  C   UNL     1      -8.439   6.093  72.278  1.00  0.00    -0.116 C  
HETATM   57  C   UNL     1      -7.824   6.972  73.293  1.00  0.00    -0.096 C  
HETATM   58  C   UNL     1      -7.047   4.859  73.542  1.00  0.00    -0.077 C  
HETATM   59  O   UNL     1      -6.993   6.105  74.066  1.00  0.00    -0.082 OA 
HETATM   60  O   UNL     1      -6.424   3.886  73.930  1.00  0.00    -0.040 OA 
HETATM   61  C   UNL     1      -7.967   4.852  72.415  1.00  0.00    -0.103 C  
ENDBRANCH  14  56
TORSDOF 7
ENDMDL
MODEL       59
REMARK 921   NORMALIZED FREE ENERGY PREDICTED BY IDOCK:   26.76 KCAL/MOL
REMARK 922        TOTAL FREE ENERGY PREDICTED BY IDOCK:   35.87 KCAL/MOL
REMARK 923 INTER-LIGAND FREE ENERGY PREDICTED BY IDOCK:   31.39 KCAL/MOL
REMARK 924 INTRA-LIGAND FREE ENERGY PREDICTED BY IDOCK:    4.47 KCAL/MOL
REMARK 927      BINDING AFFINITY PREDICTED BY RF-SCORE:    0.00 PKD
ROOT
HETATM    1  C   UNL     1     -11.198   7.349  66.097  1.00  0.00     2.612 C  
HETATM    2  C   UNL     1     -11.660   8.613  65.359  1.00  0.00     8.582 C  
HETATM    3  C   UNL     1     -11.072   9.903  65.898  1.00  0.00     0.983 C  
HETATM    4  C   UNL     1     -11.431  10.134  67.375  1.00  0.00     0.427 C  
HETATM    5  C   UNL     1     -11.150   8.880  68.212  1.00  0.00     0.201 C  
HETATM    6  C   UNL     1     -11.284   7.442  67.646  1.00  0.00     0.174 C  
HETATM    7  C   UNL     1     -11.638   9.026  69.662  1.00  0.00     0.342 C  
HETATM    8  C   UNL     1     -12.626   6.778  68.051  1.00  0.00     6.266 C  
HETATM    9  C   UNL     1     -10.758  10.056  70.354  1.00  0.00    -0.307 C  
HETATM   10  C   UNL     1     -10.080   6.659  68.292  1.00  0.00    -0.170 C  
HETATM   11  C   UNL     1      -8.707   7.186  67.798  1.00  0.00    -0.125 C  
HETATM   12  O   UNL     1      -9.429   9.541  70.482  1.00  0.00    -0.252 OA 
HETATM   13  C   UNL     1     -10.762  11.412  69.606  1.00  0.00    -0.023 C  
HETATM   14  C   UNL     1     -12.178  12.064  69.655  1.00  0.00    -0.202 C  
HETATM   15  C   UNL     1      -9.634  12.298  70.210  1.00  0.00     4.217 C  
HETATM   16  C   UNL     1      -8.577   7.090  66.281  1.00  0.00    -0.139 C  
HETATM   17  H   UNL     1      -8.879  10.185  70.915  1.00  0.00     0.000 HD 
HETATM   18  O   UNL     1      -9.206  11.164  67.716  1.00  0.00    -0.148 OA 
HETATM   19  C   UNL     1     -12.128  13.156  68.574  1.00  0.00    -0.217 C  
HETATM   20  H   UNL     1      -8.704  11.869  68.108  1.00  0.00     0.000 HD 
HETATM   21  C   UNL     1      -9.887   6.720  65.581  1.00  0.00     0.790 C  
HETATM   22  C   UNL     1     -10.590  11.317  68.033  1.00  0.00    -0.195 C  
HETATM   23  C   UNL     1     -11.055  12.709  67.567  1.00  0.00    -0.313 C  
ENDROOT
BRANCH  16  24
HETATM   24  O   UNL     1      -8.060   8.254  65.641  1.00  0.00    -0.109 OA 
BRANCH  24  25
HETATM   25  C   UNL     1      -8.413   9.559  66.124  1.00  0.00    -0.120 C  
HETATM   26  O   UNL     1      -5.486  10.471  68.259  1.00  0.00    -0.035 OA 
HETATM   27  C   UNL     1      -6.511  11.828  66.503  1.00  0.00     0.098 C  
HETATM   28  C   UNL     1      -7.714   9.909  67.435  1.00  0.00    -0.091 C  
HETATM   29  C   UNL     1      -6.328  10.436  67.110  1.00  0.00    -0.067 C  
HETATM   30  O   UNL     1      -8.070  10.430  65.039  1.00  0.00    -0.153 OA 
HETATM   31  C   UNL     1      -7.445  11.701  65.259  1.00  0.00     1.455 C  
HETATM   32  H   UNL     1      -4.619  10.801  68.056  1.00  0.00     0.000 HD 
HETATM   33  C   UNL     1      -6.692  12.000  63.954  1.00  0.00     5.129 C  
BRANCH  27  34
HETATM   34  O   UNL     1      -7.186  12.767  67.374  1.00  0.00    -0.146 OA 
BRANCH  34  35
HETATM   35  C   UNL     1      -6.434  13.623  68.231  1.00  0.00    -0.109 C  
HETATM   36  C   UNL     1      -5.432  14.504  67.498  1.00  0.00     0.191 C  
HETATM   37  C   UNL     1      -6.180  15.370  66.495  1.00  0.00     2.086 C  
HETATM   38  O   UNL     1      -5.276  16.199  65.759  1.00  0.00     1.708 OA 
HETATM   39  C   UNL     1      -7.283  16.208  67.173  1.00  0.00    -0.220 C  
HETATM   40  O   UNL     1      -7.330  14.456  68.977  1.00  0.00    -0.123 OA 
HETATM   41  C   UNL     1      -8.098  15.397  68.221  1.00  0.00    -0.136 C  
HETATM   42  H   UNL     1      -5.742  16.740  65.133  1.00  0.00     0.000 HD 
HETATM   43  C   UNL     1      -9.383  14.747  67.707  1.00  0.00    -0.199 C  
BRANCH  39  44
HETATM   44  O   UNL     1      -6.776  17.354  67.890  1.00  0.00    -0.166 OA 
BRANCH  44  45
HETATM   45  C   UNL     1      -7.518  17.877  68.993  1.00  0.00    -0.166 C  
HETATM   46  C   UNL     1      -7.133  17.331  70.365  1.00  0.00     1.938 C  
HETATM   47  C   UNL     1      -5.690  17.717  70.666  1.00  0.00     0.019 C  
HETATM   48  C   UNL     1      -5.553  19.242  70.668  1.00  0.00    -0.225 C  
HETATM   49  O   UNL     1      -5.313  17.209  71.952  1.00  0.00    -0.129 OA 
HETATM   50  H   UNL     1      -4.414  17.450  72.139  1.00  0.00     0.000 HD 
HETATM   51  O   UNL     1      -6.263  19.754  71.812  1.00  0.00    -0.112 OA 
HETATM   52  C   UNL     1      -6.132  19.856  69.381  1.00  0.00    -0.303 C  
HETATM   53  C   UNL     1      -5.157  19.788  68.208  1.00  0.00    -0.195 C  
HETATM   54  O   UNL     1      -7.408  19.310  69.011  1.00  0.00    -0.345 OA 
HETATM   55  H   UNL     1      -6.178  20.701  71.813  1.00  0.00     0.000 HD 
ENDBRANCH  44  45
ENDBRANCH  39  44
ENDBRANCH  34  35
ENDBRANCH  27  34
ENDBRANCH  24  25
ENDBRANCH  16  24
BRANCH  14  56
HETATM   56  C   UNL     1     -12.797  12.449  70.961  1.00  0.00    -0.245 C  
HETATM   57  C   UNL     1     -13.891  11.742  71.659  1.00  0.00     0.777 C  
HETATM   58  C   UNL     1     -13.385  13.650  72.769  1.00  0.00    -0.355 C  
HETATM   59  O   UNL     1     -14.172  12.549  72.802  1.00  0.00    -0.074 OA 
HETATM   60  O   UNL     1     -13.398  14.570  73.569  1.00  0.00    -0.461 OA 
HETATM   61  C   UNL     1     -12.513  13.581  71.607  1.00  0.00    -0.229 C  
ENDBRANCH  14  56
TORSDOF 7
ENDMDL
MODEL       60
REMARK 921   NORMALIZED FREE ENERGY PREDICTED BY IDOCK:   28.25 KCAL/MOL
REMARK 922        TOTAL FREE ENERGY PREDICTED BY IDOCK:   37.97 KCAL/MOL
REMARK 923 INTER-LIGAND FREE ENERGY PREDICTED BY IDOCK:   26.05 KCAL/MOL
REMARK 924 INTRA-LIGAND FREE ENERGY PREDICTED BY IDOCK:   11.92 KCAL/MOL
REMARK 927      BINDING AFFINITY PREDICTED BY RF-SCORE:    0.00 PKD
ROOT
HETATM    1  C   UNL     1      -6.559  11.583  65.003  1.00  0.00     1.805 C  
HETATM    2  C   UNL     1      -7.297  11.008  63.786  1.00  0.00     0.740 C  
HETATM    3  C   UNL     1      -8.643  10.388  64.105  1.00  0.00    -0.186 C  
HETATM    4  C   UNL     1      -8.527   9.224  65.103  1.00  0.00    -0.173 C  
HETATM    5  C   UNL     1      -7.681   9.625  66.318  1.00  0.00    -0.101 C  
HETATM    6  C   UNL     1      -6.502  10.629  66.229  1.00  0.00    -0.126 C  
HETATM    7  C   UNL     1      -7.420   8.440  67.262  1.00  0.00    -0.093 C  
HETATM    8  C   UNL     1      -5.128   9.911  66.161  1.00  0.00    -0.038 C  
HETATM    9  C   UNL     1      -8.737   8.063  67.921  1.00  0.00    -0.128 C  
HETATM   10  C   UNL     1      -6.607  11.466  67.559  1.00  0.00    -0.078 C  
HETATM   11  C   UNL     1      -7.897  12.326  67.608  1.00  0.00    -0.156 C  
HETATM   12  O   UNL     1      -9.155   9.119  68.792  1.00  0.00    -0.135 OA 
HETATM   13  C   UNL     1      -9.832   7.736  66.876  1.00  0.00    -0.305 C  
HETATM   14  C   UNL     1      -9.458   6.454  66.070  1.00  0.00    -0.005 C  
HETATM   15  C   UNL     1     -11.196   7.643  67.619  1.00  0.00     0.344 C  
HETATM   16  C   UNL     1      -7.979  13.292  66.430  1.00  0.00     1.055 C  
HETATM   17  H   UNL     1      -9.979   8.883  69.205  1.00  0.00     0.000 HD 
HETATM   18  O   UNL     1     -10.700   9.898  66.082  1.00  0.00    -0.045 OA 
HETATM   19  C   UNL     1     -10.396   6.485  64.853  1.00  0.00     3.752 C  
HETATM   20  H   UNL     1     -11.543   9.620  66.420  1.00  0.00     0.000 HD 
HETATM   21  C   UNL     1      -6.909  13.042  65.364  1.00  0.00     7.456 C  
HETATM   22  C   UNL     1      -9.942   8.759  65.670  1.00  0.00     0.353 C  
HETATM   23  C   UNL     1     -10.764   7.964  64.638  1.00  0.00     8.441 C  
ENDROOT
BRANCH  16  24
HETATM   24  O   UNL     1      -9.241  13.342  65.772  1.00  0.00     0.078 OA 
BRANCH  24  25
HETATM   25  C   UNL     1     -10.353  12.595  66.288  1.00  0.00    -0.252 C  
HETATM   26  O   UNL     1     -10.160  13.257  69.960  1.00  0.00     0.832 OA 
HETATM   27  C   UNL     1     -12.127  13.471  68.524  1.00  0.00    -0.268 C  
HETATM   28  C   UNL     1     -10.172  12.212  67.754  1.00  0.00    -0.207 C  
HETATM   29  C   UNL     1     -10.602  13.388  68.611  1.00  0.00    -0.241 C  
HETATM   30  O   UNL     1     -11.479  13.449  66.053  1.00  0.00    -0.312 OA 
HETATM   31  C   UNL     1     -12.524  13.607  67.021  1.00  0.00    -0.084 C  
HETATM   32  H   UNL     1     -10.428  13.993  70.496  1.00  0.00     0.000 HD 
HETATM   33  C   UNL     1     -13.134  14.984  66.721  1.00  0.00     2.427 C  
BRANCH  27  34
HETATM   34  O   UNL     1     -12.809  12.277  68.977  1.00  0.00     0.671 OA 
BRANCH  34  35
HETATM   35  C   UNL     1     -12.272  10.989  68.690  1.00  0.00     0.111 C  
HETATM   36  C   UNL     1     -10.765  10.891  68.889  1.00  0.00    -0.252 C  
HETATM   37  C   UNL     1     -10.437  11.233  70.334  1.00  0.00     1.426 C  
HETATM   38  O   UNL     1      -9.026  11.181  70.566  1.00  0.00     1.490 OA 
HETATM   39  C   UNL     1     -11.201  10.331  71.325  1.00  0.00     0.090 C  
HETATM   40  O   UNL     1     -12.916  10.010  69.515  1.00  0.00     0.441 OA 
HETATM   41  C   UNL     1     -12.688  10.117  70.922  1.00  0.00    -0.357 C  
HETATM   42  H   UNL     1      -8.820  11.395  71.468  1.00  0.00     0.000 HD 
HETATM   43  C   UNL     1     -13.694  11.080  71.554  1.00  0.00     0.356 C  
BRANCH  39  44
HETATM   44  O   UNL     1     -10.644   9.003  71.440  1.00  0.00    -0.267 OA 
BRANCH  44  45
HETATM   45  C   UNL     1     -11.229   8.073  72.352  1.00  0.00    -0.369 C  
HETATM   46  C   UNL     1     -11.824   6.816  71.721  1.00  0.00    -0.371 C  
HETATM   47  C   UNL     1     -10.712   6.028  71.041  1.00  0.00    -0.265 C  
HETATM   48  C   UNL     1      -9.657   5.627  72.076  1.00  0.00    -0.151 C  
HETATM   49  O   UNL     1     -11.255   4.845  70.441  1.00  0.00     0.698 OA 
HETATM   50  H   UNL     1     -10.562   4.354  70.018  1.00  0.00     0.000 HD 
HETATM   51  O   UNL     1     -10.242   4.652  72.958  1.00  0.00    -0.155 OA 
HETATM   52  C   UNL     1      -9.182   6.845  72.890  1.00  0.00    -0.134 C  
HETATM   53  C   UNL     1      -8.125   7.666  72.155  1.00  0.00    -0.122 C  
HETATM   54  O   UNL     1     -10.257   7.686  73.337  1.00  0.00    -0.323 OA 
HETATM   55  H   UNL     1      -9.587   4.403  73.601  1.00  0.00     0.000 HD 
ENDBRANCH  44  45
ENDBRANCH  39  44
ENDBRANCH  34  35
ENDBRANCH  27  34
ENDBRANCH  24  25
ENDBRANCH  16  24
BRANCH  14  56
HETATM   56  C   UNL     1      -9.309   5.135  66.760  1.00  0.00    -0.134 C  
HETATM   57  C   UNL     1      -8.859   4.915  68.150  1.00  0.00    -0.103 C  
HETATM   58  C   UNL     1      -9.121   2.921  67.108  1.00  0.00    -0.167 C  
HETATM   59  O   UNL     1      -8.804   3.495  68.292  1.00  0.00    -0.099 OA 
HETATM   60  O   UNL     1      -9.128   1.726  66.865  1.00  0.00    -0.122 OA 
HETATM   61  C   UNL     1      -9.445   3.960  66.143  1.00  0.00    -0.191 C  
ENDBRANCH  14  56
TORSDOF 7
ENDMDL
MODEL       61
REMARK 921   NORMALIZED FREE ENERGY PREDICTED BY IDOCK:   28.38 KCAL/MOL
REMARK 922        TOTAL FREE ENERGY PREDICTED BY IDOCK:   38.15 KCAL/MOL
REMARK 923 INTER-LIGAND FREE ENERGY PREDICTED BY IDOCK:   12.89 KCAL/MOL
REMARK 924 INTRA-LIGAND FREE ENERGY PREDICTED BY IDOCK:   25.26 KCAL/MOL
REMARK 927      BINDING AFFINITY PREDICTED BY RF-SCORE:    0.00 PKD
ROOT
HETATM    1  C   UNL     1     -11.085   7.909  66.082  1.00  0.00     2.543 C  
HETATM    2  C   UNL     1     -10.953   9.202  66.900  1.00  0.00     0.169 C  
HETATM    3  C   UNL     1      -9.635   9.344  67.637  1.00  0.00    -0.163 C  
HETATM    4  C   UNL     1      -9.399   8.199  68.636  1.00  0.00    -0.143 C  
HETATM    5  C   UNL     1      -9.642   6.836  67.976  1.00  0.00    -0.117 C  
HETATM    6  C   UNL     1     -10.689   6.618  66.852  1.00  0.00    -0.401 C  
HETATM    7  C   UNL     1      -9.562   5.679  68.984  1.00  0.00    -0.174 C  
HETATM    8  C   UNL     1     -12.009   6.010  67.395  1.00  0.00     2.733 C  
HETATM    9  C   UNL     1      -8.115   5.544  69.434  1.00  0.00    -0.095 C  
HETATM   10  C   UNL     1      -9.994   5.605  65.868  1.00  0.00     0.050 C  
HETATM   11  C   UNL     1      -8.749   6.221  65.178  1.00  0.00     0.039 C  
HETATM   12  O   UNL     1      -7.311   5.106  68.334  1.00  0.00    -0.069 OA 
HETATM   13  C   UNL     1      -7.572   6.866  70.030  1.00  0.00    -0.099 C  
HETATM   14  C   UNL     1      -8.322   7.224  71.350  1.00  0.00    -0.110 C  
HETATM   15  C   UNL     1      -6.031   6.723  70.195  1.00  0.00    -0.023 C  
HETATM   16  C   UNL     1      -9.102   7.481  64.392  1.00  0.00     1.260 C  
HETATM   17  H   UNL     1      -6.407   5.022  68.615  1.00  0.00     0.000 HD 
HETATM   18  O   UNL     1      -6.979   8.296  68.118  1.00  0.00    -0.073 OA 
HETATM   19  C   UNL     1      -7.971   8.700  71.596  1.00  0.00    -0.166 C  
HETATM   20  H   UNL     1      -6.090   8.280  68.452  1.00  0.00     0.000 HD 
HETATM   21  C   UNL     1     -10.530   7.973  64.644  1.00  0.00     6.431 C  
HETATM   22  C   UNL     1      -7.908   8.172  69.197  1.00  0.00    -0.107 C  
HETATM   23  C   UNL     1      -7.635   9.292  70.217  1.00  0.00    -0.125 C  
ENDROOT
BRANCH  16  24
HETATM   24  O   UNL     1      -8.223   8.585  64.588  1.00  0.00    -0.153 OA 
BRANCH  24  25
HETATM   25  C   UNL     1      -7.934   9.050  65.916  1.00  0.00    -0.103 C  
HETATM   26  O   UNL     1      -5.614  11.913  65.303  1.00  0.00     0.405 OA 
HETATM   27  C   UNL     1      -7.615  11.910  66.708  1.00  0.00    -0.034 C  
HETATM   28  C   UNL     1      -6.604   9.794  66.000  1.00  0.00    -0.082 C  
HETATM   29  C   UNL     1      -6.836  11.233  65.578  1.00  0.00     0.538 C  
HETATM   30  O   UNL     1      -9.068   9.859  66.250  1.00  0.00    -0.148 OA 
HETATM   31  C   UNL     1      -8.929  11.104  66.948  1.00  0.00    -0.161 C  
HETATM   32  H   UNL     1      -5.759  12.814  65.039  1.00  0.00     0.000 HD 
HETATM   33  C   UNL     1     -10.171  11.917  66.552  1.00  0.00    -0.232 C  
BRANCH  27  34
HETATM   34  O   UNL     1      -6.935  11.892  67.986  1.00  0.00    -0.069 OA 
BRANCH  34  35
HETATM   35  C   UNL     1      -7.190  12.908  68.952  1.00  0.00    -0.042 C  
HETATM   36  C   UNL     1      -6.175  14.042  68.936  1.00  0.00    -0.089 C  
HETATM   37  C   UNL     1      -6.177  14.685  67.557  1.00  0.00     0.021 C  
HETATM   38  O   UNL     1      -5.217  15.742  67.483  1.00  0.00    -0.239 OA 
HETATM   39  C   UNL     1      -7.583  15.175  67.155  1.00  0.00    -0.168 C  
HETATM   40  O   UNL     1      -8.500  13.450  68.739  1.00  0.00    -0.049 OA 
HETATM   41  C   UNL     1      -8.702  14.155  67.511  1.00  0.00    -0.204 C  
HETATM   42  H   UNL     1      -5.217  16.144  66.622  1.00  0.00     0.000 HD 
HETATM   43  C   UNL     1      -9.095  13.183  66.397  1.00  0.00    -0.069 C  
BRANCH  39  44
HETATM   44  O   UNL     1      -7.970  16.405  67.805  1.00  0.00    -0.146 OA 
BRANCH  44  45
HETATM   45  C   UNL     1      -8.815  17.327  67.115  1.00  0.00    -0.226 C  
HETATM   46  C   UNL     1     -10.271  16.894  66.955  1.00  0.00    -0.297 C  
HETATM   47  C   UNL     1     -10.904  16.761  68.334  1.00  0.00    -0.355 C  
HETATM   48  C   UNL     1     -10.851  18.109  69.058  1.00  0.00     0.661 C  
HETATM   49  O   UNL     1     -12.271  16.354  68.199  1.00  0.00     0.207 OA 
HETATM   50  H   UNL     1     -12.666  16.271  69.059  1.00  0.00     0.000 HD 
HETATM   51  O   UNL     1     -11.745  19.016  68.385  1.00  0.00     1.071 OA 
HETATM   52  C   UNL     1      -9.425  18.689  69.055  1.00  0.00    -0.189 C  
HETATM   53  C   UNL     1      -8.544  18.088  70.147  1.00  0.00     2.556 C  
HETATM   54  O   UNL     1      -8.777  18.603  67.776  1.00  0.00    -0.273 OA 
HETATM   55  H   UNL     1     -11.712  19.852  68.835  1.00  0.00     0.000 HD 
ENDBRANCH  44  45
ENDBRANCH  39  44
ENDBRANCH  34  35
ENDBRANCH  27  34
ENDBRANCH  24  25
ENDBRANCH  16  24
BRANCH  14  56
HETATM   56  C   UNL     1      -8.253   6.317  72.538  1.00  0.00    -0.106 C  
HETATM   57  C   UNL     1      -7.252   6.363  73.623  1.00  0.00    -0.082 C  
HETATM   58  C   UNL     1      -8.600   4.564  73.904  1.00  0.00    -0.102 C  
HETATM   59  O   UNL     1      -7.568   5.245  74.454  1.00  0.00    -0.089 OA 
HETATM   60  O   UNL     1      -9.094   3.534  74.330  1.00  0.00    -0.086 OA 
HETATM   61  C   UNL     1      -9.035   5.247  72.695  1.00  0.00    -0.135 C  
ENDBRANCH  14  56
TORSDOF 7
ENDMDL
MODEL       62
REMARK 921   NORMALIZED FREE ENERGY PREDICTED BY IDOCK:   29.49 KCAL/MOL
REMARK 922        TOTAL FREE ENERGY PREDICTED BY IDOCK:   39.72 KCAL/MOL
REMARK 923 INTER-LIGAND FREE ENERGY PREDICTED BY IDOCK:   23.38 KCAL/MOL
REMARK 924 INTRA-LIGAND FREE ENERGY PREDICTED BY IDOCK:   16.34 KCAL/MOL
REMARK 927      BINDING AFFINITY PREDICTED BY RF-SCORE:    0.00 PKD
ROOT
HETATM    1  C   UNL     1     -12.194   8.577  69.066  1.00  0.00     2.825 C  
HETATM    2  C   UNL     1     -11.170   8.520  67.923  1.00  0.00     0.575 C  
HETATM    3  C   UNL     1     -10.121   9.615  67.968  1.00  0.00    -0.213 C  
HETATM    4  C   UNL     1     -10.742  11.020  67.894  1.00  0.00    -0.263 C  
HETATM    5  C   UNL     1     -11.891  11.165  68.899  1.00  0.00    -0.406 C  
HETATM    6  C   UNL     1     -12.810   9.983  69.307  1.00  0.00     1.706 C  
HETATM    7  C   UNL     1     -12.631  12.504  68.748  1.00  0.00     0.842 C  
HETATM    8  C   UNL     1     -14.162  10.006  68.547  1.00  0.00    11.290 C  
HETATM    9  C   UNL     1     -11.693  13.615  69.197  1.00  0.00    -0.329 C  
HETATM   10  C   UNL     1     -13.055  10.199  70.847  1.00  0.00    -0.412 C  
HETATM   11  C   UNL     1     -11.753  10.033  71.676  1.00  0.00    -0.246 C  
HETATM   12  O   UNL     1     -11.457  13.502  70.603  1.00  0.00    -0.488 OA 
HETATM   13  C   UNL     1     -10.362  13.599  68.405  1.00  0.00    -0.248 C  
HETATM   14  C   UNL     1     -10.611  13.931  66.901  1.00  0.00    -0.280 C  
HETATM   15  C   UNL     1      -9.370  14.567  69.112  1.00  0.00     0.001 C  
HETATM   16  C   UNL     1     -11.130   8.654  71.481  1.00  0.00    -0.288 C  
HETATM   17  H   UNL     1     -10.871  14.196  70.884  1.00  0.00     0.000 HD 
HETATM   18  O   UNL     1      -8.973  11.840  69.420  1.00  0.00    -0.118 OA 
HETATM   19  C   UNL     1      -9.315  13.498  66.198  1.00  0.00    -0.082 C  
HETATM   20  H   UNL     1      -8.348  12.527  69.622  1.00  0.00     0.000 HD 
HETATM   21  C   UNL     1     -11.787   7.843  70.360  1.00  0.00     0.059 C  
HETATM   22  C   UNL     1      -9.695  12.172  68.233  1.00  0.00    -0.216 C  
HETATM   23  C   UNL     1      -8.688  12.415  67.093  1.00  0.00    -0.195 C  
ENDROOT
BRANCH  16  24
HETATM   24  O   UNL     1      -9.724   8.650  71.250  1.00  0.00    -0.193 OA 
BRANCH  24  25
HETATM   25  C   UNL     1      -9.081   7.471  70.742  1.00  0.00    -0.154 C  
HETATM   26  O   UNL     1      -8.149   5.631  73.857  1.00  0.00    -0.107 OA 
HETATM   27  C   UNL     1      -9.328   4.735  71.912  1.00  0.00    -0.139 C  
HETATM   28  C   UNL     1      -8.110   6.854  71.745  1.00  0.00    -0.101 C  
HETATM   29  C   UNL     1      -8.902   5.977  72.697  1.00  0.00    -0.124 C  
HETATM   30  O   UNL     1     -10.171   6.609  70.393  1.00  0.00    -0.185 OA 
HETATM   31  C   UNL     1     -10.138   5.202  70.662  1.00  0.00    -0.239 C  
HETATM   32  H   UNL     1      -8.644   5.082  74.453  1.00  0.00     0.000 HD 
HETATM   33  C   UNL     1     -11.613   4.785  70.758  1.00  0.00     2.889 C  
BRANCH  27  34
HETATM   34  O   UNL     1      -8.223   3.974  71.369  1.00  0.00    -0.074 OA 
BRANCH  34  35
HETATM   35  C   UNL     1      -8.422   2.636  70.920  1.00  0.00    -0.057 C  
HETATM   36  C   UNL     1      -9.790   2.393  70.296  1.00  0.00     0.147 C  
HETATM   37  C   UNL     1      -9.961   3.326  69.106  1.00  0.00     0.535 C  
HETATM   38  O   UNL     1     -11.245   3.155  68.500  1.00  0.00     5.304 OA 
HETATM   39  C   UNL     1      -8.826   3.153  68.075  1.00  0.00    -0.124 C  
HETATM   40  O   UNL     1      -7.408   2.297  69.966  1.00  0.00    -0.039 OA 
HETATM   41  C   UNL     1      -7.424   3.026  68.736  1.00  0.00    -0.048 C  
HETATM   42  H   UNL     1     -11.352   3.737  67.757  1.00  0.00     0.000 HD 
HETATM   43  C   UNL     1      -6.635   4.328  68.877  1.00  0.00    -0.045 C  
BRANCH  39  44
HETATM   44  O   UNL     1      -8.969   1.971  67.257  1.00  0.00    -0.127 OA 
BRANCH  44  45
HETATM   45  C   UNL     1      -8.389   1.947  65.952  1.00  0.00    -0.095 C  
HETATM   46  C   UNL     1      -9.327   2.320  64.807  1.00  0.00    -0.116 C  
HETATM   47  C   UNL     1      -9.784   3.762  64.989  1.00  0.00    -0.183 C  
HETATM   48  C   UNL     1      -8.569   4.694  64.976  1.00  0.00    -0.138 C  
HETATM   49  O   UNL     1     -10.668   4.126  63.922  1.00  0.00    -0.446 OA 
HETATM   50  H   UNL     1     -10.953   5.025  64.035  1.00  0.00     0.000 HD 
HETATM   51  O   UNL     1      -8.024   4.701  63.644  1.00  0.00    -0.082 OA 
HETATM   52  C   UNL     1      -7.495   4.225  65.974  1.00  0.00    -0.085 C  
HETATM   53  C   UNL     1      -7.793   4.662  67.406  1.00  0.00    -0.090 C  
HETATM   54  O   UNL     1      -7.241   2.812  65.918  1.00  0.00    -0.063 OA 
HETATM   55  H   UNL     1      -7.270   5.279  63.636  1.00  0.00     0.000 HD 
ENDBRANCH  44  45
ENDBRANCH  39  44
ENDBRANCH  34  35
ENDBRANCH  27  34
ENDBRANCH  24  25
ENDBRANCH  16  24
BRANCH  14  56
HETATM   56  C   UNL     1     -11.178  15.254  66.495  1.00  0.00    -0.228 C  
HETATM   57  C   UNL     1     -12.301  15.482  65.562  1.00  0.00     0.877 C  
HETATM   58  C   UNL     1     -11.400  17.469  66.171  1.00  0.00     1.122 C  
HETATM   59  O   UNL     1     -12.391  16.902  65.445  1.00  0.00     2.469 OA 
HETATM   60  O   UNL     1     -11.159  18.661  66.257  1.00  0.00     0.058 OA 
HETATM   61  C   UNL     1     -10.638  16.425  66.839  1.00  0.00    -0.252 C  
ENDBRANCH  14  56
TORSDOF 7
ENDMDL
MODEL       63
REMARK 921   NORMALIZED FREE ENERGY PREDICTED BY IDOCK:   30.46 KCAL/MOL
REMARK 922        TOTAL FREE ENERGY PREDICTED BY IDOCK:   41.09 KCAL/MOL
REMARK 923 INTER-LIGAND FREE ENERGY PREDICTED BY IDOCK:   24.39 KCAL/MOL
REMARK 924 INTRA-LIGAND FREE ENERGY PREDICTED BY IDOCK:   16.70 KCAL/MOL
REMARK 927      BINDING AFFINITY PREDICTED BY RF-SCORE:    0.00 PKD
ROOT
HETATM    1  C   UNL     1     -10.905  10.933  67.259  1.00  0.00    -0.342 C  
HETATM    2  C   UNL     1      -9.407  11.254  67.355  1.00  0.00    -0.168 C  
HETATM    3  C   UNL     1      -8.521  10.367  66.501  1.00  0.00    -0.132 C  
HETATM    4  C   UNL     1      -8.649   8.881  66.876  1.00  0.00    -0.121 C  
HETATM    5  C   UNL     1     -10.122   8.460  66.958  1.00  0.00    -0.354 C  
HETATM    6  C   UNL     1     -11.251   9.425  67.407  1.00  0.00     0.377 C  
HETATM    7  C   UNL     1     -10.288   7.023  67.476  1.00  0.00    -0.288 C  
HETATM    8  C   UNL     1     -11.645   9.209  68.892  1.00  0.00     0.736 C  
HETATM    9  C   UNL     1      -9.759   6.073  66.412  1.00  0.00    -0.121 C  
HETATM   10  C   UNL     1     -12.463   9.063  66.470  1.00  0.00    11.041 C  
HETATM   11  C   UNL     1     -12.176   9.404  64.984  1.00  0.00    11.886 C  
HETATM   12  O   UNL     1     -10.605   6.129  65.258  1.00  0.00     1.035 OA 
HETATM   13  C   UNL     1      -8.289   6.385  66.041  1.00  0.00    -0.132 C  
HETATM   14  C   UNL     1      -7.346   6.118  67.255  1.00  0.00    -0.077 C  
HETATM   15  C   UNL     1      -7.929   5.567  64.767  1.00  0.00    -0.113 C  
HETATM   16  C   UNL     1     -11.854  10.884  64.795  1.00  0.00     1.472 C  
HETATM   17  H   UNL     1     -10.274   5.536  64.593  1.00  0.00     0.000 HD 
HETATM   18  O   UNL     1      -8.355   8.293  64.489  1.00  0.00    -0.254 OA 
HETATM   19  C   UNL     1      -6.035   6.826  66.879  1.00  0.00    -0.018 C  
HETATM   20  H   UNL     1      -7.944   7.719  63.853  1.00  0.00     0.000 HD 
HETATM   21  C   UNL     1     -11.664  11.637  66.115  1.00  0.00     0.023 C  
HETATM   22  C   UNL     1      -7.960   7.918  65.810  1.00  0.00    -0.109 C  
HETATM   23  C   UNL     1      -6.423   7.941  65.893  1.00  0.00    -0.042 C  
ENDROOT
BRANCH  16  24
HETATM   24  O   UNL     1     -10.723  11.160  63.974  1.00  0.00    -0.368 OA 
BRANCH  24  25
HETATM   25  C   UNL     1      -9.739  12.116  64.399  1.00  0.00    -0.036 C  
HETATM   26  O   UNL     1     -11.412  15.384  63.707  1.00  0.00    -0.527 OA 
HETATM   27  C   UNL     1     -10.330  14.692  65.787  1.00  0.00    -0.332 C  
HETATM   28  C   UNL     1      -9.900  13.468  63.709  1.00  0.00     1.980 C  
HETATM   29  C   UNL     1     -10.954  14.262  64.458  1.00  0.00    -0.298 C  
HETATM   30  O   UNL     1      -9.908  12.172  65.820  1.00  0.00    -0.243 OA 
HETATM   31  C   UNL     1      -9.853  13.411  66.540  1.00  0.00    -0.286 C  
HETATM   32  H   UNL     1     -12.072  15.881  64.175  1.00  0.00     0.000 HD 
HETATM   33  C   UNL     1     -10.677  13.163  67.812  1.00  0.00    -0.252 C  
BRANCH  27  34
HETATM   34  O   UNL     1      -9.137  15.499  65.645  1.00  0.00    -0.211 OA 
BRANCH  34  35
HETATM   35  C   UNL     1      -9.239  16.893  65.365  1.00  0.00     0.901 C  
HETATM   36  C   UNL     1     -10.337  17.599  66.150  1.00  0.00    -0.334 C  
HETATM   37  C   UNL     1     -10.065  17.430  67.637  1.00  0.00    -0.327 C  
HETATM   38  O   UNL     1     -11.086  18.055  68.419  1.00  0.00    -0.166 OA 
HETATM   39  C   UNL     1      -8.665  17.947  68.026  1.00  0.00    -0.256 C  
HETATM   40  O   UNL     1      -7.985  17.528  65.642  1.00  0.00    -0.512 OA 
HETATM   41  C   UNL     1      -7.564  17.532  67.009  1.00  0.00    -0.207 C  
HETATM   42  H   UNL     1     -10.917  17.950  69.348  1.00  0.00     0.000 HD 
HETATM   43  C   UNL     1      -6.806  16.245  67.337  1.00  0.00    -0.210 C  
BRANCH  39  44
HETATM   44  O   UNL     1      -8.585  19.387  68.105  1.00  0.00    -0.315 OA 
BRANCH  44  45
HETATM   45  C   UNL     1      -8.320  20.008  69.364  1.00  0.00     0.452 C  
HETATM   46  C   UNL     1      -7.401  19.228  70.302  1.00  0.00     0.741 C  
HETATM   47  C   UNL     1      -6.030  19.091  69.653  1.00  0.00    -0.259 C  
HETATM   48  C   UNL     1      -5.438  20.480  69.399  1.00  0.00    -0.327 C  
HETATM   49  O   UNL     1      -5.156  18.360  70.522  1.00  0.00    -0.209 OA 
HETATM   50  H   UNL     1      -4.301  18.274  70.117  1.00  0.00     0.000 HD 
HETATM   51  O   UNL     1      -5.128  21.076  70.673  1.00  0.00    -0.488 OA 
HETATM   52  C   UNL     1      -6.428  21.378  68.634  1.00  0.00     0.791 C  
HETATM   53  C   UNL     1      -6.417  21.117  67.130  1.00  0.00    -0.417 C  
HETATM   54  O   UNL     1      -7.768  21.317  69.149  1.00  0.00     2.104 OA 
HETATM   55  H   UNL     1      -4.760  21.938  70.515  1.00  0.00     0.000 HD 
ENDBRANCH  44  45
ENDBRANCH  39  44
ENDBRANCH  34  35
ENDBRANCH  27  34
ENDBRANCH  24  25
ENDBRANCH  16  24
BRANCH  14  56
HETATM   56  C   UNL     1      -7.218   4.745  67.834  1.00  0.00    -0.066 C  
HETATM   57  C   UNL     1      -6.484   3.606  67.245  1.00  0.00    -0.037 C  
HETATM   58  C   UNL     1      -7.580   2.925  69.106  1.00  0.00    -0.047 C  
HETATM   59  O   UNL     1      -6.739   2.515  68.130  1.00  0.00    -0.038 OA 
HETATM   60  O   UNL     1      -8.038   2.236  70.002  1.00  0.00    -0.042 OA 
HETATM   61  C   UNL     1      -7.877   4.338  68.921  1.00  0.00    -0.069 C  
ENDBRANCH  14  56
TORSDOF 7
ENDMDL
MODEL       64
REMARK 921   NORMALIZED FREE ENERGY PREDICTED BY IDOCK:   32.51 KCAL/MOL
REMARK 922        TOTAL FREE ENERGY PREDICTED BY IDOCK:   43.97 KCAL/MOL
REMARK 923 INTER-LIGAND FREE ENERGY PREDICTED BY IDOCK:   26.48 KCAL/MOL
REMARK 924 INTRA-LIGAND FREE ENERGY PREDICTED BY IDOCK:   17.49 KCAL/MOL
REMARK 927      BINDING AFFINITY PREDICTED BY RF-SCORE:    0.00 PKD
ROOT
HETATM    1  C   UNL     1      -8.295  12.183  63.812  1.00  0.00     2.398 C  
HETATM    2  C   UNL     1      -7.278  11.033  63.822  1.00  0.00     0.782 C  
HETATM    3  C   UNL     1      -7.431  10.072  64.986  1.00  0.00    -0.139 C  
HETATM    4  C   UNL     1      -7.274  10.773  66.345  1.00  0.00    -0.138 C  
HETATM    5  C   UNL     1      -8.140  12.037  66.415  1.00  0.00     0.150 C  
HETATM    6  C   UNL     1      -8.452  12.915  65.174  1.00  0.00     2.635 C  
HETATM    7  C   UNL     1      -7.892  12.842  67.701  1.00  0.00    -0.165 C  
HETATM    8  C   UNL     1      -7.542  14.170  65.104  1.00  0.00     9.510 C  
HETATM    9  C   UNL     1      -8.434  12.037  68.872  1.00  0.00     0.177 C  
HETATM   10  C   UNL     1      -9.952  13.348  65.375  1.00  0.00    -0.211 C  
HETATM   11  C   UNL     1     -10.925  12.142  65.300  1.00  0.00    -0.349 C  
HETATM   12  O   UNL     1      -9.860  11.957  68.779  1.00  0.00    -0.349 OA 
HETATM   13  C   UNL     1      -7.799  10.627  68.945  1.00  0.00    -0.129 C  
HETATM   14  C   UNL     1      -6.274  10.724  69.256  1.00  0.00    -0.052 C  
HETATM   15  C   UNL     1      -8.606   9.789  69.979  1.00  0.00    -0.229 C  
HETATM   16  C   UNL     1     -10.815  11.410  63.966  1.00  0.00    -0.383 C  
HETATM   17  H   UNL     1     -10.198  11.455  69.511  1.00  0.00     0.000 HD 
HETATM   18  O   UNL     1      -8.983   9.249  67.286  1.00  0.00    -0.123 OA 
HETATM   19  C   UNL     1      -5.728   9.330  68.911  1.00  0.00    -0.040 C  
HETATM   20  H   UNL     1      -9.248   8.698  68.014  1.00  0.00     0.000 HD 
HETATM   21  C   UNL     1      -9.635  11.878  63.110  1.00  0.00    -0.137 C  
HETATM   22  C   UNL     1      -7.718   9.850  67.566  1.00  0.00    -0.091 C  
HETATM   23  C   UNL     1      -6.698   8.739  67.874  1.00  0.00    -0.066 C  
ENDROOT
BRANCH  16  24
HETATM   24  O   UNL     1     -10.746   9.989  64.056  1.00  0.00     1.038 OA 
BRANCH  24  25
HETATM   25  C   UNL     1      -9.913   9.370  65.048  1.00  0.00     0.385 C  
HETATM   26  O   UNL     1     -11.662  10.214  68.239  1.00  0.00    -0.673 OA 
HETATM   27  C   UNL     1     -10.897   8.008  67.516  1.00  0.00    -0.062 C  
HETATM   28  C   UNL     1     -10.047  10.027  66.419  1.00  0.00    -0.307 C  
HETATM   29  C   UNL     1     -11.262   9.438  67.113  1.00  0.00     0.587 C  
HETATM   30  O   UNL     1     -10.319   7.996  65.027  1.00  0.00     2.846 OA 
HETATM   31  C   UNL     1     -10.467   7.233  66.231  1.00  0.00     0.507 C  
HETATM   32  H   UNL     1     -12.422   9.846  68.674  1.00  0.00     0.000 HD 
HETATM   33  C   UNL     1     -11.472   6.128  65.876  1.00  0.00     2.145 C  
BRANCH  27  34
HETATM   34  O   UNL     1      -9.753   7.918  68.399  1.00  0.00    -0.154 OA 
BRANCH  34  35
HETATM   35  C   UNL     1      -9.934   7.653  69.787  1.00  0.00    -0.184 C  
HETATM   36  C   UNL     1     -11.390   7.475  70.196  1.00  0.00    -0.170 C  
HETATM   37  C   UNL     1     -11.984   6.317  69.408  1.00  0.00     0.807 C  
HETATM   38  O   UNL     1     -13.363   6.127  69.737  1.00  0.00     3.561 OA 
HETATM   39  C   UNL     1     -11.177   5.018  69.602  1.00  0.00     1.780 C  
HETATM   40  O   UNL     1      -9.201   6.475  70.147  1.00  0.00    -0.156 OA 
HETATM   41  C   UNL     1      -9.640   5.250  69.553  1.00  0.00    -0.152 C  
HETATM   42  H   UNL     1     -13.735   5.405  69.245  1.00  0.00     0.000 HD 
HETATM   43  C   UNL     1      -8.980   5.052  68.188  1.00  0.00    -0.119 C  
BRANCH  39  44
HETATM   44  O   UNL     1     -11.424   4.372  70.870  1.00  0.00     2.122 OA 
BRANCH  44  45
HETATM   45  C   UNL     1     -10.443   4.460  71.905  1.00  0.00    -0.031 C  
HETATM   46  C   UNL     1     -10.895   3.983  73.283  1.00  0.00    -0.301 C  
HETATM   47  C   UNL     1     -11.233   2.500  73.209  1.00  0.00    -0.116 C  
HETATM   48  C   UNL     1      -9.994   1.709  72.779  1.00  0.00    -0.107 C  
HETATM   49  O   UNL     1     -11.661   2.038  74.496  1.00  0.00     0.394 OA 
HETATM   50  H   UNL     1     -11.872   1.113  74.450  1.00  0.00     0.000 HD 
HETATM   51  O   UNL     1      -9.034   1.762  73.850  1.00  0.00    -0.058 OA 
HETATM   52  C   UNL     1      -9.375   2.296  71.497  1.00  0.00    -0.121 C  
HETATM   53  C   UNL     1     -10.092   1.829  70.232  1.00  0.00     0.412 C  
HETATM   54  O   UNL     1      -9.268   3.728  71.519  1.00  0.00    -0.108 OA 
HETATM   55  H   UNL     1      -8.265   1.272  73.582  1.00  0.00     0.000 HD 
ENDBRANCH  44  45
ENDBRANCH  39  44
ENDBRANCH  34  35
ENDBRANCH  27  34
ENDBRANCH  24  25
ENDBRANCH  16  24
BRANCH  14  56
HETATM   56  C   UNL     1      -5.793  11.328  70.538  1.00  0.00    -0.135 C  
HETATM   57  C   UNL     1      -5.471  10.605  71.785  1.00  0.00     0.201 C  
HETATM   58  C   UNL     1      -5.317  12.837  72.136  1.00  0.00     0.229 C  
HETATM   59  O   UNL     1      -5.148  11.631  72.725  1.00  0.00    -0.334 OA 
HETATM   60  O   UNL     1      -5.171  13.925  72.666  1.00  0.00    -0.188 OA 
HETATM   61  C   UNL     1      -5.719  12.643  70.751  1.00  0.00    -0.113 C  
ENDBRANCH  14  56
TORSDOF 7
ENDMDL
MODEL       65
REMARK 921   NORMALIZED FREE ENERGY PREDICTED BY IDOCK:   32.97 KCAL/MOL
REMARK 922        TOTAL FREE ENERGY PREDICTED BY IDOCK:   44.62 KCAL/MOL
REMARK 923 INTER-LIGAND FREE ENERGY PREDICTED BY IDOCK:    5.23 KCAL/MOL
REMARK 924 INTRA-LIGAND FREE ENERGY PREDICTED BY IDOCK:   39.39 KCAL/MOL
REMARK 927      BINDING AFFINITY PREDICTED BY RF-SCORE:    0.00 PKD
ROOT
HETATM    1  C   UNL     1     -10.076   4.674  68.454  1.00  0.00    -0.071 C  
HETATM    2  C   UNL     1      -9.066   4.379  67.336  1.00  0.00    -0.148 C  
HETATM    3  C   UNL     1      -8.113   5.520  67.036  1.00  0.00    -0.101 C  
HETATM    4  C   UNL     1      -8.852   6.796  66.597  1.00  0.00    -0.142 C  
HETATM    5  C   UNL     1      -9.996   7.127  67.563  1.00  0.00    -0.214 C  
HETATM    6  C   UNL     1     -10.805   6.039  68.317  1.00  0.00    -0.366 C  
HETATM    7  C   UNL     1     -10.848   8.309  67.073  1.00  0.00    -0.061 C  
HETATM    8  C   UNL     1     -12.164   5.743  67.630  1.00  0.00     5.186 C  
HETATM    9  C   UNL     1     -10.001   9.570  67.160  1.00  0.00    -0.204 C  
HETATM   10  C   UNL     1     -11.047   6.658  69.744  1.00  0.00    -0.398 C  
HETATM   11  C   UNL     1      -9.726   6.833  70.538  1.00  0.00    -0.184 C  
HETATM   12  O   UNL     1      -9.738   9.874  68.533  1.00  0.00    -0.149 OA 
HETATM   13  C   UNL     1      -8.685   9.436  66.356  1.00  0.00    -0.149 C  
HETATM   14  C   UNL     1      -8.981   9.313  64.830  1.00  0.00    -0.217 C  
HETATM   15  C   UNL     1      -7.768  10.637  66.729  1.00  0.00    -0.127 C  
HETATM   16  C   UNL     1      -8.990   5.507  70.712  1.00  0.00    -0.142 C  
HETATM   17  H   UNL     1      -9.210  10.662  68.588  1.00  0.00     0.000 HD 
HETATM   18  O   UNL     1      -7.138   8.145  67.769  1.00  0.00    -0.082 OA 
HETATM   19  C   UNL     1      -7.662   8.802  64.228  1.00  0.00    -0.125 C  
HETATM   20  H   UNL     1      -6.571   8.907  67.749  1.00  0.00     0.000 HD 
HETATM   21  C   UNL     1      -9.591   4.366  69.886  1.00  0.00    -0.275 C  
HETATM   22  C   UNL     1      -7.901   8.074  66.563  1.00  0.00    -0.097 C  
HETATM   23  C   UNL     1      -6.934   8.065  65.365  1.00  0.00    -0.063 C  
ENDROOT
BRANCH  16  24
HETATM   24  O   UNL     1      -7.592   5.547  70.440  1.00  0.00    -0.076 OA 
BRANCH  24  25
HETATM   25  C   UNL     1      -7.045   6.601  69.633  1.00  0.00    -0.068 C  
HETATM   26  O   UNL     1      -9.476   9.390  70.157  1.00  0.00    -0.204 OA 
HETATM   27  C   UNL     1      -7.041   9.498  70.354  1.00  0.00    -0.120 C  
HETATM   28  C   UNL     1      -8.100   7.615  69.199  1.00  0.00    -0.125 C  
HETATM   29  C   UNL     1      -8.291   8.616  70.324  1.00  0.00    -0.129 C  
HETATM   30  O   UNL     1      -6.013   7.161  70.453  1.00  0.00    -0.024 OA 
HETATM   31  C   UNL     1      -5.795   8.576  70.535  1.00  0.00    -0.027 C  
HETATM   32  H   UNL     1      -9.595  10.016  70.860  1.00  0.00     0.000 HD 
HETATM   33  C   UNL     1      -5.125   8.793  71.899  1.00  0.00    -0.039 C  
BRANCH  27  34
HETATM   34  O   UNL     1      -6.794  10.211  69.119  1.00  0.00    -0.053 OA 
BRANCH  34  35
HETATM   35  C   UNL     1      -6.551  11.616  69.135  1.00  0.00    -0.101 C  
HETATM   36  C   UNL     1      -6.277  12.209  67.759  1.00  0.00    -0.089 C  
HETATM   37  C   UNL     1      -7.476  11.942  66.861  1.00  0.00    -0.079 C  
HETATM   38  O   UNL     1      -7.255  12.459  65.546  1.00  0.00     1.663 OA 
HETATM   39  C   UNL     1      -8.781  12.495  67.469  1.00  0.00    -0.182 C  
HETATM   40  O   UNL     1      -7.675  12.287  69.717  1.00  0.00     0.801 OA 
HETATM   41  C   UNL     1      -8.905  12.209  68.993  1.00  0.00     0.401 C  
HETATM   42  H   UNL     1      -8.004  12.292  64.984  1.00  0.00     0.000 HD 
HETATM   43  C   UNL     1      -9.668  10.939  69.372  1.00  0.00    -0.019 C  
BRANCH  39  44
HETATM   44  O   UNL     1      -8.915  13.927  67.339  1.00  0.00    -0.189 OA 
BRANCH  44  45
HETATM   45  C   UNL     1      -9.965  14.600  68.034  1.00  0.00    -0.220 C  
HETATM   46  C   UNL     1      -9.756  14.772  69.537  1.00  0.00     0.028 C  
HETATM   47  C   UNL     1      -8.529  15.644  69.771  1.00  0.00     0.066 C  
HETATM   48  C   UNL     1      -8.742  17.017  69.127  1.00  0.00    -0.032 C  
HETATM   49  O   UNL     1      -8.319  15.814  71.179  1.00  0.00     2.672 OA 
HETATM   50  H   UNL     1      -7.555  16.357  71.325  1.00  0.00     0.000 HD 
HETATM   51  O   UNL     1      -9.767  17.706  69.867  1.00  0.00     0.544 OA 
HETATM   52  C   UNL     1      -9.168  16.883  67.654  1.00  0.00    -0.228 C  
HETATM   53  C   UNL     1      -7.984  16.647  66.719  1.00  0.00    -0.284 C  
HETATM   54  O   UNL     1     -10.186  15.891  67.442  1.00  0.00    -0.259 OA 
HETATM   55  H   UNL     1      -9.899  18.559  69.467  1.00  0.00     0.000 HD 
ENDBRANCH  44  45
ENDBRANCH  39  44
ENDBRANCH  34  35
ENDBRANCH  27  34
ENDBRANCH  24  25
ENDBRANCH  16  24
BRANCH  14  56
HETATM   56  C   UNL     1      -9.663  10.421  64.092  1.00  0.00    -0.387 C  
HETATM   57  C   UNL     1      -9.014  11.586  63.456  1.00  0.00     0.161 C  
HETATM   58  C   UNL     1     -11.265  11.803  63.327  1.00  0.00    -0.267 C  
HETATM   59  O   UNL     1     -10.095  12.383  62.972  1.00  0.00    -0.250 OA 
HETATM   60  O   UNL     1     -12.382  12.241  63.112  1.00  0.00    -0.461 OA 
HETATM   61  C   UNL     1     -10.989  10.560  64.031  1.00  0.00     0.938 C  
ENDBRANCH  14  56
TORSDOF 7
ENDMDL
MODEL       66
REMARK 921   NORMALIZED FREE ENERGY PREDICTED BY IDOCK:   33.20 KCAL/MOL
REMARK 922        TOTAL FREE ENERGY PREDICTED BY IDOCK:   44.94 KCAL/MOL
REMARK 923 INTER-LIGAND FREE ENERGY PREDICTED BY IDOCK:   14.26 KCAL/MOL
REMARK 924 INTRA-LIGAND FREE ENERGY PREDICTED BY IDOCK:   30.68 KCAL/MOL
REMARK 927      BINDING AFFINITY PREDICTED BY RF-SCORE:    0.00 PKD
ROOT
HETATM    1  C   UNL     1      -9.376  15.568  68.546  1.00  0.00    -0.197 C  
HETATM    2  C   UNL     1      -8.377  14.422  68.332  1.00  0.00    -0.155 C  
HETATM    3  C   UNL     1      -9.016  13.091  67.987  1.00  0.00    -0.199 C  
HETATM    4  C   UNL     1      -9.974  12.602  69.086  1.00  0.00     0.375 C  
HETATM    5  C   UNL     1     -10.946  13.713  69.501  1.00  0.00    -0.054 C  
HETATM    6  C   UNL     1     -10.566  15.217  69.483  1.00  0.00    -0.277 C  
HETATM    7  C   UNL     1     -11.817  13.306  70.701  1.00  0.00    -0.128 C  
HETATM    8  C   UNL     1     -10.182  15.739  70.893  1.00  0.00     0.684 C  
HETATM    9  C   UNL     1     -12.777  12.220  70.240  1.00  0.00     0.179 C  
HETATM   10  C   UNL     1     -11.870  15.939  68.977  1.00  0.00    -0.328 C  
HETATM   11  C   UNL     1     -12.214  15.568  67.511  1.00  0.00     0.726 C  
HETATM   12  O   UNL     1     -13.707  12.770  69.303  1.00  0.00     3.432 OA 
HETATM   13  C   UNL     1     -12.027  11.007  69.636  1.00  0.00    -0.424 C  
HETATM   14  C   UNL     1     -11.173  10.289  70.725  1.00  0.00    -0.373 C  
HETATM   15  C   UNL     1     -13.075  10.089  68.943  1.00  0.00     3.765 C  
HETATM   16  C   UNL     1     -11.076  15.919  66.557  1.00  0.00    -0.028 C  
HETATM   17  H   UNL     1     -14.307  12.091  69.015  1.00  0.00     0.000 HD 
HETATM   18  O   UNL     1     -11.433  11.639  67.332  1.00  0.00    -0.368 OA 
HETATM   19  C   UNL     1     -10.213   9.393  69.925  1.00  0.00    -0.247 C  
HETATM   20  H   UNL     1     -11.966  10.903  67.053  1.00  0.00     0.000 HD 
HETATM   21  C   UNL     1      -9.789  16.336  67.274  1.00  0.00    -0.243 C  
HETATM   22  C   UNL     1     -10.868  11.369  68.617  1.00  0.00    -0.208 C  
HETATM   23  C   UNL     1     -10.073  10.052  68.542  1.00  0.00    -0.187 C  
ENDROOT
BRANCH  16  24
HETATM   24  O   UNL     1     -10.736  14.903  65.616  1.00  0.00    -0.305 OA 
BRANCH  24  25
HETATM   25  C   UNL     1      -9.362  14.543  65.410  1.00  0.00     0.434 C  
HETATM   26  O   UNL     1      -8.923  11.619  67.695  1.00  0.00    -0.158 OA 
HETATM   27  C   UNL     1      -8.307  11.751  65.332  1.00  0.00     0.710 C  
HETATM   28  C   UNL     1      -8.767  13.795  66.601  1.00  0.00    -0.026 C  
HETATM   29  C   UNL     1      -9.140  12.330  66.478  1.00  0.00    -0.188 C  
HETATM   30  O   UNL     1      -9.387  13.773  64.203  1.00  0.00     1.204 OA 
HETATM   31  C   UNL     1      -8.598  12.586  64.046  1.00  0.00     2.830 C  
HETATM   32  H   UNL     1      -9.156  10.702  67.618  1.00  0.00     0.000 HD 
HETATM   33  C   UNL     1      -9.343  11.755  62.991  1.00  0.00    -0.052 C  
BRANCH  27  34
HETATM   34  O   UNL     1      -6.877  11.865  65.527  1.00  0.00     1.160 OA 
BRANCH  34  35
HETATM   35  C   UNL     1      -6.012  10.798  65.147  1.00  0.00     0.003 C  
HETATM   36  C   UNL     1      -5.193  10.228  66.298  1.00  0.00    -0.052 C  
HETATM   37  C   UNL     1      -6.143   9.712  67.368  1.00  0.00    -0.059 C  
HETATM   38  O   UNL     1      -5.421   9.190  68.486  1.00  0.00    -0.037 OA 
HETATM   39  C   UNL     1      -7.133   8.672  66.804  1.00  0.00    -0.078 C  
HETATM   40  O   UNL     1      -6.784   9.745  64.557  1.00  0.00    -0.105 OA 
HETATM   41  C   UNL     1      -7.710   9.079  65.418  1.00  0.00    -0.095 C  
HETATM   42  H   UNL     1      -6.013   8.868  69.155  1.00  0.00     0.000 HD 
HETATM   43  C   UNL     1      -9.044   9.827  65.447  1.00  0.00    -0.251 C  
BRANCH  39  44
HETATM   44  O   UNL     1      -6.543   7.369  66.602  1.00  0.00    -0.050 OA 
BRANCH  44  45
HETATM   45  C   UNL     1      -7.098   6.492  65.620  1.00  0.00    -0.061 C  
HETATM   46  C   UNL     1      -6.349   5.178  65.413  1.00  0.00    -0.035 C  
HETATM   47  C   UNL     1      -6.392   4.372  66.705  1.00  0.00    -0.037 C  
HETATM   48  C   UNL     1      -7.847   4.076  67.080  1.00  0.00    -0.095 C  
HETATM   49  O   UNL     1      -5.692   3.136  66.526  1.00  0.00    -0.021 OA 
HETATM   50  H   UNL     1      -5.718   2.633  67.331  1.00  0.00     0.000 HD 
HETATM   51  O   UNL     1      -8.380   3.152  66.113  1.00  0.00    -0.096 OA 
HETATM   52  C   UNL     1      -8.694   5.361  67.091  1.00  0.00    -0.107 C  
HETATM   53  C   UNL     1      -8.540   6.155  68.386  1.00  0.00    -0.112 C  
HETATM   54  O   UNL     1      -8.467   6.204  65.950  1.00  0.00    -0.133 OA 
HETATM   55  H   UNL     1      -9.283   2.968  66.346  1.00  0.00     0.000 HD 
ENDBRANCH  44  45
ENDBRANCH  39  44
ENDBRANCH  34  35
ENDBRANCH  27  34
ENDBRANCH  24  25
ENDBRANCH  16  24
BRANCH  14  56
HETATM   56  C   UNL     1     -11.826   9.664  71.918  1.00  0.00    -0.280 C  
HETATM   57  C   UNL     1     -11.346   8.484  72.667  1.00  0.00    -0.178 C  
HETATM   58  C   UNL     1     -13.362   9.131  73.471  1.00  0.00     2.301 C  
HETATM   59  O   UNL     1     -12.357   8.242  73.646  1.00  0.00     1.092 OA 
HETATM   60  O   UNL     1     -14.401   9.179  74.107  1.00  0.00     1.605 OA 
HETATM   61  C   UNL     1     -13.021  10.033  72.382  1.00  0.00    -0.211 C  
ENDBRANCH  14  56
TORSDOF 7
ENDMDL
MODEL       67
REMARK 921   NORMALIZED FREE ENERGY PREDICTED BY IDOCK:   35.11 KCAL/MOL
REMARK 922        TOTAL FREE ENERGY PREDICTED BY IDOCK:   47.64 KCAL/MOL
REMARK 923 INTER-LIGAND FREE ENERGY PREDICTED BY IDOCK:   14.31 KCAL/MOL
REMARK 924 INTRA-LIGAND FREE ENERGY PREDICTED BY IDOCK:   33.32 KCAL/MOL
REMARK 927      BINDING AFFINITY PREDICTED BY RF-SCORE:    0.00 PKD
ROOT
HETATM    1  C   UNL     1      -8.010  12.076  64.852  1.00  0.00     2.347 C  
HETATM    2  C   UNL     1      -7.038  12.977  65.626  1.00  0.00     5.424 C  
HETATM    3  C   UNL     1      -7.099  12.814  67.133  1.00  0.00    -0.004 C  
HETATM    4  C   UNL     1      -8.493  13.132  67.697  1.00  0.00    -0.194 C  
HETATM    5  C   UNL     1      -9.586  12.398  66.909  1.00  0.00    -0.219 C  
HETATM    6  C   UNL     1      -9.467  12.087  65.394  1.00  0.00    -0.080 C  
HETATM    7  C   UNL     1     -10.999  12.811  67.351  1.00  0.00    -0.285 C  
HETATM    8  C   UNL     1     -10.251  13.105  64.526  1.00  0.00    -0.333 C  
HETATM    9  C   UNL     1     -11.229  12.278  68.757  1.00  0.00    -0.265 C  
HETATM   10  C   UNL     1     -10.099  10.653  65.245  1.00  0.00    -0.363 C  
HETATM   11  C   UNL     1      -9.264   9.566  65.971  1.00  0.00    -0.248 C  
HETATM   12  O   UNL     1     -11.276  10.848  68.724  1.00  0.00    -0.227 OA 
HETATM   13  C   UNL     1     -10.147  12.778  69.746  1.00  0.00     1.542 C  
HETATM   14  C   UNL     1     -10.243  14.324  69.933  1.00  0.00     0.491 C  
HETATM   15  C   UNL     1     -10.293  11.969  71.068  1.00  0.00     5.872 C  
HETATM   16  C   UNL     1      -7.831   9.510  65.449  1.00  0.00    -0.109 C  
HETATM   17  H   UNL     1     -11.420  10.515  69.602  1.00  0.00     0.000 HD 
HETATM   18  O   UNL     1      -8.172  11.354  69.390  1.00  0.00    -0.365 OA 
HETATM   19  C   UNL     1      -8.911  14.708  70.596  1.00  0.00     2.224 C  
HETATM   20  H   UNL     1      -8.269  11.089  70.298  1.00  0.00     0.000 HD 
HETATM   21  C   UNL     1      -7.482  10.668  64.509  1.00  0.00     0.183 C  
HETATM   22  C   UNL     1      -8.655  12.688  69.219  1.00  0.00     0.944 C  
HETATM   23  C   UNL     1      -7.906  13.615  70.193  1.00  0.00     1.906 C  
ENDROOT
BRANCH  16  24
HETATM   24  O   UNL     1      -6.821   9.449  66.452  1.00  0.00    -0.081 OA 
BRANCH  24  25
HETATM   25  C   UNL     1      -6.009   8.273  66.585  1.00  0.00    -0.052 C  
HETATM   26  O   UNL     1      -8.536   5.587  67.183  1.00  0.00    -0.111 OA 
HETATM   27  C   UNL     1      -6.718   5.564  65.549  1.00  0.00    -0.041 C  
HETATM   28  C   UNL     1      -6.695   7.175  67.395  1.00  0.00    -0.068 C  
HETATM   29  C   UNL     1      -7.612   6.401  66.466  1.00  0.00    -0.094 C  
HETATM   30  O   UNL     1      -5.725   7.897  65.233  1.00  0.00    -0.036 OA 
HETATM   31  C   UNL     1      -5.738   6.527  64.809  1.00  0.00    -0.030 C  
HETATM   32  H   UNL     1      -9.111   5.102  66.603  1.00  0.00     0.000 HD 
HETATM   33  C   UNL     1      -6.032   6.584  63.303  1.00  0.00    -0.030 C  
BRANCH  27  34
HETATM   34  O   UNL     1      -5.858   4.636  66.252  1.00  0.00    -0.021 OA 
BRANCH  34  35
HETATM   35  C   UNL     1      -5.495   4.877  67.610  1.00  0.00    -0.012 C  
HETATM   36  C   UNL     1      -6.180   6.090  68.224  1.00  0.00    -0.032 C  
HETATM   37  C   UNL     1      -7.686   5.889  68.162  1.00  0.00    -0.100 C  
HETATM   38  O   UNL     1      -8.377   7.018  68.704  1.00  0.00    -0.120 OA 
HETATM   39  C   UNL     1      -8.119   4.581  68.855  1.00  0.00    -0.077 C  
HETATM   40  O   UNL     1      -5.802   3.720  68.397  1.00  0.00    -0.024 OA 
HETATM   41  C   UNL     1      -7.186   3.383  68.518  1.00  0.00    -0.050 C  
HETATM   42  H   UNL     1      -9.318   6.894  68.665  1.00  0.00     0.000 HD 
HETATM   43  C   UNL     1      -7.626   2.506  67.345  1.00  0.00    -0.061 C  
BRANCH  39  44
HETATM   44  O   UNL     1      -8.121   4.668  70.296  1.00  0.00    -0.066 OA 
BRANCH  44  45
HETATM   45  C   UNL     1      -9.365   4.724  70.995  1.00  0.00    -0.148 C  
HETATM   46  C   UNL     1      -9.264   4.849  72.513  1.00  0.00    -0.148 C  
HETATM   47  C   UNL     1      -8.577   6.164  72.859  1.00  0.00    -0.123 C  
HETATM   48  C   UNL     1      -9.396   7.334  72.307  1.00  0.00    -0.138 C  
HETATM   49  O   UNL     1      -8.473   6.294  74.282  1.00  0.00    -0.118 OA 
HETATM   50  H   UNL     1      -8.045   7.113  74.498  1.00  0.00     0.000 HD 
HETATM   51  O   UNL     1     -10.625   7.413  73.052  1.00  0.00    -0.273 OA 
HETATM   52  C   UNL     1      -9.707   7.141  70.811  1.00  0.00    -0.171 C  
HETATM   53  C   UNL     1      -8.544   7.552  69.912  1.00  0.00    -0.139 C  
HETATM   54  O   UNL     1     -10.154   5.814  70.488  1.00  0.00    -0.187 OA 
HETATM   55  H   UNL     1     -11.133   8.139  72.709  1.00  0.00     0.000 HD 
ENDBRANCH  44  45
ENDBRANCH  39  44
ENDBRANCH  34  35
ENDBRANCH  27  34
ENDBRANCH  24  25
ENDBRANCH  16  24
BRANCH  14  56
HETATM   56  C   UNL     1     -11.476  14.949  70.506  1.00  0.00    -0.310 C  
HETATM   57  C   UNL     1     -12.260  16.051  69.913  1.00  0.00    -0.031 C  
HETATM   58  C   UNL     1     -13.086  15.541  71.959  1.00  0.00    -0.448 C  
HETATM   59  O   UNL     1     -13.273  16.334  70.879  1.00  0.00     0.277 OA 
HETATM   60  O   UNL     1     -13.745  15.553  72.985  1.00  0.00    -0.507 OA 
HETATM   61  C   UNL     1     -11.953  14.661  71.718  1.00  0.00    -0.359 C  
ENDBRANCH  14  56
TORSDOF 7
ENDMDL
MODEL       68
REMARK 921   NORMALIZED FREE ENERGY PREDICTED BY IDOCK:   35.39 KCAL/MOL
REMARK 922        TOTAL FREE ENERGY PREDICTED BY IDOCK:   48.03 KCAL/MOL
REMARK 923 INTER-LIGAND FREE ENERGY PREDICTED BY IDOCK:    4.56 KCAL/MOL
REMARK 924 INTRA-LIGAND FREE ENERGY PREDICTED BY IDOCK:   43.46 KCAL/MOL
REMARK 927      BINDING AFFINITY PREDICTED BY RF-SCORE:    0.00 PKD
ROOT
HETATM    1  C   UNL     1      -6.260   5.735  71.803  1.00  0.00    -0.040 C  
HETATM    2  C   UNL     1      -5.136   6.296  70.921  1.00  0.00    -0.014 C  
HETATM    3  C   UNL     1      -5.596   7.312  69.893  1.00  0.00    -0.023 C  
HETATM    4  C   UNL     1      -6.631   6.727  68.918  1.00  0.00    -0.051 C  
HETATM    5  C   UNL     1      -7.750   6.002  69.675  1.00  0.00    -0.097 C  
HETATM    6  C   UNL     1      -7.518   5.264  71.020  1.00  0.00    -0.087 C  
HETATM    7  C   UNL     1      -8.720   5.278  68.728  1.00  0.00    -0.093 C  
HETATM    8  C   UNL     1      -7.365   3.733  70.826  1.00  0.00    -0.037 C  
HETATM    9  C   UNL     1      -9.505   6.332  67.961  1.00  0.00    -0.116 C  
HETATM   10  C   UNL     1      -8.813   5.574  71.859  1.00  0.00    -0.139 C  
HETATM   11  C   UNL     1      -8.934   7.079  72.214  1.00  0.00    -0.144 C  
HETATM   12  O   UNL     1     -10.361   7.040  68.862  1.00  0.00    -0.178 OA 
HETATM   13  C   UNL     1      -8.571   7.303  67.197  1.00  0.00    -0.121 C  
HETATM   14  C   UNL     1      -7.794   6.551  66.073  1.00  0.00    -0.103 C  
HETATM   15  C   UNL     1      -9.431   8.495  66.686  1.00  0.00    -0.268 C  
HETATM   16  C   UNL     1      -7.726   7.574  73.004  1.00  0.00    -0.096 C  
HETATM   17  H   UNL     1     -10.851   7.698  68.383  1.00  0.00     0.000 HD 
HETATM   18  O   UNL     1      -7.760   8.930  68.856  1.00  0.00    -0.091 OA 
HETATM   19  C   UNL     1      -6.660   7.515  65.688  1.00  0.00    -0.045 C  
HETATM   20  H   UNL     1      -8.180   9.597  68.325  1.00  0.00     0.000 HD 
HETATM   21  C   UNL     1      -6.585   6.555  73.069  1.00  0.00    -0.068 C  
HETATM   22  C   UNL     1      -7.335   7.846  68.028  1.00  0.00    -0.096 C  
HETATM   23  C   UNL     1      -6.413   8.396  66.924  1.00  0.00    -0.057 C  
ENDROOT
BRANCH  16  24
HETATM   24  O   UNL     1      -7.175   8.811  72.561  1.00  0.00    -0.313 OA 
BRANCH  24  25
HETATM   25  C   UNL     1      -7.741   9.488  71.428  1.00  0.00     0.503 C  
HETATM   26  O   UNL     1      -5.263  12.203  70.764  1.00  0.00    -0.118 OA 
HETATM   27  C   UNL     1      -6.186  10.621  69.146  1.00  0.00    -0.043 C  
HETATM   28  C   UNL     1      -7.275  10.937  71.317  1.00  0.00     3.118 C  
HETATM   29  C   UNL     1      -5.928  10.952  70.617  1.00  0.00    -0.087 C  
HETATM   30  O   UNL     1      -7.355   8.673  70.315  1.00  0.00    -0.049 OA 
HETATM   31  C   UNL     1      -6.918   9.244  69.075  1.00  0.00    -0.059 C  
HETATM   32  H   UNL     1      -4.420  12.213  70.326  1.00  0.00     0.000 HD 
HETATM   33  C   UNL     1      -6.032   8.165  68.436  1.00  0.00    -0.041 C  
BRANCH  27  34
HETATM   34  O   UNL     1      -7.079  11.546  68.481  1.00  0.00    -0.075 OA 
BRANCH  34  35
HETATM   35  C   UNL     1      -7.877  12.449  69.242  1.00  0.00     0.501 C  
HETATM   36  C   UNL     1      -7.400  13.894  69.181  1.00  0.00    -0.004 C  
HETATM   37  C   UNL     1      -7.410  14.354  67.731  1.00  0.00    -0.173 C  
HETATM   38  O   UNL     1      -6.943  15.701  67.617  1.00  0.00    -0.139 OA 
HETATM   39  C   UNL     1      -8.801  14.187  67.086  1.00  0.00    -0.229 C  
HETATM   40  O   UNL     1      -9.234  12.385  68.786  1.00  0.00    -0.035 OA 
HETATM   41  C   UNL     1      -9.476  12.833  67.450  1.00  0.00    -0.190 C  
HETATM   42  H   UNL     1      -6.949  15.989  66.712  1.00  0.00     0.000 HD 
HETATM   43  C   UNL     1      -9.255  11.691  66.457  1.00  0.00    -0.205 C  
BRANCH  39  44
HETATM   44  O   UNL     1      -9.747  15.202  67.487  1.00  0.00    -0.205 OA 
BRANCH  44  45
HETATM   45  C   UNL     1     -10.447  15.944  66.487  1.00  0.00    -0.304 C  
HETATM   46  C   UNL     1     -10.789  15.174  65.214  1.00  0.00    -0.414 C  
HETATM   47  C   UNL     1     -11.732  14.030  65.564  1.00  0.00    -0.350 C  
HETATM   48  C   UNL     1     -13.017  14.590  66.181  1.00  0.00     0.505 C  
HETATM   49  O   UNL     1     -12.061  13.296  64.379  1.00  0.00    -0.384 OA 
HETATM   50  H   UNL     1     -12.649  12.583  64.597  1.00  0.00     0.000 HD 
HETATM   51  O   UNL     1     -13.739  15.293  65.152  1.00  0.00     0.843 OA 
HETATM   52  C   UNL     1     -12.705  15.551  67.343  1.00  0.00     2.090 C  
HETATM   53  C   UNL     1     -12.419  14.816  68.651  1.00  0.00     0.156 C  
HETATM   54  O   UNL     1     -11.655  16.485  67.046  1.00  0.00     0.443 OA 
HETATM   55  H   UNL     1     -14.536  15.641  65.534  1.00  0.00     0.000 HD 
ENDBRANCH  44  45
ENDBRANCH  39  44
ENDBRANCH  34  35
ENDBRANCH  27  34
ENDBRANCH  24  25
ENDBRANCH  16  24
BRANCH  14  56
HETATM   56  C   UNL     1      -8.526   5.900  64.943  1.00  0.00    -0.085 C  
HETATM   57  C   UNL     1      -9.078   6.572  63.748  1.00  0.00     1.362 C  
HETATM   58  C   UNL     1      -9.669   4.386  63.735  1.00  0.00     0.008 C  
HETATM   59  O   UNL     1      -9.749   5.537  63.029  1.00  0.00     0.802 OA 
HETATM   60  O   UNL     1     -10.172   3.317  63.432  1.00  0.00    -0.153 OA 
HETATM   61  C   UNL     1      -8.891   4.616  64.943  1.00  0.00    -0.151 C  
ENDBRANCH  14  56
TORSDOF 7
ENDMDL
MODEL       69
REMARK 921   NORMALIZED FREE ENERGY PREDICTED BY IDOCK:   35.94 KCAL/MOL
REMARK 922        TOTAL FREE ENERGY PREDICTED BY IDOCK:   48.80 KCAL/MOL
REMARK 923 INTER-LIGAND FREE ENERGY PREDICTED BY IDOCK:   11.20 KCAL/MOL
REMARK 924 INTRA-LIGAND FREE ENERGY PREDICTED BY IDOCK:   37.60 KCAL/MOL
REMARK 927      BINDING AFFINITY PREDICTED BY RF-SCORE:    0.00 PKD
ROOT
HETATM    1  C   UNL     1     -11.485   9.950  69.644  1.00  0.00    -0.160 C  
HETATM    2  C   UNL     1     -10.167   9.886  68.860  1.00  0.00    -0.209 C  
HETATM    3  C   UNL     1      -9.215  11.033  69.143  1.00  0.00    -0.022 C  
HETATM    4  C   UNL     1      -9.831  12.400  68.801  1.00  0.00    -0.005 C  
HETATM    5  C   UNL     1     -11.231  12.539  69.411  1.00  0.00    -0.215 C  
HETATM    6  C   UNL     1     -12.190  11.335  69.604  1.00  0.00    -0.340 C  
HETATM    7  C   UNL     1     -11.935  13.830  68.964  1.00  0.00    -0.399 C  
HETATM    8  C   UNL     1     -13.255  11.252  68.479  1.00  0.00     4.216 C  
HETATM    9  C   UNL     1     -11.209  15.007  69.598  1.00  0.00    -0.275 C  
HETATM   10  C   UNL     1     -12.889  11.616  70.987  1.00  0.00    -0.339 C  
HETATM   11  C   UNL     1     -11.888  11.557  72.170  1.00  0.00     2.776 C  
HETATM   12  O   UNL     1     -11.399  14.978  71.016  1.00  0.00    -0.387 OA 
HETATM   13  C   UNL     1      -9.703  15.017  69.236  1.00  0.00    -0.192 C  
HETATM   14  C   UNL     1      -9.505  15.259  67.708  1.00  0.00    -0.197 C  
HETATM   15  C   UNL     1      -8.998  16.068  70.142  1.00  0.00     0.960 C  
HETATM   16  C   UNL     1     -11.191  10.203  72.256  1.00  0.00     2.339 C  
HETATM   17  H   UNL     1     -10.945  15.713  71.412  1.00  0.00     0.000 HD 
HETATM   18  O   UNL     1      -8.623  13.383  70.726  1.00  0.00     4.393 OA 
HETATM   19  C   UNL     1      -8.045  14.856  67.448  1.00  0.00    -0.218 C  
HETATM   20  H   UNL     1      -8.108  14.109  71.058  1.00  0.00     0.000 HD 
HETATM   21  C   UNL     1     -11.458   9.305  71.045  1.00  0.00    -0.387 C  
HETATM   22  C   UNL     1      -8.969  13.618  69.359  1.00  0.00     0.913 C  
HETATM   23  C   UNL     1      -7.678  13.852  68.554  1.00  0.00    -0.139 C  
ENDROOT
BRANCH  16  24
HETATM   24  O   UNL     1      -9.780  10.257  72.450  1.00  0.00     4.306 OA 
BRANCH  24  25
HETATM   25  C   UNL     1      -8.930   9.279  71.832  1.00  0.00     0.526 C  
HETATM   26  O   UNL     1      -8.659   6.638  74.460  1.00  0.00    -0.141 OA 
HETATM   27  C   UNL     1      -9.226   6.321  72.103  1.00  0.00    -0.144 C  
HETATM   28  C   UNL     1      -8.194   8.413  72.851  1.00  0.00    -0.181 C  
HETATM   29  C   UNL     1      -9.122   7.291  73.281  1.00  0.00    -0.159 C  
HETATM   30  O   UNL     1      -9.817   8.541  70.984  1.00  0.00    -0.175 OA 
HETATM   31  C   UNL     1      -9.731   7.115  70.858  1.00  0.00    -0.170 C  
HETATM   32  H   UNL     1      -9.239   5.936  74.729  1.00  0.00     0.000 HD 
HETATM   33  C   UNL     1     -11.141   6.672  70.440  1.00  0.00    -0.374 C  
BRANCH  27  34
HETATM   34  O   UNL     1      -7.958   5.758  71.689  1.00  0.00    -0.113 OA 
BRANCH  34  35
HETATM   35  C   UNL     1      -7.696   5.512  70.310  1.00  0.00    -0.085 C  
HETATM   36  C   UNL     1      -8.910   5.695  69.409  1.00  0.00    -0.114 C  
HETATM   37  C   UNL     1      -9.415   7.124  69.550  1.00  0.00    -0.151 C  
HETATM   38  O   UNL     1     -10.575   7.339  68.742  1.00  0.00    -0.204 OA 
HETATM   39  C   UNL     1      -8.312   8.155  69.236  1.00  0.00    -0.130 C  
HETATM   40  O   UNL     1      -6.646   6.379  69.862  1.00  0.00    -0.045 OA 
HETATM   41  C   UNL     1      -6.938   7.778  69.860  1.00  0.00    -0.050 C  
HETATM   42  H   UNL     1     -10.891   8.231  68.829  1.00  0.00     0.000 HD 
HETATM   43  C   UNL     1      -6.641   8.387  71.231  1.00  0.00    -0.053 C  
BRANCH  39  44
HETATM   44  O   UNL     1      -8.058   8.311  67.823  1.00  0.00    -0.123 OA 
BRANCH  44  45
HETATM   45  C   UNL     1      -8.904   7.652  66.880  1.00  0.00    -0.131 C  
HETATM   46  C   UNL     1      -9.998   8.518  66.258  1.00  0.00    -0.251 C  
HETATM   47  C   UNL     1      -9.349   9.641  65.461  1.00  0.00    -0.248 C  
HETATM   48  C   UNL     1      -8.476   9.049  64.350  1.00  0.00    -0.174 C  
HETATM   49  O   UNL     1     -10.363  10.464  64.872  1.00  0.00    -0.317 OA 
HETATM   50  H   UNL     1      -9.959  11.164  64.375  1.00  0.00     0.000 HD 
HETATM   51  O   UNL     1      -9.343   8.431  63.380  1.00  0.00     0.353 OA 
HETATM   52  C   UNL     1      -7.495   8.002  64.910  1.00  0.00    -0.089 C  
HETATM   53  C   UNL     1      -6.250   8.635  65.526  1.00  0.00    -0.052 C  
HETATM   54  O   UNL     1      -8.105   7.083  65.830  1.00  0.00    -0.109 OA 
HETATM   55  H   UNL     1      -8.801   8.063  62.691  1.00  0.00     0.000 HD 
ENDBRANCH  44  45
ENDBRANCH  39  44
ENDBRANCH  34  35
ENDBRANCH  27  34
ENDBRANCH  24  25
ENDBRANCH  16  24
BRANCH  14  56
HETATM   56  C   UNL     1      -9.968  16.531  67.070  1.00  0.00    -0.268 C  
HETATM   57  C   UNL     1     -10.448  16.695  65.683  1.00  0.00    -0.297 C  
HETATM   58  C   UNL     1     -10.324  18.719  66.692  1.00  0.00    -0.420 C  
HETATM   59  O   UNL     1     -10.681  18.097  65.545  1.00  0.00    -0.599 OA 
HETATM   60  O   UNL     1     -10.352  19.920  66.901  1.00  0.00    -0.427 OA 
HETATM   61  C   UNL     1      -9.879  17.726  67.658  1.00  0.00    -0.299 C  
ENDBRANCH  14  56
TORSDOF 7
ENDMDL
MODEL       70
REMARK 921   NORMALIZED FREE ENERGY PREDICTED BY IDOCK:   36.53 KCAL/MOL
REMARK 922        TOTAL FREE ENERGY PREDICTED BY IDOCK:   49.64 KCAL/MOL
REMARK 923 INTER-LIGAND FREE ENERGY PREDICTED BY IDOCK:   -1.00 KCAL/MOL
REMARK 924 INTRA-LIGAND FREE ENERGY PREDICTED BY IDOCK:   50.64 KCAL/MOL
REMARK 927      BINDING AFFINITY PREDICTED BY RF-SCORE:    0.00 PKD
ROOT
HETATM    1  C   UNL     1     -10.189   9.040  69.296  1.00  0.00    -0.210 C  
HETATM    2  C   UNL     1     -10.886   9.262  67.946  1.00  0.00    -0.181 C  
HETATM    3  C   UNL     1     -10.160  10.217  67.017  1.00  0.00    -0.277 C  
HETATM    4  C   UNL     1      -9.998  11.617  67.632  1.00  0.00    -0.201 C  
HETATM    5  C   UNL     1      -9.438  11.530  69.057  1.00  0.00     0.068 C  
HETATM    6  C   UNL     1      -9.744  10.346  70.012  1.00  0.00     0.095 C  
HETATM    7  C   UNL     1      -9.404  12.899  69.754  1.00  0.00     2.347 C  
HETATM    8  C   UNL     1     -10.863  10.692  71.029  1.00  0.00     0.845 C  
HETATM    9  C   UNL     1      -8.351  13.754  69.065  1.00  0.00     0.230 C  
HETATM   10  C   UNL     1      -8.385  10.100  70.769  1.00  0.00     1.072 C  
HETATM   11  C   UNL     1      -7.267   9.602  69.817  1.00  0.00    -0.094 C  
HETATM   12  O   UNL     1      -7.053  13.203  69.312  1.00  0.00    -0.278 OA 
HETATM   13  C   UNL     1      -8.620  13.887  67.546  1.00  0.00    -0.195 C  
HETATM   14  C   UNL     1      -9.941  14.676  67.288  1.00  0.00    -0.235 C  
HETATM   15  C   UNL     1      -7.362  14.524  66.888  1.00  0.00     0.545 C  
HETATM   16  C   UNL     1      -7.659   8.307  69.111  1.00  0.00    -0.088 C  
HETATM   17  H   UNL     1      -6.395  13.737  68.882  1.00  0.00     0.000 HD 
HETATM   18  O   UNL     1      -7.798  11.811  66.512  1.00  0.00    -0.332 OA 
HETATM   19  C   UNL     1     -10.271  14.388  65.815  1.00  0.00    -0.355 C  
HETATM   20  H   UNL     1      -7.199  12.360  66.019  1.00  0.00     0.000 HD 
HETATM   21  C   UNL     1      -9.126   7.922  69.320  1.00  0.00    -0.148 C  
HETATM   22  C   UNL     1      -8.993  12.537  66.805  1.00  0.00    -0.198 C  
HETATM   23  C   UNL     1      -9.601  13.044  65.484  1.00  0.00     0.028 C  
ENDROOT
BRANCH  16  24
HETATM   24  O   UNL     1      -7.401   8.276  67.710  1.00  0.00    -0.089 OA 
BRANCH  24  25
HETATM   25  C   UNL     1      -7.788   7.134  66.931  1.00  0.00    -0.107 C  
HETATM   26  O   UNL     1      -9.404   8.683  63.940  1.00  0.00     0.114 OA 
HETATM   27  C   UNL     1      -7.670   6.960  63.953  1.00  0.00    -0.115 C  
HETATM   28  C   UNL     1      -8.950   7.435  65.987  1.00  0.00    -0.156 C  
HETATM   29  C   UNL     1      -8.388   8.067  64.727  1.00  0.00    -0.077 C  
HETATM   30  O   UNL     1      -6.583   6.755  66.256  1.00  0.00    -0.045 OA 
HETATM   31  C   UNL     1      -6.583   6.338  64.884  1.00  0.00    -0.039 C  
HETATM   32  H   UNL     1      -9.054   9.080  63.151  1.00  0.00     0.000 HD 
HETATM   33  C   UNL     1      -5.165   6.644  64.380  1.00  0.00    -0.026 C  
BRANCH  27  34
HETATM   34  O   UNL     1      -8.522   5.848  63.589  1.00  0.00    -0.041 OA 
BRANCH  34  35
HETATM   35  C   UNL     1      -8.991   4.944  64.586  1.00  0.00    -0.111 C  
HETATM   36  C   UNL     1      -8.535   3.506  64.378  1.00  0.00    -0.093 C  
HETATM   37  C   UNL     1      -7.014   3.467  64.376  1.00  0.00    -0.053 C  
HETATM   38  O   UNL     1      -6.535   2.138  64.156  1.00  0.00    -0.018 OA 
HETATM   39  C   UNL     1      -6.424   4.069  65.668  1.00  0.00    -0.036 C  
HETATM   40  O   UNL     1      -8.554   5.389  65.876  1.00  0.00    -0.122 OA 
HETATM   41  C   UNL     1      -7.143   5.376  66.108  1.00  0.00    -0.072 C  
HETATM   42  H   UNL     1      -5.585   2.113  64.155  1.00  0.00     0.000 HD 
HETATM   43  C   UNL     1      -6.510   6.680  65.618  1.00  0.00    -0.050 C  
BRANCH  39  44
HETATM   44  O   UNL     1      -6.515   3.185  66.807  1.00  0.00    -0.035 OA 
BRANCH  44  45
HETATM   45  C   UNL     1      -5.561   3.302  67.864  1.00  0.00    -0.018 C  
HETATM   46  C   UNL     1      -5.421   4.694  68.474  1.00  0.00    -0.012 C  
HETATM   47  C   UNL     1      -6.744   5.091  69.115  1.00  0.00    -0.049 C  
HETATM   48  C   UNL     1      -7.106   4.089  70.214  1.00  0.00    -0.041 C  
HETATM   49  O   UNL     1      -6.629   6.398  69.691  1.00  0.00    -0.044 OA 
HETATM   50  H   UNL     1      -7.454   6.646  70.091  1.00  0.00     0.000 HD 
HETATM   51  O   UNL     1      -6.170   4.250  71.296  1.00  0.00    -0.017 OA 
HETATM   52  C   UNL     1      -7.049   2.642  69.691  1.00  0.00    -0.040 C  
HETATM   53  C   UNL     1      -8.313   2.241  68.933  1.00  0.00    -0.080 C  
HETATM   54  O   UNL     1      -5.879   2.364  68.906  1.00  0.00    -0.022 OA 
HETATM   55  H   UNL     1      -6.394   3.628  71.978  1.00  0.00     0.000 HD 
ENDBRANCH  44  45
ENDBRANCH  39  44
ENDBRANCH  34  35
ENDBRANCH  27  34
ENDBRANCH  24  25
ENDBRANCH  16  24
BRANCH  14  56
HETATM   56  C   UNL     1     -10.082  16.096  67.737  1.00  0.00    -0.250 C  
HETATM   57  C   UNL     1     -10.352  16.562  69.112  1.00  0.00    -0.316 C  
HETATM   58  C   UNL     1     -10.367  18.326  67.693  1.00  0.00    -0.396 C  
HETATM   59  O   UNL     1     -10.481  17.979  68.995  1.00  0.00    -0.278 OA 
HETATM   60  O   UNL     1     -10.472  19.451  67.234  1.00  0.00    -0.406 OA 
HETATM   61  C   UNL     1     -10.109  17.135  66.899  1.00  0.00    -0.298 C  
ENDBRANCH  14  56
TORSDOF 7
ENDMDL
MODEL       71
REMARK 921   NORMALIZED FREE ENERGY PREDICTED BY IDOCK:   36.69 KCAL/MOL
REMARK 922        TOTAL FREE ENERGY PREDICTED BY IDOCK:   49.86 KCAL/MOL
REMARK 923 INTER-LIGAND FREE ENERGY PREDICTED BY IDOCK:   25.46 KCAL/MOL
REMARK 924 INTRA-LIGAND FREE ENERGY PREDICTED BY IDOCK:   24.40 KCAL/MOL
REMARK 927      BINDING AFFINITY PREDICTED BY RF-SCORE:    0.00 PKD
ROOT
HETATM    1  C   UNL     1     -11.508  11.086  63.282  1.00  0.00     0.676 C  
HETATM    2  C   UNL     1     -12.841  11.104  64.043  1.00  0.00     1.700 C  
HETATM    3  C   UNL     1     -12.754  11.675  65.446  1.00  0.00     2.105 C  
HETATM    4  C   UNL     1     -11.781  10.886  66.337  1.00  0.00     0.970 C  
HETATM    5  C   UNL     1     -10.439  10.669  65.628  1.00  0.00    -0.235 C  
HETATM    6  C   UNL     1     -10.315  10.504  64.090  1.00  0.00    -0.168 C  
HETATM    7  C   UNL     1      -9.498   9.755  66.429  1.00  0.00    -0.237 C  
HETATM    8  C   UNL     1     -10.186   9.016  63.671  1.00  0.00     4.091 C  
HETATM    9  C   UNL     1      -9.063  10.505  67.679  1.00  0.00    -0.142 C  
HETATM   10  C   UNL     1      -8.996  11.283  63.724  1.00  0.00     0.064 C  
HETATM   11  C   UNL     1      -9.125  12.807  63.981  1.00  0.00     1.797 C  
HETATM   12  O   UNL     1      -8.241  11.615  67.308  1.00  0.00    -0.144 OA 
HETATM   13  C   UNL     1     -10.276  10.967  68.525  1.00  0.00    -0.197 C  
HETATM   14  C   UNL     1     -11.048   9.739  69.098  1.00  0.00    -0.158 C  
HETATM   15  C   UNL     1      -9.758  11.954  69.610  1.00  0.00     1.253 C  
HETATM   16  C   UNL     1     -10.275  13.419  63.187  1.00  0.00     3.098 C  
HETATM   17  H   UNL     1      -7.969  12.084  68.089  1.00  0.00     0.000 HD 
HETATM   18  O   UNL     1     -11.137  13.004  67.445  1.00  0.00    -0.257 OA 
HETATM   19  C   UNL     1     -12.396  10.319  69.555  1.00  0.00     0.129 C  
HETATM   20  H   UNL     1     -10.943  13.451  68.261  1.00  0.00     0.000 HD 
HETATM   21  C   UNL     1     -11.167  12.376  62.508  1.00  0.00     2.001 C  
HETATM   22  C   UNL     1     -11.456  11.635  67.705  1.00  0.00    -0.303 C  
HETATM   23  C   UNL     1     -12.625  11.580  68.706  1.00  0.00     0.771 C  
ENDROOT
BRANCH  16  24
HETATM   24  O   UNL     1     -11.122  14.298  63.922  1.00  0.00     0.140 OA 
BRANCH  24  25
HETATM   25  C   UNL     1     -11.105  14.282  65.358  1.00  0.00    -0.327 C  
HETATM   26  O   UNL     1      -8.766  17.073  66.190  1.00  0.00    -0.406 OA 
HETATM   27  C   UNL     1     -11.001  16.699  67.108  1.00  0.00    -0.023 C  
HETATM   28  C   UNL     1      -9.832  14.892  65.937  1.00  0.00    -0.362 C  
HETATM   29  C   UNL     1     -10.005  16.399  65.985  1.00  0.00    -0.345 C  
HETATM   30  O   UNL     1     -12.298  14.987  65.723  1.00  0.00     0.057 OA 
HETATM   31  C   UNL     1     -12.321  15.921  66.810  1.00  0.00     1.801 C  
HETATM   32  H   UNL     1      -8.873  18.016  66.220  1.00  0.00     0.000 HD 
HETATM   33  C   UNL     1     -13.477  16.877  66.482  1.00  0.00     9.684 C  
BRANCH  27  34
HETATM   34  O   UNL     1     -10.582  16.224  68.410  1.00  0.00    -0.271 OA 
BRANCH  34  35
HETATM   35  C   UNL     1      -9.693  17.002  69.207  1.00  0.00    -0.083 C  
HETATM   36  C   UNL     1      -8.264  17.038  68.681  1.00  0.00    -0.261 C  
HETATM   37  C   UNL     1      -8.272  17.616  67.274  1.00  0.00    -0.213 C  
HETATM   38  O   UNL     1      -6.952  17.646  66.724  1.00  0.00    -0.169 OA 
HETATM   39  C   UNL     1      -8.928  19.012  67.232  1.00  0.00    -0.284 C  
HETATM   40  O   UNL     1     -10.188  18.343  69.303  1.00  0.00    -0.265 OA 
HETATM   41  C   UNL     1     -10.225  19.094  68.087  1.00  0.00    -0.403 C  
HETATM   42  H   UNL     1      -6.957  18.007  65.846  1.00  0.00     0.000 HD 
HETATM   43  C   UNL     1     -11.533  18.833  67.339  1.00  0.00     0.766 C  
BRANCH  39  44
HETATM   44  O   UNL     1      -8.075  20.063  67.735  1.00  0.00    -0.293 OA 
BRANCH  44  45
HETATM   45  C   UNL     1      -7.949  20.251  69.145  1.00  0.00     0.462 C  
HETATM   46  C   UNL     1      -7.804  18.974  69.969  1.00  0.00     0.974 C  
HETATM   47  C   UNL     1      -6.517  18.266  69.566  1.00  0.00    -0.194 C  
HETATM   48  C   UNL     1      -5.319  19.183  69.833  1.00  0.00    -0.207 C  
HETATM   49  O   UNL     1      -6.367  17.064  70.331  1.00  0.00     0.180 OA 
HETATM   50  H   UNL     1      -5.565  16.623  70.080  1.00  0.00     0.000 HD 
HETATM   51  O   UNL     1      -5.170  19.324  71.258  1.00  0.00    -0.251 OA 
HETATM   52  C   UNL     1      -5.523  20.568  69.193  1.00  0.00    -0.317 C  
HETATM   53  C   UNL     1      -5.181  20.584  67.705  1.00  0.00    -0.216 C  
HETATM   54  O   UNL     1      -6.832  21.114  69.418  1.00  0.00     0.809 OA 
HETATM   55  H   UNL     1      -4.427  19.892  71.423  1.00  0.00     0.000 HD 
ENDBRANCH  44  45
ENDBRANCH  39  44
ENDBRANCH  34  35
ENDBRANCH  27  34
ENDBRANCH  24  25
ENDBRANCH  16  24
BRANCH  14  56
HETATM   56  C   UNL     1     -10.379   8.788  70.040  1.00  0.00    -0.213 C  
HETATM   57  C   UNL     1      -9.967   7.400  69.746  1.00  0.00    -0.188 C  
HETATM   58  C   UNL     1      -9.611   7.853  71.936  1.00  0.00    -0.173 C  
HETATM   59  O   UNL     1      -9.463   6.902  70.985  1.00  0.00    -0.163 OA 
HETATM   60  O   UNL     1      -9.326   7.744  73.116  1.00  0.00    -0.201 OA 
HETATM   61  C   UNL     1     -10.185   9.047  71.335  1.00  0.00    -0.399 C  
ENDBRANCH  14  56
TORSDOF 7
ENDMDL
MODEL       72
REMARK 921   NORMALIZED FREE ENERGY PREDICTED BY IDOCK:   38.09 KCAL/MOL
REMARK 922        TOTAL FREE ENERGY PREDICTED BY IDOCK:   51.83 KCAL/MOL
REMARK 923 INTER-LIGAND FREE ENERGY PREDICTED BY IDOCK:   16.72 KCAL/MOL
REMARK 924 INTRA-LIGAND FREE ENERGY PREDICTED BY IDOCK:   35.12 KCAL/MOL
REMARK 927      BINDING AFFINITY PREDICTED BY RF-SCORE:    0.00 PKD
ROOT
HETATM    1  C   UNL     1     -11.397   8.775  66.800  1.00  0.00     1.721 C  
HETATM    2  C   UNL     1     -11.019  10.103  67.471  1.00  0.00    -0.319 C  
HETATM    3  C   UNL     1      -9.560  10.208  67.873  1.00  0.00    -0.166 C  
HETATM    4  C   UNL     1      -9.149   9.112  68.869  1.00  0.00    -0.139 C  
HETATM    5  C   UNL     1      -9.601   7.730  68.382  1.00  0.00    -0.157 C  
HETATM    6  C   UNL     1     -10.891   7.510  67.548  1.00  0.00    -0.232 C  
HETATM    7  C   UNL     1      -9.339   6.631  69.424  1.00  0.00    -0.147 C  
HETATM    8  C   UNL     1     -12.073   7.015  68.422  1.00  0.00     2.273 C  
HETATM    9  C   UNL     1      -7.835   6.436  69.536  1.00  0.00    -0.101 C  
HETATM   10  C   UNL     1     -10.491   6.401  66.504  1.00  0.00    -0.150 C  
HETATM   11  C   UNL     1      -9.416   6.898  65.504  1.00  0.00     0.531 C  
HETATM   12  O   UNL     1      -7.331   5.886  68.315  1.00  0.00    -0.077 OA 
HETATM   13  C   UNL     1      -7.109   7.755  69.896  1.00  0.00    -0.062 C  
HETATM   14  C   UNL     1      -7.512   8.235  71.324  1.00  0.00    -0.082 C  
HETATM   15  C   UNL     1      -5.580   7.529  69.711  1.00  0.00    -0.023 C  
HETATM   16  C   UNL     1      -9.886   8.129  64.733  1.00  0.00     2.469 C  
HETATM   17  H   UNL     1      -6.391   5.764  68.385  1.00  0.00     0.000 HD 
HETATM   18  O   UNL     1      -6.916   9.032  67.801  1.00  0.00    -0.076 OA 
HETATM   19  C   UNL     1      -7.047   9.699  71.377  1.00  0.00     0.354 C  
HETATM   20  H   UNL     1      -5.975   8.983  67.922  1.00  0.00     0.000 HD 
HETATM   21  C   UNL     1     -11.191   8.721  65.272  1.00  0.00     6.392 C  
HETATM   22  C   UNL     1      -7.571   9.028  69.071  1.00  0.00    -0.078 C  
HETATM   23  C   UNL     1      -7.017  10.188  69.919  1.00  0.00    -0.133 C  
ENDROOT
BRANCH  16  24
HETATM   24  O   UNL     1      -8.937   9.188  64.642  1.00  0.00    -0.192 OA 
BRANCH  24  25
HETATM   25  C   UNL     1      -8.240   9.635  65.816  1.00  0.00    -0.120 C  
HETATM   26  O   UNL     1      -6.330  12.593  64.568  1.00  0.00     6.614 OA 
HETATM   27  C   UNL     1      -7.757  12.488  66.551  1.00  0.00     0.505 C  
HETATM   28  C   UNL     1      -6.978  10.425  65.483  1.00  0.00    -0.134 C  
HETATM   29  C   UNL     1      -7.375  11.863  65.207  1.00  0.00     2.287 C  
HETATM   30  O   UNL     1      -9.223  10.395  66.529  1.00  0.00    -0.156 OA 
HETATM   31  C   UNL     1      -8.896  11.629  67.182  1.00  0.00    -0.172 C  
HETATM   32  H   UNL     1      -6.578  13.493  64.395  1.00  0.00     0.000 HD 
HETATM   33  C   UNL     1     -10.221  12.405  67.242  1.00  0.00    -0.224 C  
BRANCH  27  34
HETATM   34  O   UNL     1      -6.694  12.466  67.534  1.00  0.00    -0.116 OA 
BRANCH  34  35
HETATM   35  C   UNL     1      -6.650  13.447  68.568  1.00  0.00    -0.089 C  
HETATM   36  C   UNL     1      -5.803  14.665  68.226  1.00  0.00    -0.116 C  
HETATM   37  C   UNL     1      -6.364  15.319  66.973  1.00  0.00     0.560 C  
HETATM   38  O   UNL     1      -5.584  16.456  66.594  1.00  0.00    -0.328 OA 
HETATM   39  C   UNL     1      -7.853  15.690  67.137  1.00  0.00    -0.217 C  
HETATM   40  O   UNL     1      -7.983  13.876  68.874  1.00  0.00    -0.101 OA 
HETATM   41  C   UNL     1      -8.678  14.573  67.837  1.00  0.00    -0.165 C  
HETATM   42  H   UNL     1      -5.934  16.865  65.811  1.00  0.00     0.000 HD 
HETATM   43  C   UNL     1      -9.381  13.583  66.907  1.00  0.00    -0.255 C  
BRANCH  39  44
HETATM   44  O   UNL     1      -8.065  16.875  67.935  1.00  0.00    -0.182 OA 
BRANCH  44  45
HETATM   45  C   UNL     1      -6.943  17.532  68.527  1.00  0.00    -0.214 C  
HETATM   46  C   UNL     1      -6.008  18.246  67.553  1.00  0.00    -0.166 C  
HETATM   47  C   UNL     1      -6.774  19.362  66.856  1.00  0.00    -0.195 C  
HETATM   48  C   UNL     1      -7.287  20.364  67.896  1.00  0.00    -0.251 C  
HETATM   49  O   UNL     1      -5.909  20.041  65.938  1.00  0.00    -0.168 OA 
HETATM   50  H   UNL     1      -6.387  20.737  65.503  1.00  0.00     0.000 HD 
HETATM   51  O   UNL     1      -6.152  21.056  68.449  1.00  0.00    -0.339 OA 
HETATM   52  C   UNL     1      -8.060  19.653  69.021  1.00  0.00    -0.169 C  
HETATM   53  C   UNL     1      -9.504  19.341  68.636  1.00  0.00    -0.463 C  
HETATM   54  O   UNL     1      -7.401  18.474  69.511  1.00  0.00    -0.039 OA 
HETATM   55  H   UNL     1      -6.470  21.677  69.095  1.00  0.00     0.000 HD 
ENDBRANCH  44  45
ENDBRANCH  39  44
ENDBRANCH  34  35
ENDBRANCH  27  34
ENDBRANCH  24  25
ENDBRANCH  16  24
BRANCH  14  56
HETATM   56  C   UNL     1      -7.208   7.397  72.525  1.00  0.00    -0.073 C  
HETATM   57  C   UNL     1      -6.289   7.742  73.630  1.00  0.00    -0.078 C  
HETATM   58  C   UNL     1      -7.058   5.629  73.908  1.00  0.00    -0.082 C  
HETATM   59  O   UNL     1      -6.284   6.587  74.470  1.00  0.00    -0.071 OA 
HETATM   60  O   UNL     1      -7.239   4.503  74.339  1.00  0.00    -0.070 OA 
HETATM   61  C   UNL     1      -7.646   6.146  72.682  1.00  0.00    -0.101 C  
ENDBRANCH  14  56
TORSDOF 7
ENDMDL
MODEL       73
REMARK 921   NORMALIZED FREE ENERGY PREDICTED BY IDOCK:   38.74 KCAL/MOL
REMARK 922        TOTAL FREE ENERGY PREDICTED BY IDOCK:   52.75 KCAL/MOL
REMARK 923 INTER-LIGAND FREE ENERGY PREDICTED BY IDOCK:   32.09 KCAL/MOL
REMARK 924 INTRA-LIGAND FREE ENERGY PREDICTED BY IDOCK:   20.66 KCAL/MOL
REMARK 927      BINDING AFFINITY PREDICTED BY RF-SCORE:    0.00 PKD
ROOT
HETATM    1  C   UNL     1      -7.784  13.276  67.311  1.00  0.00    -0.100 C  
HETATM    2  C   UNL     1      -9.246  12.850  67.117  1.00  0.00    -0.225 C  
HETATM    3  C   UNL     1      -9.748  11.854  68.145  1.00  0.00    -0.194 C  
HETATM    4  C   UNL     1      -8.935  10.549  68.140  1.00  0.00    -0.138 C  
HETATM    5  C   UNL     1      -7.430  10.841  68.184  1.00  0.00    -0.091 C  
HETATM    6  C   UNL     1      -6.795  12.098  67.534  1.00  0.00    -0.127 C  
HETATM    7  C   UNL     1      -6.585   9.566  68.028  1.00  0.00    -0.062 C  
HETATM    8  C   UNL     1      -6.167  11.785  66.150  1.00  0.00     0.566 C  
HETATM    9  C   UNL     1      -6.768   8.722  69.280  1.00  0.00    -0.050 C  
HETATM   10  C   UNL     1      -5.672  12.532  68.549  1.00  0.00    -0.055 C  
HETATM   11  C   UNL     1      -6.260  13.003  69.905  1.00  0.00    -0.089 C  
HETATM   12  O   UNL     1      -6.183   9.395  70.399  1.00  0.00    -0.048 OA 
HETATM   13  C   UNL     1      -8.259   8.397  69.542  1.00  0.00    -0.118 C  
HETATM   14  C   UNL     1      -8.831   7.485  68.414  1.00  0.00    -0.126 C  
HETATM   15  C   UNL     1      -8.375   7.788  70.970  1.00  0.00    -0.114 C  
HETATM   16  C   UNL     1      -7.221  14.175  69.728  1.00  0.00     0.176 C  
HETATM   17  H   UNL     1      -6.297   8.868  71.182  1.00  0.00     0.000 HD 
HETATM   18  O   UNL     1      -9.230  10.399  70.593  1.00  0.00    -0.012 OA 
HETATM   19  C   UNL     1     -10.355   7.577  68.589  1.00  0.00    -0.218 C  
HETATM   20  H   UNL     1      -9.421   9.845  71.342  1.00  0.00     0.000 HD 
HETATM   21  C   UNL     1      -7.559  14.468  68.264  1.00  0.00    -0.121 C  
HETATM   22  C   UNL     1      -9.254   9.622  69.395  1.00  0.00    -0.189 C  
HETATM   23  C   UNL     1     -10.622   8.922  69.285  1.00  0.00    -0.219 C  
ENDROOT
BRANCH  16  24
HETATM   24  O   UNL     1      -8.449  14.067  70.443  1.00  0.00     2.002 OA 
BRANCH  24  25
HETATM   25  C   UNL     1      -9.601  14.807  70.011  1.00  0.00     0.468 C  
HETATM   26  O   UNL     1     -12.439  12.697  71.216  1.00  0.00    -0.309 OA 
HETATM   27  C   UNL     1     -12.139  15.099  71.556  1.00  0.00    -0.345 C  
HETATM   28  C   UNL     1     -10.836  13.926  69.845  1.00  0.00     0.217 C  
HETATM   29  C   UNL     1     -11.489  13.759  71.205  1.00  0.00     1.072 C  
HETATM   30  O   UNL     1      -9.750  15.823  71.010  1.00  0.00     1.139 OA 
HETATM   31  C   UNL     1     -11.036  16.203  71.516  1.00  0.00     0.157 C  
HETATM   32  H   UNL     1     -12.847  12.592  72.067  1.00  0.00     0.000 HD 
HETATM   33  C   UNL     1     -10.756  16.771  72.915  1.00  0.00     3.728 C  
BRANCH  27  34
HETATM   34  O   UNL     1     -13.133  15.540  70.601  1.00  0.00    -0.450 OA 
BRANCH  34  35
HETATM   35  C   UNL     1     -12.934  16.738  69.856  1.00  0.00     4.519 C  
HETATM   36  C   UNL     1     -11.483  17.195  69.799  1.00  0.00     1.136 C  
HETATM   37  C   UNL     1     -10.646  16.094  69.164  1.00  0.00    -0.276 C  
HETATM   38  O   UNL     1      -9.266  16.465  69.112  1.00  0.00    -0.257 OA 
HETATM   39  C   UNL     1     -11.175  15.705  67.768  1.00  0.00    -0.297 C  
HETATM   40  O   UNL     1     -13.419  16.555  68.520  1.00  0.00     3.100 OA 
HETATM   41  C   UNL     1     -12.725  15.593  67.720  1.00  0.00     1.976 C  
HETATM   42  H   UNL     1      -8.742  15.779  68.716  1.00  0.00     0.000 HD 
HETATM   43  C   UNL     1     -13.299  14.194  67.952  1.00  0.00     4.189 C  
BRANCH  39  44
HETATM   44  O   UNL     1     -10.831  16.657  66.738  1.00  0.00    -0.193 OA 
BRANCH  44  45
HETATM   45  C   UNL     1      -9.694  17.503  66.914  1.00  0.00    -0.291 C  
HETATM   46  C   UNL     1      -9.101  18.086  65.634  1.00  0.00     0.644 C  
HETATM   47  C   UNL     1     -10.138  18.982  64.970  1.00  0.00     1.970 C  
HETATM   48  C   UNL     1     -10.518  20.122  65.919  1.00  0.00    -0.321 C  
HETATM   49  O   UNL     1      -9.596  19.536  63.765  1.00  0.00     7.274 OA 
HETATM   50  H   UNL     1     -10.242  20.095  63.350  1.00  0.00     0.000 HD 
HETATM   51  O   UNL     1      -9.381  20.996  66.050  1.00  0.00     0.042 OA 
HETATM   52  C   UNL     1     -10.921  19.584  67.304  1.00  0.00    -0.341 C  
HETATM   53  C   UNL     1     -12.365  19.091  67.345  1.00  0.00     3.888 C  
HETATM   54  O   UNL     1     -10.027  18.578  67.808  1.00  0.00    -0.314 OA 
HETATM   55  H   UNL     1      -9.618  21.703  66.639  1.00  0.00     0.000 HD 
ENDBRANCH  44  45
ENDBRANCH  39  44
ENDBRANCH  34  35
ENDBRANCH  27  34
ENDBRANCH  24  25
ENDBRANCH  16  24
BRANCH  14  56
HETATM   56  C   UNL     1      -8.270   6.118  68.179  1.00  0.00    -0.114 C  
HETATM   57  C   UNL     1      -7.680   5.613  66.922  1.00  0.00    -0.100 C  
HETATM   58  C   UNL     1      -7.798   3.935  68.438  1.00  0.00    -0.068 C  
HETATM   59  O   UNL     1      -7.381   4.242  67.188  1.00  0.00    -0.068 OA 
HETATM   60  O   UNL     1      -7.737   2.839  68.969  1.00  0.00    -0.047 OA 
HETATM   61  C   UNL     1      -8.355   5.124  69.065  1.00  0.00    -0.087 C  
ENDBRANCH  14  56
TORSDOF 7
ENDMDL
MODEL       74
REMARK 921   NORMALIZED FREE ENERGY PREDICTED BY IDOCK:   42.74 KCAL/MOL
REMARK 922        TOTAL FREE ENERGY PREDICTED BY IDOCK:   58.39 KCAL/MOL
REMARK 923 INTER-LIGAND FREE ENERGY PREDICTED BY IDOCK:    4.60 KCAL/MOL
REMARK 924 INTRA-LIGAND FREE ENERGY PREDICTED BY IDOCK:   53.79 KCAL/MOL
REMARK 927      BINDING AFFINITY PREDICTED BY RF-SCORE:    0.00 PKD
ROOT
HETATM    1  C   UNL     1      -6.581  11.896  69.804  1.00  0.00    -0.022 C  
HETATM    2  C   UNL     1      -5.343  11.969  68.899  1.00  0.00    -0.050 C  
HETATM    3  C   UNL     1      -5.634  11.772  67.423  1.00  0.00    -0.100 C  
HETATM    4  C   UNL     1      -6.275  10.404  67.134  1.00  0.00    -0.062 C  
HETATM    5  C   UNL     1      -7.453  10.139  68.080  1.00  0.00    -0.087 C  
HETATM    6  C   UNL     1      -7.501  10.673  69.536  1.00  0.00    -0.132 C  
HETATM    7  C   UNL     1      -8.021   8.720  67.918  1.00  0.00    -0.107 C  
HETATM    8  C   UNL     1      -7.100   9.587  70.569  1.00  0.00    -0.130 C  
HETATM    9  C   UNL     1      -8.699   8.635  66.559  1.00  0.00    -0.126 C  
HETATM   10  C   UNL     1      -9.007  11.085  69.745  1.00  0.00     0.758 C  
HETATM   11  C   UNL     1      -9.419  12.276  68.840  1.00  0.00     0.199 C  
HETATM   12  O   UNL     1      -9.855   9.478  66.548  1.00  0.00    -0.203 OA 
HETATM   13  C   UNL     1      -7.729   9.002  65.408  1.00  0.00    -0.095 C  
HETATM   14  C   UNL     1      -6.581   7.952  65.299  1.00  0.00    -0.044 C  
HETATM   15  C   UNL     1      -8.566   9.165  64.107  1.00  0.00    -0.191 C  
HETATM   16  C   UNL     1      -8.549  13.504  69.091  1.00  0.00     0.529 C  
HETATM   17  H   UNL     1     -10.278   9.425  65.698  1.00  0.00     0.000 HD 
HETATM   18  O   UNL     1      -7.626  11.460  65.347  1.00  0.00    -0.195 OA 
HETATM   19  C   UNL     1      -5.524   8.637  64.419  1.00  0.00    -0.058 C  
HETATM   20  H   UNL     1      -7.969  11.397  64.463  1.00  0.00     0.000 HD 
HETATM   21  C   UNL     1      -7.345  13.223  69.993  1.00  0.00     1.152 C  
HETATM   22  C   UNL     1      -6.851  10.299  65.652  1.00  0.00    -0.133 C  
HETATM   23  C   UNL     1      -5.744  10.150  64.592  1.00  0.00    -0.119 C  
ENDROOT
BRANCH  16  24
HETATM   24  O   UNL     1      -8.068  14.157  67.919  1.00  0.00    -0.129 OA 
BRANCH  24  25
HETATM   25  C   UNL     1      -8.630  15.415  67.513  1.00  0.00    -0.174 C  
HETATM   26  O   UNL     1      -6.888  17.857  69.740  1.00  0.00    -0.028 OA 
HETATM   27  C   UNL     1      -7.128  17.987  67.311  1.00  0.00    -0.189 C  
HETATM   28  C   UNL     1      -8.551  16.474  68.609  1.00  0.00    -0.243 C  
HETATM   29  C   UNL     1      -7.173  17.107  68.562  1.00  0.00    -0.220 C  
HETATM   30  O   UNL     1      -7.893  15.754  66.332  1.00  0.00    -0.172 OA 
HETATM   31  C   UNL     1      -7.455  17.094  66.073  1.00  0.00    -0.143 C  
HETATM   32  H   UNL     1      -6.026  18.253  69.711  1.00  0.00     0.000 HD 
HETATM   33  C   UNL     1      -6.236  16.938  65.152  1.00  0.00     3.160 C  
BRANCH  27  34
HETATM   34  O   UNL     1      -8.133  19.029  67.286  1.00  0.00    -0.258 OA 
BRANCH  34  35
HETATM   35  C   UNL     1      -9.513  18.695  67.165  1.00  0.00    -0.295 C  
HETATM   36  C   UNL     1      -9.796  17.202  67.254  1.00  0.00    -0.265 C  
HETATM   37  C   UNL     1      -9.298  16.686  68.596  1.00  0.00    -0.247 C  
HETATM   38  O   UNL     1      -9.517  15.278  68.717  1.00  0.00    -0.193 OA 
HETATM   39  C   UNL     1      -9.927  17.456  69.775  1.00  0.00     0.402 C  
HETATM   40  O   UNL     1     -10.259  19.373  68.183  1.00  0.00    -0.393 OA 
HETATM   41  C   UNL     1      -9.982  18.991  69.533  1.00  0.00     0.140 C  
HETATM   42  H   UNL     1      -9.206  14.955  69.555  1.00  0.00     0.000 HD 
HETATM   43  C   UNL     1      -8.802  19.794  70.083  1.00  0.00     1.163 C  
BRANCH  39  44
HETATM   44  O   UNL     1     -11.290  17.066  70.053  1.00  0.00     0.263 OA 
BRANCH  44  45
HETATM   45  C   UNL     1     -11.617  16.523  71.333  1.00  0.00    -0.081 C  
HETATM   46  C   UNL     1     -13.000  15.885  71.444  1.00  0.00    -0.297 C  
HETATM   47  C   UNL     1     -13.074  14.693  70.498  1.00  0.00    -0.202 C  
HETATM   48  C   UNL     1     -12.007  13.664  70.880  1.00  0.00    -0.142 C  
HETATM   49  O   UNL     1     -14.368  14.085  70.590  1.00  0.00     0.304 OA 
HETATM   50  H   UNL     1     -14.415  13.342  70.000  1.00  0.00     0.000 HD 
HETATM   51  O   UNL     1     -12.374  13.086  72.146  1.00  0.00     0.215 OA 
HETATM   52  C   UNL     1     -10.617  14.316  70.990  1.00  0.00     1.736 C  
HETATM   53  C   UNL     1      -9.940  14.488  69.633  1.00  0.00     0.205 C  
HETATM   54  O   UNL     1     -10.624  15.556  71.714  1.00  0.00     0.204 OA 
HETATM   55  H   UNL     1     -11.712  12.447  72.383  1.00  0.00     0.000 HD 
ENDBRANCH  44  45
ENDBRANCH  39  44
ENDBRANCH  34  35
ENDBRANCH  27  34
ENDBRANCH  24  25
ENDBRANCH  16  24
BRANCH  14  56
HETATM   56  C   UNL     1      -6.883   6.521  64.983  1.00  0.00    -0.047 C  
HETATM   57  C   UNL     1      -7.767   5.618  65.748  1.00  0.00    -0.088 C  
HETATM   58  C   UNL     1      -6.749   4.462  64.088  1.00  0.00    -0.044 C  
HETATM   59  O   UNL     1      -7.648   4.355  65.093  1.00  0.00    -0.075 OA 
HETATM   60  O   UNL     1      -6.377   3.562  63.354  1.00  0.00    -0.024 OA 
HETATM   61  C   UNL     1      -6.271   5.834  64.016  1.00  0.00    -0.025 C  
ENDBRANCH  14  56
TORSDOF 7
ENDMDL
MODEL       75
REMARK 921   NORMALIZED FREE ENERGY PREDICTED BY IDOCK:   43.78 KCAL/MOL
REMARK 922        TOTAL FREE ENERGY PREDICTED BY IDOCK:   59.85 KCAL/MOL
REMARK 923 INTER-LIGAND FREE ENERGY PREDICTED BY IDOCK:   44.39 KCAL/MOL
REMARK 924 INTRA-LIGAND FREE ENERGY PREDICTED BY IDOCK:   15.46 KCAL/MOL
REMARK 927      BINDING AFFINITY PREDICTED BY RF-SCORE:    0.00 PKD
ROOT
HETATM    1  C   UNL     1      -9.467  13.638  70.193  1.00  0.00     2.801 C  
HETATM    2  C   UNL     1      -8.567  13.030  69.108  1.00  0.00     0.654 C  
HETATM    3  C   UNL     1      -9.047  11.695  68.572  1.00  0.00    -0.157 C  
HETATM    4  C   UNL     1      -9.144  10.626  69.673  1.00  0.00     0.132 C  
HETATM    5  C   UNL     1      -9.905  11.160  70.892  1.00  0.00     4.223 C  
HETATM    6  C   UNL     1      -9.866  12.649  71.324  1.00  0.00    10.787 C  
HETATM    7  C   UNL     1      -9.889  10.170  72.067  1.00  0.00     4.171 C  
HETATM    8  C   UNL     1      -8.871  12.892  72.490  1.00  0.00    20.771 C  
HETATM    9  C   UNL     1     -10.737   8.967  71.683  1.00  0.00    -0.371 C  
HETATM   10  C   UNL     1     -11.336  12.952  71.800  1.00  0.00     3.925 C  
HETATM   11  C   UNL     1     -12.356  12.873  70.634  1.00  0.00    -0.385 C  
HETATM   12  O   UNL     1     -12.108   9.363  71.577  1.00  0.00    -0.329 OA 
HETATM   13  C   UNL     1     -10.243   8.310  70.370  1.00  0.00    -0.209 C  
HETATM   14  C   UNL     1      -8.822   7.696  70.562  1.00  0.00    -0.149 C  
HETATM   15  C   UNL     1     -11.320   7.286  69.909  1.00  0.00    -0.145 C  
HETATM   16  C   UNL     1     -12.009  13.846  69.511  1.00  0.00    -0.343 C  
HETATM   17  H   UNL     1     -12.638   8.611  71.337  1.00  0.00     0.000 HD 
HETATM   18  O   UNL     1     -11.130   9.685  68.532  1.00  0.00    -0.440 OA 
HETATM   19  C   UNL     1      -8.320   7.450  69.130  1.00  0.00    -0.132 C  
HETATM   20  H   UNL     1     -11.591   8.905  68.245  1.00  0.00     0.000 HD 
HETATM   21  C   UNL     1     -10.636  14.503  69.680  1.00  0.00    -0.075 C  
HETATM   22  C   UNL     1      -9.917   9.318  69.192  1.00  0.00    -0.179 C  
HETATM   23  C   UNL     1      -9.078   8.448  68.238  1.00  0.00    -0.139 C  
ENDROOT
BRANCH  16  24
HETATM   24  O   UNL     1     -12.070  13.303  68.195  1.00  0.00    -0.330 OA 
BRANCH  24  25
HETATM   25  C   UNL     1     -10.866  13.131  67.431  1.00  0.00    -0.255 C  
HETATM   26  O   UNL     1     -12.051  11.227  64.443  1.00  0.00     0.127 OA 
HETATM   27  C   UNL     1     -10.685  13.255  64.453  1.00  0.00    -0.415 C  
HETATM   28  C   UNL     1     -10.933  11.926  66.496  1.00  0.00    -0.337 C  
HETATM   29  C   UNL     1     -11.646  12.348  65.225  1.00  0.00    -0.373 C  
HETATM   30  O   UNL     1     -10.713  14.381  66.747  1.00  0.00    -0.286 OA 
HETATM   31  C   UNL     1     -10.289  14.447  65.379  1.00  0.00    -0.378 C  
HETATM   32  H   UNL     1     -12.497  11.491  63.647  1.00  0.00     0.000 HD 
HETATM   33  C   UNL     1     -10.851  15.778  64.858  1.00  0.00    -0.433 C  
BRANCH  27  34
HETATM   34  O   UNL     1      -9.428  12.625  64.109  1.00  0.00     0.162 OA 
BRANCH  34  35
HETATM   35  C   UNL     1      -8.480  12.308  65.124  1.00  0.00     1.595 C  
HETATM   36  C   UNL     1      -8.965  11.258  66.115  1.00  0.00    -0.210 C  
HETATM   37  C   UNL     1      -9.297   9.982  65.356  1.00  0.00    -0.229 C  
HETATM   38  O   UNL     1      -9.784   8.971  66.242  1.00  0.00    -0.235 OA 
HETATM   39  C   UNL     1      -8.093   9.475  64.534  1.00  0.00    -0.142 C  
HETATM   40  O   UNL     1      -7.266  11.849  64.516  1.00  0.00     2.618 OA 
HETATM   41  C   UNL     1      -7.345  10.619  63.792  1.00  0.00     0.217 C  
HETATM   42  H   UNL     1      -9.991   8.173  65.768  1.00  0.00     0.000 HD 
HETATM   43  C   UNL     1      -7.785  10.875  62.350  1.00  0.00    -0.142 C  
BRANCH  39  44
HETATM   44  O   UNL     1      -7.086   8.820  65.335  1.00  0.00    -0.081 OA 
BRANCH  44  45
HETATM   45  C   UNL     1      -6.316   7.760  64.766  1.00  0.00    -0.044 C  
HETATM   46  C   UNL     1      -6.604   6.366  65.318  1.00  0.00    -0.039 C  
HETATM   47  C   UNL     1      -8.047   5.995  65.002  1.00  0.00    -0.133 C  
HETATM   48  C   UNL     1      -8.260   5.995  63.486  1.00  0.00    -0.029 C  
HETATM   49  O   UNL     1      -8.332   4.688  65.516  1.00  0.00    -0.113 OA 
HETATM   50  H   UNL     1      -9.232   4.457  65.319  1.00  0.00     0.000 HD 
HETATM   51  O   UNL     1      -7.520   4.893  62.928  1.00  0.00    -0.046 OA 
HETATM   52  C   UNL     1      -7.779   7.315  62.855  1.00  0.00    -0.127 C  
HETATM   53  C   UNL     1      -8.807   8.436  62.983  1.00  0.00     0.354 C  
HETATM   54  O   UNL     1      -6.497   7.745  63.340  1.00  0.00    -0.061 OA 
HETATM   55  H   UNL     1      -7.653   4.894  61.987  1.00  0.00     0.000 HD 
ENDBRANCH  44  45
ENDBRANCH  39  44
ENDBRANCH  34  35
ENDBRANCH  27  34
ENDBRANCH  24  25
ENDBRANCH  16  24
BRANCH  14  56
HETATM   56  C   UNL     1      -8.594   6.592  71.546  1.00  0.00    -0.124 C  
HETATM   57  C   UNL     1      -9.574   5.569  71.964  1.00  0.00    -0.151 C  
HETATM   58  C   UNL     1      -7.680   5.355  73.186  1.00  0.00    -0.101 C  
HETATM   59  O   UNL     1      -8.901   4.814  72.972  1.00  0.00    -0.113 OA 
HETATM   60  O   UNL     1      -6.862   4.985  74.011  1.00  0.00    -0.072 OA 
HETATM   61  C   UNL     1      -7.485   6.476  72.280  1.00  0.00    -0.095 C  
ENDBRANCH  14  56
TORSDOF 7
ENDMDL
MODEL       76
REMARK 921   NORMALIZED FREE ENERGY PREDICTED BY IDOCK:   47.33 KCAL/MOL
REMARK 922        TOTAL FREE ENERGY PREDICTED BY IDOCK:   64.86 KCAL/MOL
REMARK 923 INTER-LIGAND FREE ENERGY PREDICTED BY IDOCK:    7.74 KCAL/MOL
REMARK 924 INTRA-LIGAND FREE ENERGY PREDICTED BY IDOCK:   57.12 KCAL/MOL
REMARK 927      BINDING AFFINITY PREDICTED BY RF-SCORE:    0.00 PKD
ROOT
HETATM    1  C   UNL     1      -9.176   5.097  68.494  1.00  0.00    -0.145 C  
HETATM    2  C   UNL     1      -7.939   5.059  67.586  1.00  0.00    -0.095 C  
HETATM    3  C   UNL     1      -7.163   6.361  67.531  1.00  0.00    -0.086 C  
HETATM    4  C   UNL     1      -8.018   7.528  67.012  1.00  0.00    -0.116 C  
HETATM    5  C   UNL     1      -9.363   7.592  67.746  1.00  0.00    -0.153 C  
HETATM    6  C   UNL     1     -10.096   6.331  68.276  1.00  0.00    -0.172 C  
HETATM    7  C   UNL     1     -10.302   8.653  67.150  1.00  0.00    -0.369 C  
HETATM    8  C   UNL     1     -11.229   5.871  67.321  1.00  0.00     0.075 C  
HETATM    9  C   UNL     1      -9.722  10.025  67.459  1.00  0.00    -0.159 C  
HETATM   10  C   UNL     1     -10.705   6.789  69.654  1.00  0.00    -0.290 C  
HETATM   11  C   UNL     1      -9.607   7.116  70.700  1.00  0.00    -0.165 C  
HETATM   12  O   UNL     1      -9.778  10.261  68.869  1.00  0.00    -0.171 OA 
HETATM   13  C   UNL     1      -8.275  10.171  66.926  1.00  0.00    -0.122 C  
HETATM   14  C   UNL     1      -8.254  10.120  65.367  1.00  0.00    -0.151 C  
HETATM   15  C   UNL     1      -7.671  11.473  67.526  1.00  0.00    -0.132 C  
HETATM   16  C   UNL     1      -8.697   5.919  70.957  1.00  0.00    -0.135 C  
HETATM   17  H   UNL     1      -9.416  11.118  69.062  1.00  0.00     0.000 HD 
HETATM   18  O   UNL     1      -6.819   9.045  68.559  1.00  0.00    -0.062 OA 
HETATM   19  C   UNL     1      -6.777   9.881  65.016  1.00  0.00    -0.121 C  
HETATM   20  H   UNL     1      -6.401   9.889  68.684  1.00  0.00     0.000 HD 
HETATM   21  C   UNL     1      -8.922   4.763  69.978  1.00  0.00    -0.139 C  
HETATM   22  C   UNL     1      -7.318   8.944  67.223  1.00  0.00    -0.080 C  
HETATM   23  C   UNL     1      -6.157   9.186  66.241  1.00  0.00    -0.060 C  
ENDROOT
BRANCH  16  24
HETATM   24  O   UNL     1      -7.301   6.208  70.969  1.00  0.00    -0.079 OA 
BRANCH  24  25
HETATM   25  C   UNL     1      -6.806   7.397  70.333  1.00  0.00    -0.052 C  
HETATM   26  O   UNL     1      -9.860   9.536  70.089  1.00  0.00    -0.212 OA 
HETATM   27  C   UNL     1      -7.673  10.181  70.973  1.00  0.00     1.274 C  
HETATM   28  C   UNL     1      -7.900   8.167  69.597  1.00  0.00    -0.103 C  
HETATM   29  C   UNL     1      -8.625   9.042  70.603  1.00  0.00    -0.210 C  
HETATM   30  O   UNL     1      -6.206   8.134  71.404  1.00  0.00    -0.034 OA 
HETATM   31  C   UNL     1      -6.352   9.556  71.519  1.00  0.00     0.070 C  
HETATM   32  H   UNL     1     -10.314  10.084  70.718  1.00  0.00     0.000 HD 
HETATM   33  C   UNL     1      -6.163   9.851  73.014  1.00  0.00     1.038 C  
BRANCH  27  34
HETATM   34  O   UNL     1      -7.258  10.991  69.847  1.00  0.00    -0.081 OA 
BRANCH  34  35
HETATM   35  C   UNL     1      -7.355  12.412  69.909  1.00  0.00     1.092 C  
HETATM   36  C   UNL     1      -6.844  13.119  68.660  1.00  0.00    -0.099 C  
HETATM   37  C   UNL     1      -7.645  12.637  67.460  1.00  0.00    -0.160 C  
HETATM   38  O   UNL     1      -7.183  13.254  66.255  1.00  0.00     0.799 OA 
HETATM   39  C   UNL     1      -9.159  12.855  67.657  1.00  0.00    -0.194 C  
HETATM   40  O   UNL     1      -8.720  12.787  70.132  1.00  0.00     3.172 OA 
HETATM   41  C   UNL     1      -9.643  12.475  69.085  1.00  0.00     0.564 C  
HETATM   42  H   UNL     1      -7.683  12.954  65.505  1.00  0.00     0.000 HD 
HETATM   43  C   UNL     1     -10.173  11.049  69.250  1.00  0.00    -0.153 C  
BRANCH  39  44
HETATM   44  O   UNL     1      -9.571  14.227  67.470  1.00  0.00    -0.209 OA 
BRANCH  44  45
HETATM   45  C   UNL     1      -9.715  14.742  66.145  1.00  0.00    -0.312 C  
HETATM   46  C   UNL     1     -10.959  14.281  65.390  1.00  0.00    -0.335 C  
HETATM   47  C   UNL     1     -12.198  14.777  66.123  1.00  0.00    -0.030 C  
HETATM   48  C   UNL     1     -12.181  16.307  66.189  1.00  0.00     2.261 C  
HETATM   49  O   UNL     1     -13.374  14.350  65.426  1.00  0.00    -0.568 OA 
HETATM   50  H   UNL     1     -14.147  14.659  65.883  1.00  0.00     0.000 HD 
HETATM   51  O   UNL     1     -12.377  16.815  64.856  1.00  0.00     1.422 OA 
HETATM   52  C   UNL     1     -10.846  16.827  66.751  1.00  0.00    -0.009 C  
HETATM   53  C   UNL     1     -10.792  16.778  68.276  1.00  0.00    -0.366 C  
HETATM   54  O   UNL     1      -9.696  16.179  66.183  1.00  0.00    -0.280 OA 
HETATM   55  H   UNL     1     -12.367  17.765  64.897  1.00  0.00     0.000 HD 
ENDBRANCH  44  45
ENDBRANCH  39  44
ENDBRANCH  34  35
ENDBRANCH  27  34
ENDBRANCH  24  25
ENDBRANCH  16  24
BRANCH  14  56
HETATM   56  C   UNL     1      -8.971  11.156  64.560  1.00  0.00     0.004 C  
HETATM   57  C   UNL     1      -8.425  12.453  64.109  1.00  0.00     2.780 C  
HETATM   58  C   UNL     1     -10.618  12.315  63.560  1.00  0.00    -0.448 C  
HETATM   59  O   UNL     1      -9.520  13.099  63.459  1.00  0.00     0.888 OA 
HETATM   60  O   UNL     1     -11.735  12.583  63.153  1.00  0.00    -0.430 OA 
HETATM   61  C   UNL     1     -10.267  11.084  64.250  1.00  0.00    -0.414 C  
ENDBRANCH  14  56
TORSDOF 7
ENDMDL
MODEL       77
REMARK 921   NORMALIZED FREE ENERGY PREDICTED BY IDOCK:   47.65 KCAL/MOL
REMARK 922        TOTAL FREE ENERGY PREDICTED BY IDOCK:   65.31 KCAL/MOL
REMARK 923 INTER-LIGAND FREE ENERGY PREDICTED BY IDOCK:   33.46 KCAL/MOL
REMARK 924 INTRA-LIGAND FREE ENERGY PREDICTED BY IDOCK:   31.85 KCAL/MOL
REMARK 927      BINDING AFFINITY PREDICTED BY RF-SCORE:    0.00 PKD
ROOT
HETATM    1  C   UNL     1     -11.055  10.933  67.191  1.00  0.00    -0.308 C  
HETATM    2  C   UNL     1      -9.588  11.385  67.196  1.00  0.00    -0.193 C  
HETATM    3  C   UNL     1      -8.732  10.745  66.120  1.00  0.00    -0.186 C  
HETATM    4  C   UNL     1      -8.691   9.213  66.243  1.00  0.00    -0.159 C  
HETATM    5  C   UNL     1     -10.104   8.636  66.393  1.00  0.00    -0.294 C  
HETATM    6  C   UNL     1     -11.253   9.394  67.109  1.00  0.00     0.517 C  
HETATM    7  C   UNL     1     -10.089   7.124  66.668  1.00  0.00    -0.229 C  
HETATM    8  C   UNL     1     -11.458   8.900  68.565  1.00  0.00     0.849 C  
HETATM    9  C   UNL     1      -9.605   6.420  65.410  1.00  0.00     0.722 C  
HETATM   10  C   UNL     1     -12.528   9.068  66.245  1.00  0.00    11.853 C  
HETATM   11  C   UNL     1     -12.440   9.674  64.819  1.00  0.00    12.220 C  
HETATM   12  O   UNL     1     -10.576   6.576  64.371  1.00  0.00     4.678 OA 
HETATM   13  C   UNL     1      -8.217   6.936  64.959  1.00  0.00    -0.096 C  
HETATM   14  C   UNL     1      -7.125   6.573  66.012  1.00  0.00    -0.063 C  
HETATM   15  C   UNL     1      -7.935   6.378  63.534  1.00  0.00    -0.084 C  
HETATM   16  C   UNL     1     -12.267  11.190  64.859  1.00  0.00     1.603 C  
HETATM   17  H   UNL     1     -10.274   6.136  63.585  1.00  0.00     0.000 HD 
HETATM   18  O   UNL     1      -8.618   9.055  63.773  1.00  0.00    -0.285 OA 
HETATM   19  C   UNL     1      -5.929   7.463  65.639  1.00  0.00    -0.038 C  
HETATM   20  H   UNL     1      -8.234   8.637  63.011  1.00  0.00     0.000 HD 
HETATM   21  C   UNL     1     -11.994  11.733  66.264  1.00  0.00     0.211 C  
HETATM   22  C   UNL     1      -8.047   8.512  64.965  1.00  0.00    -0.148 C  
HETATM   23  C   UNL     1      -6.518   8.678  64.902  1.00  0.00    -0.065 C  
ENDROOT
BRANCH  16  24
HETATM   24  O   UNL     1     -11.262  11.710  63.992  1.00  0.00    -0.361 OA 
BRANCH  24  25
HETATM   25  C   UNL     1     -10.264  12.607  64.503  1.00  0.00    -0.305 C  
HETATM   26  O   UNL     1     -12.228  15.700  65.231  1.00  0.00     0.434 OA 
HETATM   27  C   UNL     1     -10.674  14.552  66.729  1.00  0.00    -0.291 C  
HETATM   28  C   UNL     1     -10.649  14.073  64.327  1.00  0.00     0.004 C  
HETATM   29  C   UNL     1     -11.553  14.470  65.480  1.00  0.00    -0.350 C  
HETATM   30  O   UNL     1     -10.116  12.211  65.871  1.00  0.00    -0.234 OA 
HETATM   31  C   UNL     1      -9.971  13.173  66.925  1.00  0.00    -0.245 C  
HETATM   32  H   UNL     1     -12.794  15.949  65.952  1.00  0.00     0.000 HD 
HETATM   33  C   UNL     1     -10.477  12.455  68.185  1.00  0.00    -0.228 C  
BRANCH  27  34
HETATM   34  O   UNL     1      -9.589  15.505  66.625  1.00  0.00    -0.229 OA 
BRANCH  34  35
HETATM   35  C   UNL     1      -9.848  16.904  66.708  1.00  0.00    -0.279 C  
HETATM   36  C   UNL     1      -9.855  17.446  68.131  1.00  0.00    -0.301 C  
HETATM   37  C   UNL     1      -8.501  17.173  68.768  1.00  0.00    -0.225 C  
HETATM   38  O   UNL     1      -8.466  17.641  70.120  1.00  0.00     1.875 OA 
HETATM   39  C   UNL     1      -7.347  17.771  67.938  1.00  0.00    -0.215 C  
HETATM   40  O   UNL     1      -8.869  17.616  65.943  1.00  0.00    -0.521 OA 
HETATM   41  C   UNL     1      -7.520  17.539  66.410  1.00  0.00    -0.299 C  
HETATM   42  H   UNL     1      -7.621  17.471  70.518  1.00  0.00     0.000 HD 
HETATM   43  C   UNL     1      -6.829  16.298  65.843  1.00  0.00     1.946 C  
BRANCH  39  44
HETATM   44  O   UNL     1      -7.209  19.201  68.092  1.00  0.00    -0.251 OA 
BRANCH  44  45
HETATM   45  C   UNL     1      -6.272  19.907  67.278  1.00  0.00    -0.184 C  
HETATM   46  C   UNL     1      -5.915  19.238  65.953  1.00  0.00    -0.203 C  
HETATM   47  C   UNL     1      -7.167  19.144  65.090  1.00  0.00     0.373 C  
HETATM   48  C   UNL     1      -7.714  20.548  64.820  1.00  0.00     0.927 C  
HETATM   49  O   UNL     1      -6.847  18.516  63.843  1.00  0.00     1.997 OA 
HETATM   50  H   UNL     1      -7.628  18.457  63.305  1.00  0.00     0.000 HD 
HETATM   51  O   UNL     1      -6.786  21.233  63.958  1.00  0.00    -0.516 OA 
HETATM   52  C   UNL     1      -7.888  21.341  66.128  1.00  0.00     1.300 C  
HETATM   53  C   UNL     1      -9.184  20.995  66.857  1.00  0.00     0.047 C  
HETATM   54  O   UNL     1      -6.763  21.232  67.016  1.00  0.00    -0.439 OA 
HETATM   55  H   UNL     1      -7.126  22.105  63.790  1.00  0.00     0.000 HD 
ENDBRANCH  44  45
ENDBRANCH  39  44
ENDBRANCH  34  35
ENDBRANCH  27  34
ENDBRANCH  24  25
ENDBRANCH  16  24
BRANCH  14  56
HETATM   56  C   UNL     1      -6.817   5.144  66.330  1.00  0.00    -0.058 C  
HETATM   57  C   UNL     1      -6.363   4.108  65.378  1.00  0.00    -0.032 C  
HETATM   58  C   UNL     1      -6.722   3.173  67.410  1.00  0.00    -0.045 C  
HETATM   59  O   UNL     1      -6.297   2.910  66.153  1.00  0.00    -0.027 OA 
HETATM   60  O   UNL     1      -6.835   2.366  68.317  1.00  0.00    -0.041 OA 
HETATM   61  C   UNL     1      -7.044   4.588  67.521  1.00  0.00    -0.065 C  
ENDBRANCH  14  56
TORSDOF 7
ENDMDL
MODEL       78
REMARK 921   NORMALIZED FREE ENERGY PREDICTED BY IDOCK:   51.19 KCAL/MOL
REMARK 922        TOTAL FREE ENERGY PREDICTED BY IDOCK:   70.30 KCAL/MOL
REMARK 923 INTER-LIGAND FREE ENERGY PREDICTED BY IDOCK:   60.23 KCAL/MOL
REMARK 924 INTRA-LIGAND FREE ENERGY PREDICTED BY IDOCK:   10.07 KCAL/MOL
REMARK 927      BINDING AFFINITY PREDICTED BY RF-SCORE:    0.00 PKD
ROOT
HETATM    1  C   UNL     1      -6.514  13.227  66.095  1.00  0.00     4.262 C  
HETATM    2  C   UNL     1      -6.766  12.563  67.456  1.00  0.00    -0.151 C  
HETATM    3  C   UNL     1      -8.164  12.775  68.007  1.00  0.00    -0.168 C  
HETATM    4  C   UNL     1      -8.491  14.264  68.208  1.00  0.00    -0.167 C  
HETATM    5  C   UNL     1      -8.145  15.077  66.954  1.00  0.00    -0.161 C  
HETATM    6  C   UNL     1      -6.971  14.710  66.009  1.00  0.00     5.043 C  
HETATM    7  C   UNL     1      -8.319  16.588  67.174  1.00  0.00    -0.206 C  
HETATM    8  C   UNL     1      -5.710  15.573  66.283  1.00  0.00     3.160 C  
HETATM    9  C   UNL     1      -9.805  16.876  67.322  1.00  0.00    -0.265 C  
HETATM   10  C   UNL     1      -7.527  15.012  64.567  1.00  0.00    14.961 C  
HETATM   11  C   UNL     1      -8.695  14.068  64.181  1.00  0.00     7.282 C  
HETATM   12  O   UNL     1     -10.467  16.625  66.078  1.00  0.00    -0.327 OA 
HETATM   13  C   UNL     1     -10.440  16.051  68.468  1.00  0.00    -0.258 C  
HETATM   14  C   UNL     1      -9.855  16.483  69.848  1.00  0.00     0.313 C  
HETATM   15  C   UNL     1     -11.986  16.190  68.362  1.00  0.00     0.196 C  
HETATM   16  C   UNL     1      -8.279  12.601  64.233  1.00  0.00     4.538 C  
HETATM   17  H   UNL     1     -11.395  16.805  66.170  1.00  0.00     0.000 HD 
HETATM   18  O   UNL     1     -10.835  13.797  67.562  1.00  0.00    -0.261 OA 
HETATM   19  C   UNL     1     -10.263  15.351  70.803  1.00  0.00     0.348 C  
HETATM   20  H   UNL     1     -11.757  13.948  67.738  1.00  0.00     0.000 HD 
HETATM   21  C   UNL     1      -6.900  12.383  64.862  1.00  0.00     6.327 C  
HETATM   22  C   UNL     1     -10.036  14.518  68.502  1.00  0.00    -0.242 C  
HETATM   23  C   UNL     1     -10.448  14.101  69.926  1.00  0.00     0.400 C  
ENDROOT
BRANCH  16  24
HETATM   24  O   UNL     1      -9.196  11.731  64.891  1.00  0.00    -0.031 OA 
BRANCH  24  25
HETATM   25  C   UNL     1      -9.113  10.312  64.692  1.00  0.00    -0.228 C  
HETATM   26  O   UNL     1      -6.867   9.218  67.470  1.00  0.00    -0.075 OA 
HETATM   27  C   UNL     1      -9.038   8.269  66.868  1.00  0.00    -0.150 C  
HETATM   28  C   UNL     1      -7.843   9.710  65.288  1.00  0.00    -0.115 C  
HETATM   29  C   UNL     1      -8.082   9.459  66.765  1.00  0.00    -0.109 C  
HETATM   30  O   UNL     1     -10.318   9.811  65.283  1.00  0.00    -0.111 OA 
HETATM   31  C   UNL     1     -10.333   8.612  66.068  1.00  0.00     0.522 C  
HETATM   32  H   UNL     1      -7.016   9.061  68.395  1.00  0.00     0.000 HD 
HETATM   33  C   UNL     1     -11.546   8.767  66.998  1.00  0.00     2.652 C  
BRANCH  27  34
HETATM   34  O   UNL     1      -8.538   7.057  66.253  1.00  0.00    -0.127 OA 
BRANCH  34  35
HETATM   35  C   UNL     1      -8.373   5.872  67.028  1.00  0.00    -0.105 C  
HETATM   36  C   UNL     1      -7.347   6.004  68.145  1.00  0.00    -0.085 C  
HETATM   37  C   UNL     1      -7.776   7.127  69.077  1.00  0.00    -0.109 C  
HETATM   38  O   UNL     1      -6.828   7.309  70.132  1.00  0.00    -0.056 OA 
HETATM   39  C   UNL     1      -9.197   6.898  69.634  1.00  0.00    -0.146 C  
HETATM   40  O   UNL     1      -9.634   5.494  67.594  1.00  0.00    -0.115 OA 
HETATM   41  C   UNL     1     -10.195   6.395  68.552  1.00  0.00    -0.175 C  
HETATM   42  H   UNL     1      -7.095   8.010  70.714  1.00  0.00     0.000 HD 
HETATM   43  C   UNL     1     -11.015   7.478  67.849  1.00  0.00    -0.027 C  
BRANCH  39  44
HETATM   44  O   UNL     1      -9.249   5.911  70.687  1.00  0.00    -0.150 OA 
BRANCH  44  45
HETATM   45  C   UNL     1      -8.969   4.544  70.381  1.00  0.00    -0.094 C  
HETATM   46  C   UNL     1      -7.918   3.874  71.263  1.00  0.00    -0.067 C  
HETATM   47  C   UNL     1      -8.421   3.843  72.700  1.00  0.00    -0.099 C  
HETATM   48  C   UNL     1      -9.727   3.048  72.772  1.00  0.00    -0.122 C  
HETATM   49  O   UNL     1      -7.443   3.218  73.540  1.00  0.00    -0.053 OA 
HETATM   50  H   UNL     1      -7.757   3.199  74.436  1.00  0.00     0.000 HD 
HETATM   51  O   UNL     1      -9.425   1.664  72.513  1.00  0.00    -0.073 OA 
HETATM   52  C   UNL     1     -10.749   3.558  71.740  1.00  0.00     0.699 C  
HETATM   53  C   UNL     1     -11.499   4.799  72.219  1.00  0.00     0.293 C  
HETATM   54  O   UNL     1     -10.184   3.778  70.438  1.00  0.00     0.107 OA 
HETATM   55  H   UNL     1     -10.236   1.171  72.558  1.00  0.00     0.000 HD 
ENDBRANCH  44  45
ENDBRANCH  39  44
ENDBRANCH  34  35
ENDBRANCH  27  34
ENDBRANCH  24  25
ENDBRANCH  16  24
BRANCH  14  56
HETATM   56  C   UNL     1     -10.043  17.879  70.353  1.00  0.00     1.752 C  
HETATM   57  C   UNL     1      -9.794  19.128  69.603  1.00  0.00     0.220 C  
HETATM   58  C   UNL     1     -10.336  19.620  71.746  1.00  0.00     3.377 C  
HETATM   59  O   UNL     1     -10.037  20.171  70.547  1.00  0.00     0.442 OA 
HETATM   60  O   UNL     1     -10.555  20.224  72.782  1.00  0.00     4.006 OA 
HETATM   61  C   UNL     1     -10.346  18.171  71.619  1.00  0.00     3.953 C  
ENDBRANCH  14  56
TORSDOF 7
ENDMDL
MODEL       79
REMARK 921   NORMALIZED FREE ENERGY PREDICTED BY IDOCK:   57.12 KCAL/MOL
REMARK 922        TOTAL FREE ENERGY PREDICTED BY IDOCK:   78.65 KCAL/MOL
REMARK 923 INTER-LIGAND FREE ENERGY PREDICTED BY IDOCK:   10.01 KCAL/MOL
REMARK 924 INTRA-LIGAND FREE ENERGY PREDICTED BY IDOCK:   68.64 KCAL/MOL
REMARK 927      BINDING AFFINITY PREDICTED BY RF-SCORE:    0.00 PKD
ROOT
HETATM    1  C   UNL     1      -6.549  13.088  67.247  1.00  0.00    -0.004 C  
HETATM    2  C   UNL     1      -7.033  12.397  65.964  1.00  0.00     2.111 C  
HETATM    3  C   UNL     1      -8.339  11.641  66.116  1.00  0.00     0.036 C  
HETATM    4  C   UNL     1      -8.248  10.528  67.173  1.00  0.00    -0.123 C  
HETATM    5  C   UNL     1      -7.638  11.057  68.476  1.00  0.00    -0.114 C  
HETATM    6  C   UNL     1      -6.572  12.184  68.511  1.00  0.00    -0.063 C  
HETATM    7  C   UNL     1      -7.395   9.938  69.501  1.00  0.00    -0.102 C  
HETATM    8  C   UNL     1      -5.135  11.622  68.675  1.00  0.00    -0.046 C  
HETATM    9  C   UNL     1      -8.748   9.436  69.982  1.00  0.00    -0.210 C  
HETATM   10  C   UNL     1      -6.960  13.043  69.772  1.00  0.00     0.370 C  
HETATM   11  C   UNL     1      -8.327  13.755  69.597  1.00  0.00     1.118 C  
HETATM   12  O   UNL     1      -9.399  10.464  70.734  1.00  0.00     0.105 OA 
HETATM   13  C   UNL     1      -9.635   8.957  68.806  1.00  0.00    -0.159 C  
HETATM   14  C   UNL     1      -9.013   7.701  68.122  1.00  0.00    -0.126 C  
HETATM   15  C   UNL     1     -11.076   8.735  69.350  1.00  0.00     0.049 C  
HETATM   16  C   UNL     1      -8.336  14.670  68.376  1.00  0.00    -0.157 C  
HETATM   17  H   UNL     1     -10.245  10.150  71.035  1.00  0.00     0.000 HD 
HETATM   18  O   UNL     1     -10.601  10.984  67.798  1.00  0.00    -0.188 OA 
HETATM   19  C   UNL     1      -9.758   7.591  66.783  1.00  0.00    -0.283 C  
HETATM   20  H   UNL     1     -11.451  10.623  68.024  1.00  0.00     0.000 HD 
HETATM   21  C   UNL     1      -7.100  14.509  67.487  1.00  0.00    -0.199 C  
HETATM   22  C   UNL     1      -9.674   9.924  67.551  1.00  0.00    -0.160 C  
HETATM   23  C   UNL     1     -10.245   9.012  66.450  1.00  0.00    -0.297 C  
ENDROOT
BRANCH  16  24
HETATM   24  O   UNL     1      -9.486  14.558  67.541  1.00  0.00    -0.197 OA 
BRANCH  24  25
HETATM   25  C   UNL     1     -10.774  14.961  68.032  1.00  0.00    -0.253 C  
HETATM   26  O   UNL     1     -12.432  11.697  68.778  1.00  0.00    -0.272 OA 
HETATM   27  C   UNL     1     -12.261  13.637  70.256  1.00  0.00    -0.353 C  
HETATM   28  C   UNL     1     -11.834  13.876  67.856  1.00  0.00    -0.413 C  
HETATM   29  C   UNL     1     -11.724  12.910  69.022  1.00  0.00    -0.327 C  
HETATM   30  O   UNL     1     -10.527  15.307  69.400  1.00  0.00    -0.226 OA 
HETATM   31  C   UNL     1     -11.439  14.950  70.446  1.00  0.00    -0.266 C  
HETATM   32  H   UNL     1     -12.363  11.092  69.507  1.00  0.00     0.000 HD 
HETATM   33  C   UNL     1     -10.578  14.898  71.717  1.00  0.00     1.174 C  
BRANCH  27  34
HETATM   34  O   UNL     1     -13.634  14.078  70.130  1.00  0.00     0.581 OA 
BRANCH  34  35
HETATM   35  C   UNL     1     -13.932  15.460  69.951  1.00  0.00     2.028 C  
HETATM   36  C   UNL     1     -13.708  16.307  71.197  1.00  0.00     2.210 C  
HETATM   37  C   UNL     1     -12.251  16.184  71.619  1.00  0.00    -0.367 C  
HETATM   38  O   UNL     1     -11.995  16.942  72.804  1.00  0.00    -0.408 OA 
HETATM   39  C   UNL     1     -11.289  16.582  70.480  1.00  0.00    -0.052 C  
HETATM   40  O   UNL     1     -13.135  15.984  68.881  1.00  0.00     1.116 OA 
HETATM   41  C   UNL     1     -11.722  16.014  69.098  1.00  0.00    -0.307 C  
HETATM   42  H   UNL     1     -11.086  16.866  73.068  1.00  0.00     0.000 HD 
HETATM   43  C   UNL     1     -11.093  14.678  68.702  1.00  0.00    -0.276 C  
BRANCH  39  44
HETATM   44  O   UNL     1     -11.186  18.010  70.288  1.00  0.00     1.838 OA 
BRANCH  44  45
HETATM   45  C   UNL     1      -9.937  18.576  69.887  1.00  0.00     0.838 C  
HETATM   46  C   UNL     1      -9.145  17.765  68.864  1.00  0.00    -0.129 C  
HETATM   47  C   UNL     1      -9.949  17.673  67.573  1.00  0.00    -0.322 C  
HETATM   48  C   UNL     1     -10.204  19.078  67.022  1.00  0.00    -0.386 C  
HETATM   49  O   UNL     1      -9.219  16.913  66.603  1.00  0.00    -0.232 OA 
HETATM   50  H   UNL     1      -9.720  16.855  65.799  1.00  0.00     0.000 HD 
HETATM   51  O   UNL     1      -8.947  19.619  66.574  1.00  0.00    -0.334 OA 
HETATM   52  C   UNL     1     -10.810  19.999  68.097  1.00  0.00     0.179 C  
HETATM   53  C   UNL     1     -12.316  19.806  68.253  1.00  0.00     4.708 C  
HETATM   54  O   UNL     1     -10.152  19.900  69.370  1.00  0.00    -0.357 OA 
HETATM   55  H   UNL     1      -9.104  20.491  66.231  1.00  0.00     0.000 HD 
ENDBRANCH  44  45
ENDBRANCH  39  44
ENDBRANCH  34  35
ENDBRANCH  27  34
ENDBRANCH  24  25
ENDBRANCH  16  24
BRANCH  14  56
HETATM   56  C   UNL     1      -8.828   6.428  68.887  1.00  0.00    -0.125 C  
HETATM   57  C   UNL     1      -7.556   5.900  69.423  1.00  0.00    -0.092 C  
HETATM   58  C   UNL     1      -9.210   4.391  69.758  1.00  0.00    -0.131 C  
HETATM   59  O   UNL     1      -7.899   4.633  69.983  1.00  0.00    -0.059 OA 
HETATM   60  O   UNL     1      -9.821   3.381  70.065  1.00  0.00    -0.113 OA 
HETATM   61  C   UNL     1      -9.797   5.530  69.070  1.00  0.00    -0.220 C  
ENDBRANCH  14  56
TORSDOF 7
ENDMDL
MODEL       80
REMARK 921   NORMALIZED FREE ENERGY PREDICTED BY IDOCK:   59.13 KCAL/MOL
REMARK 922        TOTAL FREE ENERGY PREDICTED BY IDOCK:   81.48 KCAL/MOL
REMARK 923 INTER-LIGAND FREE ENERGY PREDICTED BY IDOCK:   52.89 KCAL/MOL
REMARK 924 INTRA-LIGAND FREE ENERGY PREDICTED BY IDOCK:   28.59 KCAL/MOL
REMARK 927      BINDING AFFINITY PREDICTED BY RF-SCORE:    0.00 PKD
ROOT
HETATM    1  C   UNL     1      -9.291   7.756  66.014  1.00  0.00    -0.102 C  
HETATM    2  C   UNL     1     -10.588   7.034  65.625  1.00  0.00     2.515 C  
HETATM    3  C   UNL     1     -11.739   7.254  66.589  1.00  0.00     2.639 C  
HETATM    4  C   UNL     1     -11.409   6.770  68.011  1.00  0.00    -0.013 C  
HETATM    5  C   UNL     1     -10.050   7.310  68.472  1.00  0.00    -0.182 C  
HETATM    6  C   UNL     1      -8.870   7.568  67.498  1.00  0.00    -0.127 C  
HETATM    7  C   UNL     1      -9.621   6.725  69.828  1.00  0.00    -0.153 C  
HETATM    8  C   UNL     1      -7.835   6.413  67.517  1.00  0.00    -0.105 C  
HETATM    9  C   UNL     1     -10.549   7.283  70.897  1.00  0.00    -0.220 C  
HETATM   10  C   UNL     1      -8.209   8.892  68.035  1.00  0.00    -0.110 C  
HETATM   11  C   UNL     1      -9.153  10.116  67.896  1.00  0.00    -0.133 C  
HETATM   12  O   UNL     1     -10.326   8.689  71.036  1.00  0.00    -0.196 OA 
HETATM   13  C   UNL     1     -12.035   6.982  70.584  1.00  0.00    -0.361 C  
HETATM   14  C   UNL     1     -12.311   5.447  70.640  1.00  0.00     3.592 C  
HETATM   15  C   UNL     1     -12.912   7.820  71.559  1.00  0.00    -0.357 C  
HETATM   16  C   UNL     1      -9.571  10.346  66.447  1.00  0.00    -0.179 C  
HETATM   17  H   UNL     1     -10.905   9.038  71.705  1.00  0.00     0.000 HD 
HETATM   18  O   UNL     1     -12.743   8.649  68.918  1.00  0.00     3.478 OA 
HETATM   19  C   UNL     1     -13.670   5.281  69.942  1.00  0.00    14.042 C  
HETATM   20  H   UNL     1     -13.382   8.937  69.560  1.00  0.00     0.000 HD 
HETATM   21  C   UNL     1      -9.160   9.208  65.508  1.00  0.00    -0.275 C  
HETATM   22  C   UNL     1     -12.479   7.255  69.087  1.00  0.00     2.789 C  
HETATM   23  C   UNL     1     -13.809   6.484  68.993  1.00  0.00    12.474 C  
ENDROOT
BRANCH  16  24
HETATM   24  O   UNL     1     -10.960  10.591  66.246  1.00  0.00    -0.063 OA 
BRANCH  24  25
HETATM   25  C   UNL     1     -11.445  11.937  66.127  1.00  0.00    -0.288 C  
HETATM   26  O   UNL     1     -13.909  12.180  68.925  1.00  0.00     5.214 OA 
HETATM   27  C   UNL     1     -12.098  13.741  68.414  1.00  0.00    -0.289 C  
HETATM   28  C   UNL     1     -12.833  12.117  66.735  1.00  0.00     2.822 C  
HETATM   29  C   UNL     1     -12.675  12.337  68.228  1.00  0.00     1.833 C  
HETATM   30  O   UNL     1     -10.432  12.724  66.766  1.00  0.00    -0.240 OA 
HETATM   31  C   UNL     1     -10.758  13.829  67.618  1.00  0.00    -0.249 C  
HETATM   32  H   UNL     1     -13.810  12.318  69.859  1.00  0.00     0.000 HD 
HETATM   33  C   UNL     1      -9.552  13.970  68.558  1.00  0.00    -0.201 C  
BRANCH  27  34
HETATM   34  O   UNL     1     -12.922  14.796  67.862  1.00  0.00     1.138 OA 
BRANCH  34  35
HETATM   35  C   UNL     1     -12.598  16.163  68.101  1.00  0.00     1.785 C  
HETATM   36  C   UNL     1     -12.112  16.442  69.517  1.00  0.00     0.453 C  
HETATM   37  C   UNL     1     -10.871  15.604  69.785  1.00  0.00    -0.308 C  
HETATM   38  O   UNL     1     -10.391  15.812  71.116  1.00  0.00     0.253 OA 
HETATM   39  C   UNL     1      -9.765  15.868  68.743  1.00  0.00    -0.216 C  
HETATM   40  O   UNL     1     -11.593  16.585  67.171  1.00  0.00     0.367 OA 
HETATM   41  C   UNL     1     -10.315  15.955  67.290  1.00  0.00    -0.293 C  
HETATM   42  H   UNL     1      -9.616  15.289  71.285  1.00  0.00     0.000 HD 
HETATM   43  C   UNL     1     -10.285  14.652  66.489  1.00  0.00    -0.282 C  
BRANCH  39  44
HETATM   44  O   UNL     1      -9.059  17.109  68.956  1.00  0.00    -0.230 OA 
BRANCH  44  45
HETATM   45  C   UNL     1      -9.797  18.326  69.078  1.00  0.00    -0.250 C  
HETATM   46  C   UNL     1      -8.960  19.590  69.259  1.00  0.00    -0.021 C  
HETATM   47  C   UNL     1      -8.098  19.795  68.020  1.00  0.00    -0.303 C  
HETATM   48  C   UNL     1      -8.993  19.950  66.788  1.00  0.00    -0.360 C  
HETATM   49  O   UNL     1      -7.305  20.978  68.176  1.00  0.00    -0.002 OA 
HETATM   50  H   UNL     1      -6.767  21.107  67.404  1.00  0.00     0.000 HD 
HETATM   51  O   UNL     1      -9.695  21.203  66.897  1.00  0.00    -0.586 OA 
HETATM   52  C   UNL     1     -10.007  18.796  66.686  1.00  0.00    -0.365 C  
HETATM   53  C   UNL     1      -9.403  17.537  66.067  1.00  0.00    -0.080 C  
HETATM   54  O   UNL     1     -10.650  18.489  67.933  1.00  0.00    -0.392 OA 
HETATM   55  H   UNL     1     -10.250  21.299  66.132  1.00  0.00     0.000 HD 
ENDBRANCH  44  45
ENDBRANCH  39  44
ENDBRANCH  34  35
ENDBRANCH  27  34
ENDBRANCH  24  25
ENDBRANCH  16  24
BRANCH  14  56
HETATM   56  C   UNL     1     -12.118   4.683  71.912  1.00  0.00     2.269 C  
HETATM   57  C   UNL     1     -12.864   4.873  73.174  1.00  0.00     1.381 C  
HETATM   58  C   UNL     1     -11.212   3.355  73.484  1.00  0.00    -0.180 C  
HETATM   59  O   UNL     1     -12.249   3.972  74.095  1.00  0.00     0.992 OA 
HETATM   60  O   UNL     1     -10.445   2.556  73.994  1.00  0.00    -0.127 OA 
HETATM   61  C   UNL     1     -11.135   3.802  72.101  1.00  0.00     0.693 C  
ENDBRANCH  14  56
TORSDOF 7
ENDMDL
MODEL       81
REMARK 921   NORMALIZED FREE ENERGY PREDICTED BY IDOCK:   61.77 KCAL/MOL
REMARK 922        TOTAL FREE ENERGY PREDICTED BY IDOCK:   85.20 KCAL/MOL
REMARK 923 INTER-LIGAND FREE ENERGY PREDICTED BY IDOCK:   -1.69 KCAL/MOL
REMARK 924 INTRA-LIGAND FREE ENERGY PREDICTED BY IDOCK:   86.89 KCAL/MOL
REMARK 927      BINDING AFFINITY PREDICTED BY RF-SCORE:    0.00 PKD
ROOT
HETATM    1  C   UNL     1     -10.191   9.057  69.322  1.00  0.00    -0.210 C  
HETATM    2  C   UNL     1     -11.033   9.160  68.042  1.00  0.00    -0.032 C  
HETATM    3  C   UNL     1     -10.441  10.061  66.975  1.00  0.00    -0.302 C  
HETATM    4  C   UNL     1     -10.262  11.507  67.468  1.00  0.00    -0.207 C  
HETATM    5  C   UNL     1      -9.553  11.540  68.827  1.00  0.00    -0.112 C  
HETATM    6  C   UNL     1      -9.717  10.423  69.891  1.00  0.00    -0.017 C  
HETATM    7  C   UNL     1      -9.492  12.958  69.418  1.00  0.00     1.130 C  
HETATM    8  C   UNL     1     -10.734  10.814  70.996  1.00  0.00     1.368 C  
HETATM    9  C   UNL     1      -8.546  13.785  68.561  1.00  0.00    -0.122 C  
HETATM   10  C   UNL     1      -8.279  10.269  70.514  1.00  0.00     0.790 C  
HETATM   11  C   UNL     1      -7.251   9.730  69.485  1.00  0.00    -0.087 C  
HETATM   12  O   UNL     1      -7.212  13.288  68.706  1.00  0.00    -0.102 OA 
HETATM   13  C   UNL     1      -8.978  13.799  67.074  1.00  0.00    -0.247 C  
HETATM   14  C   UNL     1     -10.344  14.532  66.903  1.00  0.00    -0.264 C  
HETATM   15  C   UNL     1      -7.818  14.417  66.241  1.00  0.00     1.667 C  
HETATM   16  C   UNL     1      -7.672   8.377  68.919  1.00  0.00    -0.105 C  
HETATM   17  H   UNL     1      -6.620  13.806  68.171  1.00  0.00     0.000 HD 
HETATM   18  O   UNL     1      -8.199  11.674  66.108  1.00  0.00    -0.361 OA 
HETATM   19  C   UNL     1     -10.817  14.128  65.498  1.00  0.00    -0.312 C  
HETATM   20  H   UNL     1      -7.674  12.199  65.516  1.00  0.00     0.000 HD 
HETATM   21  C   UNL     1      -9.095   7.971  69.312  1.00  0.00    -0.148 C  
HETATM   22  C   UNL     1      -9.381  12.388  66.475  1.00  0.00    -0.233 C  
HETATM   23  C   UNL     1     -10.141  12.780  65.194  1.00  0.00    -0.246 C  
ENDROOT
BRANCH  16  24
HETATM   24  O   UNL     1      -7.561   8.249  67.504  1.00  0.00    -0.095 OA 
BRANCH  24  25
HETATM   25  C   UNL     1      -8.028   7.059  66.850  1.00  0.00    -0.115 C  
HETATM   26  O   UNL     1      -5.156   4.706  67.263  1.00  0.00    -0.007 OA 
HETATM   27  C   UNL     1      -7.506   4.268  67.772  1.00  0.00    -0.069 C  
HETATM   28  C   UNL     1      -6.886   6.172  66.361  1.00  0.00    -0.062 C  
HETATM   29  C   UNL     1      -6.418   5.314  67.522  1.00  0.00    -0.052 C  
HETATM   30  O   UNL     1      -8.862   6.433  67.832  1.00  0.00    -0.115 OA 
HETATM   31  C   UNL     1      -8.850   5.015  68.041  1.00  0.00    -0.103 C  
HETATM   32  H   UNL     1      -4.862   4.169  67.989  1.00  0.00     0.000 HD 
HETATM   33  C   UNL     1      -9.320   4.827  69.491  1.00  0.00    -0.198 C  
BRANCH  27  34
HETATM   34  O   UNL     1      -7.780   3.419  66.632  1.00  0.00    -0.079 OA 
BRANCH  34  35
HETATM   35  C   UNL     1      -7.942   3.985  65.335  1.00  0.00    -0.093 C  
HETATM   36  C   UNL     1      -9.382   4.349  64.996  1.00  0.00    -0.164 C  
HETATM   37  C   UNL     1      -9.890   5.352  66.022  1.00  0.00    -0.094 C  
HETATM   38  O   UNL     1     -11.251   5.706  65.762  1.00  0.00    -0.508 OA 
HETATM   39  C   UNL     1      -8.989   6.603  66.094  1.00  0.00    -0.139 C  
HETATM   40  O   UNL     1      -7.126   5.158  65.221  1.00  0.00    -0.063 OA 
HETATM   41  C   UNL     1      -7.473   6.257  66.067  1.00  0.00    -0.082 C  
HETATM   42  H   UNL     1     -11.569   6.332  66.402  1.00  0.00     0.000 HD 
HETATM   43  C   UNL     1      -6.800   6.112  67.433  1.00  0.00    -0.063 C  
BRANCH  39  44
HETATM   44  O   UNL     1      -9.189   7.519  64.996  1.00  0.00     0.469 OA 
BRANCH  44  45
HETATM   45  C   UNL     1      -8.908   8.907  65.180  1.00  0.00    -0.166 C  
HETATM   46  C   UNL     1      -7.639   9.224  65.968  1.00  0.00    -0.096 C  
HETATM   47  C   UNL     1      -6.434   8.693  65.203  1.00  0.00    -0.064 C  
HETATM   48  C   UNL     1      -6.359   9.364  63.828  1.00  0.00    -0.094 C  
HETATM   49  O   UNL     1      -5.234   8.982  65.932  1.00  0.00    -0.035 OA 
HETATM   50  H   UNL     1      -4.483   8.651  65.454  1.00  0.00     0.000 HD 
HETATM   51  O   UNL     1      -6.026  10.751  64.024  1.00  0.00    -0.368 OA 
HETATM   52  C   UNL     1      -7.700   9.254  63.080  1.00  0.00    -0.121 C  
HETATM   53  C   UNL     1      -7.879   7.903  62.392  1.00  0.00    -0.139 C  
HETATM   54  O   UNL     1      -8.839   9.559  63.901  1.00  0.00    -0.219 OA 
HETATM   55  H   UNL     1      -5.979  11.167  63.170  1.00  0.00     0.000 HD 
ENDBRANCH  44  45
ENDBRANCH  39  44
ENDBRANCH  34  35
ENDBRANCH  27  34
ENDBRANCH  24  25
ENDBRANCH  16  24
BRANCH  14  56
HETATM   56  C   UNL     1     -10.485  15.977  67.262  1.00  0.00    -0.308 C  
HETATM   57  C   UNL     1     -11.678  16.628  67.841  1.00  0.00     0.493 C  
HETATM   58  C   UNL     1     -10.105  18.191  67.379  1.00  0.00    -0.351 C  
HETATM   59  O   UNL     1     -11.336  18.013  67.912  1.00  0.00     0.116 OA 
HETATM   60  O   UNL     1      -9.526  19.255  67.241  1.00  0.00    -0.304 OA 
HETATM   61  C   UNL     1      -9.566  16.902  66.975  1.00  0.00    -0.252 C  
ENDBRANCH  14  56
TORSDOF 7
ENDMDL
MODEL       82
REMARK 921   NORMALIZED FREE ENERGY PREDICTED BY IDOCK:   63.95 KCAL/MOL
REMARK 922        TOTAL FREE ENERGY PREDICTED BY IDOCK:   88.28 KCAL/MOL
REMARK 923 INTER-LIGAND FREE ENERGY PREDICTED BY IDOCK:   13.98 KCAL/MOL
REMARK 924 INTRA-LIGAND FREE ENERGY PREDICTED BY IDOCK:   74.29 KCAL/MOL
REMARK 927      BINDING AFFINITY PREDICTED BY RF-SCORE:    0.00 PKD
ROOT
HETATM    1  C   UNL     1      -7.795   5.680  72.907  1.00  0.00    -0.098 C  
HETATM    2  C   UNL     1      -6.488   6.017  72.175  1.00  0.00    -0.058 C  
HETATM    3  C   UNL     1      -6.676   6.780  70.878  1.00  0.00    -0.054 C  
HETATM    4  C   UNL     1      -7.528   6.001  69.862  1.00  0.00    -0.080 C  
HETATM    5  C   UNL     1      -8.815   5.477  70.512  1.00  0.00    -0.145 C  
HETATM    6  C   UNL     1      -8.896   5.059  72.003  1.00  0.00    -0.139 C  
HETATM    7  C   UNL     1      -9.616   4.568  69.566  1.00  0.00    -0.266 C  
HETATM    8  C   UNL     1      -8.795   3.521  72.184  1.00  0.00    -0.122 C  
HETATM    9  C   UNL     1     -10.172   5.430  68.442  1.00  0.00    -0.163 C  
HETATM   10  C   UNL     1     -10.313   5.563  72.469  1.00  0.00    -0.246 C  
HETATM   11  C   UNL     1     -10.417   7.111  72.453  1.00  0.00    -0.247 C  
HETATM   12  O   UNL     1     -11.149   6.333  68.971  1.00  0.00    -0.339 OA 
HETATM   13  C   UNL     1      -9.052   6.194  67.695  1.00  0.00    -0.109 C  
HETATM   14  C   UNL     1      -8.110   5.201  66.947  1.00  0.00    -0.108 C  
HETATM   15  C   UNL     1      -9.724   7.250  66.769  1.00  0.00    -0.260 C  
HETATM   16  C   UNL     1      -9.364   7.758  73.348  1.00  0.00    -0.285 C  
HETATM   17  H   UNL     1     -11.496   6.871  68.269  1.00  0.00     0.000 HD 
HETATM   18  O   UNL     1      -8.496   8.145  69.089  1.00  0.00    -0.132 OA 
HETATM   19  C   UNL     1      -6.870   6.041  66.603  1.00  0.00    -0.062 C  
HETATM   20  H   UNL     1      -8.764   8.679  68.350  1.00  0.00     0.000 HD 
HETATM   21  C   UNL     1      -8.318   6.768  73.868  1.00  0.00    -0.144 C  
HETATM   22  C   UNL     1      -7.977   6.897  68.624  1.00  0.00    -0.120 C  
HETATM   23  C   UNL     1      -6.824   7.175  67.641  1.00  0.00    -0.074 C  
ENDROOT
BRANCH  16  24
HETATM   24  O   UNL     1      -8.667   8.858  72.769  1.00  0.00    -0.347 OA 
BRANCH  24  25
HETATM   25  C   UNL     1      -8.892   9.212  71.396  1.00  0.00    -0.045 C  
HETATM   26  O   UNL     1      -7.062  12.452  71.066  1.00  0.00     1.769 OA 
HETATM   27  C   UNL     1      -6.888  10.504  69.600  1.00  0.00    -0.117 C  
HETATM   28  C   UNL     1      -8.773  10.713  71.150  1.00  0.00     4.274 C  
HETATM   29  C   UNL     1      -7.305  11.051  70.966  1.00  0.00     3.015 C  
HETATM   30  O   UNL     1      -7.927   8.433  70.679  1.00  0.00    -0.089 OA 
HETATM   31  C   UNL     1      -7.191   8.973  69.573  1.00  0.00    -0.060 C  
HETATM   32  H   UNL     1      -6.144  12.664  70.952  1.00  0.00     0.000 HD 
HETATM   33  C   UNL     1      -5.901   8.143  69.516  1.00  0.00    -0.026 C  
BRANCH  27  34
HETATM   34  O   UNL     1      -7.645  11.047  68.492  1.00  0.00    -0.099 OA 
BRANCH  34  35
HETATM   35  C   UNL     1      -8.472  10.198  67.700  1.00  0.00    -0.118 C  
HETATM   36  C   UNL     1      -8.993  10.856  66.430  1.00  0.00    -0.186 C  
HETATM   37  C   UNL     1      -7.809  11.294  65.581  1.00  0.00     0.264 C  
HETATM   38  O   UNL     1      -8.248  11.944  64.385  1.00  0.00     0.802 OA 
HETATM   39  C   UNL     1      -6.864  10.116  65.265  1.00  0.00    -0.137 C  
HETATM   40  O   UNL     1      -7.743   9.016  67.348  1.00  0.00    -0.091 OA 
HETATM   41  C   UNL     1      -6.610   9.200  66.495  1.00  0.00    -0.067 C  
HETATM   42  H   UNL     1      -7.509  12.218  63.855  1.00  0.00     0.000 HD 
HETATM   43  C   UNL     1      -5.367   9.529  67.324  1.00  0.00    -0.036 C  
BRANCH  39  44
HETATM   44  O   UNL     1      -7.367   9.237  64.234  1.00  0.00    -0.101 OA 
BRANCH  44  45
HETATM   45  C   UNL     1      -8.316   9.734  63.290  1.00  0.00    -0.169 C  
HETATM   46  C   UNL     1      -9.662  10.161  63.871  1.00  0.00    -0.236 C  
HETATM   47  C   UNL     1      -9.442  11.323  64.831  1.00  0.00    -0.196 C  
HETATM   48  C   UNL     1      -8.815  12.501  64.080  1.00  0.00     1.902 C  
HETATM   49  O   UNL     1     -10.697  11.734  65.386  1.00  0.00    -0.268 OA 
HETATM   50  H   UNL     1     -10.561  12.458  65.985  1.00  0.00     0.000 HD 
HETATM   51  O   UNL     1      -9.798  13.025  63.168  1.00  0.00    -0.058 OA 
HETATM   52  C   UNL     1      -7.564  12.062  63.298  1.00  0.00     3.255 C  
HETATM   53  C   UNL     1      -6.319  11.984  64.179  1.00  0.00     5.260 C  
HETATM   54  O   UNL     1      -7.746  10.839  62.569  1.00  0.00    -0.147 OA 
HETATM   55  H   UNL     1      -9.409  13.757  62.702  1.00  0.00     0.000 HD 
ENDBRANCH  44  45
ENDBRANCH  39  44
ENDBRANCH  34  35
ENDBRANCH  27  34
ENDBRANCH  24  25
ENDBRANCH  16  24
BRANCH  14  56
HETATM   56  C   UNL     1      -8.639   4.319  65.860  1.00  0.00    -0.114 C  
HETATM   57  C   UNL     1      -8.325   2.890  65.655  1.00  0.00    -0.095 C  
HETATM   58  C   UNL     1      -9.605   3.643  63.945  1.00  0.00    -0.153 C  
HETATM   59  O   UNL     1      -9.003   2.541  64.448  1.00  0.00    -0.106 OA 
HETATM   60  O   UNL     1     -10.233   3.710  62.902  1.00  0.00    -0.156 OA 
HETATM   61  C   UNL     1      -9.379   4.765  64.843  1.00  0.00    -0.090 C  
ENDBRANCH  14  56
TORSDOF 7
ENDMDL
MODEL       83
REMARK 921   NORMALIZED FREE ENERGY PREDICTED BY IDOCK:   65.02 KCAL/MOL
REMARK 922        TOTAL FREE ENERGY PREDICTED BY IDOCK:   89.79 KCAL/MOL
REMARK 923 INTER-LIGAND FREE ENERGY PREDICTED BY IDOCK:   31.43 KCAL/MOL
REMARK 924 INTRA-LIGAND FREE ENERGY PREDICTED BY IDOCK:   58.36 KCAL/MOL
REMARK 927      BINDING AFFINITY PREDICTED BY RF-SCORE:    0.00 PKD
ROOT
HETATM    1  C   UNL     1     -11.684  11.865  63.954  1.00  0.00    -0.509 C  
HETATM    2  C   UNL     1     -13.093  11.646  64.521  1.00  0.00     1.151 C  
HETATM    3  C   UNL     1     -13.233  11.976  65.995  1.00  0.00     4.309 C  
HETATM    4  C   UNL     1     -12.300  11.126  66.873  1.00  0.00     2.402 C  
HETATM    5  C   UNL     1     -10.867  11.141  66.326  1.00  0.00    -0.266 C  
HETATM    6  C   UNL     1     -10.543  11.251  64.813  1.00  0.00    -0.376 C  
HETATM    7  C   UNL     1      -9.942  10.182  67.092  1.00  0.00    -0.243 C  
HETATM    8  C   UNL     1     -10.215   9.871  64.184  1.00  0.00     0.778 C  
HETATM    9  C   UNL     1      -9.738  10.741  68.492  1.00  0.00    -0.182 C  
HETATM   10  C   UNL     1      -9.275  12.183  64.756  1.00  0.00     0.426 C  
HETATM   11  C   UNL     1      -9.588  13.626  65.232  1.00  0.00     0.122 C  
HETATM   12  O   UNL     1      -8.993  11.960  68.417  1.00  0.00    -0.183 OA 
HETATM   13  C   UNL     1     -11.084  10.953  69.228  1.00  0.00    -0.305 C  
HETATM   14  C   UNL     1     -11.790   9.588  69.490  1.00  0.00     0.396 C  
HETATM   15  C   UNL     1     -10.802  11.780  70.517  1.00  0.00     1.648 C  
HETATM   16  C   UNL     1     -10.691  14.271  64.397  1.00  0.00    -0.095 C  
HETATM   17  H   UNL     1      -8.866  12.309  69.292  1.00  0.00     0.000 HD 
HETATM   18  O   UNL     1     -12.010  13.069  68.380  1.00  0.00    -0.336 OA 
HETATM   19  C   UNL     1     -13.235   9.972  69.848  1.00  0.00     0.822 C  
HETATM   20  H   UNL     1     -11.962  13.385  69.275  1.00  0.00     0.000 HD 
HETATM   21  C   UNL     1     -11.385  13.291  63.447  1.00  0.00     0.042 C  
HETATM   22  C   UNL     1     -12.218  11.656  68.373  1.00  0.00     0.192 C  
HETATM   23  C   UNL     1     -13.487  11.338  69.186  1.00  0.00     3.569 C  
ENDROOT
BRANCH  16  24
HETATM   24  O   UNL     1     -11.704  14.942  65.141  1.00  0.00    -0.348 OA 
BRANCH  24  25
HETATM   25  C   UNL     1     -11.842  14.700  66.550  1.00  0.00    -0.304 C  
HETATM   26  O   UNL     1      -9.641  17.317  68.056  1.00  0.00    -0.260 OA 
HETATM   27  C   UNL     1     -11.957  16.814  68.656  1.00  0.00     0.855 C  
HETATM   28  C   UNL     1     -10.646  15.207  67.352  1.00  0.00    -0.271 C  
HETATM   29  C   UNL     1     -10.842  16.689  67.615  1.00  0.00    -0.258 C  
HETATM   30  O   UNL     1     -13.076  15.345  66.889  1.00  0.00     2.170 OA 
HETATM   31  C   UNL     1     -13.228  16.098  68.099  1.00  0.00     4.144 C  
HETATM   32  H   UNL     1      -9.763  18.244  68.221  1.00  0.00     0.000 HD 
HETATM   33  C   UNL     1     -14.354  17.099  67.800  1.00  0.00    10.214 C  
BRANCH  27  34
HETATM   34  O   UNL     1     -11.675  16.140  69.906  1.00  0.00    -0.300 OA 
BRANCH  34  35
HETATM   35  C   UNL     1     -10.335  15.804  70.256  1.00  0.00    -0.146 C  
HETATM   36  C   UNL     1      -9.701  14.763  69.344  1.00  0.00    -0.047 C  
HETATM   37  C   UNL     1      -9.702  15.294  67.918  1.00  0.00    -0.211 C  
HETATM   38  O   UNL     1      -9.140  14.338  67.015  1.00  0.00    -0.213 OA 
HETATM   39  C   UNL     1      -8.984  16.655  67.812  1.00  0.00    -0.211 C  
HETATM   40  O   UNL     1      -9.529  16.989  70.244  1.00  0.00     1.358 OA 
HETATM   41  C   UNL     1      -9.350  17.622  68.974  1.00  0.00    -0.073 C  
HETATM   42  H   UNL     1      -9.140  14.668  66.124  1.00  0.00     0.000 HD 
HETATM   43  C   UNL     1     -10.499  18.592  68.696  1.00  0.00    -0.130 C  
BRANCH  39  44
HETATM   44  O   UNL     1      -7.544  16.549  67.846  1.00  0.00    -0.146 OA 
BRANCH  44  45
HETATM   45  C   UNL     1      -6.861  16.667  69.094  1.00  0.00    -0.224 C  
HETATM   46  C   UNL     1      -7.419  15.818  70.234  1.00  0.00     0.782 C  
HETATM   47  C   UNL     1      -7.285  14.345  69.868  1.00  0.00     0.113 C  
HETATM   48  C   UNL     1      -5.809  14.000  69.653  1.00  0.00    -0.109 C  
HETATM   49  O   UNL     1      -7.807  13.535  70.928  1.00  0.00     2.656 OA 
HETATM   50  H   UNL     1      -7.723  12.617  70.700  1.00  0.00     0.000 HD 
HETATM   51  O   UNL     1      -5.141  14.072  70.926  1.00  0.00    -0.099 OA 
HETATM   52  C   UNL     1      -5.146  14.975  68.663  1.00  0.00    -0.094 C  
HETATM   53  C   UNL     1      -5.425  14.614  67.206  1.00  0.00     0.586 C  
HETATM   54  O   UNL     1      -5.470  16.352  68.914  1.00  0.00    -0.121 OA 
HETATM   55  H   UNL     1      -4.224  13.857  70.792  1.00  0.00     0.000 HD 
ENDBRANCH  44  45
ENDBRANCH  39  44
ENDBRANCH  34  35
ENDBRANCH  27  34
ENDBRANCH  24  25
ENDBRANCH  16  24
BRANCH  14  56
HETATM   56  C   UNL     1     -11.146   8.548  70.352  1.00  0.00    -0.246 C  
HETATM   57  C   UNL     1     -11.399   8.315  71.789  1.00  0.00    -0.288 C  
HETATM   58  C   UNL     1      -9.719   6.971  71.082  1.00  0.00    -0.172 C  
HETATM   59  O   UNL     1     -10.482   7.283  72.154  1.00  0.00    -0.198 OA 
HETATM   60  O   UNL     1      -8.807   6.162  71.057  1.00  0.00    -0.138 OA 
HETATM   61  C   UNL     1     -10.144   7.767  69.941  1.00  0.00    -0.203 C  
ENDBRANCH  14  56
TORSDOF 7
ENDMDL
MODEL       84
REMARK 921   NORMALIZED FREE ENERGY PREDICTED BY IDOCK:   65.05 KCAL/MOL
REMARK 922        TOTAL FREE ENERGY PREDICTED BY IDOCK:   89.83 KCAL/MOL
REMARK 923 INTER-LIGAND FREE ENERGY PREDICTED BY IDOCK:   69.66 KCAL/MOL
REMARK 924 INTRA-LIGAND FREE ENERGY PREDICTED BY IDOCK:   20.16 KCAL/MOL
REMARK 927      BINDING AFFINITY PREDICTED BY RF-SCORE:    0.00 PKD
ROOT
HETATM    1  C   UNL     1      -5.984  10.556  73.736  1.00  0.00     1.429 C  
HETATM    2  C   UNL     1      -5.157  10.567  72.443  1.00  0.00     0.116 C  
HETATM    3  C   UNL     1      -5.983  10.522  71.172  1.00  0.00     0.111 C  
HETATM    4  C   UNL     1      -6.859   9.261  71.090  1.00  0.00    -0.069 C  
HETATM    5  C   UNL     1      -7.640   9.050  72.392  1.00  0.00     0.371 C  
HETATM    6  C   UNL     1      -7.091   9.466  73.782  1.00  0.00     0.985 C  
HETATM    7  C   UNL     1      -8.409   7.719  72.401  1.00  0.00    -0.164 C  
HETATM    8  C   UNL     1      -6.491   8.264  74.557  1.00  0.00    -0.148 C  
HETATM    9  C   UNL     1      -9.536   7.818  71.383  1.00  0.00    -0.148 C  
HETATM   10  C   UNL     1      -8.352  10.022  74.545  1.00  0.00     5.583 C  
HETATM   11  C   UNL     1      -8.903  11.319  73.897  1.00  0.00    18.444 C  
HETATM   12  O   UNL     1     -10.497   8.781  71.827  1.00  0.00    -0.290 OA 
HETATM   13  C   UNL     1      -9.007   8.169  69.971  1.00  0.00    -0.143 C  
HETATM   14  C   UNL     1      -8.123   7.012  69.410  1.00  0.00    -0.130 C  
HETATM   15  C   UNL     1     -10.227   8.527  69.074  1.00  0.00    -0.218 C  
HETATM   16  C   UNL     1      -7.849  12.422  73.854  1.00  0.00    14.213 C  
HETATM   17  H   UNL     1     -11.201   8.843  71.192  1.00  0.00     0.000 HD 
HETATM   18  O   UNL     1      -8.612  10.598  69.963  1.00  0.00    -0.283 OA 
HETATM   19  C   UNL     1      -7.373   7.647  68.228  1.00  0.00    -0.099 C  
HETATM   20  H   UNL     1      -9.255  10.644  69.265  1.00  0.00     0.000 HD 
HETATM   21  C   UNL     1      -6.448  11.939  74.240  1.00  0.00     3.607 C  
HETATM   22  C   UNL     1      -7.938   9.339  69.920  1.00  0.00    -0.113 C  
HETATM   23  C   UNL     1      -7.316   9.156  68.524  1.00  0.00    -0.077 C  
ENDROOT
BRANCH  16  24
HETATM   24  O   UNL     1      -7.740  13.111  72.611  1.00  0.00     8.902 OA 
BRANCH  24  25
HETATM   25  C   UNL     1      -7.483  12.380  71.402  1.00  0.00     7.776 C  
HETATM   26  O   UNL     1     -10.734  12.633  69.578  1.00  0.00    -0.432 OA 
HETATM   27  C   UNL     1      -8.506  13.116  68.695  1.00  0.00     0.029 C  
HETATM   28  C   UNL     1      -8.759  11.832  70.766  1.00  0.00     7.148 C  
HETATM   29  C   UNL     1      -9.387  12.934  69.933  1.00  0.00     2.871 C  
HETATM   30  O   UNL     1      -6.787  13.320  70.575  1.00  0.00     0.494 OA 
HETATM   31  C   UNL     1      -7.054  13.435  69.171  1.00  0.00    -0.007 C  
HETATM   32  H   UNL     1     -11.128  13.322  69.056  1.00  0.00     0.000 HD 
HETATM   33  C   UNL     1      -6.644  14.870  68.810  1.00  0.00    -0.087 C  
BRANCH  27  34
HETATM   34  O   UNL     1      -8.372  11.923  67.886  1.00  0.00    -0.136 OA 
BRANCH  34  35
HETATM   35  C   UNL     1      -8.692  11.955  66.498  1.00  0.00    -0.158 C  
HETATM   36  C   UNL     1      -9.278  10.653  65.970  1.00  0.00    -0.208 C  
HETATM   37  C   UNL     1     -10.548  10.335  66.744  1.00  0.00    -0.185 C  
HETATM   38  O   UNL     1     -11.123   9.102  66.303  1.00  0.00     0.561 OA 
HETATM   39  C   UNL     1     -11.569  11.489  66.669  1.00  0.00    -0.013 C  
HETATM   40  O   UNL     1      -9.619  13.019  66.247  1.00  0.00    -0.267 OA 
HETATM   41  C   UNL     1     -10.912  12.888  66.843  1.00  0.00    -0.266 C  
HETATM   42  H   UNL     1     -11.916   8.903  66.786  1.00  0.00     0.000 HD 
HETATM   43  C   UNL     1     -10.901  13.445  68.268  1.00  0.00    -0.275 C  
BRANCH  39  44
HETATM   44  O   UNL     1     -12.271  11.553  65.409  1.00  0.00     0.047 OA 
BRANCH  44  45
HETATM   45  C   UNL     1     -13.157  12.644  65.154  1.00  0.00     0.457 C  
HETATM   46  C   UNL     1     -12.671  14.012  65.628  1.00  0.00    -0.515 C  
HETATM   47  C   UNL     1     -11.398  14.376  64.875  1.00  0.00    -0.380 C  
HETATM   48  C   UNL     1     -11.687  14.432  63.372  1.00  0.00     1.001 C  
HETATM   49  O   UNL     1     -10.929  15.658  65.311  1.00  0.00    -0.365 OA 
HETATM   50  H   UNL     1     -10.136  15.885  64.842  1.00  0.00     0.000 HD 
HETATM   51  O   UNL     1     -12.539  15.565  63.121  1.00  0.00     0.180 OA 
HETATM   52  C   UNL     1     -12.379  13.145  62.888  1.00  0.00     0.417 C  
HETATM   53  C   UNL     1     -11.393  12.006  62.639  1.00  0.00     0.936 C  
HETATM   54  O   UNL     1     -13.446  12.713  63.747  1.00  0.00    -0.002 OA 
HETATM   55  H   UNL     1     -12.717  15.600  62.188  1.00  0.00     0.000 HD 
ENDBRANCH  44  45
ENDBRANCH  39  44
ENDBRANCH  34  35
ENDBRANCH  27  34
ENDBRANCH  24  25
ENDBRANCH  16  24
BRANCH  14  56
HETATM   56  C   UNL     1      -8.703   5.653  69.177  1.00  0.00    -0.108 C  
HETATM   57  C   UNL     1      -9.127   4.687  70.211  1.00  0.00    -0.109 C  
HETATM   58  C   UNL     1      -9.301   3.737  68.163  1.00  0.00    -0.173 C  
HETATM   59  O   UNL     1      -9.521   3.525  69.481  1.00  0.00    -0.167 OA 
HETATM   60  O   UNL     1      -9.486   2.935  67.263  1.00  0.00    -0.174 OA 
HETATM   61  C   UNL     1      -8.790   5.085  67.972  1.00  0.00    -0.109 C  
ENDBRANCH  14  56
TORSDOF 7
ENDMDL
MODEL       85
REMARK 921   NORMALIZED FREE ENERGY PREDICTED BY IDOCK:   67.93 KCAL/MOL
REMARK 922        TOTAL FREE ENERGY PREDICTED BY IDOCK:   93.89 KCAL/MOL
REMARK 923 INTER-LIGAND FREE ENERGY PREDICTED BY IDOCK:   13.37 KCAL/MOL
REMARK 924 INTRA-LIGAND FREE ENERGY PREDICTED BY IDOCK:   80.52 KCAL/MOL
REMARK 927      BINDING AFFINITY PREDICTED BY RF-SCORE:    0.00 PKD
ROOT
HETATM    1  C   UNL     1      -7.938  13.432  67.282  1.00  0.00    -0.130 C  
HETATM    2  C   UNL     1      -9.274  12.730  67.001  1.00  0.00    -0.221 C  
HETATM    3  C   UNL     1      -9.628  11.638  67.991  1.00  0.00    -0.184 C  
HETATM    4  C   UNL     1      -8.574  10.519  68.026  1.00  0.00    -0.121 C  
HETATM    5  C   UNL     1      -7.161  11.099  68.160  1.00  0.00    -0.071 C  
HETATM    6  C   UNL     1      -6.751  12.468  67.556  1.00  0.00    -0.151 C  
HETATM    7  C   UNL     1      -6.074  10.018  68.046  1.00  0.00    -0.049 C  
HETATM    8  C   UNL     1      -5.996  12.309  66.210  1.00  0.00     1.334 C  
HETATM    9  C   UNL     1      -6.158   9.133  69.281  1.00  0.00    -0.041 C  
HETATM   10  C   UNL     1      -5.795  13.096  68.638  1.00  0.00    -0.074 C  
HETATM   11  C   UNL     1      -6.540  13.419  69.960  1.00  0.00     0.138 C  
HETATM   12  O   UNL     1      -5.780   9.888  70.436  1.00  0.00    -0.047 OA 
HETATM   13  C   UNL     1      -7.568   8.517  69.453  1.00  0.00    -0.090 C  
HETATM   14  C   UNL     1      -7.884   7.530  68.287  1.00  0.00    -0.122 C  
HETATM   15  C   UNL     1      -7.642   7.872  70.867  1.00  0.00    -0.078 C  
HETATM   16  C   UNL     1      -7.701  14.382  69.734  1.00  0.00     0.318 C  
HETATM   17  H   UNL     1      -5.832   9.335  71.208  1.00  0.00     0.000 HD 
HETATM   18  O   UNL     1      -8.972  10.270  70.457  1.00  0.00    -0.240 OA 
HETATM   19  C   UNL     1      -9.403   7.317  68.373  1.00  0.00    -0.143 C  
HETATM   20  H   UNL     1      -9.092   9.677  71.189  1.00  0.00     0.000 HD 
HETATM   21  C   UNL     1      -8.008  14.628  68.255  1.00  0.00    -0.133 C  
HETATM   22  C   UNL     1      -8.775   9.524  69.254  1.00  0.00    -0.151 C  
HETATM   23  C   UNL     1      -9.969   8.572  69.060  1.00  0.00    -0.197 C  
ENDROOT
BRANCH  16  24
HETATM   24  O   UNL     1      -8.923  14.022  70.374  1.00  0.00     2.238 OA 
BRANCH  24  25
HETATM   25  C   UNL     1     -10.152  14.656  69.990  1.00  0.00     0.366 C  
HETATM   26  O   UNL     1     -12.446  13.790  72.809  1.00  0.00    -0.012 OA 
HETATM   27  C   UNL     1     -12.051  16.007  71.856  1.00  0.00    -0.514 C  
HETATM   28  C   UNL     1     -11.375  14.000  70.626  1.00  0.00     0.150 C  
HETATM   29  C   UNL     1     -11.550  14.571  72.021  1.00  0.00     0.280 C  
HETATM   30  O   UNL     1      -9.968  16.023  70.376  1.00  0.00     0.156 OA 
HETATM   31  C   UNL     1     -11.020  16.786  70.981  1.00  0.00     0.582 C  
HETATM   32  H   UNL     1     -12.556  14.147  73.682  1.00  0.00     0.000 HD 
HETATM   33  C   UNL     1     -10.300  17.875  71.792  1.00  0.00     4.309 C  
BRANCH  27  34
HETATM   34  O   UNL     1     -13.301  16.117  71.135  1.00  0.00    -0.090 OA 
BRANCH  34  35
HETATM   35  C   UNL     1     -13.324  16.013  69.714  1.00  0.00     1.932 C  
HETATM   36  C   UNL     1     -11.947  16.088  69.068  1.00  0.00    -0.159 C  
HETATM   37  C   UNL     1     -11.085  14.960  69.615  1.00  0.00    -0.276 C  
HETATM   38  O   UNL     1      -9.769  15.004  69.058  1.00  0.00    -0.218 OA 
HETATM   39  C   UNL     1     -11.741  13.580  69.398  1.00  0.00    -0.325 C  
HETATM   40  O   UNL     1     -13.950  14.780  69.337  1.00  0.00     2.911 OA 
HETATM   41  C   UNL     1     -13.265  13.581  69.709  1.00  0.00     1.334 C  
HETATM   42  H   UNL     1      -9.230  14.299  69.399  1.00  0.00     0.000 HD 
HETATM   43  C   UNL     1     -13.654  13.162  71.127  1.00  0.00     0.285 C  
BRANCH  39  44
HETATM   44  O   UNL     1     -11.631  13.099  68.040  1.00  0.00    -0.291 OA 
BRANCH  44  45
HETATM   45  C   UNL     1     -10.556  13.557  67.219  1.00  0.00    -0.263 C  
HETATM   46  C   UNL     1     -10.435  12.881  65.855  1.00  0.00    -0.294 C  
HETATM   47  C   UNL     1     -11.686  13.180  65.039  1.00  0.00    -0.337 C  
HETATM   48  C   UNL     1     -11.827  14.693  64.847  1.00  0.00    -0.403 C  
HETATM   49  O   UNL     1     -11.588  12.550  63.756  1.00  0.00    -0.394 OA 
HETATM   50  H   UNL     1     -12.368  12.737  63.248  1.00  0.00     0.000 HD 
HETATM   51  O   UNL     1     -10.769  15.135  63.976  1.00  0.00    -0.098 OA 
HETATM   52  C   UNL     1     -11.738  15.438  66.191  1.00  0.00     0.222 C  
HETATM   53  C   UNL     1     -13.059  15.429  66.956  1.00  0.00     3.259 C  
HETATM   54  O   UNL     1     -10.665  14.978  67.029  1.00  0.00    -0.291 OA 
HETATM   55  H   UNL     1     -10.856  16.074  63.857  1.00  0.00     0.000 HD 
ENDBRANCH  44  45
ENDBRANCH  39  44
ENDBRANCH  34  35
ENDBRANCH  27  34
ENDBRANCH  24  25
ENDBRANCH  16  24
BRANCH  14  56
HETATM   56  C   UNL     1      -7.051   6.304  68.077  1.00  0.00    -0.082 C  
HETATM   57  C   UNL     1      -6.028   5.767  68.998  1.00  0.00    -0.023 C  
HETATM   58  C   UNL     1      -6.040   4.560  67.081  1.00  0.00    -0.031 C  
HETATM   59  O   UNL     1      -5.469   4.651  68.304  1.00  0.00    -0.014 OA 
HETATM   60  O   UNL     1      -5.763   3.748  66.214  1.00  0.00    -0.017 OA 
HETATM   61  C   UNL     1      -7.045   5.603  66.942  1.00  0.00    -0.070 C  
ENDBRANCH  14  56
TORSDOF 7
ENDMDL
MODEL       86
REMARK 921   NORMALIZED FREE ENERGY PREDICTED BY IDOCK:   73.07 KCAL/MOL
REMARK 922        TOTAL FREE ENERGY PREDICTED BY IDOCK:  101.13 KCAL/MOL
REMARK 923 INTER-LIGAND FREE ENERGY PREDICTED BY IDOCK:   59.61 KCAL/MOL
REMARK 924 INTRA-LIGAND FREE ENERGY PREDICTED BY IDOCK:   41.52 KCAL/MOL
REMARK 927      BINDING AFFINITY PREDICTED BY RF-SCORE:    0.00 PKD
ROOT
HETATM    1  C   UNL     1     -12.186   7.522  68.459  1.00  0.00     3.199 C  
HETATM    2  C   UNL     1     -10.887   8.116  67.896  1.00  0.00    -0.038 C  
HETATM    3  C   UNL     1     -10.115   8.976  68.879  1.00  0.00    -0.207 C  
HETATM    4  C   UNL     1     -10.937  10.177  69.374  1.00  0.00    -0.285 C  
HETATM    5  C   UNL     1     -12.331   9.735  69.837  1.00  0.00     0.318 C  
HETATM    6  C   UNL     1     -13.093   8.544  69.198  1.00  0.00     6.140 C  
HETATM    7  C   UNL     1     -13.231  10.929  70.196  1.00  0.00     0.299 C  
HETATM    8  C   UNL     1     -14.153   9.015  68.168  1.00  0.00    18.192 C  
HETATM    9  C   UNL     1     -12.681  11.571  71.460  1.00  0.00    -0.334 C  
HETATM   10  C   UNL     1     -13.801   7.842  70.417  1.00  0.00     1.428 C  
HETATM   11  C   UNL     1     -12.782   7.216  71.405  1.00  0.00    -0.433 C  
HETATM   12  O   UNL     1     -12.838  10.670  72.561  1.00  0.00    -0.195 OA 
HETATM   13  C   UNL     1     -11.201  11.995  71.294  1.00  0.00     3.007 C  
HETATM   14  C   UNL     1     -11.069  13.130  70.233  1.00  0.00     0.720 C  
HETATM   15  C   UNL     1     -10.647  12.371  72.698  1.00  0.00    14.558 C  
HETATM   16  C   UNL     1     -11.886   6.189  70.718  1.00  0.00     0.006 C  
HETATM   17  H   UNL     1     -12.495  11.071  73.351  1.00  0.00     0.000 HD 
HETATM   18  O   UNL     1      -9.858   9.954  71.592  1.00  0.00     0.143 OA 
HETATM   19  C   UNL     1      -9.569  13.162  69.897  1.00  0.00     2.444 C  
HETATM   20  H   UNL     1      -9.454  10.394  72.331  1.00  0.00     0.000 HD 
HETATM   21  C   UNL     1     -12.035   6.174  69.195  1.00  0.00     1.270 C  
HETATM   22  C   UNL     1     -10.261  10.915  70.614  1.00  0.00     1.723 C  
HETATM   23  C   UNL     1      -9.034  11.754  70.209  1.00  0.00     3.964 C  
ENDROOT
BRANCH  16  24
HETATM   24  O   UNL     1     -10.496   6.301  71.015  1.00  0.00    -0.211 OA 
BRANCH  24  25
HETATM   25  C   UNL     1      -9.518   5.953  70.023  1.00  0.00    -0.159 C  
HETATM   26  O   UNL     1      -9.002   2.300  70.617  1.00  0.00    -0.070 OA 
HETATM   27  C   UNL     1      -9.463   3.397  68.481  1.00  0.00    -0.142 C  
HETATM   28  C   UNL     1      -8.711   4.714  70.405  1.00  0.00    -0.120 C  
HETATM   29  C   UNL     1      -9.508   3.485  70.008  1.00  0.00    -0.183 C  
HETATM   30  O   UNL     1     -10.287   5.791  68.825  1.00  0.00    -0.182 OA 
HETATM   31  C   UNL     1     -10.026   4.730  67.897  1.00  0.00    -0.102 C  
HETATM   32  H   UNL     1      -9.501   1.531  70.369  1.00  0.00     0.000 HD 
HETATM   33  C   UNL     1     -11.360   4.508  67.170  1.00  0.00     3.442 C  
BRANCH  27  34
HETATM   34  O   UNL     1      -8.126   3.294  67.936  1.00  0.00    -0.077 OA 
BRANCH  34  35
HETATM   35  C   UNL     1      -7.931   3.002  66.555  1.00  0.00    -0.077 C  
HETATM   36  C   UNL     1      -9.211   3.041  65.731  1.00  0.00    -0.124 C  
HETATM   37  C   UNL     1      -9.826   4.428  65.842  1.00  0.00    -0.228 C  
HETATM   38  O   UNL     1     -11.049   4.508  65.105  1.00  0.00    -0.818 OA 
HETATM   39  C   UNL     1      -8.837   5.529  65.409  1.00  0.00    -0.127 C  
HETATM   40  O   UNL     1      -6.990   3.928  65.999  1.00  0.00    -0.059 OA 
HETATM   41  C   UNL     1      -7.399   5.298  65.955  1.00  0.00    -0.081 C  
HETATM   42  H   UNL     1     -11.433   5.374  65.174  1.00  0.00     0.000 HD 
HETATM   43  C   UNL     1      -7.068   5.996  67.275  1.00  0.00    -0.070 C  
BRANCH  39  44
HETATM   44  O   UNL     1      -8.686   5.635  63.976  1.00  0.00    -0.003 OA 
BRANCH  44  45
HETATM   45  C   UNL     1      -7.841   6.650  63.433  1.00  0.00    -0.106 C  
HETATM   46  C   UNL     1      -8.412   8.066  63.455  1.00  0.00     0.146 C  
HETATM   47  C   UNL     1      -8.629   8.491  64.902  1.00  0.00    -0.108 C  
HETATM   48  C   UNL     1      -7.294   8.469  65.651  1.00  0.00    -0.084 C  
HETATM   49  O   UNL     1      -9.166   9.818  64.939  1.00  0.00    -0.225 OA 
HETATM   50  H   UNL     1      -9.301  10.083  65.841  1.00  0.00     0.000 HD 
HETATM   51  O   UNL     1      -6.469   9.528  65.130  1.00  0.00    -0.073 OA 
HETATM   52  C   UNL     1      -6.576   7.118  65.475  1.00  0.00    -0.048 C  
HETATM   53  C   UNL     1      -7.106   6.044  66.422  1.00  0.00    -0.068 C  
HETATM   54  O   UNL     1      -6.578   6.644  64.119  1.00  0.00    -0.039 OA 
HETATM   55  H   UNL     1      -5.640   9.514  65.596  1.00  0.00     0.000 HD 
ENDBRANCH  44  45
ENDBRANCH  39  44
ENDBRANCH  34  35
ENDBRANCH  27  34
ENDBRANCH  24  25
ENDBRANCH  16  24
BRANCH  14  56
HETATM   56  C   UNL     1     -11.731  14.455  70.446  1.00  0.00    -0.346 C  
HETATM   57  C   UNL     1     -11.160  15.621  71.151  1.00  0.00    -0.290 C  
HETATM   58  C   UNL     1     -13.309  16.051  70.581  1.00  0.00     1.090 C  
HETATM   59  O   UNL     1     -12.210  16.589  71.157  1.00  0.00     0.078 OA 
HETATM   60  O   UNL     1     -14.397  16.589  70.461  1.00  0.00     3.223 OA 
HETATM   61  C   UNL     1     -13.003  14.704  70.127  1.00  0.00    -0.065 C  
ENDBRANCH  14  56
TORSDOF 7
ENDMDL
MODEL       87
REMARK 921   NORMALIZED FREE ENERGY PREDICTED BY IDOCK:   74.70 KCAL/MOL
REMARK 922        TOTAL FREE ENERGY PREDICTED BY IDOCK:  103.42 KCAL/MOL
REMARK 923 INTER-LIGAND FREE ENERGY PREDICTED BY IDOCK:   39.15 KCAL/MOL
REMARK 924 INTRA-LIGAND FREE ENERGY PREDICTED BY IDOCK:   64.27 KCAL/MOL
REMARK 927      BINDING AFFINITY PREDICTED BY RF-SCORE:    0.00 PKD
ROOT
HETATM    1  C   UNL     1      -9.671   9.812  69.434  1.00  0.00    -0.214 C  
HETATM    2  C   UNL     1      -8.540  10.100  68.436  1.00  0.00    -0.119 C  
HETATM    3  C   UNL     1      -7.808  11.406  68.680  1.00  0.00    -0.139 C  
HETATM    4  C   UNL     1      -8.745  12.623  68.604  1.00  0.00     0.049 C  
HETATM    5  C   UNL     1     -10.002  12.402  69.455  1.00  0.00     0.739 C  
HETATM    6  C   UNL     1     -10.639  11.004  69.670  1.00  0.00    -0.132 C  
HETATM    7  C   UNL     1     -11.027  13.534  69.283  1.00  0.00    -0.169 C  
HETATM    8  C   UNL     1     -11.858  10.770  68.740  1.00  0.00    -0.250 C  
HETATM    9  C   UNL     1     -10.451  14.793  69.913  1.00  0.00    -0.014 C  
HETATM   10  C   UNL     1     -11.104  11.020  71.174  1.00  0.00     1.378 C  
HETATM   11  C   UNL     1      -9.907  11.098  72.157  1.00  0.00    12.052 C  
HETATM   12  O   UNL     1     -10.357  14.618  71.330  1.00  0.00     0.486 OA 
HETATM   13  C   UNL     1      -9.076  15.164  69.305  1.00  0.00    -0.201 C  
HETATM   14  C   UNL     1      -9.226  15.556  67.803  1.00  0.00    -0.179 C  
HETATM   15  C   UNL     1      -8.442  16.275  70.190  1.00  0.00     1.471 C  
HETATM   16  C   UNL     1      -8.943   9.930  71.969  1.00  0.00     3.473 C  
HETATM   17  H   UNL     1      -9.997  15.404  71.724  1.00  0.00     0.000 HD 
HETATM   18  O   UNL     1      -7.420  13.705  70.395  1.00  0.00     0.613 OA 
HETATM   19  C   UNL     1      -7.791  15.508  67.254  1.00  0.00    -0.236 C  
HETATM   20  H   UNL     1      -7.012  14.501  70.715  1.00  0.00     0.000 HD 
HETATM   21  C   UNL     1      -9.246   9.087  70.728  1.00  0.00    -0.299 C  
HETATM   22  C   UNL     1      -8.061  13.957  69.142  1.00  0.00     0.242 C  
HETATM   23  C   UNL     1      -7.022  14.531  68.161  1.00  0.00    -0.125 C  
ENDROOT
BRANCH  16  24
HETATM   24  O   UNL     1      -7.563  10.282  71.926  1.00  0.00     1.980 OA 
BRANCH  24  25
HETATM   25  C   UNL     1      -6.717   9.756  70.891  1.00  0.00    -0.024 C  
HETATM   26  O   UNL     1      -5.293   6.684  72.469  1.00  0.00    -0.035 OA 
HETATM   27  C   UNL     1      -6.352   6.858  70.273  1.00  0.00    -0.039 C  
HETATM   28  C   UNL     1      -5.597   8.875  71.440  1.00  0.00    -0.046 C  
HETATM   29  C   UNL     1      -6.152   7.479  71.657  1.00  0.00    -0.036 C  
HETATM   30  O   UNL     1      -7.624   9.061  70.028  1.00  0.00    -0.059 OA 
HETATM   31  C   UNL     1      -7.295   7.791  69.450  1.00  0.00    -0.086 C  
HETATM   32  H   UNL     1      -5.639   5.810  72.605  1.00  0.00     0.000 HD 
HETATM   33  C   UNL     1      -8.649   7.121  69.173  1.00  0.00    -0.133 C  
BRANCH  27  34
HETATM   34  O   UNL     1      -5.141   6.774  69.484  1.00  0.00    -0.013 OA 
BRANCH  34  35
HETATM   35  C   UNL     1      -5.185   6.972  68.074  1.00  0.00    -0.015 C  
HETATM   36  C   UNL     1      -6.416   6.375  67.406  1.00  0.00    -0.049 C  
HETATM   37  C   UNL     1      -7.660   7.006  68.015  1.00  0.00    -0.111 C  
HETATM   38  O   UNL     1      -8.848   6.457  67.438  1.00  0.00    -0.107 OA 
HETATM   39  C   UNL     1      -7.639   8.544  67.898  1.00  0.00    -0.098 C  
HETATM   40  O   UNL     1      -5.132   8.375  67.788  1.00  0.00    -0.032 OA 
HETATM   41  C   UNL     1      -6.247   9.154  68.229  1.00  0.00    -0.054 C  
HETATM   42  H   UNL     1      -9.625   6.850  67.818  1.00  0.00     0.000 HD 
HETATM   43  C   UNL     1      -6.044   9.602  69.677  1.00  0.00    -0.043 C  
BRANCH  39  44
HETATM   44  O   UNL     1      -7.959   9.024  66.574  1.00  0.00    -0.102 OA 
BRANCH  44  45
HETATM   45  C   UNL     1      -8.401   8.099  65.580  1.00  0.00    -0.153 C  
HETATM   46  C   UNL     1      -9.914   7.986  65.410  1.00  0.00     1.436 C  
HETATM   47  C   UNL     1     -10.463   9.329  64.946  1.00  0.00     2.331 C  
HETATM   48  C   UNL     1      -9.828   9.711  63.606  1.00  0.00     0.906 C  
HETATM   49  O   UNL     1     -11.884   9.240  64.784  1.00  0.00     6.972 OA 
HETATM   50  H   UNL     1     -12.226  10.077  64.494  1.00  0.00     0.000 HD 
HETATM   51  O   UNL     1     -10.319   8.804  62.602  1.00  0.00     2.788 OA 
HETATM   52  C   UNL     1      -8.292   9.628  63.672  1.00  0.00    -0.172 C  
HETATM   53  C   UNL     1      -7.664  10.869  64.304  1.00  0.00     0.435 C  
HETATM   54  O   UNL     1      -7.811   8.436  64.313  1.00  0.00    -0.128 OA 
HETATM   55  H   UNL     1      -9.925   9.041  61.770  1.00  0.00     0.000 HD 
ENDBRANCH  44  45
ENDBRANCH  39  44
ENDBRANCH  34  35
ENDBRANCH  27  34
ENDBRANCH  24  25
ENDBRANCH  16  24
BRANCH  14  56
HETATM   56  C   UNL     1     -10.052  16.736  67.400  1.00  0.00    -0.276 C  
HETATM   57  C   UNL     1      -9.598  17.903  66.616  1.00  0.00    -0.309 C  
HETATM   58  C   UNL     1     -11.727  18.234  67.312  1.00  0.00     1.855 C  
HETATM   59  O   UNL     1     -10.726  18.777  66.581  1.00  0.00    -0.389 OA 
HETATM   60  O   UNL     1     -12.817  18.737  67.528  1.00  0.00     4.378 OA 
HETATM   61  C   UNL     1     -11.301  16.941  67.824  1.00  0.00     0.153 C  
ENDBRANCH  14  56
TORSDOF 7
ENDMDL
MODEL       88
REMARK 921   NORMALIZED FREE ENERGY PREDICTED BY IDOCK:   75.20 KCAL/MOL
REMARK 922        TOTAL FREE ENERGY PREDICTED BY IDOCK:  104.13 KCAL/MOL
REMARK 923 INTER-LIGAND FREE ENERGY PREDICTED BY IDOCK:   91.54 KCAL/MOL
REMARK 924 INTRA-LIGAND FREE ENERGY PREDICTED BY IDOCK:   12.59 KCAL/MOL
REMARK 927      BINDING AFFINITY PREDICTED BY RF-SCORE:    0.00 PKD
ROOT
HETATM    1  C   UNL     1      -5.715  10.921  64.766  1.00  0.00     0.127 C  
HETATM    2  C   UNL     1      -6.461  10.505  63.490  1.00  0.00     0.017 C  
HETATM    3  C   UNL     1      -7.970  10.447  63.639  1.00  0.00    -0.092 C  
HETATM    4  C   UNL     1      -8.410   9.445  64.719  1.00  0.00    -0.159 C  
HETATM    5  C   UNL     1      -7.627   9.660  66.020  1.00  0.00    -0.102 C  
HETATM    6  C   UNL     1      -6.159  10.162  66.047  1.00  0.00    -0.083 C  
HETATM    7  C   UNL     1      -7.935   8.581  67.070  1.00  0.00    -0.100 C  
HETATM    8  C   UNL     1      -5.149   9.000  66.240  1.00  0.00    -0.029 C  
HETATM    9  C   UNL     1      -9.368   8.778  67.543  1.00  0.00    -0.136 C  
HETATM   10  C   UNL     1      -6.106  11.133  67.285  1.00  0.00    -0.068 C  
HETATM   11  C   UNL     1      -6.984  12.395  67.078  1.00  0.00    -0.006 C  
HETATM   12  O   UNL     1      -9.468  10.009  68.266  1.00  0.00    -0.138 OA 
HETATM   13  C   UNL     1     -10.372   8.739  66.365  1.00  0.00    -0.169 C  
HETATM   14  C   UNL     1     -10.405   7.322  65.715  1.00  0.00     1.578 C  
HETATM   15  C   UNL     1     -11.753   9.226  66.894  1.00  0.00     3.274 C  
HETATM   16  C   UNL     1      -6.563  13.180  65.839  1.00  0.00     5.282 C  
HETATM   17  H   UNL     1     -10.363  10.132  68.561  1.00  0.00     0.000 HD 
HETATM   18  O   UNL     1     -10.282  10.958  65.304  1.00  0.00    -0.264 OA 
HETATM   19  C   UNL     1     -11.113   7.540  64.368  1.00  0.00    13.239 C  
HETATM   20  H   UNL     1     -11.202  11.040  65.526  1.00  0.00     0.000 HD 
HETATM   21  C   UNL     1      -5.542  12.441  64.969  1.00  0.00     5.574 C  
HETATM   22  C   UNL     1      -9.954   9.584  65.091  1.00  0.00     0.118 C  
HETATM   23  C   UNL     1     -10.881   9.016  64.001  1.00  0.00     7.657 C  
ENDROOT
BRANCH  16  24
HETATM   24  O   UNL     1      -7.631  13.596  64.991  1.00  0.00     6.944 OA 
BRANCH  24  25
HETATM   25  C   UNL     1      -8.991  13.323  65.359  1.00  0.00     1.179 C  
HETATM   26  O   UNL     1      -9.585  15.715  68.167  1.00  0.00    -0.195 OA 
HETATM   27  C   UNL     1     -10.993  15.373  66.198  1.00  0.00    -0.279 C  
HETATM   28  C   UNL     1      -9.298  13.711  66.803  1.00  0.00    -0.269 C  
HETATM   29  C   UNL     1      -9.616  15.195  66.840  1.00  0.00    -0.239 C  
HETATM   30  O   UNL     1      -9.760  14.050  64.393  1.00  0.00     0.135 OA 
HETATM   31  C   UNL     1     -10.942  14.774  64.758  1.00  0.00    -0.379 C  
HETATM   32  H   UNL     1      -9.784  16.643  68.191  1.00  0.00     0.000 HD 
HETATM   33  C   UNL     1     -11.079  15.867  63.688  1.00  0.00     2.004 C  
BRANCH  27  34
HETATM   34  O   UNL     1     -12.052  14.641  66.862  1.00  0.00    -0.361 OA 
BRANCH  34  35
HETATM   35  C   UNL     1     -11.804  13.343  67.396  1.00  0.00    -0.375 C  
HETATM   36  C   UNL     1     -10.409  13.174  67.982  1.00  0.00    -0.240 C  
HETATM   37  C   UNL     1     -10.216  14.193  69.095  1.00  0.00    -0.051 C  
HETATM   38  O   UNL     1      -8.907  14.092  69.661  1.00  0.00     0.070 OA 
HETATM   39  C   UNL     1     -11.307  14.071  70.179  1.00  0.00    -0.047 C  
HETATM   40  O   UNL     1     -12.775  13.052  68.410  1.00  0.00     0.565 OA 
HETATM   41  C   UNL     1     -12.729  13.868  69.584  1.00  0.00     0.196 C  
HETATM   42  H   UNL     1      -8.785  14.728  70.357  1.00  0.00     0.000 HD 
HETATM   43  C   UNL     1     -13.554  15.140  69.382  1.00  0.00     2.278 C  
BRANCH  39  44
HETATM   44  O   UNL     1     -11.106  12.954  71.073  1.00  0.00     1.900 OA 
BRANCH  44  45
HETATM   45  C   UNL     1     -11.778  11.720  70.816  1.00  0.00     0.260 C  
HETATM   46  C   UNL     1     -10.873  10.511  70.590  1.00  0.00     0.063 C  
HETATM   47  C   UNL     1     -10.072  10.247  71.858  1.00  0.00     3.963 C  
HETATM   48  C   UNL     1     -11.026   9.957  73.020  1.00  0.00     5.347 C  
HETATM   49  O   UNL     1      -9.216   9.115  71.660  1.00  0.00    -0.320 OA 
HETATM   50  H   UNL     1      -8.716   8.950  72.450  1.00  0.00     0.000 HD 
HETATM   51  O   UNL     1     -11.660   8.688  72.775  1.00  0.00    -0.235 OA 
HETATM   52  C   UNL     1     -12.097  11.056  73.149  1.00  0.00     7.036 C  
HETATM   53  C   UNL     1     -11.589  12.287  73.896  1.00  0.00    13.804 C  
HETATM   54  O   UNL     1     -12.685  11.431  71.893  1.00  0.00    -0.323 OA 
HETATM   55  H   UNL     1     -12.252   8.509  73.497  1.00  0.00     0.000 HD 
ENDBRANCH  44  45
ENDBRANCH  39  44
ENDBRANCH  34  35
ENDBRANCH  27  34
ENDBRANCH  24  25
ENDBRANCH  16  24
BRANCH  14  56
HETATM   56  C   UNL     1     -10.835   6.128  66.507  1.00  0.00    -0.165 C  
HETATM   57  C   UNL     1     -12.213   5.803  66.930  1.00  0.00     4.586 C  
HETATM   58  C   UNL     1     -10.766   4.308  67.826  1.00  0.00     1.396 C  
HETATM   59  O   UNL     1     -12.078   4.624  67.725  1.00  0.00     7.174 OA 
HETATM   60  O   UNL     1     -10.294   3.386  68.469  1.00  0.00     0.817 OA 
HETATM   61  C   UNL     1      -9.983   5.257  67.050  1.00  0.00    -0.214 C  
ENDBRANCH  14  56
TORSDOF 7
ENDMDL
MODEL       89
REMARK 921   NORMALIZED FREE ENERGY PREDICTED BY IDOCK:   77.60 KCAL/MOL
REMARK 922        TOTAL FREE ENERGY PREDICTED BY IDOCK:  107.51 KCAL/MOL
REMARK 923 INTER-LIGAND FREE ENERGY PREDICTED BY IDOCK:   35.96 KCAL/MOL
REMARK 924 INTRA-LIGAND FREE ENERGY PREDICTED BY IDOCK:   71.55 KCAL/MOL
REMARK 927      BINDING AFFINITY PREDICTED BY RF-SCORE:    0.00 PKD
ROOT
HETATM    1  C   UNL     1      -7.053  12.049  70.059  1.00  0.00     0.806 C  
HETATM    2  C   UNL     1      -6.030  12.052  68.914  1.00  0.00    -0.060 C  
HETATM    3  C   UNL     1      -6.588  11.606  67.576  1.00  0.00    -0.093 C  
HETATM    4  C   UNL     1      -7.147  10.174  67.626  1.00  0.00    -0.086 C  
HETATM    5  C   UNL     1      -8.084   9.992  68.826  1.00  0.00    -0.106 C  
HETATM    6  C   UNL     1      -7.893  10.746  70.168  1.00  0.00     0.705 C  
HETATM    7  C   UNL     1      -8.541   8.533  68.991  1.00  0.00    -0.130 C  
HETATM    8  C   UNL     1      -7.197   9.864  71.238  1.00  0.00     0.645 C  
HETATM    9  C   UNL     1      -9.464   8.193  67.830  1.00  0.00    -0.146 C  
HETATM   10  C   UNL     1      -9.358  11.095  70.627  1.00  0.00     3.845 C  
HETATM   11  C   UNL     1     -10.048  12.100  69.667  1.00  0.00     1.055 C  
HETATM   12  O   UNL     1     -10.671   8.953  67.941  1.00  0.00    -0.400 OA 
HETATM   13  C   UNL     1      -8.779   8.430  66.462  1.00  0.00    -0.151 C  
HETATM   14  C   UNL     1      -7.584   7.447  66.266  1.00  0.00    -0.088 C  
HETATM   15  C   UNL     1      -9.868   8.334  65.355  1.00  0.00     0.926 C  
HETATM   16  C   UNL     1      -9.263  13.403  69.552  1.00  0.00     1.354 C  
HETATM   17  H   UNL     1     -11.248   8.740  67.216  1.00  0.00     0.000 HD 
HETATM   18  O   UNL     1      -8.915  10.849  66.029  1.00  0.00    -0.174 OA 
HETATM   19  C   UNL     1      -6.788   8.047  65.095  1.00  0.00    -0.058 C  
HETATM   20  H   UNL     1      -9.419  10.626  65.255  1.00  0.00     0.000 HD 
HETATM   21  C   UNL     1      -7.883  13.341  70.213  1.00  0.00     2.852 C  
HETATM   22  C   UNL     1      -7.992   9.800  66.328  1.00  0.00    -0.109 C  
HETATM   23  C   UNL     1      -7.107   9.552  65.092  1.00  0.00    -0.104 C  
ENDROOT
BRANCH  16  24
HETATM   24  O   UNL     1      -9.084  13.889  68.224  1.00  0.00    -0.184 OA 
BRANCH  24  25
HETATM   25  C   UNL     1     -10.185  13.889  67.302  1.00  0.00    -0.249 C  
HETATM   26  O   UNL     1     -12.024  17.011  68.211  1.00  0.00     0.590 OA 
HETATM   27  C   UNL     1     -11.322  16.311  65.977  1.00  0.00     0.433 C  
HETATM   28  C   UNL     1     -11.378  14.691  67.814  1.00  0.00    -0.338 C  
HETATM   29  C   UNL     1     -11.143  16.155  67.488  1.00  0.00    -0.175 C  
HETATM   30  O   UNL     1      -9.620  14.408  66.093  1.00  0.00    -0.297 OA 
HETATM   31  C   UNL     1     -10.330  15.339  65.265  1.00  0.00    -0.401 C  
HETATM   32  H   UNL     1     -11.877  17.927  68.008  1.00  0.00     0.000 HD 
HETATM   33  C   UNL     1      -9.235  16.105  64.507  1.00  0.00     4.334 C  
BRANCH  27  34
HETATM   34  O   UNL     1     -12.629  15.918  65.494  1.00  0.00     1.394 OA 
BRANCH  34  35
HETATM   35  C   UNL     1     -13.044  14.557  65.564  1.00  0.00     0.152 C  
HETATM   36  C   UNL     1     -11.891  13.564  65.640  1.00  0.00    -0.397 C  
HETATM   37  C   UNL     1     -11.057  13.873  66.875  1.00  0.00    -0.301 C  
HETATM   38  O   UNL     1      -9.942  12.983  66.976  1.00  0.00    -0.234 OA 
HETATM   39  C   UNL     1     -11.908  13.855  68.161  1.00  0.00    -0.372 C  
HETATM   40  O   UNL     1     -13.891  14.375  66.705  1.00  0.00     3.409 OA 
HETATM   41  C   UNL     1     -13.282  14.563  67.985  1.00  0.00     3.366 C  
HETATM   42  H   UNL     1      -9.421  13.175  67.747  1.00  0.00     0.000 HD 
HETATM   43  C   UNL     1     -13.326  16.039  68.385  1.00  0.00     4.141 C  
BRANCH  39  44
HETATM   44  O   UNL     1     -12.224  12.523  68.622  1.00  0.00    -0.173 OA 
BRANCH  44  45
HETATM   45  C   UNL     1     -11.807  12.115  69.926  1.00  0.00    -0.319 C  
HETATM   46  C   UNL     1     -12.339  12.959  71.082  1.00  0.00    -0.262 C  
HETATM   47  C   UNL     1     -13.858  12.850  71.119  1.00  0.00     1.079 C  
HETATM   48  C   UNL     1     -14.265  11.389  71.328  1.00  0.00     2.629 C  
HETATM   49  O   UNL     1     -14.371  13.639  72.199  1.00  0.00    -0.466 OA 
HETATM   50  H   UNL     1     -15.318  13.571  72.223  1.00  0.00     0.000 HD 
HETATM   51  O   UNL     1     -13.886  11.003  72.663  1.00  0.00    -0.173 OA 
HETATM   52  C   UNL     1     -13.575  10.466  70.307  1.00  0.00     0.719 C  
HETATM   53  C   UNL     1     -14.285  10.452  68.955  1.00  0.00     8.429 C  
HETATM   54  O   UNL     1     -12.175  10.742  70.141  1.00  0.00    -0.305 OA 
HETATM   55  H   UNL     1     -14.139  10.096  72.792  1.00  0.00     0.000 HD 
ENDBRANCH  44  45
ENDBRANCH  39  44
ENDBRANCH  34  35
ENDBRANCH  27  34
ENDBRANCH  24  25
ENDBRANCH  16  24
BRANCH  14  56
HETATM   56  C   UNL     1      -7.810   5.969  66.228  1.00  0.00    -0.104 C  
HETATM   57  C   UNL     1      -8.029   5.082  67.389  1.00  0.00    -0.096 C  
HETATM   58  C   UNL     1      -7.889   3.843  65.498  1.00  0.00    -0.093 C  
HETATM   59  O   UNL     1      -8.102   3.769  66.832  1.00  0.00    -0.094 OA 
HETATM   60  O   UNL     1      -7.840   2.904  64.722  1.00  0.00    -0.076 OA 
HETATM   61  C   UNL     1      -7.711   5.236  65.117  1.00  0.00    -0.085 C  
ENDBRANCH  14  56
TORSDOF 7
ENDMDL
MODEL       90
REMARK 921   NORMALIZED FREE ENERGY PREDICTED BY IDOCK:   82.23 KCAL/MOL
REMARK 922        TOTAL FREE ENERGY PREDICTED BY IDOCK:  114.05 KCAL/MOL
REMARK 923 INTER-LIGAND FREE ENERGY PREDICTED BY IDOCK:   23.18 KCAL/MOL
REMARK 924 INTRA-LIGAND FREE ENERGY PREDICTED BY IDOCK:   90.87 KCAL/MOL
REMARK 927      BINDING AFFINITY PREDICTED BY RF-SCORE:    0.00 PKD
ROOT
HETATM    1  C   UNL     1      -7.424  14.382  66.598  1.00  0.00     1.134 C  
HETATM    2  C   UNL     1      -8.733  13.659  66.249  1.00  0.00     0.372 C  
HETATM    3  C   UNL     1      -9.196  12.663  67.295  1.00  0.00    -0.195 C  
HETATM    4  C   UNL     1      -8.163  11.550  67.537  1.00  0.00    -0.140 C  
HETATM    5  C   UNL     1      -6.764  12.138  67.759  1.00  0.00    -0.103 C  
HETATM    6  C   UNL     1      -6.281  13.445  67.077  1.00  0.00     0.816 C  
HETATM    7  C   UNL     1      -5.683  11.049  67.854  1.00  0.00    -0.042 C  
HETATM    8  C   UNL     1      -5.397  13.161  65.834  1.00  0.00     5.043 C  
HETATM    9  C   UNL     1      -5.900  10.282  69.150  1.00  0.00    -0.037 C  
HETATM   10  C   UNL     1      -5.431  14.168  68.188  1.00  0.00    -0.122 C  
HETATM   11  C   UNL     1      -6.300  14.613  69.393  1.00  0.00    -0.125 C  
HETATM   12  O   UNL     1      -5.632  11.139  70.264  1.00  0.00    -0.087 OA 
HETATM   13  C   UNL     1      -7.326   9.686  69.235  1.00  0.00    -0.079 C  
HETATM   14  C   UNL     1      -7.535   8.597  68.138  1.00  0.00    -0.096 C  
HETATM   15  C   UNL     1      -7.549   9.175  70.688  1.00  0.00    -0.143 C  
HETATM   16  C   UNL     1      -7.423  15.553  68.964  1.00  0.00    -0.171 C  
HETATM   17  H   UNL     1      -5.767  10.660  71.073  1.00  0.00     0.000 HD 
HETATM   18  O   UNL     1      -8.805  11.527  69.928  1.00  0.00     0.670 OA 
HETATM   19  C   UNL     1      -9.058   8.396  68.090  1.00  0.00    -0.138 C  
HETATM   20  H   UNL     1      -9.004  11.004  70.696  1.00  0.00     0.000 HD 
HETATM   21  C   UNL     1      -7.577  15.662  67.445  1.00  0.00    -0.227 C  
HETATM   22  C   UNL     1      -8.497  10.673  68.825  1.00  0.00    -0.149 C  
HETATM   23  C   UNL     1      -9.676   9.709  68.599  1.00  0.00    -0.162 C  
ENDROOT
BRANCH  16  24
HETATM   24  O   UNL     1      -8.706  15.256  69.508  1.00  0.00    -0.241 OA 
BRANCH  24  25
HETATM   25  C   UNL     1      -9.895  15.694  68.832  1.00  0.00    -0.219 C  
HETATM   26  O   UNL     1     -12.452  15.668  71.556  1.00  0.00    -0.375 OA 
HETATM   27  C   UNL     1     -11.976  17.490  69.998  1.00  0.00     4.488 C  
HETATM   28  C   UNL     1     -11.171  15.225  69.526  1.00  0.00    -0.289 C  
HETATM   29  C   UNL     1     -11.487  16.195  70.650  1.00  0.00    -0.361 C  
HETATM   30  O   UNL     1      -9.757  17.119  68.786  1.00  0.00    -0.264 OA 
HETATM   31  C   UNL     1     -10.867  17.994  69.021  1.00  0.00     0.566 C  
HETATM   32  H   UNL     1     -12.650  16.274  72.259  1.00  0.00     0.000 HD 
HETATM   33  C   UNL     1     -10.237  19.306  69.512  1.00  0.00     0.164 C  
BRANCH  27  34
HETATM   34  O   UNL     1     -13.149  17.325  69.166  1.00  0.00     4.652 OA 
BRANCH  34  35
HETATM   35  C   UNL     1     -13.087  16.533  67.982  1.00  0.00     4.328 C  
HETATM   36  C   UNL     1     -12.456  17.249  66.795  1.00  0.00     4.888 C  
HETATM   37  C   UNL     1     -11.040  17.663  67.167  1.00  0.00     0.198 C  
HETATM   38  O   UNL     1     -10.412  18.365  66.090  1.00  0.00    -0.422 OA 
HETATM   39  C   UNL     1     -10.191  16.458  67.621  1.00  0.00    -0.272 C  
HETATM   40  O   UNL     1     -12.351  15.333  68.249  1.00  0.00     0.025 OA 
HETATM   41  C   UNL     1     -10.966  15.496  68.567  1.00  0.00    -0.288 C  
HETATM   42  H   UNL     1      -9.528  18.624  66.322  1.00  0.00     0.000 HD 
HETATM   43  C   UNL     1     -10.789  15.751  70.065  1.00  0.00    -0.348 C  
BRANCH  39  44
HETATM   44  O   UNL     1      -9.737  15.630  66.528  1.00  0.00    -0.239 OA 
BRANCH  44  45
HETATM   45  C   UNL     1     -10.206  15.895  65.205  1.00  0.00    -0.251 C  
HETATM   46  C   UNL     1      -9.632  14.998  64.111  1.00  0.00     4.163 C  
HETATM   47  C   UNL     1     -10.049  13.558  64.378  1.00  0.00    -0.018 C  
HETATM   48  C   UNL     1     -11.577  13.454  64.371  1.00  0.00    -0.384 C  
HETATM   49  O   UNL     1      -9.515  12.704  63.359  1.00  0.00    -0.503 OA 
HETATM   50  H   UNL     1      -9.775  11.806  63.525  1.00  0.00     0.000 HD 
HETATM   51  O   UNL     1     -12.035  13.672  63.024  1.00  0.00    -0.784 OA 
HETATM   52  C   UNL     1     -12.212  14.496  65.310  1.00  0.00    -0.321 C  
HETATM   53  C   UNL     1     -12.205  14.051  66.770  1.00  0.00    -0.439 C  
HETATM   54  O   UNL     1     -11.641  15.807  65.177  1.00  0.00    -0.099 OA 
HETATM   55  H   UNL     1     -12.984  13.607  63.020  1.00  0.00     0.000 HD 
ENDBRANCH  44  45
ENDBRANCH  39  44
ENDBRANCH  34  35
ENDBRANCH  27  34
ENDBRANCH  24  25
ENDBRANCH  16  24
BRANCH  14  56
HETATM   56  C   UNL     1      -6.700   7.356  68.126  1.00  0.00    -0.055 C  
HETATM   57  C   UNL     1      -5.604   7.042  67.186  1.00  0.00    -0.018 C  
HETATM   58  C   UNL     1      -5.990   5.261  68.531  1.00  0.00    -0.021 C  
HETATM   59  O   UNL     1      -5.195   5.720  67.537  1.00  0.00    -0.004 OA 
HETATM   60  O   UNL     1      -5.945   4.153  69.038  1.00  0.00    -0.021 OA 
HETATM   61  C   UNL     1      -6.937   6.299  68.906  1.00  0.00    -0.076 C  
ENDBRANCH  14  56
TORSDOF 7
ENDMDL
MODEL       91
REMARK 921   NORMALIZED FREE ENERGY PREDICTED BY IDOCK:   90.02 KCAL/MOL
REMARK 922        TOTAL FREE ENERGY PREDICTED BY IDOCK:  125.02 KCAL/MOL
REMARK 923 INTER-LIGAND FREE ENERGY PREDICTED BY IDOCK:  101.32 KCAL/MOL
REMARK 924 INTRA-LIGAND FREE ENERGY PREDICTED BY IDOCK:   23.70 KCAL/MOL
REMARK 927      BINDING AFFINITY PREDICTED BY RF-SCORE:    0.00 PKD
ROOT
HETATM    1  C   UNL     1      -8.511  13.961  70.390  1.00  0.00     3.066 C  
HETATM    2  C   UNL     1      -8.407  12.994  69.203  1.00  0.00     0.584 C  
HETATM    3  C   UNL     1      -9.454  11.896  69.196  1.00  0.00     0.378 C  
HETATM    4  C   UNL     1      -9.383  11.014  70.453  1.00  0.00     2.340 C  
HETATM    5  C   UNL     1      -9.334  11.872  71.724  1.00  0.00    16.082 C  
HETATM    6  C   UNL     1      -8.659  13.268  71.774  1.00  0.00    14.208 C  
HETATM    7  C   UNL     1      -9.111  11.027  72.988  1.00  0.00    17.248 C  
HETATM    8  C   UNL     1      -7.235  13.205  72.386  1.00  0.00     7.784 C  
HETATM    9  C   UNL     1     -10.364  10.198  73.229  1.00  0.00     9.458 C  
HETATM   10  C   UNL     1      -9.605  14.122  72.698  1.00  0.00     8.928 C  
HETATM   11  C   UNL     1     -11.001  14.346  72.059  1.00  0.00     1.826 C  
HETATM   12  O   UNL     1     -11.451  11.063  73.573  1.00  0.00     9.381 OA 
HETATM   13  C   UNL     1     -10.717   9.319  72.004  1.00  0.00    -0.061 C  
HETATM   14  C   UNL     1      -9.617   8.240  71.765  1.00  0.00    -0.274 C  
HETATM   15  C   UNL     1     -12.142   8.735  72.225  1.00  0.00    -0.423 C  
HETATM   16  C   UNL     1     -10.898  15.045  70.706  1.00  0.00    -0.071 C  
HETATM   17  H   UNL     1     -12.233  10.545  73.723  1.00  0.00     0.000 HD 
HETATM   18  O   UNL     1     -11.848  10.797  70.394  1.00  0.00    -0.299 OA 
HETATM   19  C   UNL     1      -9.889   7.730  70.341  1.00  0.00    -0.183 C  
HETATM   20  H   UNL     1     -12.602  10.224  70.482  1.00  0.00     0.000 HD 
HETATM   21  C   UNL     1      -9.461  15.160  70.189  1.00  0.00     0.320 C  
HETATM   22  C   UNL     1     -10.645  10.054  70.601  1.00  0.00    -0.202 C  
HETATM   23  C   UNL     1     -10.615   8.874  69.613  1.00  0.00    -0.230 C  
ENDROOT
BRANCH  16  24
HETATM   24  O   UNL     1     -11.687  14.476  69.666  1.00  0.00    -0.271 OA 
BRANCH  24  25
HETATM   25  C   UNL     1     -11.222  14.509  68.308  1.00  0.00    -0.277 C  
HETATM   26  O   UNL     1     -13.585  12.198  66.567  1.00  0.00     4.653 OA 
HETATM   27  C   UNL     1     -12.969  14.463  65.887  1.00  0.00     0.083 C  
HETATM   28  C   UNL     1     -11.606  13.256  67.525  1.00  0.00    -0.388 C  
HETATM   29  C   UNL     1     -13.024  13.429  67.013  1.00  0.00     1.579 C  
HETATM   30  O   UNL     1     -11.792  15.713  67.780  1.00  0.00    -0.153 OA 
HETATM   31  C   UNL     1     -12.339  15.773  66.456  1.00  0.00     1.620 C  
HETATM   32  H   UNL     1     -14.473  12.305  66.247  1.00  0.00     0.000 HD 
HETATM   33  C   UNL     1     -13.364  16.916  66.506  1.00  0.00     8.994 C  
BRANCH  27  34
HETATM   34  O   UNL     1     -12.107  14.091  64.786  1.00  0.00    -0.393 OA 
BRANCH  34  35
HETATM   35  C   UNL     1     -10.691  14.195  64.913  1.00  0.00    -0.428 C  
HETATM   36  C   UNL     1     -10.169  13.844  66.300  1.00  0.00    -0.299 C  
HETATM   37  C   UNL     1     -10.573  12.415  66.631  1.00  0.00    -0.231 C  
HETATM   38  O   UNL     1     -10.128  12.047  67.939  1.00  0.00    -0.186 OA 
HETATM   39  C   UNL     1     -10.073  11.417  65.566  1.00  0.00    -0.247 C  
HETATM   40  O   UNL     1     -10.062  13.342  63.948  1.00  0.00    -0.178 OA 
HETATM   41  C   UNL     1     -10.269  11.937  64.113  1.00  0.00    -0.330 C  
HETATM   42  H   UNL     1     -10.380  11.154  68.146  1.00  0.00     0.000 HD 
HETATM   43  C   UNL     1     -11.561  11.504  63.420  1.00  0.00    -0.232 C  
BRANCH  39  44
HETATM   44  O   UNL     1      -8.665  11.118  65.676  1.00  0.00    -0.185 OA 
BRANCH  44  45
HETATM   45  C   UNL     1      -8.173   9.867  65.192  1.00  0.00    -0.144 C  
HETATM   46  C   UNL     1      -7.147   9.173  66.084  1.00  0.00    -0.087 C  
HETATM   47  C   UNL     1      -7.797   8.832  67.418  1.00  0.00    -0.098 C  
HETATM   48  C   UNL     1      -8.986   7.895  67.188  1.00  0.00    -0.129 C  
HETATM   49  O   UNL     1      -6.844   8.181  68.267  1.00  0.00    -0.065 OA 
HETATM   50  H   UNL     1      -7.250   7.969  69.099  1.00  0.00     0.000 HD 
HETATM   51  O   UNL     1      -8.476   6.622  66.750  1.00  0.00    -0.113 OA 
HETATM   52  C   UNL     1      -9.947   8.463  66.127  1.00  0.00    -0.042 C  
HETATM   53  C   UNL     1     -10.902   9.507  66.698  1.00  0.00     0.018 C  
HETATM   54  O   UNL     1      -9.275   8.972  64.963  1.00  0.00    -0.178 OA 
HETATM   55  H   UNL     1      -9.215   6.041  66.607  1.00  0.00     0.000 HD 
ENDBRANCH  44  45
ENDBRANCH  39  44
ENDBRANCH  34  35
ENDBRANCH  27  34
ENDBRANCH  24  25
ENDBRANCH  16  24
BRANCH  14  56
HETATM   56  C   UNL     1      -9.332   7.198  72.801  1.00  0.00    -0.170 C  
HETATM   57  C   UNL     1      -8.222   7.207  73.776  1.00  0.00    -0.131 C  
HETATM   58  C   UNL     1      -9.362   5.256  73.935  1.00  0.00    -0.129 C  
HETATM   59  O   UNL     1      -8.341   5.964  74.470  1.00  0.00    -0.111 OA 
HETATM   60  O   UNL     1      -9.709   4.134  74.260  1.00  0.00    -0.110 OA 
HETATM   61  C   UNL     1      -9.992   6.041  72.884  1.00  0.00    -0.187 C  
ENDBRANCH  14  56
TORSDOF 7
ENDMDL
MODEL       92
REMARK 921   NORMALIZED FREE ENERGY PREDICTED BY IDOCK:   93.18 KCAL/MOL
REMARK 922        TOTAL FREE ENERGY PREDICTED BY IDOCK:  129.47 KCAL/MOL
REMARK 923 INTER-LIGAND FREE ENERGY PREDICTED BY IDOCK:   94.64 KCAL/MOL
REMARK 924 INTRA-LIGAND FREE ENERGY PREDICTED BY IDOCK:   34.83 KCAL/MOL
REMARK 927      BINDING AFFINITY PREDICTED BY RF-SCORE:    0.00 PKD
ROOT
HETATM    1  C   UNL     1      -6.986   2.973  67.497  1.00  0.00    -0.049 C  
HETATM    2  C   UNL     1      -6.359   4.320  67.880  1.00  0.00    -0.037 C  
HETATM    3  C   UNL     1      -7.338   5.325  68.458  1.00  0.00    -0.071 C  
HETATM    4  C   UNL     1      -8.473   5.663  67.476  1.00  0.00    -0.102 C  
HETATM    5  C   UNL     1      -9.099   4.387  66.900  1.00  0.00    -0.136 C  
HETATM    6  C   UNL     1      -8.289   3.086  66.657  1.00  0.00    -0.094 C  
HETATM    7  C   UNL     1     -10.133   4.690  65.804  1.00  0.00    -0.264 C  
HETATM    8  C   UNL     1      -7.869   2.929  65.172  1.00  0.00    -0.082 C  
HETATM    9  C   UNL     1     -11.336   5.349  66.460  1.00  0.00     0.757 C  
HETATM   10  C   UNL     1      -9.283   1.933  67.060  1.00  0.00    -0.057 C  
HETATM   11  C   UNL     1      -9.617   1.951  68.575  1.00  0.00    -0.151 C  
HETATM   12  O   UNL     1     -11.994   4.405  67.310  1.00  0.00     5.403 OA 
HETATM   13  C   UNL     1     -10.938   6.624  67.244  1.00  0.00    -0.456 C  
HETATM   14  C   UNL     1     -10.414   7.727  66.275  1.00  0.00     0.496 C  
HETATM   15  C   UNL     1     -12.160   7.062  68.103  1.00  0.00     2.543 C  
HETATM   16  C   UNL     1      -8.362   1.820  69.433  1.00  0.00    -0.045 C  
HETATM   17  H   UNL     1     -12.747   4.817  67.720  1.00  0.00     0.000 HD 
HETATM   18  O   UNL     1     -10.025   5.855  69.396  1.00  0.00    -0.157 OA 
HETATM   19  C   UNL     1      -9.710   8.736  67.195  1.00  0.00    -0.248 C  
HETATM   20  H   UNL     1     -10.730   6.342  69.806  1.00  0.00     0.000 HD 
HETATM   21  C   UNL     1      -7.063   1.929  68.630  1.00  0.00    -0.039 C  
HETATM   22  C   UNL     1      -9.656   6.478  68.164  1.00  0.00    -0.123 C  
HETATM   23  C   UNL     1      -9.283   7.946  68.444  1.00  0.00    -0.134 C  
ENDROOT
BRANCH  16  24
HETATM   24  O   UNL     1      -8.274   2.732  70.524  1.00  0.00    -0.045 OA 
BRANCH  24  25
HETATM   25  C   UNL     1      -8.289   4.148  70.282  1.00  0.00    -0.061 C  
HETATM   26  O   UNL     1      -6.093   5.474  72.998  1.00  0.00    -0.043 OA 
HETATM   27  C   UNL     1      -5.952   5.976  70.610  1.00  0.00    -0.029 C  
HETATM   28  C   UNL     1      -7.979   4.960  71.537  1.00  0.00    -0.110 C  
HETATM   29  C   UNL     1      -6.472   5.033  71.697  1.00  0.00    -0.031 C  
HETATM   30  O   UNL     1      -7.333   4.326  69.231  1.00  0.00    -0.053 OA 
HETATM   31  C   UNL     1      -6.413   5.427  69.224  1.00  0.00    -0.038 C  
HETATM   32  H   UNL     1      -5.150   5.520  73.099  1.00  0.00     0.000 HD 
HETATM   33  C   UNL     1      -5.223   4.939  68.386  1.00  0.00    -0.004 C  
BRANCH  27  34
HETATM   34  O   UNL     1      -6.504   7.313  70.676  1.00  0.00    -0.042 OA 
BRANCH  34  35
HETATM   35  C   UNL     1      -5.758   8.425  70.189  1.00  0.00    -0.021 C  
HETATM   36  C   UNL     1      -6.532   9.312  69.224  1.00  0.00    -0.045 C  
HETATM   37  C   UNL     1      -7.772   9.842  69.929  1.00  0.00    -0.157 C  
HETATM   38  O   UNL     1      -8.550  10.661  69.052  1.00  0.00    -0.148 OA 
HETATM   39  C   UNL     1      -7.415  10.592  71.229  1.00  0.00     3.043 C  
HETATM   40  O   UNL     1      -5.309   9.219  71.295  1.00  0.00    -0.037 OA 
HETATM   41  C   UNL     1      -6.326   9.863  72.067  1.00  0.00     0.674 C  
HETATM   42  H   UNL     1      -9.324  10.993  69.492  1.00  0.00     0.000 HD 
HETATM   43  C   UNL     1      -6.845   8.923  73.156  1.00  0.00     0.195 C  
BRANCH  39  44
HETATM   44  O   UNL     1      -6.892  11.919  71.001  1.00  0.00     1.334 OA 
BRANCH  44  45
HETATM   45  C   UNL     1      -7.659  13.055  71.404  1.00  0.00     7.549 C  
HETATM   46  C   UNL     1      -6.853  14.250  71.905  1.00  0.00     2.153 C  
HETATM   47  C   UNL     1      -5.978  14.770  70.772  1.00  0.00    -0.105 C  
HETATM   48  C   UNL     1      -6.860  15.207  69.599  1.00  0.00    -0.188 C  
HETATM   49  O   UNL     1      -5.214  15.892  71.228  1.00  0.00    -0.145 OA 
HETATM   50  H   UNL     1      -4.668  16.217  70.522  1.00  0.00     0.000 HD 
HETATM   51  O   UNL     1      -7.591  16.382  70.000  1.00  0.00     0.466 OA 
HETATM   52  C   UNL     1      -7.846  14.095  69.197  1.00  0.00     0.063 C  
HETATM   53  C   UNL     1      -7.206  13.039  68.300  1.00  0.00    -0.113 C  
HETATM   54  O   UNL     1      -8.500  13.479  70.318  1.00  0.00     2.672 OA 
HETATM   55  H   UNL     1      -8.138  16.653  69.271  1.00  0.00     0.000 HD 
ENDBRANCH  44  45
ENDBRANCH  39  44
ENDBRANCH  34  35
ENDBRANCH  27  34
ENDBRANCH  24  25
ENDBRANCH  16  24
BRANCH  14  56
HETATM   56  C   UNL     1     -11.305   8.300  65.217  1.00  0.00     8.353 C  
HETATM   57  C   UNL     1     -11.290   7.966  63.778  1.00  0.00    18.521 C  
HETATM   58  C   UNL     1     -12.757   9.650  64.156  1.00  0.00    13.250 C  
HETATM   59  O   UNL     1     -12.259   8.838  63.195  1.00  0.00    16.267 OA 
HETATM   60  O   UNL     1     -13.571  10.543  63.995  1.00  0.00     4.182 OA 
HETATM   61  C   UNL     1     -12.157   9.304  65.435  1.00  0.00    10.378 C  
ENDBRANCH  14  56
TORSDOF 7
ENDMDL
MODEL       93
REMARK 921   NORMALIZED FREE ENERGY PREDICTED BY IDOCK:   93.81 KCAL/MOL
REMARK 922        TOTAL FREE ENERGY PREDICTED BY IDOCK:  130.36 KCAL/MOL
REMARK 923 INTER-LIGAND FREE ENERGY PREDICTED BY IDOCK:   47.86 KCAL/MOL
REMARK 924 INTRA-LIGAND FREE ENERGY PREDICTED BY IDOCK:   82.50 KCAL/MOL
REMARK 927      BINDING AFFINITY PREDICTED BY RF-SCORE:    0.00 PKD
ROOT
HETATM    1  C   UNL     1      -7.275   3.112  66.382  1.00  0.00    -0.070 C  
HETATM    2  C   UNL     1      -6.152   3.877  67.097  1.00  0.00    -0.025 C  
HETATM    3  C   UNL     1      -6.637   4.930  68.075  1.00  0.00    -0.049 C  
HETATM    4  C   UNL     1      -7.499   6.006  67.393  1.00  0.00    -0.081 C  
HETATM    5  C   UNL     1      -8.585   5.367  66.519  1.00  0.00    -0.116 C  
HETATM    6  C   UNL     1      -8.387   4.016  65.782  1.00  0.00    -0.109 C  
HETATM    7  C   UNL     1      -9.368   6.410  65.706  1.00  0.00     0.096 C  
HETATM    8  C   UNL     1      -8.030   4.215  64.285  1.00  0.00    -0.086 C  
HETATM    9  C   UNL     1     -10.203   7.233  66.675  1.00  0.00    -0.162 C  
HETATM   10  C   UNL     1      -9.782   3.298  65.911  1.00  0.00     0.062 C  
HETATM   11  C   UNL     1     -10.120   2.936  67.381  1.00  0.00     1.196 C  
HETATM   12  O   UNL     1     -11.218   6.407  67.252  1.00  0.00    -0.570 OA 
HETATM   13  C   UNL     1      -9.330   7.893  67.771  1.00  0.00    -0.153 C  
HETATM   14  C   UNL     1      -8.367   8.949  67.147  1.00  0.00    -0.103 C  
HETATM   15  C   UNL     1     -10.280   8.467  68.862  1.00  0.00    -0.223 C  
HETATM   16  C   UNL     1      -9.059   2.030  67.999  1.00  0.00    -0.168 C  
HETATM   17  H   UNL     1     -11.741   6.921  67.857  1.00  0.00     0.000 HD 
HETATM   18  O   UNL     1      -8.881   6.144  69.443  1.00  0.00    -0.125 OA 
HETATM   19  C   UNL     1      -7.330   9.214  68.251  1.00  0.00    -0.079 C  
HETATM   20  H   UNL     1      -9.329   6.704  70.067  1.00  0.00     0.000 HD 
HETATM   21  C   UNL     1      -7.812   1.871  67.125  1.00  0.00    -0.065 C  
HETATM   22  C   UNL     1      -8.252   6.943  68.439  1.00  0.00    -0.120 C  
HETATM   23  C   UNL     1      -7.308   7.948  69.124  1.00  0.00    -0.083 C  
ENDROOT
BRANCH  16  24
HETATM   24  O   UNL     1      -8.627   2.402  69.305  1.00  0.00    -0.062 OA 
BRANCH  24  25
HETATM   25  C   UNL     1      -9.592   2.669  70.334  1.00  0.00    -0.057 C  
HETATM   26  O   UNL     1      -9.573   6.399  70.538  1.00  0.00    -0.164 OA 
HETATM   27  C   UNL     1     -11.526   4.943  70.334  1.00  0.00     2.608 C  
HETATM   28  C   UNL     1      -9.364   4.015  71.017  1.00  0.00    -0.219 C  
HETATM   29  C   UNL     1     -10.013   5.095  70.170  1.00  0.00    -0.253 C  
HETATM   30  O   UNL     1     -10.850   2.573  69.658  1.00  0.00     3.067 OA 
HETATM   31  C   UNL     1     -11.920   3.492  69.917  1.00  0.00    13.662 C  
HETATM   32  H   UNL     1      -9.978   7.075  70.008  1.00  0.00     0.000 HD 
HETATM   33  C   UNL     1     -12.766   3.483  68.635  1.00  0.00    26.531 C  
BRANCH  27  34
HETATM   34  O   UNL     1     -11.986   5.069  71.701  1.00  0.00     1.031 OA 
BRANCH  34  35
HETATM   35  C   UNL     1     -11.255   5.858  72.637  1.00  0.00    -0.291 C  
HETATM   36  C   UNL     1     -10.200   5.078  73.409  1.00  0.00    -0.218 C  
HETATM   37  C   UNL     1      -9.213   4.474  72.421  1.00  0.00    -0.125 C  
HETATM   38  O   UNL     1      -8.214   3.706  73.099  1.00  0.00    -0.078 OA 
HETATM   39  C   UNL     1      -8.576   5.550  71.518  1.00  0.00    -0.132 C  
HETATM   40  O   UNL     1     -10.622   6.946  71.951  1.00  0.00    -0.210 OA 
HETATM   41  C   UNL     1      -9.608   6.595  71.006  1.00  0.00    -0.171 C  
HETATM   42  H   UNL     1      -7.598   3.329  72.482  1.00  0.00     0.000 HD 
HETATM   43  C   UNL     1     -10.230   6.303  69.640  1.00  0.00    -0.233 C  
BRANCH  39  44
HETATM   44  O   UNL     1      -7.549   6.321  72.178  1.00  0.00    -0.093 OA 
BRANCH  44  45
HETATM   45  C   UNL     1      -7.808   6.874  73.470  1.00  0.00    -0.093 C  
HETATM   46  C   UNL     1      -6.633   7.593  74.127  1.00  0.00    -0.096 C  
HETATM   47  C   UNL     1      -6.245   8.794  73.273  1.00  0.00    -0.032 C  
HETATM   48  C   UNL     1      -7.433   9.754  73.165  1.00  0.00     2.912 C  
HETATM   49  O   UNL     1      -5.141   9.478  73.877  1.00  0.00    -0.120 OA 
HETATM   50  H   UNL     1      -4.899  10.227  73.345  1.00  0.00     0.000 HD 
HETATM   51  O   UNL     1      -7.653  10.344  74.461  1.00  0.00     2.765 OA 
HETATM   52  C   UNL     1      -8.706   9.019  72.707  1.00  0.00     0.823 C  
HETATM   53  C   UNL     1      -8.754   8.816  71.195  1.00  0.00    -0.265 C  
HETATM   54  O   UNL     1      -8.925   7.776  73.393  1.00  0.00    -0.201 OA 
HETATM   55  H   UNL     1      -8.390  10.940  74.393  1.00  0.00     0.000 HD 
ENDBRANCH  44  45
ENDBRANCH  39  44
ENDBRANCH  34  35
ENDBRANCH  27  34
ENDBRANCH  24  25
ENDBRANCH  16  24
BRANCH  14  56
HETATM   56  C   UNL     1      -8.907  10.152  66.440  1.00  0.00    -0.158 C  
HETATM   57  C   UNL     1      -9.357  11.413  67.065  1.00  0.00    -0.174 C  
HETATM   58  C   UNL     1      -9.781  11.470  64.841  1.00  0.00    -0.234 C  
HETATM   59  O   UNL     1      -9.859  12.195  65.981  1.00  0.00    -0.235 OA 
HETATM   60  O   UNL     1     -10.164  11.819  63.737  1.00  0.00    -0.324 OA 
HETATM   61  C   UNL     1      -9.174  10.181  65.133  1.00  0.00    -0.262 C  
ENDBRANCH  14  56
TORSDOF 7
ENDMDL
MODEL       94
REMARK 921   NORMALIZED FREE ENERGY PREDICTED BY IDOCK:   95.03 KCAL/MOL
REMARK 922        TOTAL FREE ENERGY PREDICTED BY IDOCK:  132.08 KCAL/MOL
REMARK 923 INTER-LIGAND FREE ENERGY PREDICTED BY IDOCK:   85.69 KCAL/MOL
REMARK 924 INTRA-LIGAND FREE ENERGY PREDICTED BY IDOCK:   46.39 KCAL/MOL
REMARK 927      BINDING AFFINITY PREDICTED BY RF-SCORE:    0.00 PKD
ROOT
HETATM    1  C   UNL     1      -8.358  13.828  70.676  1.00  0.00     4.219 C  
HETATM    2  C   UNL     1      -8.446  13.042  69.360  1.00  0.00     1.119 C  
HETATM    3  C   UNL     1      -9.834  12.528  69.030  1.00  0.00     0.263 C  
HETATM    4  C   UNL     1     -10.377  11.581  70.113  1.00  0.00     1.324 C  
HETATM    5  C   UNL     1     -10.215  12.193  71.510  1.00  0.00    10.030 C  
HETATM    6  C   UNL     1      -9.040  13.132  71.887  1.00  0.00    17.009 C  
HETATM    7  C   UNL     1     -10.609  11.211  72.625  1.00  0.00    11.691 C  
HETATM    8  C   UNL     1      -7.917  12.384  72.652  1.00  0.00    17.882 C  
HETATM    9  C   UNL     1     -12.114  11.001  72.558  1.00  0.00     2.866 C  
HETATM   10  C   UNL     1      -9.697  14.216  72.821  1.00  0.00     8.702 C  
HETATM   11  C   UNL     1     -10.722  15.099  72.062  1.00  0.00     0.726 C  
HETATM   12  O   UNL     1     -12.782  12.217  72.910  1.00  0.00     0.772 OA 
HETATM   13  C   UNL     1     -12.565  10.500  71.164  1.00  0.00    -0.520 C  
HETATM   14  C   UNL     1     -11.995   9.076  70.879  1.00  0.00    -0.274 C  
HETATM   15  C   UNL     1     -14.117  10.587  71.100  1.00  0.00     1.195 C  
HETATM   16  C   UNL     1     -10.083  15.816  70.876  1.00  0.00     0.959 C  
HETATM   17  H   UNL     1     -13.723  12.085  72.869  1.00  0.00     0.000 HD 
HETATM   18  O   UNL     1     -12.648  12.483  69.709  1.00  0.00     0.058 OA 
HETATM   19  C   UNL     1     -12.182   8.890  69.365  1.00  0.00     1.791 C  
HETATM   20  H   UNL     1     -13.573  12.296  69.601  1.00  0.00     0.000 HD 
HETATM   21  C   UNL     1      -8.662  15.337  70.571  1.00  0.00     1.378 C  
HETATM   22  C   UNL     1     -11.929  11.268  69.932  1.00  0.00    -0.365 C  
HETATM   23  C   UNL     1     -12.210  10.305  68.763  1.00  0.00     0.714 C  
ENDROOT
BRANCH  16  24
HETATM   24  O   UNL     1     -10.827  15.765  69.662  1.00  0.00    -0.248 OA 
BRANCH  24  25
HETATM   25  C   UNL     1     -10.195  16.095  68.415  1.00  0.00    -0.240 C  
HETATM   26  O   UNL     1      -6.765  14.670  68.826  1.00  0.00    -0.081 OA 
HETATM   27  C   UNL     1      -8.283  14.342  66.937  1.00  0.00    -0.016 C  
HETATM   28  C   UNL     1      -8.674  16.162  68.529  1.00  0.00    -0.200 C  
HETATM   29  C   UNL     1      -8.124  14.754  68.402  1.00  0.00    -0.144 C  
HETATM   30  O   UNL     1     -10.659  15.081  67.517  1.00  0.00    -0.257 OA 
HETATM   31  C   UNL     1      -9.791  14.467  66.555  1.00  0.00    -0.287 C  
HETATM   32  H   UNL     1      -6.420  13.789  68.747  1.00  0.00     0.000 HD 
HETATM   33  C   UNL     1     -10.418  13.093  66.279  1.00  0.00    -0.291 C  
BRANCH  27  34
HETATM   34  O   UNL     1      -7.595  15.209  66.004  1.00  0.00     1.199 OA 
BRANCH  34  35
HETATM   35  C   UNL     1      -8.113  16.503  65.708  1.00  0.00     0.568 C  
HETATM   36  C   UNL     1      -9.092  17.028  66.749  1.00  0.00    -0.266 C  
HETATM   37  C   UNL     1      -8.389  17.093  68.097  1.00  0.00    -0.226 C  
HETATM   38  O   UNL     1      -9.277  17.556  69.117  1.00  0.00    -0.118 OA 
HETATM   39  C   UNL     1      -7.109  17.952  68.035  1.00  0.00    -0.215 C  
HETATM   40  O   UNL     1      -7.029  17.431  65.576  1.00  0.00    -0.164 OA 
HETATM   41  C   UNL     1      -6.263  17.684  66.757  1.00  0.00    -0.170 C  
HETATM   42  H   UNL     1      -8.839  17.597  69.959  1.00  0.00     0.000 HD 
HETATM   43  C   UNL     1      -5.149  16.646  66.903  1.00  0.00    -0.059 C  
BRANCH  39  44
HETATM   44  O   UNL     1      -7.371  19.373  68.025  1.00  0.00    -0.258 OA 
BRANCH  44  45
HETATM   45  C   UNL     1      -6.401  20.268  68.571  1.00  0.00    -0.311 C  
HETATM   46  C   UNL     1      -6.894  21.157  69.711  1.00  0.00     2.423 C  
HETATM   47  C   UNL     1      -7.299  20.278  70.887  1.00  0.00     1.095 C  
HETATM   48  C   UNL     1      -6.092  19.464  71.362  1.00  0.00     0.188 C  
HETATM   49  O   UNL     1      -7.765  21.099  71.965  1.00  0.00     1.449 OA 
HETATM   50  H   UNL     1      -8.018  20.551  72.698  1.00  0.00     0.000 HD 
HETATM   51  O   UNL     1      -5.145  20.370  71.956  1.00  0.00    -0.345 OA 
HETATM   52  C   UNL     1      -5.430  18.714  70.192  1.00  0.00    -0.231 C  
HETATM   53  C   UNL     1      -6.150  17.413  69.845  1.00  0.00    -0.187 C  
HETATM   54  O   UNL     1      -5.256  19.525  69.019  1.00  0.00    -0.185 OA 
HETATM   55  H   UNL     1      -4.396  19.864  72.251  1.00  0.00     0.000 HD 
ENDBRANCH  44  45
ENDBRANCH  39  44
ENDBRANCH  34  35
ENDBRANCH  27  34
ENDBRANCH  24  25
ENDBRANCH  16  24
BRANCH  14  56
HETATM   56  C   UNL     1     -12.374   7.915  71.744  1.00  0.00    -0.352 C  
HETATM   57  C   UNL     1     -11.599   7.375  72.880  1.00  0.00    -0.152 C  
HETATM   58  C   UNL     1     -13.399   6.058  72.488  1.00  0.00     0.783 C  
HETATM   59  O   UNL     1     -12.337   6.230  73.308  1.00  0.00     1.007 OA 
HETATM   60  O   UNL     1     -14.212   5.151  72.542  1.00  0.00     0.852 OA 
HETATM   61  C   UNL     1     -13.424   7.128  71.504  1.00  0.00    -0.411 C  
ENDBRANCH  14  56
TORSDOF 7
ENDMDL
MODEL       95
REMARK 921   NORMALIZED FREE ENERGY PREDICTED BY IDOCK:  101.15 KCAL/MOL
REMARK 922        TOTAL FREE ENERGY PREDICTED BY IDOCK:  140.70 KCAL/MOL
REMARK 923 INTER-LIGAND FREE ENERGY PREDICTED BY IDOCK:   67.21 KCAL/MOL
REMARK 924 INTRA-LIGAND FREE ENERGY PREDICTED BY IDOCK:   73.49 KCAL/MOL
REMARK 927      BINDING AFFINITY PREDICTED BY RF-SCORE:    0.00 PKD
ROOT
HETATM    1  C   UNL     1      -6.490  13.915  68.247  1.00  0.00    -0.111 C  
HETATM    2  C   UNL     1      -6.923  13.377  66.876  1.00  0.00     0.811 C  
HETATM    3  C   UNL     1      -8.381  12.966  66.797  1.00  0.00     0.033 C  
HETATM    4  C   UNL     1      -8.728  11.856  67.802  1.00  0.00    -0.158 C  
HETATM    5  C   UNL     1      -8.216  12.206  69.205  1.00  0.00     0.626 C  
HETATM    6  C   UNL     1      -6.927  13.033  69.450  1.00  0.00     0.104 C  
HETATM    7  C   UNL     1      -8.414  11.052  70.201  1.00  0.00     1.602 C  
HETATM    8  C   UNL     1      -5.713  12.132  69.797  1.00  0.00    -0.111 C  
HETATM    9  C   UNL     1      -9.906  10.897  70.453  1.00  0.00     1.560 C  
HETATM   10  C   UNL     1      -7.285  13.951  70.678  1.00  0.00     1.422 C  
HETATM   11  C   UNL     1      -8.394  14.980  70.337  1.00  0.00     1.091 C  
HETATM   12  O   UNL     1     -10.396  12.047  71.148  1.00  0.00     4.278 OA 
HETATM   13  C   UNL     1     -10.690  10.663  69.138  1.00  0.00    -0.264 C  
HETATM   14  C   UNL     1     -10.294   9.298  68.495  1.00  0.00    -0.237 C  
HETATM   15  C   UNL     1     -12.208  10.800  69.452  1.00  0.00    -0.242 C  
HETATM   16  C   UNL     1      -7.991  15.880  69.172  1.00  0.00    -0.233 C  
HETATM   17  H   UNL     1     -11.329  11.950  71.305  1.00  0.00     0.000 HD 
HETATM   18  O   UNL     1     -10.966  12.874  68.094  1.00  0.00    -0.229 OA 
HETATM   19  C   UNL     1     -10.828   9.388  67.057  1.00  0.00    -0.096 C  
HETATM   20  H   UNL     1     -11.903  12.734  68.175  1.00  0.00     0.000 HD 
HETATM   21  C   UNL     1      -6.709  15.426  68.468  1.00  0.00    -0.113 C  
HETATM   22  C   UNL     1     -10.298  11.621  67.938  1.00  0.00    -0.188 C  
HETATM   23  C   UNL     1     -10.897  10.888  66.723  1.00  0.00    -0.283 C  
ENDROOT
BRANCH  16  24
HETATM   24  O   UNL     1      -8.990  16.064  68.172  1.00  0.00    -0.179 OA 
BRANCH  24  25
HETATM   25  C   UNL     1      -9.929  17.145  68.282  1.00  0.00    -0.300 C  
HETATM   26  O   UNL     1     -13.082  15.404  69.276  1.00  0.00    -0.049 OA 
HETATM   27  C   UNL     1     -12.076  17.358  70.346  1.00  0.00     4.701 C  
HETATM   28  C   UNL     1     -11.374  16.689  68.097  1.00  0.00    -0.095 C  
HETATM   29  C   UNL     1     -11.878  16.153  69.424  1.00  0.00    -0.151 C  
HETATM   30  O   UNL     1      -9.663  17.699  69.576  1.00  0.00     0.062 OA 
HETATM   31  C   UNL     1     -10.719  18.122  70.449  1.00  0.00     1.961 C  
HETATM   32  H   UNL     1     -13.398  15.069  70.106  1.00  0.00     0.000 HD 
HETATM   33  C   UNL     1     -10.123  18.027  71.861  1.00  0.00     5.708 C  
BRANCH  27  34
HETATM   34  O   UNL     1     -13.012  18.340  69.841  1.00  0.00    13.540 OA 
BRANCH  34  35
HETATM   35  C   UNL     1     -12.540  19.507  69.173  1.00  0.00    10.684 C  
HETATM   36  C   UNL     1     -11.507  20.297  69.966  1.00  0.00     4.024 C  
HETATM   37  C   UNL     1     -10.315  19.397  70.252  1.00  0.00     1.199 C  
HETATM   38  O   UNL     1      -9.325  20.086  71.021  1.00  0.00     1.005 OA 
HETATM   39  C   UNL     1      -9.713  18.813  68.958  1.00  0.00    -0.279 C  
HETATM   40  O   UNL     1     -11.975  19.138  67.909  1.00  0.00     1.556 OA 
HETATM   41  C   UNL     1     -10.797  18.328  67.953  1.00  0.00    -0.206 C  
HETATM   42  H   UNL     1      -8.580  19.525  71.201  1.00  0.00     0.000 HD 
HETATM   43  C   UNL     1     -11.170  16.848  68.041  1.00  0.00    -0.064 C  
BRANCH  39  44
HETATM   44  O   UNL     1      -8.909  19.760  68.220  1.00  0.00    -0.325 OA 
BRANCH  44  45
HETATM   45  C   UNL     1      -7.913  19.281  67.316  1.00  0.00    -0.260 C  
HETATM   46  C   UNL     1      -8.232  17.958  66.624  1.00  0.00    -0.284 C  
HETATM   47  C   UNL     1      -9.473  18.136  65.759  1.00  0.00     0.342 C  
HETATM   48  C   UNL     1      -9.213  19.213  64.701  1.00  0.00     4.832 C  
HETATM   49  O   UNL     1      -9.786  16.901  65.104  1.00  0.00    -0.240 OA 
HETATM   50  H   UNL     1     -10.560  17.012  64.564  1.00  0.00     0.000 HD 
HETATM   51  O   UNL     1      -8.246  18.700  63.766  1.00  0.00     8.188 OA 
HETATM   52  C   UNL     1      -8.680  20.507  65.341  1.00  0.00     0.853 C  
HETATM   53  C   UNL     1      -9.792  21.375  65.927  1.00  0.00     3.106 C  
HETATM   54  O   UNL     1      -7.649  20.280  66.316  1.00  0.00    -0.273 OA 
HETATM   55  H   UNL     1      -8.085  19.368  63.110  1.00  0.00     0.000 HD 
ENDBRANCH  44  45
ENDBRANCH  39  44
ENDBRANCH  34  35
ENDBRANCH  27  34
ENDBRANCH  24  25
ENDBRANCH  16  24
BRANCH  14  56
HETATM   56  C   UNL     1     -10.545   8.012  69.219  1.00  0.00    -0.193 C  
HETATM   57  C   UNL     1     -10.803   7.851  70.664  1.00  0.00    -0.237 C  
HETATM   58  C   UNL     1     -10.644   5.815  69.686  1.00  0.00    -0.326 C  
HETATM   59  O   UNL     1     -10.887   6.440  70.862  1.00  0.00    -0.237 OA 
HETATM   60  O   UNL     1     -10.594   4.610  69.507  1.00  0.00     0.114 OA 
HETATM   61  C   UNL     1     -10.434   6.811  68.648  1.00  0.00    -0.232 C  
ENDBRANCH  14  56
TORSDOF 7
ENDMDL
MODEL       96
REMARK 921   NORMALIZED FREE ENERGY PREDICTED BY IDOCK:  101.64 KCAL/MOL
REMARK 922        TOTAL FREE ENERGY PREDICTED BY IDOCK:  141.40 KCAL/MOL
REMARK 923 INTER-LIGAND FREE ENERGY PREDICTED BY IDOCK:  128.24 KCAL/MOL
REMARK 924 INTRA-LIGAND FREE ENERGY PREDICTED BY IDOCK:   13.15 KCAL/MOL
REMARK 927      BINDING AFFINITY PREDICTED BY RF-SCORE:    0.00 PKD
ROOT
HETATM    1  C   UNL     1      -6.487  13.289  65.938  1.00  0.00     5.749 C  
HETATM    2  C   UNL     1      -7.245  12.498  67.013  1.00  0.00     0.019 C  
HETATM    3  C   UNL     1      -8.691  12.919  67.196  1.00  0.00    -0.205 C  
HETATM    4  C   UNL     1      -8.821  14.396  67.603  1.00  0.00    -0.193 C  
HETATM    5  C   UNL     1      -7.984  15.294  66.684  1.00  0.00     0.007 C  
HETATM    6  C   UNL     1      -6.651  14.831  66.038  1.00  0.00     5.705 C  
HETATM    7  C   UNL     1      -7.972  16.758  67.154  1.00  0.00    -0.210 C  
HETATM    8  C   UNL     1      -5.414  15.355  66.814  1.00  0.00     1.375 C  
HETATM    9  C   UNL     1      -9.366  17.330  66.949  1.00  0.00    -0.255 C  
HETATM   10  C   UNL     1      -6.685  15.457  64.594  1.00  0.00    15.645 C  
HETATM   11  C   UNL     1      -7.815  14.852  63.720  1.00  0.00    18.917 C  
HETATM   12  O   UNL     1      -9.648  17.415  65.549  1.00  0.00    -0.424 OA 
HETATM   13  C   UNL     1     -10.444  16.498  67.686  1.00  0.00    -0.305 C  
HETATM   14  C   UNL     1     -10.248  16.585  69.231  1.00  0.00    -0.290 C  
HETATM   15  C   UNL     1     -11.841  16.977  67.196  1.00  0.00     1.654 C  
HETATM   16  C   UNL     1      -7.674  13.339  63.580  1.00  0.00    12.585 C  
HETATM   17  H   UNL     1     -10.519  17.773  65.421  1.00  0.00     0.000 HD 
HETATM   18  O   UNL     1     -10.899  14.541  66.264  1.00  0.00    -0.306 OA 
HETATM   19  C   UNL     1     -11.103  15.435  69.787  1.00  0.00    -0.295 C  
HETATM   20  H   UNL     1     -11.794  14.858  66.211  1.00  0.00     0.000 HD 
HETATM   21  C   UNL     1      -6.607  12.741  64.501  1.00  0.00    10.810 C  
HETATM   22  C   UNL     1     -10.321  14.927  67.512  1.00  0.00    -0.239 C  
HETATM   23  C   UNL     1     -11.208  14.399  68.655  1.00  0.00    -0.280 C  
ENDROOT
BRANCH  16  24
HETATM   24  O   UNL     1      -8.876  12.597  63.772  1.00  0.00     1.190 OA 
BRANCH  24  25
HETATM   25  C   UNL     1      -8.951  11.226  63.351  1.00  0.00    -0.033 C  
HETATM   26  O   UNL     1      -8.400   9.351  66.535  1.00  0.00    -0.117 OA 
HETATM   27  C   UNL     1     -10.198   9.010  64.914  1.00  0.00     1.979 C  
HETATM   28  C   UNL     1      -8.201  10.283  64.288  1.00  0.00    -0.157 C  
HETATM   29  C   UNL     1      -9.113   9.944  65.453  1.00  0.00    -0.196 C  
HETATM   30  O   UNL     1     -10.357  10.966  63.278  1.00  0.00    -0.325 OA 
HETATM   31  C   UNL     1     -10.922   9.730  63.734  1.00  0.00     4.551 C  
HETATM   32  H   UNL     1      -8.971   9.139  67.264  1.00  0.00     0.000 HD 
HETATM   33  C   UNL     1     -12.378  10.070  64.089  1.00  0.00     8.364 C  
BRANCH  27  34
HETATM   34  O   UNL     1      -9.687   7.784  64.337  1.00  0.00     2.341 OA 
BRANCH  34  35
HETATM   35  C   UNL     1      -9.638   6.589  65.111  1.00  0.00     1.180 C  
HETATM   36  C   UNL     1      -8.705   6.670  66.312  1.00  0.00    -0.150 C  
HETATM   37  C   UNL     1      -9.163   7.805  67.215  1.00  0.00    -0.139 C  
HETATM   38  O   UNL     1      -8.300   7.940  68.347  1.00  0.00    -0.123 OA 
HETATM   39  C   UNL     1     -10.634   7.635  67.649  1.00  0.00    -0.224 C  
HETATM   40  O   UNL     1     -10.957   6.262  65.567  1.00  0.00     1.737 OA 
HETATM   41  C   UNL     1     -11.558   7.182  66.482  1.00  0.00     2.291 C  
HETATM   42  H   UNL     1      -8.585   8.649  68.912  1.00  0.00     0.000 HD 
HETATM   43  C   UNL     1     -12.269   8.303  65.723  1.00  0.00    11.849 C  
BRANCH  39  44
HETATM   44  O   UNL     1     -10.816   6.644  68.684  1.00  0.00    -0.240 OA 
BRANCH  44  45
HETATM   45  C   UNL     1     -10.561   5.270  68.393  1.00  0.00    -0.007 C  
HETATM   46  C   UNL     1      -9.115   4.929  68.041  1.00  0.00    -0.131 C  
HETATM   47  C   UNL     1      -8.226   5.232  69.240  1.00  0.00    -0.092 C  
HETATM   48  C   UNL     1      -8.671   4.387  70.438  1.00  0.00    -0.085 C  
HETATM   49  O   UNL     1      -6.865   4.918  68.924  1.00  0.00    -0.048 OA 
HETATM   50  H   UNL     1      -6.311   5.106  69.671  1.00  0.00     0.000 HD 
HETATM   51  O   UNL     1      -8.362   3.009  70.155  1.00  0.00    -0.044 OA 
HETATM   52  C   UNL     1     -10.181   4.537  70.697  1.00  0.00    -0.088 C  
HETATM   53  C   UNL     1     -10.518   5.801  71.485  1.00  0.00    -0.291 C  
HETATM   54  O   UNL     1     -10.976   4.457  69.504  1.00  0.00     1.452 OA 
HETATM   55  H   UNL     1      -8.638   2.485  70.898  1.00  0.00     0.000 HD 
ENDBRANCH  44  45
ENDBRANCH  39  44
ENDBRANCH  34  35
ENDBRANCH  27  34
ENDBRANCH  24  25
ENDBRANCH  16  24
BRANCH  14  56
HETATM   56  C   UNL     1     -10.355  17.897  69.941  1.00  0.00     0.744 C  
HETATM   57  C   UNL     1      -9.352  18.491  70.849  1.00  0.00     4.477 C  
HETATM   58  C   UNL     1     -11.214  19.780  70.821  1.00  0.00     5.034 C  
HETATM   59  O   UNL     1      -9.963  19.690  71.328  1.00  0.00     1.558 OA 
HETATM   60  O   UNL     1     -12.027  20.657  71.060  1.00  0.00     7.714 OA 
HETATM   61  C   UNL     1     -11.458  18.649  69.939  1.00  0.00     4.808 C  
ENDBRANCH  14  56
TORSDOF 7
ENDMDL
MODEL       97
REMARK 921   NORMALIZED FREE ENERGY PREDICTED BY IDOCK:  104.03 KCAL/MOL
REMARK 922        TOTAL FREE ENERGY PREDICTED BY IDOCK:  144.76 KCAL/MOL
REMARK 923 INTER-LIGAND FREE ENERGY PREDICTED BY IDOCK:   71.95 KCAL/MOL
REMARK 924 INTRA-LIGAND FREE ENERGY PREDICTED BY IDOCK:   72.81 KCAL/MOL
REMARK 927      BINDING AFFINITY PREDICTED BY RF-SCORE:    0.00 PKD
ROOT
HETATM    1  C   UNL     1     -12.777  16.575  68.418  1.00  0.00     2.557 C  
HETATM    2  C   UNL     1     -12.623  16.623  69.945  1.00  0.00     2.448 C  
HETATM    3  C   UNL     1     -11.195  16.479  70.434  1.00  0.00    -0.125 C  
HETATM    4  C   UNL     1     -10.561  15.148  69.999  1.00  0.00    -0.237 C  
HETATM    5  C   UNL     1     -10.772  14.904  68.499  1.00  0.00    -0.245 C  
HETATM    6  C   UNL     1     -12.027  15.398  67.734  1.00  0.00     0.106 C  
HETATM    7  C   UNL     1     -10.283  13.514  68.062  1.00  0.00    -0.243 C  
HETATM    8  C   UNL     1     -13.073  14.268  67.536  1.00  0.00     2.435 C  
HETATM    9  C   UNL     1      -8.765  13.495  68.161  1.00  0.00    -0.174 C  
HETATM   10  C   UNL     1     -11.469  15.864  66.337  1.00  0.00     0.361 C  
HETATM   11  C   UNL     1     -10.533  17.095  66.463  1.00  0.00    -0.255 C  
HETATM   12  O   UNL     1      -8.211  14.384  67.187  1.00  0.00    -0.220 OA 
HETATM   13  C   UNL     1      -8.277  13.854  69.586  1.00  0.00     0.918 C  
HETATM   14  C   UNL     1      -8.714  12.762  70.611  1.00  0.00     7.558 C  
HETATM   15  C   UNL     1      -6.740  14.087  69.524  1.00  0.00    -0.091 C  
HETATM   16  C   UNL     1     -11.242  18.280  67.112  1.00  0.00     0.442 C  
HETATM   17  H   UNL     1      -7.263  14.371  67.249  1.00  0.00     0.000 HD 
HETATM   18  O   UNL     1      -8.386  16.307  69.756  1.00  0.00     0.162 OA 
HETATM   19  C   UNL     1      -8.518  13.429  71.981  1.00  0.00    13.673 C  
HETATM   20  H   UNL     1      -7.448  16.283  69.905  1.00  0.00     0.000 HD 
HETATM   21  C   UNL     1     -12.615  17.925  67.690  1.00  0.00     5.154 C  
HETATM   22  C   UNL     1      -8.988  15.107  70.248  1.00  0.00     0.790 C  
HETATM   23  C   UNL     1      -8.625  14.944  71.735  1.00  0.00     5.082 C  
ENDROOT
BRANCH  16  24
HETATM   24  O   UNL     1     -10.503  18.946  68.132  1.00  0.00    -0.374 OA 
BRANCH  24  25
HETATM   25  C   UNL     1      -9.256  18.402  68.590  1.00  0.00    -0.306 C  
HETATM   26  O   UNL     1      -8.457  15.854  65.977  1.00  0.00    -0.311 OA 
HETATM   27  C   UNL     1      -6.978  17.602  66.833  1.00  0.00    -0.185 C  
HETATM   28  C   UNL     1      -9.004  16.991  68.066  1.00  0.00    -0.230 C  
HETATM   29  C   UNL     1      -8.413  17.097  66.673  1.00  0.00    -0.250 C  
HETATM   30  O   UNL     1      -8.283  19.359  68.152  1.00  0.00    -0.303 OA 
HETATM   31  C   UNL     1      -7.020  18.958  67.606  1.00  0.00    -0.206 C  
HETATM   32  H   UNL     1      -8.088  15.921  65.104  1.00  0.00     0.000 HD 
HETATM   33  C   UNL     1      -6.587  20.130  66.713  1.00  0.00    -0.247 C  
BRANCH  27  34
HETATM   34  O   UNL     1      -6.139  16.745  67.643  1.00  0.00    -0.126 OA 
BRANCH  34  35
HETATM   35  C   UNL     1      -5.458  15.640  67.054  1.00  0.00     0.573 C  
HETATM   36  C   UNL     1      -5.872  14.288  67.619  1.00  0.00    -0.012 C  
HETATM   37  C   UNL     1      -7.366  14.100  67.398  1.00  0.00    -0.120 C  
HETATM   38  O   UNL     1      -7.811  12.853  67.938  1.00  0.00    -0.124 OA 
HETATM   39  C   UNL     1      -7.747  14.235  65.910  1.00  0.00     3.792 C  
HETATM   40  O   UNL     1      -5.681  15.642  65.638  1.00  0.00     4.223 OA 
HETATM   41  C   UNL     1      -7.027  15.422  65.208  1.00  0.00     9.099 C  
HETATM   42  H   UNL     1      -8.743  12.735  67.801  1.00  0.00     0.000 HD 
HETATM   43  C   UNL     1      -7.799  16.742  65.173  1.00  0.00     3.409 C  
BRANCH  39  44
HETATM   44  O   UNL     1      -7.414  13.070  65.123  1.00  0.00     4.968 OA 
BRANCH  44  45
HETATM   45  C   UNL     1      -7.641  11.769  65.666  1.00  0.00     1.069 C  
HETATM   46  C   UNL     1      -9.067  11.491  66.138  1.00  0.00    -0.217 C  
HETATM   47  C   UNL     1     -10.010  11.572  64.945  1.00  0.00    -0.259 C  
HETATM   48  C   UNL     1      -9.609  10.529  63.899  1.00  0.00    -0.309 C  
HETATM   49  O   UNL     1     -11.353  11.316  65.373  1.00  0.00    -0.081 OA 
HETATM   50  H   UNL     1     -11.941  11.366  64.629  1.00  0.00     0.000 HD 
HETATM   51  O   UNL     1      -9.889   9.223  64.437  1.00  0.00    -0.229 OA 
HETATM   52  C   UNL     1      -8.113  10.635  63.549  1.00  0.00     0.015 C  
HETATM   53  C   UNL     1      -7.824  11.738  62.534  1.00  0.00     1.058 C  
HETATM   54  O   UNL     1      -7.266  10.772  64.701  1.00  0.00     0.109 OA 
HETATM   55  H   UNL     1      -9.640   8.575  63.787  1.00  0.00     0.000 HD 
ENDBRANCH  44  45
ENDBRANCH  39  44
ENDBRANCH  34  35
ENDBRANCH  27  34
ENDBRANCH  24  25
ENDBRANCH  16  24
BRANCH  14  56
HETATM   56  C   UNL     1      -8.225  11.354  70.480  1.00  0.00     3.783 C  
HETATM   57  C   UNL     1      -7.876  10.438  71.586  1.00  0.00     4.010 C  
HETATM   58  C   UNL     1      -7.380   9.464  69.602  1.00  0.00    -0.077 C  
HETATM   59  O   UNL     1      -7.387   9.262  70.940  1.00  0.00    -0.114 OA 
HETATM   60  O   UNL     1      -6.982   8.682  68.756  1.00  0.00    -0.061 OA 
HETATM   61  C   UNL     1      -7.916  10.786  69.313  1.00  0.00    -0.110 C  
ENDBRANCH  14  56
TORSDOF 7
ENDMDL
MODEL       98
REMARK 921   NORMALIZED FREE ENERGY PREDICTED BY IDOCK:  110.70 KCAL/MOL
REMARK 922        TOTAL FREE ENERGY PREDICTED BY IDOCK:  154.16 KCAL/MOL
REMARK 923 INTER-LIGAND FREE ENERGY PREDICTED BY IDOCK:   60.87 KCAL/MOL
REMARK 924 INTRA-LIGAND FREE ENERGY PREDICTED BY IDOCK:   93.29 KCAL/MOL
REMARK 927      BINDING AFFINITY PREDICTED BY RF-SCORE:    0.00 PKD
ROOT
HETATM    1  C   UNL     1     -12.336   8.401  66.704  1.00  0.00     9.414 C  
HETATM    2  C   UNL     1     -12.393   9.935  66.717  1.00  0.00     6.745 C  
HETATM    3  C   UNL     1     -11.048  10.612  66.537  1.00  0.00    -0.012 C  
HETATM    4  C   UNL     1     -10.049  10.228  67.642  1.00  0.00    -0.229 C  
HETATM    5  C   UNL     1     -10.001   8.707  67.834  1.00  0.00    -0.232 C  
HETATM    6  C   UNL     1     -11.234   7.791  67.615  1.00  0.00     0.416 C  
HETATM    7  C   UNL     1      -9.127   8.299  69.030  1.00  0.00    -0.147 C  
HETATM    8  C   UNL     1     -11.927   7.417  68.951  1.00  0.00     1.571 C  
HETATM    9  C   UNL     1      -7.679   8.607  68.683  1.00  0.00    -0.099 C  
HETATM   10  C   UNL     1     -10.639   6.500  66.937  1.00  0.00    -0.376 C  
HETATM   11  C   UNL     1     -10.067   6.791  65.525  1.00  0.00     1.483 C  
HETATM   12  O   UNL     1      -7.248   7.746  67.625  1.00  0.00    -0.086 OA 
HETATM   13  C   UNL     1      -7.480  10.096  68.306  1.00  0.00    -0.082 C  
HETATM   14  C   UNL     1      -7.754  11.016  69.535  1.00  0.00     0.039 C  
HETATM   15  C   UNL     1      -6.056  10.254  67.700  1.00  0.00    -0.056 C  
HETATM   16  C   UNL     1     -11.128   7.372  64.594  1.00  0.00    11.358 C  
HETATM   17  H   UNL     1      -6.342   7.938  67.408  1.00  0.00     0.000 HD 
HETATM   18  O   UNL     1      -8.223  10.324  65.972  1.00  0.00    -0.130 OA 
HETATM   19  C   UNL     1      -7.907  12.421  68.930  1.00  0.00     0.110 C  
HETATM   20  H   UNL     1      -7.336  10.600  65.774  1.00  0.00     0.000 HD 
HETATM   21  C   UNL     1     -12.428   7.744  65.311  1.00  0.00    15.847 C  
HETATM   22  C   UNL     1      -8.561  10.691  67.311  1.00  0.00    -0.126 C  
HETATM   23  C   UNL     1      -8.359  12.209  67.475  1.00  0.00    -0.166 C  
ENDROOT
BRANCH  16  24
HETATM   24  O   UNL     1     -10.715   8.504  63.834  1.00  0.00     7.341 OA 
BRANCH  24  25
HETATM   25  C   UNL     1      -9.662   9.352  64.318  1.00  0.00     0.658 C  
HETATM   26  O   UNL     1     -11.062  12.779  63.813  1.00  0.00    -0.410 OA 
HETATM   27  C   UNL     1     -10.057  11.882  65.853  1.00  0.00    -0.234 C  
HETATM   28  C   UNL     1      -9.708  10.751  63.709  1.00  0.00    -0.372 C  
HETATM   29  C   UNL     1     -10.702  11.582  64.499  1.00  0.00    -0.329 C  
HETATM   30  O   UNL     1      -9.838   9.339  65.740  1.00  0.00    -0.296 OA 
HETATM   31  C   UNL     1      -9.690  10.525  66.531  1.00  0.00    -0.192 C  
HETATM   32  H   UNL     1     -11.684  13.300  64.307  1.00  0.00     0.000 HD 
HETATM   33  C   UNL     1     -10.542  10.271  67.783  1.00  0.00    -0.296 C  
BRANCH  27  34
HETATM   34  O   UNL     1      -8.801  12.598  65.763  1.00  0.00     0.279 OA 
BRANCH  34  35
HETATM   35  C   UNL     1      -8.503  13.647  66.680  1.00  0.00     0.164 C  
HETATM   36  C   UNL     1      -7.952  14.904  66.020  1.00  0.00     1.921 C  
HETATM   37  C   UNL     1      -8.974  15.422  65.019  1.00  0.00     2.330 C  
HETATM   38  O   UNL     1      -8.490  16.591  64.351  1.00  0.00     5.163 OA 
HETATM   39  C   UNL     1     -10.344  15.680  65.680  1.00  0.00    -0.385 C  
HETATM   40  O   UNL     1      -9.684  13.986  67.417  1.00  0.00    -0.225 OA 
HETATM   41  C   UNL     1     -10.761  14.551  66.664  1.00  0.00    -0.305 C  
HETATM   42  H   UNL     1      -9.128  16.915  63.726  1.00  0.00     0.000 HD 
HETATM   43  C   UNL     1     -11.637  13.444  66.074  1.00  0.00    -0.375 C  
BRANCH  39  44
HETATM   44  O   UNL     1     -10.386  16.896  66.458  1.00  0.00    -0.306 OA 
BRANCH  44  45
HETATM   45  C   UNL     1     -10.543  18.150  65.792  1.00  0.00    -0.175 C  
HETATM   46  C   UNL     1     -11.255  19.237  66.593  1.00  0.00     0.108 C  
HETATM   47  C   UNL     1     -10.428  19.567  67.829  1.00  0.00    -0.449 C  
HETATM   48  C   UNL     1      -9.046  20.072  67.405  1.00  0.00    -0.357 C  
HETATM   49  O   UNL     1     -11.086  20.586  68.592  1.00  0.00     0.262 OA 
HETATM   50  H   UNL     1     -10.570  20.791  69.363  1.00  0.00     0.000 HD 
HETATM   51  O   UNL     1      -9.210  21.359  66.781  1.00  0.00    -0.048 OA 
HETATM   52  C   UNL     1      -8.375  19.099  66.418  1.00  0.00    -0.318 C  
HETATM   53  C   UNL     1      -7.709  17.917  67.119  1.00  0.00    -0.227 C  
HETATM   54  O   UNL     1      -9.256  18.641  65.380  1.00  0.00     0.254 OA 
HETATM   55  H   UNL     1      -8.352  21.672  66.517  1.00  0.00     0.000 HD 
ENDBRANCH  44  45
ENDBRANCH  39  44
ENDBRANCH  34  35
ENDBRANCH  27  34
ENDBRANCH  24  25
ENDBRANCH  16  24
BRANCH  14  56
HETATM   56  C   UNL     1      -6.914  10.912  70.769  1.00  0.00     1.145 C  
HETATM   57  C   UNL     1      -6.027  11.957  71.321  1.00  0.00     0.750 C  
HETATM   58  C   UNL     1      -5.798  10.049  72.521  1.00  0.00     0.573 C  
HETATM   59  O   UNL     1      -5.393  11.338  72.441  1.00  0.00    -0.265 OA 
HETATM   60  O   UNL     1      -5.418   9.223  73.333  1.00  0.00    -0.143 OA 
HETATM   61  C   UNL     1      -6.765   9.784  71.467  1.00  0.00     0.383 C  
ENDBRANCH  14  56
TORSDOF 7
ENDMDL
MODEL       99
REMARK 921   NORMALIZED FREE ENERGY PREDICTED BY IDOCK:  113.07 KCAL/MOL
REMARK 922        TOTAL FREE ENERGY PREDICTED BY IDOCK:  157.50 KCAL/MOL
REMARK 923 INTER-LIGAND FREE ENERGY PREDICTED BY IDOCK:   52.91 KCAL/MOL
REMARK 924 INTRA-LIGAND FREE ENERGY PREDICTED BY IDOCK:  104.59 KCAL/MOL
REMARK 927      BINDING AFFINITY PREDICTED BY RF-SCORE:    0.00 PKD
ROOT
HETATM    1  C   UNL     1      -8.620   6.440  72.900  1.00  0.00    -0.124 C  
HETATM    2  C   UNL     1      -7.415   7.042  72.162  1.00  0.00    -0.090 C  
HETATM    3  C   UNL     1      -7.780   7.991  71.037  1.00  0.00    -0.085 C  
HETATM    4  C   UNL     1      -8.628   7.308  69.951  1.00  0.00    -0.141 C  
HETATM    5  C   UNL     1      -9.801   6.539  70.573  1.00  0.00    -0.197 C  
HETATM    6  C   UNL     1      -9.721   5.864  71.967  1.00  0.00    -0.174 C  
HETATM    7  C   UNL     1     -10.580   5.723  69.529  1.00  0.00    -0.390 C  
HETATM    8  C   UNL     1      -9.453   4.339  71.862  1.00  0.00    -0.201 C  
HETATM    9  C   UNL     1     -11.306   6.697  68.614  1.00  0.00    -0.058 C  
HETATM   10  C   UNL     1     -11.140   6.119  72.600  1.00  0.00    -0.308 C  
HETATM   11  C   UNL     1     -11.399   7.624  72.869  1.00  0.00    -0.394 C  
HETATM   12  O   UNL     1     -12.323   7.380  69.354  1.00  0.00     0.581 OA 
HETATM   13  C   UNL     1     -10.331   7.700  67.950  1.00  0.00    -0.270 C  
HETATM   14  C   UNL     1      -9.357   6.961  66.980  1.00  0.00    -0.170 C  
HETATM   15  C   UNL     1     -11.177   8.816  67.271  1.00  0.00     0.716 C  
HETATM   16  C   UNL     1     -10.348   8.221  73.800  1.00  0.00     1.547 C  
HETATM   17  H   UNL     1     -12.777   7.988  68.782  1.00  0.00     0.000 HD 
HETATM   18  O   UNL     1      -9.864   9.431  69.635  1.00  0.00    -0.174 OA 
HETATM   19  C   UNL     1      -8.238   7.982  66.718  1.00  0.00    -0.111 C  
HETATM   20  H   UNL     1     -10.241  10.051  69.022  1.00  0.00     0.000 HD 
HETATM   21  C   UNL     1      -9.171   7.281  74.070  1.00  0.00    -0.292 C  
HETATM   22  C   UNL     1      -9.262   8.348  68.923  1.00  0.00    -0.147 C  
HETATM   23  C   UNL     1      -8.224   8.919  67.939  1.00  0.00    -0.110 C  
ENDROOT
BRANCH  16  24
HETATM   24  O   UNL     1      -9.813   9.476  73.388  1.00  0.00     3.039 OA 
BRANCH  24  25
HETATM   25  C   UNL     1     -10.164  10.023  72.107  1.00  0.00     3.347 C  
HETATM   26  O   UNL     1      -8.264  13.239  72.034  1.00  0.00     9.647 OA 
HETATM   27  C   UNL     1      -8.308  11.513  70.304  1.00  0.00     3.140 C  
HETATM   28  C   UNL     1     -10.018  11.542  72.059  1.00  0.00    13.038 C  
HETATM   29  C   UNL     1      -8.565  11.872  71.769  1.00  0.00    16.004 C  
HETATM   30  O   UNL     1      -9.304   9.333  71.193  1.00  0.00    -0.254 OA 
HETATM   31  C   UNL     1      -8.666  10.007  70.100  1.00  0.00     0.010 C  
HETATM   32  H   UNL     1      -7.355  13.446  71.853  1.00  0.00     0.000 HD 
HETATM   33  C   UNL     1      -7.418   9.167  69.794  1.00  0.00    -0.069 C  
BRANCH  27  34
HETATM   34  O   UNL     1      -9.154  12.221  69.367  1.00  0.00     0.730 OA 
BRANCH  34  35
HETATM   35  C   UNL     1     -10.162  11.525  68.638  1.00  0.00    -0.208 C  
HETATM   36  C   UNL     1     -10.667  12.276  67.414  1.00  0.00    -0.261 C  
HETATM   37  C   UNL     1      -9.496  12.536  66.478  1.00  0.00    -0.240 C  
HETATM   38  O   UNL     1      -9.915  13.266  65.322  1.00  0.00    -0.449 OA 
HETATM   39  C   UNL     1      -8.774  11.230  66.086  1.00  0.00    -0.179 C  
HETATM   40  O   UNL     1      -9.657  10.248  68.227  1.00  0.00    -0.139 OA 
HETATM   41  C   UNL     1      -8.576  10.266  67.291  1.00  0.00    -0.125 C  
HETATM   42  H   UNL     1      -9.184  13.428  64.737  1.00  0.00     0.000 HD 
HETATM   43  C   UNL     1      -7.238  10.383  68.023  1.00  0.00    -0.084 C  
BRANCH  39  44
HETATM   44  O   UNL     1      -9.485  10.457  65.094  1.00  0.00    -0.206 OA 
BRANCH  44  45
HETATM   45  C   UNL     1     -10.473  11.094  64.283  1.00  0.00    -0.362 C  
HETATM   46  C   UNL     1     -11.715  11.586  65.022  1.00  0.00     0.050 C  
HETATM   47  C   UNL     1     -11.304  12.656  66.026  1.00  0.00    -0.327 C  
HETATM   48  C   UNL     1     -10.651  13.830  65.292  1.00  0.00    -0.353 C  
HETATM   49  O   UNL     1     -12.460  13.126  66.730  1.00  0.00    -0.303 OA 
HETATM   50  H   UNL     1     -12.205  13.793  67.356  1.00  0.00     0.000 HD 
HETATM   51  O   UNL     1     -11.667  14.495  64.517  1.00  0.00    -0.446 OA 
HETATM   52  C   UNL     1      -9.523  13.348  64.362  1.00  0.00     1.218 C  
HETATM   53  C   UNL     1      -8.211  13.107  65.106  1.00  0.00     4.014 C  
HETATM   54  O   UNL     1      -9.879  12.198  63.579  1.00  0.00    -0.362 OA 
HETATM   55  H   UNL     1     -11.261  15.224  64.061  1.00  0.00     0.000 HD 
ENDBRANCH  44  45
ENDBRANCH  39  44
ENDBRANCH  34  35
ENDBRANCH  27  34
ENDBRANCH  24  25
ENDBRANCH  16  24
BRANCH  14  56
HETATM   56  C   UNL     1      -9.880   6.226  65.787  1.00  0.00     0.373 C  
HETATM   57  C   UNL     1     -11.115   5.418  65.722  1.00  0.00     0.532 C  
HETATM   58  C   UNL     1      -9.982   5.239  63.769  1.00  0.00     1.330 C  
HETATM   59  O   UNL     1     -11.116   4.864  64.406  1.00  0.00     0.606 OA 
HETATM   60  O   UNL     1      -9.642   4.906  62.646  1.00  0.00     0.007 OA 
HETATM   61  C   UNL     1      -9.205   6.105  64.642  1.00  0.00     0.783 C  
ENDBRANCH  14  56
TORSDOF 7
ENDMDL
MODEL      100
REMARK 921   NORMALIZED FREE ENERGY PREDICTED BY IDOCK:  116.34 KCAL/MOL
REMARK 922        TOTAL FREE ENERGY PREDICTED BY IDOCK:  162.11 KCAL/MOL
REMARK 923 INTER-LIGAND FREE ENERGY PREDICTED BY IDOCK:   77.50 KCAL/MOL
REMARK 924 INTRA-LIGAND FREE ENERGY PREDICTED BY IDOCK:   84.62 KCAL/MOL
REMARK 927      BINDING AFFINITY PREDICTED BY RF-SCORE:    0.00 PKD
ROOT
HETATM    1  C   UNL     1      -7.784  12.167  63.732  1.00  0.00     4.044 C  
HETATM    2  C   UNL     1      -6.923  10.988  64.207  1.00  0.00     0.835 C  
HETATM    3  C   UNL     1      -7.550  10.161  65.313  1.00  0.00    -0.144 C  
HETATM    4  C   UNL     1      -7.839  10.994  66.572  1.00  0.00    -0.155 C  
HETATM    5  C   UNL     1      -8.579  12.289  66.216  1.00  0.00     0.125 C  
HETATM    6  C   UNL     1      -8.363  13.043  64.878  1.00  0.00     3.916 C  
HETATM    7  C   UNL     1      -8.749  13.215  67.432  1.00  0.00    -0.206 C  
HETATM    8  C   UNL     1      -7.400  14.249  65.036  1.00  0.00    12.198 C  
HETATM    9  C   UNL     1      -9.730  12.558  68.391  1.00  0.00    -0.189 C  
HETATM   10  C   UNL     1      -9.801  13.550  64.484  1.00  0.00     0.181 C  
HETATM   11  C   UNL     1     -10.767  12.379  64.164  1.00  0.00    -0.414 C  
HETATM   12  O   UNL     1     -11.031  12.521  67.794  1.00  0.00    -0.219 OA 
HETATM   13  C   UNL     1      -9.267  11.140  68.808  1.00  0.00    -0.151 C  
HETATM   14  C   UNL     1      -7.950  11.214  69.641  1.00  0.00     0.375 C  
HETATM   15  C   UNL     1     -10.447  10.445  69.546  1.00  0.00    -0.274 C  
HETATM   16  C   UNL     1     -10.242  11.508  63.027  1.00  0.00    -0.265 C  
HETATM   17  H   UNL     1     -11.644  12.111  68.394  1.00  0.00     0.000 HD 
HETATM   18  O   UNL     1      -9.877   9.641  66.954  1.00  0.00    -0.178 OA 
HETATM   19  C   UNL     1      -7.419   9.771  69.636  1.00  0.00    -0.113 C  
HETATM   20  H   UNL     1     -10.423   9.179  67.581  1.00  0.00     0.000 HD 
HETATM   21  C   UNL     1      -8.804  11.840  62.621  1.00  0.00     0.512 C  
HETATM   22  C   UNL     1      -8.755  10.221  67.622  1.00  0.00    -0.121 C  
HETATM   23  C   UNL     1      -7.995   9.111  68.372  1.00  0.00    -0.103 C  
ENDROOT
BRANCH  16  24
HETATM   24  O   UNL     1     -10.312  10.103  63.255  1.00  0.00     0.407 OA 
BRANCH  24  25
HETATM   25  C   UNL     1      -9.364   9.466  64.126  1.00  0.00     0.148 C  
HETATM   26  O   UNL     1     -10.443  10.625  67.510  1.00  0.00    -0.201 OA 
HETATM   27  C   UNL     1      -9.990   8.326  66.813  1.00  0.00    -0.285 C  
HETATM   28  C   UNL     1      -9.200  10.203  65.453  1.00  0.00    -0.249 C  
HETATM   29  C   UNL     1     -10.311   9.759  66.385  1.00  0.00    -0.177 C  
HETATM   30  O   UNL     1      -9.870   8.134  64.268  1.00  0.00     2.531 OA 
HETATM   31  C   UNL     1      -9.857   7.450  65.528  1.00  0.00     1.221 C  
HETATM   32  H   UNL     1     -11.138  10.348  68.094  1.00  0.00     0.000 HD 
HETATM   33  C   UNL     1     -10.992   6.420  65.428  1.00  0.00     3.399 C  
BRANCH  27  34
HETATM   34  O   UNL     1      -8.716   8.183  67.487  1.00  0.00    -0.128 OA 
BRANCH  34  35
HETATM   35  C   UNL     1      -8.664   8.027  68.902  1.00  0.00    -0.131 C  
HETATM   36  C   UNL     1      -9.686   7.040  69.452  1.00  0.00    -0.159 C  
HETATM   37  C   UNL     1      -9.448   5.680  68.813  1.00  0.00    -0.126 C  
HETATM   38  O   UNL     1     -10.403   4.722  69.278  1.00  0.00    -0.154 OA 
HETATM   39  C   UNL     1      -8.004   5.186  69.036  1.00  0.00    -0.085 C  
HETATM   40  O   UNL     1      -7.351   7.602  69.287  1.00  0.00    -0.083 OA 
HETATM   41  C   UNL     1      -6.945   6.308  68.833  1.00  0.00    -0.076 C  
HETATM   42  H   UNL     1     -10.255   3.872  68.879  1.00  0.00     0.000 HD 
HETATM   43  C   UNL     1      -6.334   6.400  67.434  1.00  0.00    -0.037 C  
BRANCH  39  44
HETATM   44  O   UNL     1      -7.769   4.679  70.368  1.00  0.00    -0.053 OA 
BRANCH  44  45
HETATM   45  C   UNL     1      -8.401   5.313  71.481  1.00  0.00    -0.121 C  
HETATM   46  C   UNL     1      -8.038   4.749  72.853  1.00  0.00    -0.101 C  
HETATM   47  C   UNL     1      -6.548   4.955  73.096  1.00  0.00    -0.065 C  
HETATM   48  C   UNL     1      -6.222   6.451  73.059  1.00  0.00    -0.055 C  
HETATM   49  O   UNL     1      -6.192   4.429  74.381  1.00  0.00    -0.039 OA 
HETATM   50  H   UNL     1      -5.263   4.558  74.532  1.00  0.00     0.000 HD 
HETATM   51  O   UNL     1      -6.820   7.070  74.212  1.00  0.00    -0.085 OA 
HETATM   52  C   UNL     1      -6.765   7.109  71.777  1.00  0.00    -0.052 C  
HETATM   53  C   UNL     1      -5.849   6.896  70.574  1.00  0.00    -0.024 C  
HETATM   54  O   UNL     1      -8.112   6.721  71.462  1.00  0.00    -0.108 OA 
HETATM   55  H   UNL     1      -6.618   7.999  74.188  1.00  0.00     0.000 HD 
ENDBRANCH  44  45
ENDBRANCH  39  44
ENDBRANCH  34  35
ENDBRANCH  27  34
ENDBRANCH  24  25
ENDBRANCH  16  24
BRANCH  14  56
HETATM   56  C   UNL     1      -7.917  11.930  70.954  1.00  0.00     6.614 C  
HETATM   57  C   UNL     1      -9.014  12.014  71.940  1.00  0.00    18.601 C  
HETATM   58  C   UNL     1      -7.284  13.311  72.612  1.00  0.00     7.639 C  
HETATM   59  O   UNL     1      -8.514  12.873  72.965  1.00  0.00    15.294 OA 
HETATM   60  O   UNL     1      -6.590  14.095  73.238  1.00  0.00     0.468 OA 
HETATM   61  C   UNL     1      -6.905  12.709  71.343  1.00  0.00     4.111 C  
ENDBRANCH  14  56
TORSDOF 7
ENDMDL
MODEL      101
REMARK 921   NORMALIZED FREE ENERGY PREDICTED BY IDOCK:  120.33 KCAL/MOL
REMARK 922        TOTAL FREE ENERGY PREDICTED BY IDOCK:  167.73 KCAL/MOL
REMARK 923 INTER-LIGAND FREE ENERGY PREDICTED BY IDOCK:   89.66 KCAL/MOL
REMARK 924 INTRA-LIGAND FREE ENERGY PREDICTED BY IDOCK:   78.07 KCAL/MOL
REMARK 927      BINDING AFFINITY PREDICTED BY RF-SCORE:    0.00 PKD
ROOT
HETATM    1  C   UNL     1     -12.209   7.520  68.481  1.00  0.00     3.199 C  
HETATM    2  C   UNL     1     -10.811   7.917  67.985  1.00  0.00    -0.026 C  
HETATM    3  C   UNL     1      -9.929   8.553  69.042  1.00  0.00    -0.197 C  
HETATM    4  C   UNL     1     -10.543   9.841  69.616  1.00  0.00    -0.260 C  
HETATM    5  C   UNL     1     -12.005   9.618  70.024  1.00  0.00     0.065 C  
HETATM    6  C   UNL     1     -12.945   8.629  69.284  1.00  0.00     4.752 C  
HETATM    7  C   UNL     1     -12.693  10.921  70.461  1.00  0.00    -0.363 C  
HETATM    8  C   UNL     1     -13.878   9.353  68.278  1.00  0.00    13.919 C  
HETATM    9  C   UNL     1     -12.074  11.362  71.779  1.00  0.00     0.744 C  
HETATM   10  C   UNL     1     -13.797   7.974  70.435  1.00  0.00     1.460 C  
HETATM   11  C   UNL     1     -12.931   7.109  71.386  1.00  0.00    -0.419 C  
HETATM   12  O   UNL     1     -12.416  10.425  72.804  1.00  0.00     0.604 OA 
HETATM   13  C   UNL     1     -10.539  11.530  71.666  1.00  0.00     6.859 C  
HETATM   14  C   UNL     1     -10.182  12.700  70.698  1.00  0.00     4.818 C  
HETATM   15  C   UNL     1      -9.967  11.700  73.104  1.00  0.00    21.509 C  
HETATM   16  C   UNL     1     -12.208   5.994  70.636  1.00  0.00     0.831 C  
HETATM   17  H   UNL     1     -12.030  10.700  73.628  1.00  0.00     0.000 HD 
HETATM   18  O   UNL     1      -9.581   9.269  71.825  1.00  0.00    -0.291 OA 
HETATM   19  C   UNL     1      -8.691  12.493  70.387  1.00  0.00     5.740 C  
HETATM   20  H   UNL     1      -9.127   9.576  72.602  1.00  0.00     0.000 HD 
HETATM   21  C   UNL     1     -12.316   6.117  69.113  1.00  0.00     3.088 C  
HETATM   22  C   UNL     1      -9.783  10.355  70.919  1.00  0.00     1.673 C  
HETATM   23  C   UNL     1      -8.418  10.993  70.598  1.00  0.00     3.464 C  
ENDROOT
BRANCH  16  24
HETATM   24  O   UNL     1     -10.829   5.837  70.960  1.00  0.00    -0.260 OA 
BRANCH  24  25
HETATM   25  C   UNL     1      -9.911   5.333  69.978  1.00  0.00    -0.245 C  
HETATM   26  O   UNL     1     -10.038   1.642  70.546  1.00  0.00     0.095 OA 
HETATM   27  C   UNL     1     -10.274   2.815  68.414  1.00  0.00     1.576 C  
HETATM   28  C   UNL     1      -9.334   3.972  70.359  1.00  0.00    -0.230 C  
HETATM   29  C   UNL     1     -10.325   2.901  69.941  1.00  0.00     1.695 C  
HETATM   30  O   UNL     1     -10.679   5.313  68.769  1.00  0.00    -0.124 OA 
HETATM   31  C   UNL     1     -10.592   4.229  67.835  1.00  0.00     1.008 C  
HETATM   32  H   UNL     1     -10.658   0.972  70.285  1.00  0.00     0.000 HD 
HETATM   33  C   UNL     1     -11.934   4.244  67.088  1.00  0.00     9.404 C  
BRANCH  27  34
HETATM   34  O   UNL     1      -8.966   2.488  67.886  1.00  0.00    -0.119 OA 
BRANCH  34  35
HETATM   35  C   UNL     1      -8.806   2.175  66.505  1.00  0.00    -0.120 C  
HETATM   36  C   UNL     1     -10.061   2.401  65.672  1.00  0.00     1.016 C  
HETATM   37  C   UNL     1     -10.469   3.862  65.784  1.00  0.00     0.330 C  
HETATM   38  O   UNL     1     -11.662   4.120  65.039  1.00  0.00    -0.717 OA 
HETATM   39  C   UNL     1      -9.328   4.810  65.363  1.00  0.00    -0.156 C  
HETATM   40  O   UNL     1      -7.736   2.957  65.959  1.00  0.00    -0.076 OA 
HETATM   41  C   UNL     1      -7.943   4.371  65.918  1.00  0.00    -0.099 C  
HETATM   42  H   UNL     1     -11.917   5.033  65.109  1.00  0.00     0.000 HD 
HETATM   43  C   UNL     1      -7.524   5.010  67.243  1.00  0.00    -0.083 C  
BRANCH  39  44
HETATM   44  O   UNL     1      -9.152   4.898  63.932  1.00  0.00    -0.093 OA 
BRANCH  44  45
HETATM   45  C   UNL     1      -8.014   4.284  63.325  1.00  0.00    -0.081 C  
HETATM   46  C   UNL     1      -6.659   4.850  63.744  1.00  0.00    -0.037 C  
HETATM   47  C   UNL     1      -6.463   4.617  65.236  1.00  0.00    -0.036 C  
HETATM   48  C   UNL     1      -6.500   3.115  65.533  1.00  0.00    -0.032 C  
HETATM   49  O   UNL     1      -5.195   5.145  65.644  1.00  0.00    -0.011 OA 
HETATM   50  H   UNL     1      -5.073   5.000  66.575  1.00  0.00     0.000 HD 
HETATM   51  O   UNL     1      -5.323   2.516  64.961  1.00  0.00    -0.008 OA 
HETATM   52  C   UNL     1      -7.759   2.459  64.936  1.00  0.00    -0.073 C  
HETATM   53  C   UNL     1      -8.992   2.646  65.816  1.00  0.00    -0.133 C  
HETATM   54  O   UNL     1      -8.032   2.871  63.587  1.00  0.00    -0.078 OA 
HETATM   55  H   UNL     1      -5.346   1.583  65.145  1.00  0.00     0.000 HD 
ENDBRANCH  44  45
ENDBRANCH  39  44
ENDBRANCH  34  35
ENDBRANCH  27  34
ENDBRANCH  24  25
ENDBRANCH  16  24
BRANCH  14  56
HETATM   56  C   UNL     1     -10.609  14.101  71.003  1.00  0.00     2.012 C  
HETATM   57  C   UNL     1      -9.865  15.093  71.806  1.00  0.00     2.965 C  
HETATM   58  C   UNL     1     -11.888  15.936  71.237  1.00  0.00    -0.449 C  
HETATM   59  O   UNL     1     -10.729  16.228  71.871  1.00  0.00     0.913 OA 
HETATM   60  O   UNL     1     -12.861  16.664  71.142  1.00  0.00     1.099 OA 
HETATM   61  C   UNL     1     -11.808  14.593  70.683  1.00  0.00    -0.367 C  
ENDBRANCH  14  56
TORSDOF 7
ENDMDL
MODEL      102
REMARK 921   NORMALIZED FREE ENERGY PREDICTED BY IDOCK:  134.66 KCAL/MOL
REMARK 922        TOTAL FREE ENERGY PREDICTED BY IDOCK:  187.92 KCAL/MOL
REMARK 923 INTER-LIGAND FREE ENERGY PREDICTED BY IDOCK:   24.11 KCAL/MOL
REMARK 924 INTRA-LIGAND FREE ENERGY PREDICTED BY IDOCK:  163.81 KCAL/MOL
REMARK 927      BINDING AFFINITY PREDICTED BY RF-SCORE:    0.00 PKD
ROOT
HETATM    1  C   UNL     1      -9.909  16.004  67.999  1.00  0.00    -0.222 C  
HETATM    2  C   UNL     1      -8.911  15.227  67.129  1.00  0.00    -0.227 C  
HETATM    3  C   UNL     1      -9.444  13.915  66.585  1.00  0.00    -0.296 C  
HETATM    4  C   UNL     1      -9.858  12.945  67.704  1.00  0.00    -0.211 C  
HETATM    5  C   UNL     1     -10.753  13.645  68.734  1.00  0.00    -0.265 C  
HETATM    6  C   UNL     1     -10.615  15.149  69.088  1.00  0.00    -0.256 C  
HETATM    7  C   UNL     1     -11.061  12.747  69.943  1.00  0.00     0.249 C  
HETATM    8  C   UNL     1      -9.819  15.368  70.401  1.00  0.00     0.308 C  
HETATM    9  C   UNL     1     -11.965  11.617  69.473  1.00  0.00    -0.317 C  
HETATM   10  C   UNL     1     -12.100  15.641  69.270  1.00  0.00    -0.263 C  
HETATM   11  C   UNL     1     -12.901  15.587  67.943  1.00  0.00     2.139 C  
HETATM   12  O   UNL     1     -13.239  12.148  69.098  1.00  0.00     1.556 OA 
HETATM   13  C   UNL     1     -11.329  10.818  68.309  1.00  0.00    -0.376 C  
HETATM   14  C   UNL     1     -10.047  10.071  68.789  1.00  0.00    -0.197 C  
HETATM   15  C   UNL     1     -12.422   9.883  67.713  1.00  0.00     5.111 C  
HETATM   16  C   UNL     1     -12.250  16.433  66.854  1.00  0.00     2.169 C  
HETATM   17  H   UNL     1     -13.804  11.442  68.804  1.00  0.00     0.000 HD 
HETATM   18  O   UNL     1     -11.710  12.142  66.270  1.00  0.00    -0.473 OA 
HETATM   19  C   UNL     1      -9.333   9.669  67.488  1.00  0.00    -0.149 C  
HETATM   20  H   UNL     1     -12.202  11.397  65.945  1.00  0.00     0.000 HD 
HETATM   21  C   UNL     1     -10.860  16.950  67.236  1.00  0.00    -0.131 C  
HETATM   22  C   UNL     1     -10.683  11.696  67.159  1.00  0.00    -0.247 C  
HETATM   23  C   UNL     1      -9.799  10.674  66.421  1.00  0.00    -0.259 C  
ENDROOT
BRANCH  16  24
HETATM   24  O   UNL     1     -12.142  15.806  65.579  1.00  0.00     0.569 OA 
BRANCH  24  25
HETATM   25  C   UNL     1     -10.874  15.303  65.128  1.00  0.00    -0.426 C  
HETATM   26  O   UNL     1      -8.628  16.007  68.029  1.00  0.00    -0.163 OA 
HETATM   27  C   UNL     1      -8.878  13.887  66.838  1.00  0.00    -0.193 C  
HETATM   28  C   UNL     1      -9.695  15.967  65.835  1.00  0.00    -0.386 C  
HETATM   29  C   UNL     1      -9.473  15.259  67.159  1.00  0.00    -0.214 C  
HETATM   30  O   UNL     1     -10.963  13.892  65.362  1.00  0.00    -0.300 OA 
HETATM   31  C   UNL     1      -9.859  13.140  65.881  1.00  0.00    -0.233 C  
HETATM   32  H   UNL     1      -8.489  15.565  68.858  1.00  0.00     0.000 HD 
HETATM   33  C   UNL     1     -10.498  11.923  66.565  1.00  0.00    -0.256 C  
BRANCH  27  34
HETATM   34  O   UNL     1      -7.627  13.942  66.111  1.00  0.00     1.647 OA 
BRANCH  34  35
HETATM   35  C   UNL     1      -6.504  13.184  66.553  1.00  0.00     2.240 C  
HETATM   36  C   UNL     1      -5.493  13.992  67.357  1.00  0.00     0.349 C  
HETATM   37  C   UNL     1      -6.188  14.571  68.580  1.00  0.00    -0.083 C  
HETATM   38  O   UNL     1      -5.285  15.363  69.356  1.00  0.00    -0.093 OA 
HETATM   39  C   UNL     1      -6.850  13.472  69.437  1.00  0.00    -0.010 C  
HETATM   40  O   UNL     1      -6.956  12.080  67.346  1.00  0.00    -0.114 OA 
HETATM   41  C   UNL     1      -7.594  12.407  68.583  1.00  0.00    -0.082 C  
HETATM   42  H   UNL     1      -5.718  15.725  70.120  1.00  0.00     0.000 HD 
HETATM   43  C   UNL     1      -9.087  12.656  68.363  1.00  0.00    -0.128 C  
BRANCH  39  44
HETATM   44  O   UNL     1      -5.909  12.725  70.239  1.00  0.00    -0.150 OA 
BRANCH  44  45
HETATM   45  C   UNL     1      -5.758  11.322  70.019  1.00  0.00    -0.104 C  
HETATM   46  C   UNL     1      -5.147  10.536  71.177  1.00  0.00    -0.088 C  
HETATM   47  C   UNL     1      -6.070  10.631  72.384  1.00  0.00     1.652 C  
HETATM   48  C   UNL     1      -7.439  10.040  72.035  1.00  0.00     2.626 C  
HETATM   49  O   UNL     1      -5.509   9.898  73.480  1.00  0.00    -0.325 OA 
HETATM   50  H   UNL     1      -6.084   9.957  74.233  1.00  0.00     0.000 HD 
HETATM   51  O   UNL     1      -7.285   8.619  71.866  1.00  0.00    -0.121 OA 
HETATM   52  C   UNL     1      -8.000  10.659  70.742  1.00  0.00     2.278 C  
HETATM   53  C   UNL     1      -8.664  12.013  70.978  1.00  0.00    10.051 C  
HETATM   54  O   UNL     1      -7.032  10.747  69.684  1.00  0.00    -0.112 OA 
HETATM   55  H   UNL     1      -8.135   8.252  71.649  1.00  0.00     0.000 HD 
ENDBRANCH  44  45
ENDBRANCH  39  44
ENDBRANCH  34  35
ENDBRANCH  27  34
ENDBRANCH  24  25
ENDBRANCH  16  24
BRANCH  14  56
HETATM   56  C   UNL     1     -10.127   9.023  69.854  1.00  0.00    -0.213 C  
HETATM   57  C   UNL     1      -9.231   7.859  70.013  1.00  0.00    -0.153 C  
HETATM   58  C   UNL     1     -10.909   7.743  71.530  1.00  0.00    -0.227 C  
HETATM   59  O   UNL     1      -9.778   7.130  71.112  1.00  0.00    -0.169 OA 
HETATM   60  O   UNL     1     -11.650   7.362  72.420  1.00  0.00    -0.283 OA 
HETATM   61  C   UNL     1     -11.124   8.944  70.737  1.00  0.00    -0.312 C  
ENDBRANCH  14  56
TORSDOF 7
ENDMDL
MODEL      103
REMARK 921   NORMALIZED FREE ENERGY PREDICTED BY IDOCK:  145.63 KCAL/MOL
REMARK 922        TOTAL FREE ENERGY PREDICTED BY IDOCK:  203.38 KCAL/MOL
REMARK 923 INTER-LIGAND FREE ENERGY PREDICTED BY IDOCK:  114.15 KCAL/MOL
REMARK 924 INTRA-LIGAND FREE ENERGY PREDICTED BY IDOCK:   89.23 KCAL/MOL
REMARK 927      BINDING AFFINITY PREDICTED BY RF-SCORE:    0.00 PKD
ROOT
HETATM    1  C   UNL     1      -5.704  10.831  64.424  1.00  0.00     0.044 C  
HETATM    2  C   UNL     1      -6.514  10.449  63.177  1.00  0.00    -0.097 C  
HETATM    3  C   UNL     1      -8.017  10.476  63.374  1.00  0.00    -0.051 C  
HETATM    4  C   UNL     1      -8.478   9.508  64.477  1.00  0.00    -0.191 C  
HETATM    5  C   UNL     1      -7.642   9.689  65.750  1.00  0.00    -0.103 C  
HETATM    6  C   UNL     1      -6.148  10.107  65.725  1.00  0.00    -0.098 C  
HETATM    7  C   UNL     1      -7.975   8.636  66.820  1.00  0.00    -0.094 C  
HETATM    8  C   UNL     1      -5.199   8.892  65.897  1.00  0.00    -0.036 C  
HETATM    9  C   UNL     1      -9.378   8.916  67.336  1.00  0.00    -0.136 C  
HETATM   10  C   UNL     1      -6.001  11.083  66.952  1.00  0.00    -0.088 C  
HETATM   11  C   UNL     1      -6.814  12.390  66.762  1.00  0.00     0.297 C  
HETATM   12  O   UNL     1      -9.386  10.156  68.050  1.00  0.00    -0.140 OA 
HETATM   13  C   UNL     1     -10.422   8.925  66.192  1.00  0.00     0.281 C  
HETATM   14  C   UNL     1     -10.554   7.507  65.555  1.00  0.00     3.393 C  
HETATM   15  C   UNL     1     -11.755   9.493  66.760  1.00  0.00     3.103 C  
HETATM   16  C   UNL     1      -6.390  13.141  65.503  1.00  0.00     7.919 C  
HETATM   17  H   UNL     1     -10.263  10.331  68.373  1.00  0.00     0.000 HD 
HETATM   18  O   UNL     1     -10.242  11.127  65.108  1.00  0.00    -0.259 OA 
HETATM   19  C   UNL     1     -11.292   7.755  64.230  1.00  0.00    16.120 C  
HETATM   20  H   UNL     1     -11.149  11.262  65.358  1.00  0.00     0.000 HD 
HETATM   21  C   UNL     1      -5.441  12.340  64.608  1.00  0.00     5.416 C  
HETATM   22  C   UNL     1      -9.998   9.735  64.897  1.00  0.00     0.009 C  
HETATM   23  C   UNL     1     -10.991   9.212  63.842  1.00  0.00     8.066 C  
ENDROOT
BRANCH  16  24
HETATM   24  O   UNL     1      -7.460  13.611  64.686  1.00  0.00    10.051 OA 
BRANCH  24  25
HETATM   25  C   UNL     1      -8.819  13.461  65.123  1.00  0.00     2.031 C  
HETATM   26  O   UNL     1      -9.116  16.049  67.801  1.00  0.00    -0.195 OA 
HETATM   27  C   UNL     1     -10.630  15.699  65.914  1.00  0.00    -0.343 C  
HETATM   28  C   UNL     1      -9.034  13.954  66.552  1.00  0.00    -0.097 C  
HETATM   29  C   UNL     1      -9.243  15.457  66.511  1.00  0.00    -0.292 C  
HETATM   30  O   UNL     1      -9.575  14.186  64.146  1.00  0.00     0.943 OA 
HETATM   31  C   UNL     1     -10.685  15.016  64.511  1.00  0.00    -0.049 C  
HETATM   32  H   UNL     1      -9.247  16.990  67.776  1.00  0.00     0.000 HD 
HETATM   33  C   UNL     1     -10.790  16.052  63.383  1.00  0.00     4.301 C  
BRANCH  27  34
HETATM   34  O   UNL     1     -11.709  15.087  66.661  1.00  0.00    -0.278 OA 
BRANCH  34  35
HETATM   35  C   UNL     1     -11.521  13.823  67.291  1.00  0.00    -0.341 C  
HETATM   36  C   UNL     1     -10.659  12.857  66.490  1.00  0.00    -0.272 C  
HETATM   37  C   UNL     1      -9.291  13.487  66.269  1.00  0.00    -0.125 C  
HETATM   38  O   UNL     1      -8.450  12.627  65.495  1.00  0.00     0.449 OA 
HETATM   39  C   UNL     1      -8.619  13.879  67.601  1.00  0.00    -0.190 C  
HETATM   40  O   UNL     1     -10.930  14.016  68.582  1.00  0.00    -0.245 OA 
HETATM   41  C   UNL     1      -9.605  14.552  68.599  1.00  0.00    -0.219 C  
HETATM   42  H   UNL     1      -7.596  13.019  65.357  1.00  0.00     0.000 HD 
HETATM   43  C   UNL     1      -9.647  16.080  68.563  1.00  0.00    -0.215 C  
BRANCH  39  44
HETATM   44  O   UNL     1      -8.063  12.755  68.317  1.00  0.00    -0.146 OA 
BRANCH  44  45
HETATM   45  C   UNL     1      -7.183  12.989  69.417  1.00  0.00     0.265 C  
HETATM   46  C   UNL     1      -7.861  13.212  70.767  1.00  0.00     5.259 C  
HETATM   47  C   UNL     1      -8.622  11.951  71.155  1.00  0.00    10.521 C  
HETATM   48  C   UNL     1      -7.649  10.774  71.263  1.00  0.00     3.771 C  
HETATM   49  O   UNL     1      -9.266  12.146  72.420  1.00  0.00    18.315 OA 
HETATM   50  H   UNL     1      -9.740  11.360  72.662  1.00  0.00     0.000 HD 
HETATM   51  O   UNL     1      -6.801  10.996  72.405  1.00  0.00     3.098 OA 
HETATM   52  C   UNL     1      -6.786  10.644  69.994  1.00  0.00    -0.148 C  
HETATM   53  C   UNL     1      -7.511   9.919  68.863  1.00  0.00    -0.081 C  
HETATM   54  O   UNL     1      -6.255  11.897  69.534  1.00  0.00    -0.093 OA 
HETATM   55  H   UNL     1      -6.197  10.266  72.472  1.00  0.00     0.000 HD 
ENDBRANCH  44  45
ENDBRANCH  39  44
ENDBRANCH  34  35
ENDBRANCH  27  34
ENDBRANCH  24  25
ENDBRANCH  16  24
BRANCH  14  56
HETATM   56  C   UNL     1     -11.024   6.345  66.372  1.00  0.00     0.210 C  
HETATM   57  C   UNL     1     -12.301   6.246  67.108  1.00  0.00     5.077 C  
HETATM   58  C   UNL     1     -11.026   4.426  67.544  1.00  0.00     2.088 C  
HETATM   59  O   UNL     1     -12.230   4.992  67.787  1.00  0.00     6.323 OA 
HETATM   60  O   UNL     1     -10.618   3.373  68.004  1.00  0.00     1.710 OA 
HETATM   61  C   UNL     1     -10.267   5.280  66.643  1.00  0.00    -0.291 C  
ENDBRANCH  14  56
TORSDOF 7
ENDMDL
