MODEL        1
REMARK 921   NORMALIZED FREE ENERGY PREDICTED BY IDOCK:   -8.27 KCAL/MOL
REMARK 922        TOTAL FREE ENERGY PREDICTED BY IDOCK:  -10.79 KCAL/MOL
REMARK 923 INTER-LIGAND FREE ENERGY PREDICTED BY IDOCK:   -9.72 KCAL/MOL
REMARK 924 INTRA-LIGAND FREE ENERGY PREDICTED BY IDOCK:   -1.07 KCAL/MOL
REMARK 927      BINDING AFFINITY PREDICTED BY RF-SCORE:    0.00 PKD
ROOT
HETATM    1  C   UNL     1     -10.198  10.771  65.348  1.00  0.00    -0.276 C  
HETATM    2  C   UNL     1      -9.477   9.725  64.480  1.00  0.00    -0.269 C  
HETATM    3  C   UNL     1      -9.581  10.326  63.037  1.00  0.00    -0.297 C  
HETATM    4  C   UNL     1     -10.495  11.544  63.160  1.00  0.00    -0.291 C  
HETATM    5  N   UNL     1     -11.138  11.374  64.453  1.00  0.00    -0.303 N  
HETATM    6  C   UNL     1     -11.954  12.368  64.927  1.00  0.00    -0.398 C  
HETATM    7  O   UNL     1     -12.864  12.826  64.242  1.00  0.00    -0.689 OA 
HETATM    8  C   UNL     1     -11.689  12.787  66.407  1.00  0.00    -0.403 C  
HETATM    9  N   UNL     1     -10.300  12.282  66.973  1.00  0.00    -0.218 N  
HETATM   10  C   UNL     1     -10.420  14.496  69.554  1.00  0.00    -0.080 C  
HETATM   11  C   UNL     1      -9.797  12.313  68.265  1.00  0.00    -0.217 C  
HETATM   12  C   UNL     1     -12.606  13.591  70.424  1.00  0.00    -0.267 C  
HETATM   13  O   UNL     1      -8.634  12.572  68.539  1.00  0.00    -0.146 OA 
HETATM   14  C   UNL     1     -10.860  11.782  69.199  1.00  0.00    -0.172 C  
HETATM   15  C   UNL     1     -10.423  10.875  66.951  1.00  0.00    -0.249 C  
HETATM   16  O   UNL     1      -9.361  10.052  67.456  1.00  0.00    -0.143 OA 
HETATM   17  H   UNL     1      -9.493  10.112  68.395  1.00  0.00     0.000 HD 
HETATM   18  C   UNL     1     -11.207  13.202  69.949  1.00  0.00     0.067 C  
HETATM   19  O   UNL     1     -11.467  10.931  67.988  1.00  0.00    -0.374 OA 
ENDROOT
BRANCH   8  20
HETATM   20  C   UNL     1     -12.047  14.250  66.584  1.00  0.00    -0.448 C  
HETATM   21  C   UNL     1     -11.231  16.583  66.834  1.00  0.00     0.294 C  
HETATM   22  C   UNL     1     -10.880  15.196  66.316  1.00  0.00    -0.333 C  
HETATM   23  C   UNL     1     -10.540  15.282  64.832  1.00  0.00    -0.379 C  
ENDBRANCH   8  20
BRANCH  14  24
HETATM   24  N   UNL     1     -11.012  10.784  70.231  1.00  0.00    -0.463 N  
HETATM   25  H   UNL     1     -10.171  10.572  70.770  1.00  0.00     0.000 HD 
HETATM   26  O   UNL     1     -13.233  10.248  70.081  1.00  0.00    -0.058 OA 
HETATM   27  C   UNL     1     -12.137  10.081  70.585  1.00  0.00    -0.292 C  
BRANCH  27  28
HETATM   28  C   UNL     1     -11.822   9.080  71.703  1.00  0.00    -0.431 C  
HETATM   29  C   UNL     1     -12.527   7.723  71.447  1.00  0.00    -0.320 C  
HETATM   30  N   UNL     1     -11.710   6.754  70.694  1.00  0.00    -0.370 NA 
HETATM   31  C   UNL     1     -11.246   7.285  69.401  1.00  0.00     0.011 C  
HETATM   32  C   UNL     1     -10.590   6.287  71.567  1.00  0.00    -0.237 C  
HETATM   33  C   UNL     1      -9.440   5.510  70.798  1.00  0.00    -0.209 C  
HETATM   34  C   UNL     1      -8.077   6.045  71.080  1.00  0.00    -0.121 A  
HETATM   35  C   UNL     1      -6.876   6.010  70.411  1.00  0.00    -0.054 A  
HETATM   36  N   UNL     1      -5.936   6.653  71.199  1.00  0.00    -0.035 NA 
HETATM   37  C   UNL     1      -6.512   7.094  72.373  1.00  0.00    -0.052 A  
HETATM   38  H   UNL     1      -4.956   6.783  70.946  1.00  0.00     0.000 HD 
HETATM   39  C   UNL     1      -6.030   7.789  73.486  1.00  0.00    -0.061 A  
HETATM   40  C   UNL     1      -6.966   8.117  74.487  1.00  0.00    -0.191 A  
HETATM   41  C   UNL     1      -8.331   7.876  74.321  1.00  0.00    -0.297 A  
HETATM   42  C   UNL     1      -8.782   7.287  73.142  1.00  0.00    -0.169 A  
HETATM   43  C   UNL     1      -7.847   6.790  72.247  1.00  0.00    -0.095 A  
HETATM   44  C   UNL     1     -10.177   7.411  72.623  1.00  0.00    -0.274 C  
HETATM   45  C   UNL     1     -10.335   8.828  71.985  1.00  0.00    -0.411 C  
ENDBRANCH  27  28
ENDBRANCH  14  24
TORSDOF 3
ENDMDL
MODEL        2
REMARK 921   NORMALIZED FREE ENERGY PREDICTED BY IDOCK:   -8.04 KCAL/MOL
REMARK 922        TOTAL FREE ENERGY PREDICTED BY IDOCK:  -10.51 KCAL/MOL
REMARK 923 INTER-LIGAND FREE ENERGY PREDICTED BY IDOCK:   -9.67 KCAL/MOL
REMARK 924 INTRA-LIGAND FREE ENERGY PREDICTED BY IDOCK:   -0.84 KCAL/MOL
REMARK 927      BINDING AFFINITY PREDICTED BY RF-SCORE:    0.00 PKD
ROOT
HETATM    1  C   UNL     1     -12.521  13.333  70.666  1.00  0.00    -0.298 C  
HETATM    2  C   UNL     1     -13.278  12.396  71.622  1.00  0.00    -0.367 C  
HETATM    3  C   UNL     1     -14.027  13.389  72.576  1.00  0.00    -0.519 C  
HETATM    4  C   UNL     1     -13.504  14.779  72.220  1.00  0.00    -0.409 C  
HETATM    5  N   UNL     1     -12.305  14.518  71.440  1.00  0.00    -0.340 N  
HETATM    6  C   UNL     1     -11.642  15.569  70.864  1.00  0.00    -0.375 C  
HETATM    7  O   UNL     1     -11.315  16.554  71.521  1.00  0.00    -0.257 OA 
HETATM    8  C   UNL     1     -11.268  15.369  69.362  1.00  0.00    -0.296 C  
HETATM    9  N   UNL     1     -12.044  14.176  68.667  1.00  0.00    -0.325 N  
HETATM   10  C   UNL     1     -11.274  15.339  65.563  1.00  0.00    -0.277 C  
HETATM   11  C   UNL     1     -11.862  13.600  67.418  1.00  0.00    -0.393 C  
HETATM   12  C   UNL     1      -8.789  15.233  65.977  1.00  0.00    -0.029 C  
HETATM   13  O   UNL     1     -12.778  13.244  66.691  1.00  0.00    -0.163 OA 
HETATM   14  C   UNL     1     -10.388  13.316  67.238  1.00  0.00    -0.247 C  
HETATM   15  C   UNL     1     -11.596  13.034  69.368  1.00  0.00    -0.299 C  
HETATM   16  O   UNL     1     -12.045  11.728  68.975  1.00  0.00    -0.305 OA 
HETATM   17  H   UNL     1     -11.503  11.553  68.215  1.00  0.00     0.000 HD 
HETATM   18  C   UNL     1     -10.097  14.450  66.086  1.00  0.00    -0.323 C  
HETATM   19  O   UNL     1     -10.237  13.213  68.828  1.00  0.00    -0.200 OA 
ENDROOT
BRANCH   8  20
HETATM   20  C   UNL     1     -11.251  16.716  68.667  1.00  0.00    -0.235 C  
HETATM   21  C   UNL     1     -10.279  19.000  68.566  1.00  0.00    -0.422 C  
HETATM   22  C   UNL     1     -10.042  17.572  69.035  1.00  0.00    -0.291 C  
HETATM   23  C   UNL     1      -8.754  17.043  68.413  1.00  0.00    -0.247 C  
ENDBRANCH   8  20
BRANCH  14  24
HETATM   24  N   UNL     1      -9.518  12.217  66.891  1.00  0.00    -0.211 N  
HETATM   25  H   UNL     1      -8.595  12.230  67.326  1.00  0.00     0.000 HD 
HETATM   26  O   UNL     1     -10.832  10.964  65.496  1.00  0.00    -0.161 OA 
HETATM   27  C   UNL     1      -9.767  11.159  66.054  1.00  0.00    -0.226 C  
BRANCH  27  28
HETATM   28  C   UNL     1      -8.531  10.258  65.936  1.00  0.00    -0.154 C  
HETATM   29  C   UNL     1      -7.796  10.144  67.296  1.00  0.00    -0.103 C  
HETATM   30  N   UNL     1      -8.235   9.005  68.122  1.00  0.00    -0.112 NA 
HETATM   31  C   UNL     1      -9.684   9.016  68.380  1.00  0.00    -0.156 C  
HETATM   32  C   UNL     1      -7.767   7.737  67.483  1.00  0.00    -0.117 C  
HETATM   33  C   UNL     1      -8.442   6.423  68.062  1.00  0.00    -0.118 C  
HETATM   34  C   UNL     1      -9.018   5.542  67.005  1.00  0.00    -0.113 A  
HETATM   35  C   UNL     1      -9.995   4.575  66.991  1.00  0.00    -0.179 A  
HETATM   36  N   UNL     1     -10.061   4.062  65.706  1.00  0.00    -0.404 NA 
HETATM   37  C   UNL     1      -9.131   4.678  64.893  1.00  0.00    -0.154 A  
HETATM   38  H   UNL     1     -10.706   3.332  65.404  1.00  0.00     0.000 HD 
HETATM   39  C   UNL     1      -8.789   4.548  63.544  1.00  0.00    -0.139 A  
HETATM   40  C   UNL     1      -7.799   5.420  63.051  1.00  0.00    -0.086 A  
HETATM   41  C   UNL     1      -7.275   6.451  63.834  1.00  0.00    -0.063 A  
HETATM   42  C   UNL     1      -7.733   6.618  65.139  1.00  0.00    -0.101 A  
HETATM   43  C   UNL     1      -8.558   5.646  65.683  1.00  0.00    -0.150 A  
HETATM   44  C   UNL     1      -7.649   7.901  65.899  1.00  0.00    -0.083 C  
HETATM   45  C   UNL     1      -8.773   8.851  65.376  1.00  0.00    -0.224 C  
ENDBRANCH  27  28
ENDBRANCH  14  24
TORSDOF 3
ENDMDL
MODEL        3
REMARK 921   NORMALIZED FREE ENERGY PREDICTED BY IDOCK:   -7.93 KCAL/MOL
REMARK 922        TOTAL FREE ENERGY PREDICTED BY IDOCK:  -10.38 KCAL/MOL
REMARK 923 INTER-LIGAND FREE ENERGY PREDICTED BY IDOCK:   -9.48 KCAL/MOL
REMARK 924 INTRA-LIGAND FREE ENERGY PREDICTED BY IDOCK:   -0.90 KCAL/MOL
REMARK 927      BINDING AFFINITY PREDICTED BY RF-SCORE:    0.00 PKD
ROOT
HETATM    1  C   UNL     1      -9.318   3.733  68.591  1.00  0.00    -0.163 C  
HETATM    2  C   UNL     1      -9.501   2.982  67.262  1.00  0.00    -0.138 C  
HETATM    3  C   UNL     1      -9.379   1.477  67.682  1.00  0.00    -0.133 C  
HETATM    4  C   UNL     1      -8.957   1.490  69.150  1.00  0.00    -0.084 C  
HETATM    5  N   UNL     1      -8.506   2.853  69.376  1.00  0.00    -0.059 N  
HETATM    6  C   UNL     1      -8.155   3.237  70.644  1.00  0.00    -0.052 C  
HETATM    7  O   UNL     1      -7.355   2.584  71.309  1.00  0.00    -0.032 OA 
HETATM    8  C   UNL     1      -8.774   4.589  71.118  1.00  0.00    -0.115 C  
HETATM    9  N   UNL     1      -9.985   5.083  70.225  1.00  0.00    -0.235 N  
HETATM   10  C   UNL     1     -11.019   7.253  72.632  1.00  0.00    -0.341 C  
HETATM   11  C   UNL     1     -10.665   6.291  70.232  1.00  0.00    -0.280 C  
HETATM   12  C   UNL     1      -8.822   8.488  72.674  1.00  0.00    -0.225 C  
HETATM   13  O   UNL     1     -11.876   6.394  70.093  1.00  0.00    -0.409 OA 
HETATM   14  C   UNL     1      -9.647   7.408  70.230  1.00  0.00    -0.165 C  
HETATM   15  C   UNL     1      -9.395   5.310  68.961  1.00  0.00    -0.130 C  
HETATM   16  O   UNL     1     -10.186   5.832  67.882  1.00  0.00    -0.155 OA 
HETATM   17  H   UNL     1     -10.231   6.756  68.099  1.00  0.00     0.000 HD 
HETATM   18  C   UNL     1      -9.918   7.940  71.760  1.00  0.00    -0.228 C  
HETATM   19  O   UNL     1      -8.607   6.427  69.510  1.00  0.00    -0.131 OA 
ENDROOT
BRANCH   8  20
HETATM   20  C   UNL     1      -8.959   4.554  72.622  1.00  0.00    -0.130 C  
HETATM   21  C   UNL     1     -10.533   4.291  74.526  1.00  0.00    -0.284 C  
HETATM   22  C   UNL     1     -10.305   3.980  73.054  1.00  0.00    -0.240 C  
HETATM   23  C   UNL     1     -10.382   2.473  72.838  1.00  0.00    -0.239 C  
ENDBRANCH   8  20
BRANCH  14  24
HETATM   24  N   UNL     1      -9.333   8.603  69.482  1.00  0.00    -0.153 N  
HETATM   25  H   UNL     1      -8.404   8.629  69.060  1.00  0.00     0.000 HD 
HETATM   26  O   UNL     1     -11.266   9.818  69.652  1.00  0.00    -0.234 OA 
HETATM   27  C   UNL     1     -10.116   9.708  69.264  1.00  0.00    -0.193 C  
BRANCH  27  28
HETATM   28  C   UNL     1      -9.352  10.765  68.458  1.00  0.00    -0.174 C  
HETATM   29  C   UNL     1      -8.255  10.109  67.582  1.00  0.00    -0.110 C  
HETATM   30  N   UNL     1      -8.702   9.760  66.221  1.00  0.00    -0.137 NA 
HETATM   31  C   UNL     1      -9.883   8.881  66.219  1.00  0.00    -0.285 C  
HETATM   32  C   UNL     1      -8.914  11.021  65.446  1.00  0.00    -0.178 C  
HETATM   33  C   UNL     1      -9.712  10.829  64.088  1.00  0.00    -0.364 C  
HETATM   34  C   UNL     1     -10.871  11.757  63.950  1.00  0.00    -0.468 A  
HETATM   35  C   UNL     1     -12.038  11.732  63.224  1.00  0.00    -0.264 A  
HETATM   36  N   UNL     1     -12.715  12.914  63.473  1.00  0.00    -0.704 NA 
HETATM   37  C   UNL     1     -11.995  13.708  64.342  1.00  0.00    -0.437 A  
HETATM   38  H   UNL     1     -13.619  13.162  63.070  1.00  0.00     0.000 HD 
HETATM   39  C   UNL     1     -12.214  14.965  64.913  1.00  0.00    -0.230 A  
HETATM   40  C   UNL     1     -11.246  15.428  65.825  1.00  0.00    -0.196 A  
HETATM   41  C   UNL     1     -10.184  14.622  66.239  1.00  0.00    -0.302 A  
HETATM   42  C   UNL     1     -10.069  13.330  65.732  1.00  0.00    -0.293 A  
HETATM   43  C   UNL     1     -10.905  12.946  64.694  1.00  0.00    -0.365 A  
HETATM   44  C   UNL     1      -9.324  12.227  66.409  1.00  0.00    -0.219 C  
HETATM   45  C   UNL     1     -10.204  11.695  67.584  1.00  0.00    -0.206 C  
ENDBRANCH  27  28
ENDBRANCH  14  24
TORSDOF 3
ENDMDL
MODEL        4
REMARK 921   NORMALIZED FREE ENERGY PREDICTED BY IDOCK:   -7.71 KCAL/MOL
REMARK 922        TOTAL FREE ENERGY PREDICTED BY IDOCK:  -10.14 KCAL/MOL
REMARK 923 INTER-LIGAND FREE ENERGY PREDICTED BY IDOCK:   -9.16 KCAL/MOL
REMARK 924 INTRA-LIGAND FREE ENERGY PREDICTED BY IDOCK:   -0.97 KCAL/MOL
REMARK 927      BINDING AFFINITY PREDICTED BY RF-SCORE:    0.00 PKD
ROOT
HETATM    1  C   UNL     1     -12.529  13.996  70.486  1.00  0.00    -0.359 C  
HETATM    2  C   UNL     1     -13.364  13.091  71.407  1.00  0.00    -0.183 C  
HETATM    3  C   UNL     1     -14.103  14.113  72.338  1.00  0.00    -0.570 C  
HETATM    4  C   UNL     1     -13.503  15.479  72.011  1.00  0.00    -0.482 C  
HETATM    5  N   UNL     1     -12.289  15.166  71.276  1.00  0.00    -0.307 N  
HETATM    6  C   UNL     1     -11.557  16.189  70.732  1.00  0.00    -0.351 C  
HETATM    7  O   UNL     1     -11.211  17.154  71.408  1.00  0.00     0.386 OA 
HETATM    8  C   UNL     1     -11.134  15.978  69.244  1.00  0.00    -0.331 C  
HETATM    9  N   UNL     1     -11.937  14.826  68.512  1.00  0.00    -0.286 N  
HETATM   10  C   UNL     1     -10.995  15.967  65.448  1.00  0.00    -0.293 C  
HETATM   11  C   UNL     1     -11.733  14.248  67.268  1.00  0.00    -0.395 C  
HETATM   12  C   UNL     1      -8.536  15.745  65.955  1.00  0.00    -0.051 C  
HETATM   13  O   UNL     1     -12.636  13.938  66.503  1.00  0.00    -0.384 OA 
HETATM   14  C   UNL     1     -10.269  13.898  67.143  1.00  0.00    -0.258 C  
HETATM   15  C   UNL     1     -11.569  13.661  69.222  1.00  0.00    -0.311 C  
HETATM   16  O   UNL     1     -12.061  12.379  68.804  1.00  0.00    -0.269 OA 
HETATM   17  H   UNL     1     -11.499  12.183  68.064  1.00  0.00     0.000 HD 
HETATM   18  C   UNL     1      -9.882  15.022  66.009  1.00  0.00    -0.347 C  
HETATM   19  O   UNL     1     -10.184  13.781  68.736  1.00  0.00    -0.226 OA 
ENDROOT
BRANCH   8  20
HETATM   20  C   UNL     1     -11.029  17.327  68.559  1.00  0.00    -0.146 C  
HETATM   21  C   UNL     1     -10.055  19.612  68.588  1.00  0.00    -0.547 C  
HETATM   22  C   UNL     1      -9.879  18.183  69.082  1.00  0.00    -0.167 C  
HETATM   23  C   UNL     1      -8.521  17.657  68.631  1.00  0.00    -0.266 C  
ENDBRANCH   8  20
BRANCH  14  24
HETATM   24  N   UNL     1      -9.437  12.762  66.822  1.00  0.00    -0.237 N  
HETATM   25  H   UNL     1      -8.522  12.742  67.273  1.00  0.00     0.000 HD 
HETATM   26  O   UNL     1     -10.775  11.547  65.416  1.00  0.00    -0.280 OA 
HETATM   27  C   UNL     1      -9.713  11.705  65.991  1.00  0.00    -0.232 C  
BRANCH  27  28
HETATM   28  C   UNL     1      -8.512  10.755  65.904  1.00  0.00    -0.166 C  
HETATM   29  C   UNL     1      -7.675  10.796  67.208  1.00  0.00    -0.109 C  
HETATM   30  N   UNL     1      -8.076   9.793  68.210  1.00  0.00    -0.104 NA 
HETATM   31  C   UNL     1      -9.500   9.887  68.571  1.00  0.00    -0.146 C  
HETATM   32  C   UNL     1      -7.689   8.436  67.715  1.00  0.00    -0.103 C  
HETATM   33  C   UNL     1      -8.349   7.234  68.514  1.00  0.00    -0.125 C  
HETATM   34  C   UNL     1      -9.026   6.241  67.631  1.00  0.00    -0.115 A  
HETATM   35  C   UNL     1     -10.024   5.315  67.819  1.00  0.00    -0.162 A  
HETATM   36  N   UNL     1     -10.203   4.639  66.624  1.00  0.00    -0.237 NA 
HETATM   37  C   UNL     1      -9.325   5.109  65.668  1.00  0.00    -0.138 A  
HETATM   38  H   UNL     1     -10.887   3.898  66.472  1.00  0.00     0.000 HD 
HETATM   39  C   UNL     1      -9.092   4.790  64.328  1.00  0.00    -0.070 A  
HETATM   40  C   UNL     1      -8.123   5.556  63.650  1.00  0.00    -0.121 A  
HETATM   41  C   UNL     1      -7.515   6.663  64.246  1.00  0.00    -0.096 A  
HETATM   42  C   UNL     1      -7.865   7.016  65.547  1.00  0.00    -0.115 A  
HETATM   43  C   UNL     1      -8.668   6.153  66.277  1.00  0.00    -0.144 A  
HETATM   44  C   UNL     1      -7.692   8.384  66.119  1.00  0.00    -0.097 C  
HETATM   45  C   UNL     1      -8.831   9.295  65.558  1.00  0.00    -0.224 C  
ENDBRANCH  27  28
ENDBRANCH  14  24
TORSDOF 3
ENDMDL
MODEL        5
REMARK 921   NORMALIZED FREE ENERGY PREDICTED BY IDOCK:   -7.38 KCAL/MOL
REMARK 922        TOTAL FREE ENERGY PREDICTED BY IDOCK:   -9.74 KCAL/MOL
REMARK 923 INTER-LIGAND FREE ENERGY PREDICTED BY IDOCK:   -8.88 KCAL/MOL
REMARK 924 INTRA-LIGAND FREE ENERGY PREDICTED BY IDOCK:   -0.86 KCAL/MOL
REMARK 927      BINDING AFFINITY PREDICTED BY RF-SCORE:    0.00 PKD
ROOT
HETATM    1  C   UNL     1      -9.369   7.502  71.673  1.00  0.00    -0.145 C  
HETATM    2  C   UNL     1      -9.635   8.076  73.075  1.00  0.00    -0.347 C  
HETATM    3  C   UNL     1      -9.581   6.808  73.996  1.00  0.00    -0.278 C  
HETATM    4  C   UNL     1      -9.479   5.614  73.049  1.00  0.00    -0.150 C  
HETATM    5  N   UNL     1      -9.851   6.156  71.753  1.00  0.00    -0.164 N  
HETATM    6  C   UNL     1      -9.758   5.356  70.644  1.00  0.00    -0.181 C  
HETATM    7  O   UNL     1     -10.272   4.242  70.617  1.00  0.00    -0.140 OA 
HETATM    8  C   UNL     1      -9.039   6.007  69.421  1.00  0.00    -0.133 C  
HETATM    9  N   UNL     1      -8.212   7.307  69.787  1.00  0.00    -0.128 N  
HETATM   10  C   UNL     1      -6.461   7.146  66.874  1.00  0.00    -0.054 C  
HETATM   11  C   UNL     1      -7.591   8.233  68.961  1.00  0.00    -0.089 C  
HETATM   12  C   UNL     1      -8.535   7.260  65.447  1.00  0.00    -0.096 C  
HETATM   13  O   UNL     1      -6.502   8.736  69.197  1.00  0.00    -0.042 OA 
HETATM   14  C   UNL     1      -8.570   8.635  67.882  1.00  0.00    -0.137 C  
HETATM   15  C   UNL     1      -9.199   8.217  70.227  1.00  0.00    -0.151 C  
HETATM   16  O   UNL     1      -8.831   9.555  70.596  1.00  0.00    -0.230 OA 
HETATM   17  H   UNL     1      -8.732   9.973  69.749  1.00  0.00     0.000 HD 
HETATM   18  C   UNL     1      -7.805   7.906  66.624  1.00  0.00    -0.102 C  
HETATM   19  O   UNL     1      -9.774   8.277  68.872  1.00  0.00    -0.159 OA 
ENDROOT
BRANCH   8  20
HETATM   20  C   UNL     1      -8.354   4.925  68.610  1.00  0.00    -0.083 C  
HETATM   21  C   UNL     1      -8.558   2.731  67.463  1.00  0.00    -0.120 C  
HETATM   22  C   UNL     1      -9.328   3.946  67.961  1.00  0.00    -0.226 C  
HETATM   23  C   UNL     1     -10.085   4.576  66.798  1.00  0.00    -0.220 C  
ENDBRANCH   8  20
BRANCH  14  24
HETATM   24  N   UNL     1      -9.140   9.833  67.311  1.00  0.00    -0.134 N  
HETATM   25  H   UNL     1     -10.135   9.786  67.089  1.00  0.00     0.000 HD 
HETATM   26  O   UNL     1      -7.355  11.266  67.277  1.00  0.00    -0.107 OA 
HETATM   27  C   UNL     1      -8.523  11.025  67.027  1.00  0.00    -0.141 C  
BRANCH  27  28
HETATM   28  C   UNL     1      -9.506  12.004  66.374  1.00  0.00    -0.238 C  
HETATM   29  C   UNL     1     -10.963  11.484  66.485  1.00  0.00    -0.293 C  
HETATM   30  N   UNL     1     -11.679  11.958  67.683  1.00  0.00    -0.532 NA 
HETATM   31  C   UNL     1     -10.974  11.630  68.933  1.00  0.00    -0.233 C  
HETATM   32  C   UNL     1     -11.952  13.421  67.535  1.00  0.00    -0.339 C  
HETATM   33  C   UNL     1     -12.409  14.141  68.872  1.00  0.00    -0.115 C  
HETATM   34  C   UNL     1     -11.612  15.362  69.186  1.00  0.00    -0.354 A  
HETATM   35  C   UNL     1     -11.342  16.061  70.338  1.00  0.00    -0.391 A  
HETATM   36  N   UNL     1     -10.566  17.156  69.996  1.00  0.00    -0.127 NA 
HETATM   37  C   UNL     1     -10.340  17.179  68.634  1.00  0.00    -0.359 A  
HETATM   38  H   UNL     1     -10.212  17.847  70.656  1.00  0.00     0.000 HD 
HETATM   39  C   UNL     1      -9.635  18.036  67.785  1.00  0.00    -0.278 A  
HETATM   40  C   UNL     1      -9.584  17.683  66.422  1.00  0.00    -0.285 A  
HETATM   41  C   UNL     1     -10.102  16.472  65.959  1.00  0.00    -0.368 A  
HETATM   42  C   UNL     1     -10.694  15.592  66.863  1.00  0.00    -0.317 A  
HETATM   43  C   UNL     1     -10.916  16.023  68.162  1.00  0.00    -0.339 A  
HETATM   44  C   UNL     1     -10.839  14.124  66.631  1.00  0.00    -0.299 C  
HETATM   45  C   UNL     1      -9.450  13.452  66.875  1.00  0.00    -0.253 C  
ENDBRANCH  27  28
ENDBRANCH  14  24
TORSDOF 3
ENDMDL
MODEL        6
REMARK 921   NORMALIZED FREE ENERGY PREDICTED BY IDOCK:   -7.24 KCAL/MOL
REMARK 922        TOTAL FREE ENERGY PREDICTED BY IDOCK:   -9.58 KCAL/MOL
REMARK 923 INTER-LIGAND FREE ENERGY PREDICTED BY IDOCK:   -8.92 KCAL/MOL
REMARK 924 INTRA-LIGAND FREE ENERGY PREDICTED BY IDOCK:   -0.66 KCAL/MOL
REMARK 927      BINDING AFFINITY PREDICTED BY RF-SCORE:    0.00 PKD
ROOT
HETATM    1  C   UNL     1     -12.481  13.338  70.616  1.00  0.00    -0.298 C  
HETATM    2  C   UNL     1     -13.241  12.448  71.613  1.00  0.00    -0.367 C  
HETATM    3  C   UNL     1     -14.086  13.478  72.438  1.00  0.00    -0.563 C  
HETATM    4  C   UNL     1     -13.612  14.859  71.988  1.00  0.00    -0.407 C  
HETATM    5  N   UNL     1     -12.362  14.594  71.293  1.00  0.00    -0.321 N  
HETATM    6  C   UNL     1     -11.720  15.626  70.661  1.00  0.00    -0.369 C  
HETATM    7  O   UNL     1     -11.476  16.679  71.245  1.00  0.00    -0.246 OA 
HETATM    8  C   UNL     1     -11.258  15.319  69.202  1.00  0.00    -0.278 C  
HETATM    9  N   UNL     1     -11.938  14.033  68.576  1.00  0.00    -0.359 N  
HETATM   10  C   UNL     1     -11.061  14.967  65.425  1.00  0.00    -0.366 C  
HETATM   11  C   UNL     1     -11.663  13.363  67.394  1.00  0.00    -0.373 C  
HETATM   12  C   UNL     1      -8.600  15.026  65.966  1.00  0.00     0.468 C  
HETATM   13  O   UNL     1     -12.521  12.900  66.656  1.00  0.00    -0.367 OA 
HETATM   14  C   UNL     1     -10.171  13.142  67.311  1.00  0.00    -0.243 C  
HETATM   15  C   UNL     1     -11.475  12.979  69.395  1.00  0.00    -0.261 C  
HETATM   16  O   UNL     1     -11.839  11.623  69.097  1.00  0.00    -0.292 OA 
HETATM   17  H   UNL     1     -11.250  11.413  68.382  1.00  0.00     0.000 HD 
HETATM   18  C   UNL     1      -9.873  14.188  66.079  1.00  0.00    -0.329 C  
HETATM   19  O   UNL     1     -10.099  13.182  68.909  1.00  0.00    -0.114 OA 
ENDROOT
BRANCH   8  20
HETATM   20  C   UNL     1     -11.268  16.601  68.394  1.00  0.00    -0.239 C  
HETATM   21  C   UNL     1     -10.489  18.953  68.200  1.00  0.00    -0.387 C  
HETATM   22  C   UNL     1     -10.192  17.596  68.822  1.00  0.00    -0.373 C  
HETATM   23  C   UNL     1      -8.796  17.144  68.407  1.00  0.00    -0.255 C  
ENDBRANCH   8  20
BRANCH  14  24
HETATM   24  N   UNL     1      -9.232  12.065  67.104  1.00  0.00    -0.184 N  
HETATM   25  H   UNL     1      -9.585  11.267  66.574  1.00  0.00     0.000 HD 
HETATM   26  O   UNL     1      -7.338  12.852  68.121  1.00  0.00    -0.097 OA 
HETATM   27  C   UNL     1      -7.929  11.970  67.524  1.00  0.00    -0.159 C  
BRANCH  27  28
HETATM   28  C   UNL     1      -7.327  10.617  67.125  1.00  0.00    -0.098 C  
HETATM   29  C   UNL     1      -6.041  10.321  67.938  1.00  0.00    -0.051 C  
HETATM   30  N   UNL     1      -6.277   9.564  69.181  1.00  0.00    -0.041 NA 
HETATM   31  C   UNL     1      -7.246  10.224  70.072  1.00  0.00    -0.158 C  
HETATM   32  C   UNL     1      -6.670   8.166  68.826  1.00  0.00    -0.058 C  
HETATM   33  C   UNL     1      -7.281   7.331  70.030  1.00  0.00    -0.078 C  
HETATM   34  C   UNL     1      -8.588   6.693  69.701  1.00  0.00    -0.133 A  
HETATM   35  C   UNL     1      -9.651   6.247  70.448  1.00  0.00    -0.165 A  
HETATM   36  N   UNL     1     -10.578   5.698  69.578  1.00  0.00    -0.301 NA 
HETATM   37  C   UNL     1     -10.121   5.774  68.278  1.00  0.00    -0.166 A  
HETATM   38  H   UNL     1     -11.472   5.294  69.858  1.00  0.00     0.000 HD 
HETATM   39  C   UNL     1     -10.648   5.386  67.042  1.00  0.00    -0.298 A  
HETATM   40  C   UNL     1      -9.886   5.697  65.899  1.00  0.00     0.015 A  
HETATM   41  C   UNL     1      -8.724   6.467  65.979  1.00  0.00    -0.157 A  
HETATM   42  C   UNL     1      -8.298   6.933  67.221  1.00  0.00    -0.121 A  
HETATM   43  C   UNL     1      -8.936   6.467  68.360  1.00  0.00    -0.125 A  
HETATM   44  C   UNL     1      -7.409   8.117  67.412  1.00  0.00    -0.089 C  
HETATM   45  C   UNL     1      -8.267   9.407  67.213  1.00  0.00    -0.117 C  
ENDBRANCH  27  28
ENDBRANCH  14  24
TORSDOF 3
ENDMDL
MODEL        7
REMARK 921   NORMALIZED FREE ENERGY PREDICTED BY IDOCK:   -7.10 KCAL/MOL
REMARK 922        TOTAL FREE ENERGY PREDICTED BY IDOCK:   -9.42 KCAL/MOL
REMARK 923 INTER-LIGAND FREE ENERGY PREDICTED BY IDOCK:   -8.37 KCAL/MOL
REMARK 924 INTRA-LIGAND FREE ENERGY PREDICTED BY IDOCK:   -1.05 KCAL/MOL
REMARK 927      BINDING AFFINITY PREDICTED BY RF-SCORE:    0.00 PKD
ROOT
HETATM    1  C   UNL     1     -11.258   8.733  70.521  1.00  0.00    -0.247 C  
HETATM    2  C   UNL     1     -12.415   9.160  71.440  1.00  0.00    -0.396 C  
HETATM    3  C   UNL     1     -12.892   7.805  72.066  1.00  0.00    -0.265 C  
HETATM    4  C   UNL     1     -12.116   6.713  71.332  1.00  0.00    -0.347 C  
HETATM    5  N   UNL     1     -11.583   7.386  70.159  1.00  0.00    -0.134 N  
HETATM    6  C   UNL     1     -10.732   6.705  69.328  1.00  0.00    -0.265 C  
HETATM    7  O   UNL     1     -11.027   5.599  68.882  1.00  0.00    -0.235 OA 
HETATM    8  C   UNL     1      -9.434   7.478  68.937  1.00  0.00    -0.145 C  
HETATM    9  N   UNL     1      -9.139   8.733  69.856  1.00  0.00    -0.152 N  
HETATM   10  C   UNL     1      -5.902   8.872  68.816  1.00  0.00    -0.041 C  
HETATM   11  C   UNL     1      -8.193   9.738  69.718  1.00  0.00    -0.173 C  
HETATM   12  C   UNL     1      -6.536   9.132  66.391  1.00  0.00    -0.066 C  
HETATM   13  O   UNL     1      -7.562  10.214  70.651  1.00  0.00    -0.237 OA 
HETATM   14  C   UNL     1      -8.250  10.250  68.297  1.00  0.00    -0.115 C  
HETATM   15  C   UNL     1     -10.232   9.593  69.606  1.00  0.00    -0.222 C  
HETATM   16  O   UNL     1     -10.287  10.885  70.228  1.00  0.00    -0.306 OA 
HETATM   17  H   UNL     1      -9.685  11.389  69.693  1.00  0.00     0.000 HD 
HETATM   18  C   UNL     1      -6.802   9.653  67.803  1.00  0.00    -0.078 C  
HETATM   19  O   UNL     1      -9.781   9.792  68.218  1.00  0.00    -0.143 OA 
ENDROOT
BRANCH   8  20
HETATM   20  C   UNL     1      -8.314   6.484  68.697  1.00  0.00    -0.122 C  
HETATM   21  C   UNL     1      -6.264   5.395  69.583  1.00  0.00    -0.026 C  
HETATM   22  C   UNL     1      -7.550   6.115  69.965  1.00  0.00    -0.095 C  
HETATM   23  C   UNL     1      -8.372   5.224  70.890  1.00  0.00    -0.116 C  
ENDBRANCH   8  20
BRANCH  14  24
HETATM   24  N   UNL     1      -8.386  11.500  67.587  1.00  0.00    -0.130 N  
HETATM   25  H   UNL     1      -8.883  11.451  66.697  1.00  0.00     0.000 HD 
HETATM   26  O   UNL     1      -7.371  12.988  69.001  1.00  0.00    -0.056 OA 
HETATM   27  C   UNL     1      -7.936  12.744  67.950  1.00  0.00    -0.158 C  
BRANCH  27  28
HETATM   28  C   UNL     1      -8.257  13.776  66.861  1.00  0.00     0.045 C  
HETATM   29  C   UNL     1      -9.750  13.703  66.449  1.00  0.00    -0.292 C  
HETATM   30  N   UNL     1     -10.628  14.608  67.212  1.00  0.00    -0.280 NA 
HETATM   31  C   UNL     1     -10.538  14.395  68.666  1.00  0.00    -0.252 C  
HETATM   32  C   UNL     1     -10.333  16.017  66.811  1.00  0.00    -0.300 C  
HETATM   33  C   UNL     1     -10.948  17.116  67.776  1.00  0.00    -0.180 C  
HETATM   34  C   UNL     1      -9.947  18.119  68.241  1.00  0.00    -0.380 A  
HETATM   35  C   UNL     1      -9.867  18.962  69.323  1.00  0.00    -0.129 A  
HETATM   36  N   UNL     1      -8.704  19.704  69.195  1.00  0.00    -0.154 NA 
HETATM   37  C   UNL     1      -8.038  19.358  68.037  1.00  0.00    -0.310 A  
HETATM   38  H   UNL     1      -8.386  20.406  69.863  1.00  0.00     0.000 HD 
HETATM   39  C   UNL     1      -6.845  19.782  67.444  1.00  0.00    -0.243 A  
HETATM   40  C   UNL     1      -6.458  19.130  66.257  1.00  0.00    -0.213 A  
HETATM   41  C   UNL     1      -7.159  18.028  65.763  1.00  0.00    -0.242 A  
HETATM   42  C   UNL     1      -8.278  17.565  66.453  1.00  0.00    -0.305 A  
HETATM   43  C   UNL     1      -8.769  18.321  67.506  1.00  0.00    -0.256 A  
HETATM   44  C   UNL     1      -8.814  16.176  66.344  1.00  0.00    -0.355 C  
HETATM   45  C   UNL     1      -7.896  15.232  67.183  1.00  0.00    -0.249 C  
ENDBRANCH  27  28
ENDBRANCH  14  24
TORSDOF 3
ENDMDL
MODEL        8
REMARK 921   NORMALIZED FREE ENERGY PREDICTED BY IDOCK:   -7.10 KCAL/MOL
REMARK 922        TOTAL FREE ENERGY PREDICTED BY IDOCK:   -9.41 KCAL/MOL
REMARK 923 INTER-LIGAND FREE ENERGY PREDICTED BY IDOCK:   -8.34 KCAL/MOL
REMARK 924 INTRA-LIGAND FREE ENERGY PREDICTED BY IDOCK:   -1.07 KCAL/MOL
REMARK 927      BINDING AFFINITY PREDICTED BY RF-SCORE:    0.00 PKD
ROOT
HETATM    1  C   UNL     1     -10.949   8.055  70.917  1.00  0.00    -0.243 C  
HETATM    2  C   UNL     1     -12.146   8.474  71.787  1.00  0.00    -0.391 C  
HETATM    3  C   UNL     1     -12.374   7.224  72.705  1.00  0.00     0.190 C  
HETATM    4  C   UNL     1     -11.436   6.142  72.173  1.00  0.00    -0.311 C  
HETATM    5  N   UNL     1     -11.045   6.628  70.859  1.00  0.00    -0.269 N  
HETATM    6  C   UNL     1     -10.105   5.932  70.145  1.00  0.00    -0.202 C  
HETATM    7  O   UNL     1     -10.215   4.724  69.954  1.00  0.00    -0.252 OA 
HETATM    8  C   UNL     1      -8.964   6.805  69.534  1.00  0.00    -0.139 C  
HETATM    9  N   UNL     1      -8.871   8.258  70.156  1.00  0.00    -0.139 N  
HETATM   10  C   UNL     1      -5.723   8.697  68.942  1.00  0.00    -0.040 C  
HETATM   11  C   UNL     1      -8.113   9.351  69.764  1.00  0.00    -0.133 C  
HETATM   12  C   UNL     1      -6.433   8.328  66.552  1.00  0.00    -0.055 C  
HETATM   13  O   UNL     1      -7.556  10.110  70.543  1.00  0.00    -0.269 OA 
HETATM   14  C   UNL     1      -8.280   9.532  68.273  1.00  0.00    -0.113 C  
HETATM   15  C   UNL     1     -10.099   8.855  69.791  1.00  0.00    -0.199 C  
HETATM   16  O   UNL     1     -10.362  10.224  70.134  1.00  0.00    -0.375 OA 
HETATM   17  H   UNL     1      -9.864  10.693  69.475  1.00  0.00     0.000 HD 
HETATM   18  C   UNL     1      -6.760   9.087  67.838  1.00  0.00    -0.068 C  
HETATM   19  O   UNL     1      -9.712   8.825  68.370  1.00  0.00    -0.155 OA 
ENDROOT
BRANCH   8  20
HETATM   20  C   UNL     1      -7.696   5.979  69.446  1.00  0.00    -0.098 C  
HETATM   21  C   UNL     1      -5.457   5.484  70.403  1.00  0.00    -0.008 C  
HETATM   22  C   UNL     1      -6.835   6.055  70.705  1.00  0.00    -0.058 C  
HETATM   23  C   UNL     1      -7.455   5.292  71.870  1.00  0.00    -0.096 C  
ENDBRANCH   8  20
BRANCH  14  24
HETATM   24  N   UNL     1      -8.638  10.563  67.328  1.00  0.00    -0.123 N  
HETATM   25  H   UNL     1      -8.379  11.514  67.592  1.00  0.00     0.000 HD 
HETATM   26  O   UNL     1      -9.612   9.369  65.634  1.00  0.00    -0.258 OA 
HETATM   27  C   UNL     1      -9.281  10.435  66.122  1.00  0.00    -0.168 C  
BRANCH  27  28
HETATM   28  C   UNL     1      -9.505  11.808  65.477  1.00  0.00    -0.185 C  
HETATM   29  C   UNL     1     -10.936  11.919  64.890  1.00  0.00    -0.313 C  
HETATM   30  N   UNL     1     -11.928  12.476  65.827  1.00  0.00    -0.517 NA 
HETATM   31  C   UNL     1     -12.003  11.724  67.090  1.00  0.00     0.107 C  
HETATM   32  C   UNL     1     -11.635  13.928  66.031  1.00  0.00    -0.349 C  
HETATM   33  C   UNL     1     -12.396  14.585  67.259  1.00  0.00    -0.013 C  
HETATM   34  C   UNL     1     -11.491  15.319  68.188  1.00  0.00    -0.357 A  
HETATM   35  C   UNL     1     -11.567  15.684  69.511  1.00  0.00    -0.357 A  
HETATM   36  N   UNL     1     -10.423  16.402  69.818  1.00  0.00    -0.278 NA 
HETATM   37  C   UNL     1      -9.614  16.516  68.706  1.00  0.00    -0.248 A  
HETATM   38  H   UNL     1     -10.209  16.792  70.736  1.00  0.00     0.000 HD 
HETATM   39  C   UNL     1      -8.374  17.116  68.468  1.00  0.00    -0.262 A  
HETATM   40  C   UNL     1      -7.828  16.961  67.179  1.00  0.00    -0.207 A  
HETATM   41  C   UNL     1      -8.429  16.141  66.222  1.00  0.00    -0.357 A  
HETATM   42  C   UNL     1      -9.605  15.466  66.542  1.00  0.00    -0.298 A  
HETATM   43  C   UNL     1     -10.241  15.770  67.735  1.00  0.00    -0.251 A  
HETATM   44  C   UNL     1     -10.078  14.232  65.848  1.00  0.00    -0.344 C  
HETATM   45  C   UNL     1      -9.234  13.026  66.371  1.00  0.00    -0.141 C  
ENDBRANCH  27  28
ENDBRANCH  14  24
TORSDOF 3
ENDMDL
MODEL        9
REMARK 921   NORMALIZED FREE ENERGY PREDICTED BY IDOCK:   -7.07 KCAL/MOL
REMARK 922        TOTAL FREE ENERGY PREDICTED BY IDOCK:   -9.38 KCAL/MOL
REMARK 923 INTER-LIGAND FREE ENERGY PREDICTED BY IDOCK:   -8.57 KCAL/MOL
REMARK 924 INTRA-LIGAND FREE ENERGY PREDICTED BY IDOCK:   -0.81 KCAL/MOL
REMARK 927      BINDING AFFINITY PREDICTED BY RF-SCORE:    0.00 PKD
ROOT
HETATM    1  C   UNL     1      -9.684   6.273  69.955  1.00  0.00    -0.168 C  
HETATM    2  C   UNL     1     -10.379   6.349  71.325  1.00  0.00    -0.244 C  
HETATM    3  C   UNL     1     -10.230   4.891  71.882  1.00  0.00    -0.267 C  
HETATM    4  C   UNL     1      -9.644   4.068  70.737  1.00  0.00    -0.193 C  
HETATM    5  N   UNL     1      -9.840   4.904  69.564  1.00  0.00    -0.199 N  
HETATM    6  C   UNL     1      -9.319   4.500  68.363  1.00  0.00    -0.142 C  
HETATM    7  O   UNL     1      -9.537   3.375  67.920  1.00  0.00    -0.190 OA 
HETATM    8  C   UNL     1      -8.525   5.596  67.587  1.00  0.00    -0.102 C  
HETATM    9  N   UNL     1      -8.129   6.845  68.476  1.00  0.00    -0.119 N  
HETATM   10  C   UNL     1      -5.795   7.854  66.216  1.00  0.00    -0.040 C  
HETATM   11  C   UNL     1      -7.579   8.064  68.109  1.00  0.00    -0.109 C  
HETATM   12  C   UNL     1      -7.472   8.046  64.344  1.00  0.00    -0.104 C  
HETATM   13  O   UNL     1      -6.719   8.646  68.754  1.00  0.00    -0.056 OA 
HETATM   14  C   UNL     1      -8.364   8.604  66.936  1.00  0.00    -0.108 C  
HETATM   15  C   UNL     1      -9.375   7.405  68.836  1.00  0.00    -0.145 C  
HETATM   16  O   UNL     1      -9.424   8.613  69.611  1.00  0.00    -0.160 OA 
HETATM   17  H   UNL     1      -9.243   9.276  68.956  1.00  0.00     0.000 HD 
HETATM   18  C   UNL     1      -7.192   8.421  65.799  1.00  0.00    -0.072 C  
HETATM   19  O   UNL     1      -9.637   7.771  67.434  1.00  0.00    -0.140 OA 
ENDROOT
BRANCH   8  20
HETATM   20  C   UNL     1      -7.442   4.935  66.756  1.00  0.00    -0.087 C  
HETATM   21  C   UNL     1      -6.861   3.165  65.111  1.00  0.00    -0.045 C  
HETATM   22  C   UNL     1      -7.991   4.027  65.659  1.00  0.00    -0.093 C  
HETATM   23  C   UNL     1      -8.619   4.820  64.519  1.00  0.00    -0.144 C  
ENDBRANCH   8  20
BRANCH  14  24
HETATM   24  N   UNL     1      -9.062   9.806  66.543  1.00  0.00    -0.149 N  
HETATM   25  H   UNL     1     -10.035   9.681  66.265  1.00  0.00     0.000 HD 
HETATM   26  O   UNL     1      -7.470  11.425  66.843  1.00  0.00    -0.136 OA 
HETATM   27  C   UNL     1      -8.590  11.093  66.496  1.00  0.00    -0.169 C  
BRANCH  27  28
HETATM   28  C   UNL     1      -9.667  12.047  65.963  1.00  0.00    -0.256 C  
HETATM   29  C   UNL     1     -11.086  11.472  66.208  1.00  0.00    -0.263 C  
HETATM   30  N   UNL     1     -11.695  11.898  67.481  1.00  0.00    -0.551 NA 
HETATM   31  C   UNL     1     -10.858  11.575  68.648  1.00  0.00    -0.212 C  
HETATM   32  C   UNL     1     -12.032  13.353  67.391  1.00  0.00    -0.346 C  
HETATM   33  C   UNL     1     -12.378  14.032  68.783  1.00  0.00    -0.074 C  
HETATM   34  C   UNL     1     -11.596  15.276  69.041  1.00  0.00    -0.360 A  
HETATM   35  C   UNL     1     -11.237  15.964  70.175  1.00  0.00    -0.364 A  
HETATM   36  N   UNL     1     -10.537  17.092  69.781  1.00  0.00    -0.256 NA 
HETATM   37  C   UNL     1     -10.450  17.148  68.404  1.00  0.00    -0.376 A  
HETATM   38  H   UNL     1     -10.143  17.784  70.417  1.00  0.00     0.000 HD 
HETATM   39  C   UNL     1      -9.863  18.045  67.507  1.00  0.00    -0.309 A  
HETATM   40  C   UNL     1      -9.937  17.717  66.139  1.00  0.00    -0.283 A  
HETATM   41  C   UNL     1     -10.456  16.496  65.704  1.00  0.00    -0.341 A  
HETATM   42  C   UNL     1     -10.924  15.580  66.644  1.00  0.00    -0.248 A  
HETATM   43  C   UNL     1     -11.029  15.980  67.967  1.00  0.00    -0.341 A  
HETATM   44  C   UNL     1     -11.040  14.112  66.396  1.00  0.00    -0.320 C  
HETATM   45  C   UNL     1      -9.611  13.488  66.487  1.00  0.00    -0.284 C  
ENDBRANCH  27  28
ENDBRANCH  14  24
TORSDOF 3
ENDMDL
MODEL       10
REMARK 921   NORMALIZED FREE ENERGY PREDICTED BY IDOCK:   -7.04 KCAL/MOL
REMARK 922        TOTAL FREE ENERGY PREDICTED BY IDOCK:   -9.35 KCAL/MOL
REMARK 923 INTER-LIGAND FREE ENERGY PREDICTED BY IDOCK:   -8.71 KCAL/MOL
REMARK 924 INTRA-LIGAND FREE ENERGY PREDICTED BY IDOCK:   -0.63 KCAL/MOL
REMARK 927      BINDING AFFINITY PREDICTED BY RF-SCORE:    0.00 PKD
ROOT
HETATM    1  C   UNL     1      -7.302   4.750  68.821  1.00  0.00    -0.061 C  
HETATM    2  C   UNL     1      -6.514   4.000  67.735  1.00  0.00    -0.038 C  
HETATM    3  C   UNL     1      -5.974   2.738  68.492  1.00  0.00    -0.024 C  
HETATM    4  C   UNL     1      -6.327   2.956  69.962  1.00  0.00    -0.028 C  
HETATM    5  N   UNL     1      -6.658   4.369  70.041  1.00  0.00    -0.032 N  
HETATM    6  C   UNL     1      -7.131   4.877  71.223  1.00  0.00    -0.052 C  
HETATM    7  O   UNL     1      -6.537   4.690  72.281  1.00  0.00    -0.035 OA 
HETATM    8  C   UNL     1      -8.405   5.769  71.092  1.00  0.00    -0.123 C  
HETATM    9  N   UNL     1      -9.147   5.620  69.701  1.00  0.00    -0.128 N  
HETATM   10  C   UNL     1     -11.983   7.036  70.936  1.00  0.00    -0.409 C  
HETATM   11  C   UNL     1     -10.193   6.355  69.163  1.00  0.00    -0.182 C  
HETATM   12  C   UNL     1     -10.813   9.172  71.584  1.00  0.00    -0.442 C  
HETATM   13  O   UNL     1     -11.116   5.865  68.528  1.00  0.00    -0.274 OA 
HETATM   14  C   UNL     1      -9.872   7.823  69.323  1.00  0.00    -0.173 C  
HETATM   15  C   UNL     1      -8.201   6.098  68.767  1.00  0.00    -0.108 C  
HETATM   16  O   UNL     1      -8.542   6.175  67.374  1.00  0.00    -0.108 OA 
HETATM   17  H   UNL     1      -9.069   6.964  67.342  1.00  0.00     0.000 HD 
HETATM   18  C   UNL     1     -11.014   8.164  70.453  1.00  0.00    -0.248 C  
HETATM   19  O   UNL     1      -8.313   7.458  69.322  1.00  0.00    -0.129 OA 
ENDROOT
BRANCH   8  20
HETATM   20  C   UNL     1      -9.228   5.654  72.360  1.00  0.00    -0.151 C  
HETATM   21  C   UNL     1     -11.263   4.738  73.453  1.00  0.00    -0.425 C  
HETATM   22  C   UNL     1     -10.288   4.558  72.297  1.00  0.00    -0.243 C  
HETATM   23  C   UNL     1      -9.676   3.164  72.364  1.00  0.00    -0.215 C  
ENDBRANCH   8  20
BRANCH  14  24
HETATM   24  N   UNL     1      -9.789   9.020  68.520  1.00  0.00    -0.164 N  
HETATM   25  H   UNL     1     -10.403   9.049  67.706  1.00  0.00     0.000 HD 
HETATM   26  O   UNL     1      -8.245  10.274  69.653  1.00  0.00    -0.167 OA 
HETATM   27  C   UNL     1      -8.995  10.123  68.706  1.00  0.00    -0.147 C  
BRANCH  27  28
HETATM   28  C   UNL     1      -9.198  11.136  67.572  1.00  0.00    -0.155 C  
HETATM   29  C   UNL     1     -10.553  10.902  66.855  1.00  0.00    -0.261 C  
HETATM   30  N   UNL     1     -11.670  11.685  67.414  1.00  0.00    -0.606 NA 
HETATM   31  C   UNL     1     -11.863  11.452  68.855  1.00  0.00    -0.347 C  
HETATM   32  C   UNL     1     -11.463  13.127  67.080  1.00  0.00    -0.334 C  
HETATM   33  C   UNL     1     -12.389  14.128  67.892  1.00  0.00    -0.020 C  
HETATM   34  C   UNL     1     -11.630  15.227  68.555  1.00  0.00    -0.368 A  
HETATM   35  C   UNL     1     -11.877  16.050  69.628  1.00  0.00    -0.229 A  
HETATM   36  N   UNL     1     -10.807  16.922  69.745  1.00  0.00    -0.368 NA 
HETATM   37  C   UNL     1      -9.877  16.680  68.754  1.00  0.00    -0.252 A  
HETATM   38  H   UNL     1     -10.719  17.641  70.463  1.00  0.00     0.000 HD 
HETATM   39  C   UNL     1      -8.644  17.248  68.424  1.00  0.00    -0.251 A  
HETATM   40  C   UNL     1      -7.944  16.671  67.347  1.00  0.00    -0.186 A  
HETATM   41  C   UNL     1      -8.395  15.508  66.719  1.00  0.00    -0.301 A  
HETATM   42  C   UNL     1      -9.571  14.906  67.159  1.00  0.00    -0.229 A  
HETATM   43  C   UNL     1     -10.356  15.578  68.083  1.00  0.00    -0.237 A  
HETATM   44  C   UNL     1      -9.909  13.468  66.943  1.00  0.00    -0.257 C  
HETATM   45  C   UNL     1      -9.084  12.616  67.959  1.00  0.00    -0.207 C  
ENDBRANCH  27  28
ENDBRANCH  14  24
TORSDOF 3
ENDMDL
MODEL       11
REMARK 921   NORMALIZED FREE ENERGY PREDICTED BY IDOCK:   -7.02 KCAL/MOL
REMARK 922        TOTAL FREE ENERGY PREDICTED BY IDOCK:   -9.31 KCAL/MOL
REMARK 923 INTER-LIGAND FREE ENERGY PREDICTED BY IDOCK:   -8.63 KCAL/MOL
REMARK 924 INTRA-LIGAND FREE ENERGY PREDICTED BY IDOCK:   -0.68 KCAL/MOL
REMARK 927      BINDING AFFINITY PREDICTED BY RF-SCORE:    0.00 PKD
ROOT
HETATM    1  C   UNL     1      -9.901   7.356  67.955  1.00  0.00    -0.148 C  
HETATM    2  C   UNL     1     -10.769   7.212  69.216  1.00  0.00    -0.231 C  
HETATM    3  C   UNL     1     -10.606   5.698  69.591  1.00  0.00    -0.401 C  
HETATM    4  C   UNL     1      -9.830   5.067  68.437  1.00  0.00    -0.147 C  
HETATM    5  N   UNL     1      -9.923   6.049  67.369  1.00  0.00    -0.129 N  
HETATM    6  C   UNL     1      -9.229   5.838  66.206  1.00  0.00    -0.158 C  
HETATM    7  O   UNL     1      -9.321   4.777  65.593  1.00  0.00    -0.152 OA 
HETATM    8  C   UNL     1      -8.409   7.063  65.697  1.00  0.00    -0.136 C  
HETATM    9  N   UNL     1      -8.206   8.192  66.788  1.00  0.00    -0.106 N  
HETATM   10  C   UNL     1      -5.665   9.602  65.018  1.00  0.00    -0.068 C  
HETATM   11  C   UNL     1      -7.687   9.473  66.664  1.00  0.00    -0.098 C  
HETATM   12  C   UNL     1      -7.097   9.981  62.979  1.00  0.00    -0.129 C  
HETATM   13  O   UNL     1      -6.953   9.995  67.490  1.00  0.00    -0.084 OA 
HETATM   14  C   UNL     1      -8.346  10.136  65.476  1.00  0.00    -0.158 C  
HETATM   15  C   UNL     1      -9.519   8.644  67.047  1.00  0.00    -0.171 C  
HETATM   16  O   UNL     1      -9.739   9.730  67.961  1.00  0.00    -0.142 OA 
HETATM   17  H   UNL     1      -9.515  10.484  67.430  1.00  0.00     0.000 HD 
HETATM   18  C   UNL     1      -7.029  10.162  64.495  1.00  0.00    -0.117 C  
HETATM   19  O   UNL     1      -9.620   9.191  65.683  1.00  0.00    -0.262 OA 
ENDROOT
BRANCH   8  20
HETATM   20  C   UNL     1      -7.191   6.570  64.940  1.00  0.00    -0.067 C  
HETATM   21  C   UNL     1      -6.304   5.104  63.141  1.00  0.00    -0.025 C  
HETATM   22  C   UNL     1      -7.537   5.840  63.645  1.00  0.00    -0.083 C  
HETATM   23  C   UNL     1      -8.034   6.793  62.564  1.00  0.00    -0.103 C  
ENDBRANCH   8  20
BRANCH  14  24
HETATM   24  N   UNL     1      -9.058  11.351  65.156  1.00  0.00    -0.393 N  
HETATM   25  H   UNL     1      -8.843  12.157  65.743  1.00  0.00     0.000 HD 
HETATM   26  O   UNL     1     -10.316  10.727  63.347  1.00  0.00    -0.299 OA 
HETATM   27  C   UNL     1      -9.984  11.565  64.167  1.00  0.00    -0.287 C  
BRANCH  27  28
HETATM   28  C   UNL     1     -10.524  13.000  64.230  1.00  0.00    -0.424 C  
HETATM   29  C   UNL     1     -12.047  13.007  64.522  1.00  0.00    -0.410 C  
HETATM   30  N   UNL     1     -12.384  13.085  65.955  1.00  0.00    -0.494 NA 
HETATM   31  C   UNL     1     -11.767  12.005  66.743  1.00  0.00    -0.264 C  
HETATM   32  C   UNL     1     -12.032  14.448  66.459  1.00  0.00    -0.386 C  
HETATM   33  C   UNL     1     -12.018  14.579  68.040  1.00  0.00    -0.305 C  
HETATM   34  C   UNL     1     -10.758  15.174  68.571  1.00  0.00    -0.240 A  
HETATM   35  C   UNL     1     -10.114  15.130  69.784  1.00  0.00    -0.160 A  
HETATM   36  N   UNL     1      -8.986  15.929  69.693  1.00  0.00    -0.126 NA 
HETATM   37  C   UNL     1      -8.900  16.499  68.439  1.00  0.00    -0.218 A  
HETATM   38  H   UNL     1      -8.315  16.076  70.447  1.00  0.00     0.000 HD 
HETATM   39  C   UNL     1      -7.984  17.359  67.828  1.00  0.00    -0.208 A  
HETATM   40  C   UNL     1      -8.214  17.678  66.475  1.00  0.00    -0.307 A  
HETATM   41  C   UNL     1      -9.232  17.066  65.741  1.00  0.00     0.074 A  
HETATM   42  C   UNL     1     -10.050  16.124  66.360  1.00  0.00    -0.321 A  
HETATM   43  C   UNL     1      -9.948  15.956  67.733  1.00  0.00    -0.229 A  
HETATM   44  C   UNL     1     -10.817  15.071  65.631  1.00  0.00    -0.356 C  
HETATM   45  C   UNL     1      -9.820  13.943  65.214  1.00  0.00    -0.170 C  
ENDBRANCH  27  28
ENDBRANCH  14  24
TORSDOF 3
ENDMDL
MODEL       12
REMARK 921   NORMALIZED FREE ENERGY PREDICTED BY IDOCK:   -6.93 KCAL/MOL
REMARK 922        TOTAL FREE ENERGY PREDICTED BY IDOCK:   -9.21 KCAL/MOL
REMARK 923 INTER-LIGAND FREE ENERGY PREDICTED BY IDOCK:   -8.74 KCAL/MOL
REMARK 924 INTRA-LIGAND FREE ENERGY PREDICTED BY IDOCK:   -0.47 KCAL/MOL
REMARK 927      BINDING AFFINITY PREDICTED BY RF-SCORE:    0.00 PKD
ROOT
HETATM    1  C   UNL     1      -7.700   4.838  66.416  1.00  0.00    -0.091 C  
HETATM    2  C   UNL     1      -7.364   4.169  65.073  1.00  0.00    -0.072 C  
HETATM    3  C   UNL     1      -6.762   2.787  65.504  1.00  0.00    -0.040 C  
HETATM    4  C   UNL     1      -6.629   2.849  67.024  1.00  0.00    -0.037 C  
HETATM    5  N   UNL     1      -6.763   4.263  67.334  1.00  0.00    -0.047 N  
HETATM    6  C   UNL     1      -6.799   4.657  68.646  1.00  0.00    -0.051 C  
HETATM    7  O   UNL     1      -5.938   4.297  69.444  1.00  0.00    -0.021 OA 
HETATM    8  C   UNL     1      -7.947   5.653  69.003  1.00  0.00    -0.096 C  
HETATM    9  N   UNL     1      -9.086   5.731  67.906  1.00  0.00    -0.110 N  
HETATM   10  C   UNL     1     -11.244   7.196  70.091  1.00  0.00    -0.295 C  
HETATM   11  C   UNL     1     -10.158   6.604  67.792  1.00  0.00    -0.148 C  
HETATM   12  C   UNL     1      -9.705   9.142  70.537  1.00  0.00    -0.287 C  
HETATM   13  O   UNL     1     -11.278   6.267  67.434  1.00  0.00    -0.328 OA 
HETATM   14  C   UNL     1      -9.644   8.012  67.980  1.00  0.00    -0.152 C  
HETATM   15  C   UNL     1      -8.420   6.248  66.772  1.00  0.00    -0.111 C  
HETATM   16  O   UNL     1      -9.154   6.520  65.568  1.00  0.00    -0.367 OA 
HETATM   17  H   UNL     1      -9.576   7.345  65.776  1.00  0.00     0.000 HD 
HETATM   18  C   UNL     1     -10.347   8.299  69.436  1.00  0.00    -0.223 C  
HETATM   19  O   UNL     1      -8.209   7.533  67.458  1.00  0.00    -0.112 OA 
ENDROOT
BRANCH   8  20
HETATM   20  C   UNL     1      -8.356   5.445  70.448  1.00  0.00    -0.113 C  
HETATM   21  C   UNL     1     -10.062   4.575  72.031  1.00  0.00    -0.264 C  
HETATM   22  C   UNL     1      -9.512   4.463  70.616  1.00  0.00    -0.242 C  
HETATM   23  C   UNL     1      -9.084   3.024  70.353  1.00  0.00    -0.192 C  
ENDBRANCH   8  20
BRANCH  14  24
HETATM   24  N   UNL     1      -9.677   9.290  67.306  1.00  0.00    -0.158 N  
HETATM   25  H   UNL     1     -10.479   9.447  66.696  1.00  0.00     0.000 HD 
HETATM   26  O   UNL     1      -7.789  10.317  68.096  1.00  0.00    -0.101 OA 
HETATM   27  C   UNL     1      -8.773  10.319  67.378  1.00  0.00    -0.128 C  
BRANCH  27  28
HETATM   28  C   UNL     1      -9.182  11.467  66.446  1.00  0.00    -0.218 C  
HETATM   29  C   UNL     1     -10.618  11.254  65.901  1.00  0.00    -0.253 C  
HETATM   30  N   UNL     1     -11.671  11.880  66.721  1.00  0.00    -0.590 NA 
HETATM   31  C   UNL     1     -11.638  11.434  68.125  1.00  0.00    -0.294 C  
HETATM   32  C   UNL     1     -11.573  13.365  66.580  1.00  0.00    -0.362 C  
HETATM   33  C   UNL     1     -12.408  14.182  67.653  1.00  0.00    -0.073 C  
HETATM   34  C   UNL     1     -11.605  15.222  68.358  1.00  0.00    -0.365 A  
HETATM   35  C   UNL     1     -11.722  15.868  69.566  1.00  0.00    -0.326 A  
HETATM   36  N   UNL     1     -10.682  16.779  69.659  1.00  0.00    -0.316 NA 
HETATM   37  C   UNL     1      -9.901  16.736  68.522  1.00  0.00    -0.257 A  
HETATM   38  H   UNL     1     -10.518  17.393  70.456  1.00  0.00     0.000 HD 
HETATM   39  C   UNL     1      -8.755  17.421  68.110  1.00  0.00    -0.256 A  
HETATM   40  C   UNL     1      -8.199  17.045  66.871  1.00  0.00    -0.245 A  
HETATM   41  C   UNL     1      -8.691  15.957  66.147  1.00  0.00    -0.328 A  
HETATM   42  C   UNL     1      -9.764  15.228  66.655  1.00  0.00    -0.268 A  
HETATM   43  C   UNL     1     -10.429  15.713  67.770  1.00  0.00    -0.273 A  
HETATM   44  C   UNL     1     -10.071  13.816  66.277  1.00  0.00    -0.304 C  
HETATM   45  C   UNL     1      -9.071  12.882  67.029  1.00  0.00    -0.228 C  
ENDBRANCH  27  28
ENDBRANCH  14  24
TORSDOF 3
ENDMDL
MODEL       13
REMARK 921   NORMALIZED FREE ENERGY PREDICTED BY IDOCK:   -6.92 KCAL/MOL
REMARK 922        TOTAL FREE ENERGY PREDICTED BY IDOCK:   -9.20 KCAL/MOL
REMARK 923 INTER-LIGAND FREE ENERGY PREDICTED BY IDOCK:   -8.22 KCAL/MOL
REMARK 924 INTRA-LIGAND FREE ENERGY PREDICTED BY IDOCK:   -0.98 KCAL/MOL
REMARK 927      BINDING AFFINITY PREDICTED BY RF-SCORE:    0.00 PKD
ROOT
HETATM    1  C   UNL     1     -12.531  13.346  70.741  1.00  0.00    -0.341 C  
HETATM    2  C   UNL     1     -13.525  13.160  71.900  1.00  0.00    -0.513 C  
HETATM    3  C   UNL     1     -14.194  14.571  72.027  1.00  0.00    -0.630 C  
HETATM    4  C   UNL     1     -13.416  15.484  71.081  1.00  0.00    -0.439 C  
HETATM    5  N   UNL     1     -12.204  14.739  70.787  1.00  0.00    -0.290 N  
HETATM    6  C   UNL     1     -11.322  15.238  69.865  1.00  0.00    -0.289 C  
HETATM    7  O   UNL     1     -10.907  16.392  69.939  1.00  0.00    -0.344 OA 
HETATM    8  C   UNL     1     -10.835  14.211  68.795  1.00  0.00    -0.258 C  
HETATM    9  N   UNL     1     -11.721  12.901  68.721  1.00  0.00    -0.305 N  
HETATM   10  C   UNL     1     -10.458  12.086  65.669  1.00  0.00    -0.293 C  
HETATM   11  C   UNL     1     -11.510  11.717  68.029  1.00  0.00    -0.319 C  
HETATM   12  C   UNL     1      -8.080  12.025  66.502  1.00  0.00     0.054 C  
HETATM   13  O   UNL     1     -12.393  11.095  67.457  1.00  0.00     0.104 OA 
HETATM   14  C   UNL     1     -10.092  11.263  68.290  1.00  0.00    -0.188 C  
HETATM   15  C   UNL     1     -11.540  12.305  69.990  1.00  0.00    -0.157 C  
HETATM   16  O   UNL     1     -12.155  11.041  70.284  1.00  0.00    -0.300 OA 
HETATM   17  H   UNL     1     -11.575  10.432  69.844  1.00  0.00     0.000 HD 
HETATM   18  C   UNL     1      -9.504  11.542  66.782  1.00  0.00    -0.202 C  
HETATM   19  O   UNL     1     -10.123  12.045  69.686  1.00  0.00     0.569 OA 
ENDROOT
BRANCH   8  20
HETATM   20  C   UNL     1     -10.526  14.942  67.504  1.00  0.00    -0.254 C  
HETATM   21  C   UNL     1      -9.325  16.819  66.403  1.00  0.00    -0.305 C  
HETATM   22  C   UNL     1      -9.346  15.903  67.619  1.00  0.00    -0.217 C  
HETATM   23  C   UNL     1      -8.015  15.167  67.720  1.00  0.00    -0.155 C  
ENDBRANCH   8  20
BRANCH  14  24
HETATM   24  N   UNL     1      -9.384  10.089  68.742  1.00  0.00    -0.155 N  
HETATM   25  H   UNL     1      -8.514  10.265  69.247  1.00  0.00     0.000 HD 
HETATM   26  O   UNL     1     -10.750   8.387  68.052  1.00  0.00    -0.168 OA 
HETATM   27  C   UNL     1      -9.723   8.769  68.583  1.00  0.00    -0.162 C  
BRANCH  27  28
HETATM   28  C   UNL     1      -8.644   7.856  69.178  1.00  0.00    -0.138 C  
HETATM   29  C   UNL     1      -7.789   8.615  70.225  1.00  0.00    -0.097 C  
HETATM   30  N   UNL     1      -8.291   8.500  71.607  1.00  0.00    -0.155 NA 
HETATM   31  C   UNL     1      -9.689   8.942  71.742  1.00  0.00    -0.295 C  
HETATM   32  C   UNL     1      -8.074   7.100  72.083  1.00  0.00    -0.095 C  
HETATM   33  C   UNL     1      -8.859   6.731  73.412  1.00  0.00    -0.143 C  
HETATM   34  C   UNL     1      -9.661   5.479  73.294  1.00  0.00    -0.160 A  
HETATM   35  C   UNL     1     -10.758   4.979  73.953  1.00  0.00    -0.299 A  
HETATM   36  N   UNL     1     -11.033   3.728  73.425  1.00  0.00    -0.218 NA 
HETATM   37  C   UNL     1     -10.120   3.410  72.441  1.00  0.00    -0.158 A  
HETATM   38  H   UNL     1     -11.802   3.127  73.723  1.00  0.00     0.000 HD 
HETATM   39  C   UNL     1      -9.945   2.304  71.603  1.00  0.00    -0.176 A  
HETATM   40  C   UNL     1      -8.903   2.378  70.659  1.00  0.00    -0.130 A  
HETATM   41  C   UNL     1      -8.160   3.547  70.477  1.00  0.00    -0.063 A  
HETATM   42  C   UNL     1      -8.447   4.666  71.255  1.00  0.00    -0.112 A  
HETATM   43  C   UNL     1      -9.336   4.532  72.311  1.00  0.00    -0.165 A  
HETATM   44  C   UNL     1      -8.106   6.067  70.866  1.00  0.00    -0.121 C  
HETATM   45  C   UNL     1      -9.137   6.539  69.792  1.00  0.00    -0.142 C  
ENDBRANCH  27  28
ENDBRANCH  14  24
TORSDOF 3
ENDMDL
MODEL       14
REMARK 921   NORMALIZED FREE ENERGY PREDICTED BY IDOCK:   -6.92 KCAL/MOL
REMARK 922        TOTAL FREE ENERGY PREDICTED BY IDOCK:   -9.20 KCAL/MOL
REMARK 923 INTER-LIGAND FREE ENERGY PREDICTED BY IDOCK:   -7.78 KCAL/MOL
REMARK 924 INTRA-LIGAND FREE ENERGY PREDICTED BY IDOCK:   -1.42 KCAL/MOL
REMARK 927      BINDING AFFINITY PREDICTED BY RF-SCORE:    0.00 PKD
ROOT
HETATM    1  C   UNL     1     -11.204  12.119  65.077  1.00  0.00    -0.322 C  
HETATM    2  C   UNL     1     -12.047  11.996  63.797  1.00  0.00    -0.599 C  
HETATM    3  C   UNL     1     -12.400  13.486  63.459  1.00  0.00    -0.343 C  
HETATM    4  C   UNL     1     -11.904  14.309  64.646  1.00  0.00    -0.448 C  
HETATM    5  N   UNL     1     -11.677  13.323  65.690  1.00  0.00    -0.340 N  
HETATM    6  C   UNL     1     -11.117  13.724  66.874  1.00  0.00    -0.302 C  
HETATM    7  O   UNL     1     -11.573  14.673  67.507  1.00  0.00    -0.349 OA 
HETATM    8  C   UNL     1      -9.938  12.834  67.379  1.00  0.00    -0.212 C  
HETATM    9  N   UNL     1      -9.346  11.872  66.270  1.00  0.00    -0.225 N  
HETATM   10  C   UNL     1      -6.509  11.355  68.075  1.00  0.00    -0.057 C  
HETATM   11  C   UNL     1      -8.426  10.840  66.381  1.00  0.00    -0.158 C  
HETATM   12  C   UNL     1      -7.762  10.456  70.069  1.00  0.00     0.002 C  
HETATM   13  O   UNL     1      -7.544  10.620  65.564  1.00  0.00    -0.143 OA 
HETATM   14  C   UNL     1      -8.841   9.959  67.537  1.00  0.00    -0.128 C  
HETATM   15  C   UNL     1     -10.424  11.010  65.967  1.00  0.00    -0.245 C  
HETATM   16  O   UNL     1     -10.246   9.941  65.026  1.00  0.00    -0.328 OA 
HETATM   17  H   UNL     1      -9.790   9.292  65.547  1.00  0.00     0.000 HD 
HETATM   18  C   UNL     1      -7.611  10.352  68.551  1.00  0.00    -0.095 C  
HETATM   19  O   UNL     1     -10.357  10.423  67.317  1.00  0.00    -0.202 OA 
ENDROOT
BRANCH   8  20
HETATM   20  C   UNL     1      -8.973  13.689  68.178  1.00  0.00    -0.191 C  
HETATM   21  C   UNL     1      -6.815  14.920  68.217  1.00  0.00    -0.121 C  
HETATM   22  C   UNL     1      -7.914  14.372  67.317  1.00  0.00    -0.204 C  
HETATM   23  C   UNL     1      -8.498  15.508  66.484  1.00  0.00    -0.283 C  
ENDBRANCH   8  20
BRANCH  14  24
HETATM   24  N   UNL     1      -9.105   8.566  67.813  1.00  0.00    -0.135 N  
HETATM   25  H   UNL     1      -9.440   8.358  68.755  1.00  0.00     0.000 HD 
HETATM   26  O   UNL     1      -8.628   7.562  65.812  1.00  0.00    -0.149 OA 
HETATM   27  C   UNL     1      -8.966   7.486  66.980  1.00  0.00    -0.130 C  
BRANCH  27  28
HETATM   28  C   UNL     1      -9.308   6.184  67.716  1.00  0.00    -0.109 C  
HETATM   29  C   UNL     1      -8.257   5.084  67.416  1.00  0.00    -0.106 C  
HETATM   30  N   UNL     1      -7.142   5.040  68.379  1.00  0.00    -0.060 NA 
HETATM   31  C   UNL     1      -6.442   6.330  68.496  1.00  0.00    -0.049 C  
HETATM   32  C   UNL     1      -7.657   4.536  69.689  1.00  0.00    -0.054 C  
HETATM   33  C   UNL     1      -6.666   4.750  70.909  1.00  0.00    -0.032 C  
HETATM   34  C   UNL     1      -7.305   5.420  72.078  1.00  0.00    -0.089 A  
HETATM   35  C   UNL     1      -6.832   6.153  73.140  1.00  0.00    -0.075 A  
HETATM   36  N   UNL     1      -7.913   6.482  73.941  1.00  0.00    -0.103 NA 
HETATM   37  C   UNL     1      -9.078   5.960  73.416  1.00  0.00    -0.132 A  
HETATM   38  H   UNL     1      -7.856   7.031  74.798  1.00  0.00     0.000 HD 
HETATM   39  C   UNL     1     -10.419   5.996  73.809  1.00  0.00    -0.288 A  
HETATM   40  C   UNL     1     -11.351   5.377  72.954  1.00  0.00    -0.365 A  
HETATM   41  C   UNL     1     -10.976   4.863  71.711  1.00  0.00     0.068 A  
HETATM   42  C   UNL     1      -9.646   4.954  71.307  1.00  0.00    -0.229 A  
HETATM   43  C   UNL     1      -8.701   5.384  72.225  1.00  0.00    -0.129 A  
HETATM   44  C   UNL     1      -9.198   4.908  69.883  1.00  0.00    -0.178 C  
HETATM   45  C   UNL     1      -9.497   6.297  69.234  1.00  0.00    -0.142 C  
ENDBRANCH  27  28
ENDBRANCH  14  24
TORSDOF 3
ENDMDL
MODEL       15
REMARK 921   NORMALIZED FREE ENERGY PREDICTED BY IDOCK:   -6.78 KCAL/MOL
REMARK 922        TOTAL FREE ENERGY PREDICTED BY IDOCK:   -9.04 KCAL/MOL
REMARK 923 INTER-LIGAND FREE ENERGY PREDICTED BY IDOCK:   -7.78 KCAL/MOL
REMARK 924 INTRA-LIGAND FREE ENERGY PREDICTED BY IDOCK:   -1.25 KCAL/MOL
REMARK 927      BINDING AFFINITY PREDICTED BY RF-SCORE:    0.00 PKD
ROOT
HETATM    1  C   UNL     1     -10.758  14.213  68.907  1.00  0.00    -0.256 C  
HETATM    2  C   UNL     1     -11.466  15.289  69.748  1.00  0.00    -0.332 C  
HETATM    3  C   UNL     1     -11.490  16.531  68.792  1.00  0.00    -0.143 C  
HETATM    4  C   UNL     1     -10.647  16.137  67.580  1.00  0.00    -0.314 C  
HETATM    5  N   UNL     1      -9.915  14.963  68.025  1.00  0.00    -0.218 N  
HETATM    6  C   UNL     1      -9.134  14.285  67.126  1.00  0.00    -0.228 C  
HETATM    7  O   UNL     1      -8.299  14.868  66.440  1.00  0.00    -0.038 OA 
HETATM    8  C   UNL     1      -9.330  12.736  67.119  1.00  0.00    -0.216 C  
HETATM    9  N   UNL     1     -10.647  12.258  67.856  1.00  0.00    -0.206 N  
HETATM   10  C   UNL     1     -10.502   9.201  66.372  1.00  0.00    -0.141 C  
HETATM   11  C   UNL     1     -11.069  10.981  68.195  1.00  0.00    -0.270 C  
HETATM   12  C   UNL     1      -8.213   8.694  67.300  1.00  0.00    -0.105 C  
HETATM   13  O   UNL     1     -12.226  10.597  68.103  1.00  0.00    -0.265 OA 
HETATM   14  C   UNL     1      -9.918  10.265  68.864  1.00  0.00    -0.201 C  
HETATM   15  C   UNL     1     -10.439  12.650  69.198  1.00  0.00     0.119 C  
HETATM   16  O   UNL     1     -11.414  12.328  70.201  1.00  0.00    -0.514 OA 
HETATM   17  H   UNL     1     -11.227  11.412  70.372  1.00  0.00     0.000 HD 
HETATM   18  C   UNL     1      -9.613   9.190  67.660  1.00  0.00    -0.181 C  
HETATM   19  O   UNL     1      -9.337  11.681  69.328  1.00  0.00     0.197 OA 
ENDROOT
BRANCH   8  20
HETATM   20  C   UNL     1      -9.053  12.203  65.727  1.00  0.00     0.060 C  
HETATM   21  C   UNL     1      -9.988  11.240  63.637  1.00  0.00    -0.402 C  
HETATM   22  C   UNL     1     -10.306  12.080  64.865  1.00  0.00    -0.316 C  
HETATM   23  C   UNL     1     -10.835  13.440  64.424  1.00  0.00    -0.422 C  
ENDBRANCH   8  20
BRANCH  14  24
HETATM   24  N   UNL     1      -9.639   9.535  70.078  1.00  0.00    -0.222 N  
HETATM   25  H   UNL     1      -8.717   9.101  70.131  1.00  0.00     0.000 HD 
HETATM   26  O   UNL     1     -11.557   9.836  71.291  1.00  0.00    -0.345 OA 
HETATM   27  C   UNL     1     -10.449   9.346  71.169  1.00  0.00    -0.322 C  
BRANCH  27  28
HETATM   28  C   UNL     1      -9.760   8.453  72.209  1.00  0.00    -0.386 C  
HETATM   29  C   UNL     1     -10.803   7.733  73.101  1.00  0.00    -0.339 C  
HETATM   30  N   UNL     1     -11.208   6.407  72.600  1.00  0.00    -0.262 NA 
HETATM   31  C   UNL     1     -11.729   6.454  71.224  1.00  0.00    -0.300 C  
HETATM   32  C   UNL     1     -10.059   5.462  72.756  1.00  0.00    -0.181 C  
HETATM   33  C   UNL     1     -10.220   4.098  71.960  1.00  0.00    -0.200 C  
HETATM   34  C   UNL     1      -9.044   3.775  71.102  1.00  0.00    -0.181 A  
HETATM   35  C   UNL     1      -8.858   2.995  69.986  1.00  0.00    -0.089 A  
HETATM   36  N   UNL     1      -7.515   3.048  69.653  1.00  0.00    -0.044 NA 
HETATM   37  C   UNL     1      -6.828   3.844  70.547  1.00  0.00    -0.033 A  
HETATM   38  H   UNL     1      -7.093   2.566  68.859  1.00  0.00     0.000 HD 
HETATM   39  C   UNL     1      -5.491   4.233  70.669  1.00  0.00    -0.011 A  
HETATM   40  C   UNL     1      -5.181   5.130  71.710  1.00  0.00    -0.005 A  
HETATM   41  C   UNL     1      -6.175   5.705  72.503  1.00  0.00    -0.047 A  
HETATM   42  C   UNL     1      -7.509   5.378  72.270  1.00  0.00    -0.096 A  
HETATM   43  C   UNL     1      -7.797   4.354  71.380  1.00  0.00    -0.081 A  
HETATM   44  C   UNL     1      -8.664   6.234  72.672  1.00  0.00    -0.123 C  
HETATM   45  C   UNL     1      -8.769   7.418  71.659  1.00  0.00    -0.124 C  
ENDBRANCH  27  28
ENDBRANCH  14  24
TORSDOF 3
ENDMDL
MODEL       16
REMARK 921   NORMALIZED FREE ENERGY PREDICTED BY IDOCK:   -6.70 KCAL/MOL
REMARK 922        TOTAL FREE ENERGY PREDICTED BY IDOCK:   -8.94 KCAL/MOL
REMARK 923 INTER-LIGAND FREE ENERGY PREDICTED BY IDOCK:   -7.90 KCAL/MOL
REMARK 924 INTRA-LIGAND FREE ENERGY PREDICTED BY IDOCK:   -1.05 KCAL/MOL
REMARK 927      BINDING AFFINITY PREDICTED BY RF-SCORE:    0.00 PKD
ROOT
HETATM    1  C   UNL     1      -6.601  16.570  69.432  1.00  0.00    -0.213 C  
HETATM    2  C   UNL     1      -5.715  16.506  70.687  1.00  0.00     0.034 C  
HETATM    3  C   UNL     1      -5.128  17.956  70.785  1.00  0.00    -0.271 C  
HETATM    4  C   UNL     1      -5.562  18.665  69.504  1.00  0.00    -0.226 C  
HETATM    5  N   UNL     1      -5.990  17.586  68.629  1.00  0.00    -0.166 N  
HETATM    6  C   UNL     1      -6.550  17.893  67.417  1.00  0.00    -0.165 C  
HETATM    7  O   UNL     1      -5.994  18.658  66.633  1.00  0.00    -0.153 OA 
HETATM    8  C   UNL     1      -7.873  17.132  67.091  1.00  0.00    -0.184 C  
HETATM    9  N   UNL     1      -8.539  16.444  68.352  1.00  0.00    -0.200 N  
HETATM   10  C   UNL     1     -11.517  16.116  66.741  1.00  0.00     0.453 C  
HETATM   11  C   UNL     1      -9.605  15.561  68.429  1.00  0.00    -0.199 C  
HETATM   12  C   UNL     1     -10.523  14.755  64.866  1.00  0.00    -0.398 C  
HETATM   13  O   UNL     1     -10.463  15.601  69.299  1.00  0.00    -0.215 OA 
HETATM   14  C   UNL     1      -9.390  14.469  67.407  1.00  0.00    -0.197 C  
HETATM   15  C   UNL     1      -7.585  15.479  68.746  1.00  0.00    -0.152 C  
HETATM   16  O   UNL     1      -7.865  14.597  69.844  1.00  0.00    -0.409 OA 
HETATM   17  H   UNL     1      -8.441  13.958  69.443  1.00  0.00     0.000 HD 
HETATM   18  C   UNL     1     -10.603  14.896  66.386  1.00  0.00    -0.307 C  
HETATM   19  O   UNL     1      -7.813  14.720  67.504  1.00  0.00    -0.157 OA 
ENDROOT
BRANCH   8  20
HETATM   20  C   UNL     1      -8.744  18.001  66.205  1.00  0.00    -0.194 C  
HETATM   21  C   UNL     1     -10.659  19.578  66.061  1.00  0.00    -0.589 C  
HETATM   22  C   UNL     1      -9.596  19.000  66.984  1.00  0.00    -0.364 C  
HETATM   23  C   UNL     1      -8.760  20.134  67.567  1.00  0.00    -0.415 C  
ENDBRANCH   8  20
BRANCH  14  24
HETATM   24  N   UNL     1      -9.351  13.027  67.336  1.00  0.00    -0.201 N  
HETATM   25  H   UNL     1      -8.631  12.634  66.728  1.00  0.00     0.000 HD 
HETATM   26  O   UNL     1     -11.022  12.412  68.775  1.00  0.00    -0.232 OA 
HETATM   27  C   UNL     1     -10.151  12.115  67.976  1.00  0.00    -0.204 C  
BRANCH  27  28
HETATM   28  C   UNL     1      -9.786  10.685  67.560  1.00  0.00    -0.194 C  
HETATM   29  C   UNL     1      -8.332  10.616  67.026  1.00  0.00    -0.126 C  
HETATM   30  N   UNL     1      -7.328  10.303  68.057  1.00  0.00    -0.085 NA 
HETATM   31  C   UNL     1      -7.361  11.246  69.188  1.00  0.00    -0.104 C  
HETATM   32  C   UNL     1      -7.500   8.879  68.482  1.00  0.00    -0.085 C  
HETATM   33  C   UNL     1      -6.726   8.493  69.812  1.00  0.00    -0.039 C  
HETATM   34  C   UNL     1      -7.595   7.832  70.828  1.00  0.00    -0.078 A  
HETATM   35  C   UNL     1      -7.531   7.684  72.193  1.00  0.00    -0.073 A  
HETATM   36  N   UNL     1      -8.618   6.921  72.585  1.00  0.00    -0.120 NA 
HETATM   37  C   UNL     1      -9.377   6.563  71.489  1.00  0.00    -0.147 A  
HETATM   38  H   UNL     1      -8.828   6.659  73.549  1.00  0.00     0.000 HD 
HETATM   39  C   UNL     1     -10.550   5.822  71.324  1.00  0.00    -0.319 A  
HETATM   40  C   UNL     1     -11.064   5.725  70.016  1.00  0.00    -0.329 A  
HETATM   41  C   UNL     1     -10.505   6.439  68.954  1.00  0.00    -0.264 A  
HETATM   42  C   UNL     1      -9.404   7.260  69.188  1.00  0.00    -0.146 A  
HETATM   43  C   UNL     1      -8.784   7.203  70.426  1.00  0.00    -0.150 A  
HETATM   44  C   UNL     1      -9.017   8.410  68.318  1.00  0.00    -0.139 C  
HETATM   45  C   UNL     1      -9.980   9.600  68.628  1.00  0.00    -0.179 C  
ENDBRANCH  27  28
ENDBRANCH  14  24
TORSDOF 3
ENDMDL
MODEL       17
REMARK 921   NORMALIZED FREE ENERGY PREDICTED BY IDOCK:   -6.66 KCAL/MOL
REMARK 922        TOTAL FREE ENERGY PREDICTED BY IDOCK:   -8.89 KCAL/MOL
REMARK 923 INTER-LIGAND FREE ENERGY PREDICTED BY IDOCK:   -8.15 KCAL/MOL
REMARK 924 INTRA-LIGAND FREE ENERGY PREDICTED BY IDOCK:   -0.74 KCAL/MOL
REMARK 927      BINDING AFFINITY PREDICTED BY RF-SCORE:    0.00 PKD
ROOT
HETATM    1  C   UNL     1     -10.349  14.915  68.749  1.00  0.00    -0.245 C  
HETATM    2  C   UNL     1     -10.570  15.715  70.044  1.00  0.00    -0.342 C  
HETATM    3  C   UNL     1     -10.898  17.156  69.522  1.00  0.00     0.081 C  
HETATM    4  C   UNL     1     -10.658  17.115  68.014  1.00  0.00    -0.374 C  
HETATM    5  N   UNL     1      -9.892  15.896  67.811  1.00  0.00    -0.221 N  
HETATM    6  C   UNL     1      -9.599  15.498  66.532  1.00  0.00    -0.272 C  
HETATM    7  O   UNL     1      -9.081  16.268  65.728  1.00  0.00    -0.434 OA 
HETATM    8  C   UNL     1      -9.889  13.995  66.227  1.00  0.00    -0.305 C  
HETATM    9  N   UNL     1     -10.817  13.295  67.302  1.00  0.00    -0.262 N  
HETATM   10  C   UNL     1     -11.510  10.720  65.190  1.00  0.00     0.819 C  
HETATM   11  C   UNL     1     -11.151  11.958  67.459  1.00  0.00    -0.273 C  
HETATM   12  C   UNL     1      -9.085  10.086  64.928  1.00  0.00    -0.265 C  
HETATM   13  O   UNL     1     -12.267  11.565  67.765  1.00  0.00    -0.560 OA 
HETATM   14  C   UNL     1      -9.881  11.142  67.392  1.00  0.00    -0.173 C  
HETATM   15  C   UNL     1     -10.049  13.343  68.487  1.00  0.00    -0.207 C  
HETATM   16  O   UNL     1     -10.545  12.739  69.691  1.00  0.00    -0.292 OA 
HETATM   17  H   UNL     1     -10.370  11.819  69.538  1.00  0.00     0.000 HD 
HETATM   18  C   UNL     1     -10.174  10.419  65.946  1.00  0.00    -0.302 C  
HETATM   19  O   UNL     1      -9.062  12.417  67.906  1.00  0.00    -0.176 OA 
ENDROOT
BRANCH   8  20
HETATM   20  C   UNL     1     -10.247  13.843  64.762  1.00  0.00    -0.353 C  
HETATM   21  C   UNL     1     -12.007  13.327  63.086  1.00  0.00    -0.179 C  
HETATM   22  C   UNL     1     -11.751  13.812  64.506  1.00  0.00    -0.432 C  
HETATM   23  C   UNL     1     -12.393  15.181  64.696  1.00  0.00    -0.158 C  
ENDBRANCH   8  20
BRANCH  14  24
HETATM   24  N   UNL     1      -9.180  10.140  68.160  1.00  0.00    -0.134 N  
HETATM   25  H   UNL     1      -8.185  10.313  68.309  1.00  0.00     0.000 HD 
HETATM   26  O   UNL     1     -10.844   8.656  68.679  1.00  0.00    -0.106 OA 
HETATM   27  C   UNL     1      -9.672   8.987  68.717  1.00  0.00    -0.159 C  
BRANCH  27  28
HETATM   28  C   UNL     1      -8.552   8.192  69.400  1.00  0.00    -0.135 C  
HETATM   29  C   UNL     1      -7.946   8.992  70.582  1.00  0.00    -0.141 C  
HETATM   30  N   UNL     1      -8.586   8.722  71.881  1.00  0.00    -0.348 NA 
HETATM   31  C   UNL     1     -10.039   8.960  71.859  1.00  0.00    -0.322 C  
HETATM   32  C   UNL     1      -8.231   7.336  72.315  1.00  0.00    -0.101 C  
HETATM   33  C   UNL     1      -9.107   6.779  73.515  1.00  0.00    -0.158 C  
HETATM   34  C   UNL     1      -9.703   5.440  73.237  1.00  0.00    -0.161 A  
HETATM   35  C   UNL     1     -10.788   4.754  73.727  1.00  0.00    -0.310 A  
HETATM   36  N   UNL     1     -10.817   3.514  73.111  1.00  0.00    -0.172 NA 
HETATM   37  C   UNL     1      -9.757   3.387  72.236  1.00  0.00    -0.152 A  
HETATM   38  H   UNL     1     -11.522   2.797  73.280  1.00  0.00     0.000 HD 
HETATM   39  C   UNL     1      -9.328   2.371  71.377  1.00  0.00    -0.197 A  
HETATM   40  C   UNL     1      -8.202   2.647  70.577  1.00  0.00    -0.067 A  
HETATM   41  C   UNL     1      -7.618   3.914  70.546  1.00  0.00    -0.044 A  
HETATM   42  C   UNL     1      -8.152   4.932  71.333  1.00  0.00    -0.110 A  
HETATM   43  C   UNL     1      -9.132   4.611  72.259  1.00  0.00    -0.146 A  
HETATM   44  C   UNL     1      -7.970   6.388  71.056  1.00  0.00    -0.115 C  
HETATM   45  C   UNL     1      -8.923   6.784  69.884  1.00  0.00    -0.144 C  
ENDBRANCH  27  28
ENDBRANCH  14  24
TORSDOF 3
ENDMDL
MODEL       18
REMARK 921   NORMALIZED FREE ENERGY PREDICTED BY IDOCK:   -6.63 KCAL/MOL
REMARK 922        TOTAL FREE ENERGY PREDICTED BY IDOCK:   -8.86 KCAL/MOL
REMARK 923 INTER-LIGAND FREE ENERGY PREDICTED BY IDOCK:   -8.03 KCAL/MOL
REMARK 924 INTRA-LIGAND FREE ENERGY PREDICTED BY IDOCK:   -0.83 KCAL/MOL
REMARK 927      BINDING AFFINITY PREDICTED BY RF-SCORE:    0.00 PKD
ROOT
HETATM    1  C   UNL     1     -11.121  13.122  65.783  1.00  0.00    -0.273 C  
HETATM    2  C   UNL     1     -12.355  12.598  65.029  1.00  0.00    -0.561 C  
HETATM    3  C   UNL     1     -12.647  13.734  63.990  1.00  0.00    -0.131 C  
HETATM    4  C   UNL     1     -11.698  14.876  64.347  1.00  0.00    -0.328 C  
HETATM    5  N   UNL     1     -11.234  14.546  65.684  1.00  0.00    -0.327 N  
HETATM    6  C   UNL     1     -10.268  15.325  66.266  1.00  0.00    -0.287 C  
HETATM    7  O   UNL     1     -10.384  16.546  66.325  1.00  0.00    -0.308 OA 
HETATM    8  C   UNL     1      -9.086  14.536  66.911  1.00  0.00    -0.255 C  
HETATM    9  N   UNL     1      -9.005  13.023  66.452  1.00  0.00    -0.069 N  
HETATM   10  C   UNL     1      -5.794  12.748  67.542  1.00  0.00    -0.132 C  
HETATM   11  C   UNL     1      -8.213  11.987  66.925  1.00  0.00    -0.146 C  
HETATM   12  C   UNL     1      -6.385  13.380  69.909  1.00  0.00    -0.060 C  
HETATM   13  O   UNL     1      -7.686  11.148  66.208  1.00  0.00    -0.154 OA 
HETATM   14  C   UNL     1      -8.301  11.975  68.434  1.00  0.00    -0.151 C  
HETATM   15  C   UNL     1     -10.204  12.461  66.946  1.00  0.00    -0.225 C  
HETATM   16  O   UNL     1     -10.466  11.060  66.773  1.00  0.00    -0.231 OA 
HETATM   17  H   UNL     1      -9.929  10.673  67.454  1.00  0.00     0.000 HD 
HETATM   18  C   UNL     1      -6.767  12.477  68.736  1.00  0.00    -0.093 C  
HETATM   19  O   UNL     1      -9.746  12.655  68.332  1.00  0.00    -0.222 OA 
ENDROOT
BRANCH   8  20
HETATM   20  C   UNL     1      -7.826  15.376  66.838  1.00  0.00    -0.196 C  
HETATM   21  C   UNL     1      -6.769  17.591  67.226  1.00  0.00    -0.191 C  
HETATM   22  C   UNL     1      -7.921  16.681  67.624  1.00  0.00    -0.188 C  
HETATM   23  C   UNL     1      -7.883  16.446  69.131  1.00  0.00    -0.214 C  
ENDBRANCH   8  20
BRANCH  14  24
HETATM   24  N   UNL     1      -8.597  11.054  69.507  1.00  0.00    -0.346 N  
HETATM   25  H   UNL     1      -9.304  11.366  70.173  1.00  0.00     0.000 HD 
HETATM   26  O   UNL     1      -7.238   9.275  69.025  1.00  0.00    -0.069 OA 
HETATM   27  C   UNL     1      -8.054   9.818  69.749  1.00  0.00    -0.167 C  
BRANCH  27  28
HETATM   28  C   UNL     1      -8.628   9.216  71.038  1.00  0.00    -0.236 C  
HETATM   29  C   UNL     1     -10.176   9.305  71.051  1.00  0.00    -0.314 C  
HETATM   30  N   UNL     1     -10.850   8.117  70.496  1.00  0.00    -0.237 NA 
HETATM   31  C   UNL     1     -10.416   7.807  69.124  1.00  0.00    -0.211 C  
HETATM   32  C   UNL     1     -10.662   6.972  71.439  1.00  0.00    -0.219 C  
HETATM   33  C   UNL     1     -11.033   5.554  70.830  1.00  0.00    -0.194 C  
HETATM   34  C   UNL     1      -9.953   4.540  70.998  1.00  0.00    -0.257 A  
HETATM   35  C   UNL     1      -9.619   3.378  70.345  1.00  0.00    -0.157 A  
HETATM   36  N   UNL     1      -8.522   2.831  70.990  1.00  0.00    -0.060 NA 
HETATM   37  C   UNL     1      -8.150   3.620  72.060  1.00  0.00    -0.071 A  
HETATM   38  H   UNL     1      -8.056   1.967  70.714  1.00  0.00     0.000 HD 
HETATM   39  C   UNL     1      -7.134   3.537  73.016  1.00  0.00    -0.045 A  
HETATM   40  C   UNL     1      -7.039   4.598  73.938  1.00  0.00    -0.076 A  
HETATM   41  C   UNL     1      -7.835   5.740  73.826  1.00  0.00    -0.104 A  
HETATM   42  C   UNL     1      -8.755   5.831  72.785  1.00  0.00    -0.118 A  
HETATM   43  C   UNL     1      -8.984   4.712  71.999  1.00  0.00    -0.147 A  
HETATM   44  C   UNL     1      -9.299   7.118  72.257  1.00  0.00    -0.157 C  
HETATM   45  C   UNL     1      -8.204   7.777  71.358  1.00  0.00    -0.106 C  
ENDBRANCH  27  28
ENDBRANCH  14  24
TORSDOF 3
ENDMDL
MODEL       19
REMARK 921   NORMALIZED FREE ENERGY PREDICTED BY IDOCK:   -6.60 KCAL/MOL
REMARK 922        TOTAL FREE ENERGY PREDICTED BY IDOCK:   -8.82 KCAL/MOL
REMARK 923 INTER-LIGAND FREE ENERGY PREDICTED BY IDOCK:   -8.07 KCAL/MOL
REMARK 924 INTRA-LIGAND FREE ENERGY PREDICTED BY IDOCK:   -0.75 KCAL/MOL
REMARK 927      BINDING AFFINITY PREDICTED BY RF-SCORE:    0.00 PKD
ROOT
HETATM    1  C   UNL     1     -11.862  13.563  70.226  1.00  0.00    -0.257 C  
HETATM    2  C   UNL     1     -12.561  12.468  71.048  1.00  0.00    -0.350 C  
HETATM    3  C   UNL     1     -13.656  13.261  71.841  1.00  0.00    -0.473 C  
HETATM    4  C   UNL     1     -13.381  14.738  71.562  1.00  0.00    -0.374 C  
HETATM    5  N   UNL     1     -12.037  14.749  71.009  1.00  0.00    -0.309 N  
HETATM    6  C   UNL     1     -11.518  15.928  70.543  1.00  0.00    -0.392 C  
HETATM    7  O   UNL     1     -11.524  16.944  71.233  1.00  0.00     0.028 OA 
HETATM    8  C   UNL     1     -10.853  15.844  69.134  1.00  0.00    -0.268 C  
HETATM    9  N   UNL     1     -11.229  14.533  68.330  1.00  0.00    -0.265 N  
HETATM   10  C   UNL     1     -10.187  15.901  65.394  1.00  0.00    -0.354 C  
HETATM   11  C   UNL     1     -10.715  14.035  67.142  1.00  0.00    -0.283 C  
HETATM   12  C   UNL     1      -7.847  16.305  66.239  1.00  0.00    -0.140 C  
HETATM   13  O   UNL     1     -11.394  13.513  66.269  1.00  0.00    -0.299 OA 
HETATM   14  C   UNL     1      -9.206  14.069  67.228  1.00  0.00    -0.230 C  
HETATM   15  C   UNL     1     -10.682  13.493  69.115  1.00  0.00    -0.082 C  
HETATM   16  O   UNL     1     -10.772  12.131  68.669  1.00  0.00    -0.223 OA 
HETATM   17  H   UNL     1     -10.081  12.090  68.018  1.00  0.00     0.000 HD 
HETATM   18  C   UNL     1      -8.961  15.264  66.128  1.00  0.00    -0.251 C  
HETATM   19  O   UNL     1      -9.317  13.964  68.821  1.00  0.00    -0.149 OA 
ENDROOT
BRANCH   8  20
HETATM   20  C   UNL     1     -10.996  17.181  68.433  1.00  0.00    -0.221 C  
HETATM   21  C   UNL     1     -10.490  19.614  68.454  1.00  0.00    -0.401 C  
HETATM   22  C   UNL     1     -10.050  18.251  68.971  1.00  0.00    -0.283 C  
HETATM   23  C   UNL     1      -8.604  17.998  68.560  1.00  0.00    -0.306 C  
ENDBRANCH   8  20
BRANCH  14  24
HETATM   24  N   UNL     1      -8.078  13.183  67.055  1.00  0.00    -0.385 N  
HETATM   25  H   UNL     1      -8.195  12.452  66.353  1.00  0.00     0.000 HD 
HETATM   26  O   UNL     1      -6.550  14.029  68.535  1.00  0.00    -0.084 OA 
HETATM   27  C   UNL     1      -6.872  13.195  67.708  1.00  0.00    -0.149 C  
BRANCH  27  28
HETATM   28  C   UNL     1      -5.991  12.029  67.242  1.00  0.00    -0.146 C  
HETATM   29  C   UNL     1      -5.312  11.330  68.447  1.00  0.00    -0.042 C  
HETATM   30  N   UNL     1      -6.080  10.199  68.996  1.00  0.00    -0.040 NA 
HETATM   31  C   UNL     1      -7.446  10.579  69.392  1.00  0.00    -0.141 C  
HETATM   32  C   UNL     1      -6.051   9.073  68.012  1.00  0.00    -0.050 C  
HETATM   33  C   UNL     1      -7.103   7.921  68.303  1.00  0.00    -0.088 C  
HETATM   34  C   UNL     1      -7.945   7.580  67.121  1.00  0.00    -0.117 A  
HETATM   35  C   UNL     1      -9.180   6.999  66.959  1.00  0.00    -0.147 A  
HETATM   36  N   UNL     1      -9.426   6.901  65.599  1.00  0.00    -0.289 NA 
HETATM   37  C   UNL     1      -8.359   7.402  64.880  1.00  0.00    -0.022 A  
HETATM   38  H   UNL     1     -10.274   6.513  65.188  1.00  0.00     0.000 HD 
HETATM   39  C   UNL     1      -8.095   7.547  63.515  1.00  0.00    -0.023 A  
HETATM   40  C   UNL     1      -6.886   8.177  63.164  1.00  0.00    -0.085 A  
HETATM   41  C   UNL     1      -6.049   8.746  64.126  1.00  0.00    -0.071 A  
HETATM   42  C   UNL     1      -6.410   8.681  65.470  1.00  0.00    -0.055 A  
HETATM   43  C   UNL     1      -7.495   7.896  65.829  1.00  0.00    -0.078 A  
HETATM   44  C   UNL     1      -5.910   9.619  66.519  1.00  0.00    -0.054 C  
HETATM   45  C   UNL     1      -6.679  10.970  66.369  1.00  0.00    -0.123 C  
ENDBRANCH  27  28
ENDBRANCH  14  24
TORSDOF 3
ENDMDL
MODEL       20
REMARK 921   NORMALIZED FREE ENERGY PREDICTED BY IDOCK:   -6.59 KCAL/MOL
REMARK 922        TOTAL FREE ENERGY PREDICTED BY IDOCK:   -8.82 KCAL/MOL
REMARK 923 INTER-LIGAND FREE ENERGY PREDICTED BY IDOCK:   -8.61 KCAL/MOL
REMARK 924 INTRA-LIGAND FREE ENERGY PREDICTED BY IDOCK:   -0.20 KCAL/MOL
REMARK 927      BINDING AFFINITY PREDICTED BY RF-SCORE:    0.00 PKD
ROOT
HETATM    1  C   UNL     1     -12.091  13.678  69.999  1.00  0.00    -0.348 C  
HETATM    2  C   UNL     1     -13.226  13.720  71.036  1.00  0.00    -0.222 C  
HETATM    3  C   UNL     1     -13.353  15.248  71.364  1.00  0.00    -0.573 C  
HETATM    4  C   UNL     1     -12.184  15.923  70.650  1.00  0.00    -0.309 C  
HETATM    5  N   UNL     1     -11.293  14.825  70.313  1.00  0.00    -0.250 N  
HETATM    6  C   UNL     1     -10.179  15.079  69.556  1.00  0.00    -0.188 C  
HETATM    7  O   UNL     1      -9.391  15.969  69.862  1.00  0.00    -0.035 OA 
HETATM    8  C   UNL     1      -9.960  14.102  68.359  1.00  0.00    -0.235 C  
HETATM    9  N   UNL     1     -11.240  13.245  67.993  1.00  0.00    -0.262 N  
HETATM   10  C   UNL     1      -9.971  12.446  64.940  1.00  0.00    -0.207 C  
HETATM   11  C   UNL     1     -11.381  12.177  67.119  1.00  0.00    -0.331 C  
HETATM   12  C   UNL     1      -7.903  11.381  65.911  1.00  0.00     0.208 C  
HETATM   13  O   UNL     1     -12.346  12.018  66.386  1.00  0.00    -0.403 OA 
HETATM   14  C   UNL     1     -10.268  11.192  67.393  1.00  0.00    -0.190 C  
HETATM   15  C   UNL     1     -11.452  12.456  69.146  1.00  0.00    -0.302 C  
HETATM   16  O   UNL     1     -12.512  11.488  69.170  1.00  0.00    -0.271 OA 
HETATM   17  H   UNL     1     -12.138  10.772  68.670  1.00  0.00     0.000 HD 
HETATM   18  C   UNL     1      -9.428  11.435  66.002  1.00  0.00    -0.245 C  
HETATM   19  O   UNL     1     -10.196  11.727  68.900  1.00  0.00    -0.188 OA 
ENDROOT
BRANCH   8  20
HETATM   20  C   UNL     1      -9.244  14.835  67.241  1.00  0.00    -0.211 C  
HETATM   21  C   UNL     1      -7.359  16.316  66.588  1.00  0.00    -0.204 C  
HETATM   22  C   UNL     1      -7.852  15.324  67.631  1.00  0.00    -0.177 C  
HETATM   23  C   UNL     1      -6.854  14.177  67.749  1.00  0.00    -0.188 C  
ENDBRANCH   8  20
BRANCH  14  24
HETATM   24  N   UNL     1     -10.094   9.787  67.679  1.00  0.00    -0.178 N  
HETATM   25  H   UNL     1     -10.070   9.537  68.668  1.00  0.00     0.000 HD 
HETATM   26  O   UNL     1     -10.013   8.861  65.587  1.00  0.00    -0.108 OA 
HETATM   27  C   UNL     1      -9.956   8.745  66.798  1.00  0.00    -0.268 C  
BRANCH  27  28
HETATM   28  C   UNL     1      -9.738   7.425  67.549  1.00  0.00    -0.186 C  
HETATM   29  C   UNL     1      -8.357   6.811  67.201  1.00  0.00    -0.121 C  
HETATM   30  N   UNL     1      -7.273   7.216  68.113  1.00  0.00    -0.092 NA 
HETATM   31  C   UNL     1      -7.120   8.678  68.198  1.00  0.00    -0.082 C  
HETATM   32  C   UNL     1      -7.497   6.576  69.445  1.00  0.00    -0.094 C  
HETATM   33  C   UNL     1      -6.615   7.177  70.619  1.00  0.00    -0.048 C  
HETATM   34  C   UNL     1      -7.414   7.569  71.815  1.00  0.00    -0.080 A  
HETATM   35  C   UNL     1      -7.216   8.446  72.854  1.00  0.00    -0.062 A  
HETATM   36  N   UNL     1      -8.305   8.347  73.704  1.00  0.00    -0.365 NA 
HETATM   37  C   UNL     1      -9.199   7.407  73.232  1.00  0.00    -0.186 A  
HETATM   38  H   UNL     1      -8.429   8.891  74.558  1.00  0.00     0.000 HD 
HETATM   39  C   UNL     1     -10.432   6.931  73.686  1.00  0.00    -0.400 A  
HETATM   40  C   UNL     1     -11.088   5.985  72.874  1.00  0.00    -0.290 A  
HETATM   41  C   UNL     1     -10.597   5.633  71.616  1.00  0.00    -0.301 A  
HETATM   42  C   UNL     1      -9.423   6.222  71.152  1.00  0.00    -0.183 A  
HETATM   43  C   UNL     1      -8.680   7.001  72.025  1.00  0.00    -0.128 A  
HETATM   44  C   UNL     1      -9.052   6.329  69.709  1.00  0.00    -0.143 C  
HETATM   45  C   UNL     1      -9.892   7.483  69.074  1.00  0.00    -0.170 C  
ENDBRANCH  27  28
ENDBRANCH  14  24
TORSDOF 3
ENDMDL
MODEL       21
REMARK 921   NORMALIZED FREE ENERGY PREDICTED BY IDOCK:   -6.59 KCAL/MOL
REMARK 922        TOTAL FREE ENERGY PREDICTED BY IDOCK:   -8.81 KCAL/MOL
REMARK 923 INTER-LIGAND FREE ENERGY PREDICTED BY IDOCK:   -7.63 KCAL/MOL
REMARK 924 INTRA-LIGAND FREE ENERGY PREDICTED BY IDOCK:   -1.18 KCAL/MOL
REMARK 927      BINDING AFFINITY PREDICTED BY RF-SCORE:    0.00 PKD
ROOT
HETATM    1  C   UNL     1      -8.789   7.431  72.173  1.00  0.00    -0.124 C  
HETATM    2  C   UNL     1      -8.830   8.141  73.536  1.00  0.00    -0.310 C  
HETATM    3  C   UNL     1      -8.827   6.953  74.558  1.00  0.00    -0.221 C  
HETATM    4  C   UNL     1      -8.973   5.685  73.719  1.00  0.00    -0.123 C  
HETATM    5  N   UNL     1      -9.416   6.168  72.422  1.00  0.00    -0.149 N  
HETATM    6  C   UNL     1      -9.540   5.279  71.386  1.00  0.00    -0.158 C  
HETATM    7  O   UNL     1     -10.184   4.241  71.511  1.00  0.00    -0.160 OA 
HETATM    8  C   UNL     1      -8.887   5.736  70.044  1.00  0.00    -0.135 C  
HETATM    9  N   UNL     1      -7.876   6.944  70.207  1.00  0.00    -0.107 N  
HETATM   10  C   UNL     1      -6.485   6.334  67.163  1.00  0.00    -0.053 C  
HETATM   11  C   UNL     1      -7.244   7.715  69.244  1.00  0.00    -0.082 C  
HETATM   12  C   UNL     1      -8.675   6.602  65.942  1.00  0.00    -0.147 C  
HETATM   13  O   UNL     1      -6.083   8.092  69.324  1.00  0.00    -0.033 OA 
HETATM   14  C   UNL     1      -8.279   8.155  68.234  1.00  0.00    -0.129 C  
HETATM   15  C   UNL     1      -8.695   8.004  70.659  1.00  0.00    -0.131 C  
HETATM   16  O   UNL     1      -8.131   9.308  70.867  1.00  0.00    -0.186 OA 
HETATM   17  H   UNL     1      -8.076   9.643  69.980  1.00  0.00     0.000 HD 
HETATM   18  C   UNL     1      -7.749   7.238  66.979  1.00  0.00    -0.111 C  
HETATM   19  O   UNL     1      -9.403   8.031  69.367  1.00  0.00    -0.155 OA 
ENDROOT
BRANCH   8  20
HETATM   20  C   UNL     1      -8.429   4.515  69.271  1.00  0.00    -0.092 C  
HETATM   21  C   UNL     1      -6.552   2.991  68.697  1.00  0.00    -0.036 C  
HETATM   22  C   UNL     1      -7.073   3.983  69.728  1.00  0.00    -0.042 C  
HETATM   23  C   UNL     1      -7.154   3.301  71.089  1.00  0.00    -0.033 C  
ENDBRANCH   8  20
BRANCH  14  24
HETATM   24  N   UNL     1      -8.762   9.368  67.617  1.00  0.00    -0.116 N  
HETATM   25  H   UNL     1      -9.563   9.258  66.993  1.00  0.00     0.000 HD 
HETATM   26  O   UNL     1      -7.374  10.961  68.498  1.00  0.00    -0.087 OA 
HETATM   27  C   UNL     1      -8.288  10.647  67.756  1.00  0.00    -0.115 C  
BRANCH  27  28
HETATM   28  C   UNL     1      -9.074  11.618  66.865  1.00  0.00    -0.188 C  
HETATM   29  C   UNL     1     -10.513  11.100  66.616  1.00  0.00    -0.250 C  
HETATM   30  N   UNL     1     -11.505  11.589  67.590  1.00  0.00    -0.437 NA 
HETATM   31  C   UNL     1     -11.135  11.277  68.981  1.00  0.00    -0.244 C  
HETATM   32  C   UNL     1     -11.727  13.050  67.360  1.00  0.00    -0.374 C  
HETATM   33  C   UNL     1     -12.501  13.788  68.532  1.00  0.00     0.256 C  
HETATM   34  C   UNL     1     -11.804  15.013  69.019  1.00  0.00    -0.330 A  
HETATM   35  C   UNL     1     -11.828  15.726  70.193  1.00  0.00    -0.355 A  
HETATM   36  N   UNL     1     -10.987  16.817  70.042  1.00  0.00    -0.388 NA 
HETATM   37  C   UNL     1     -10.429  16.822  68.780  1.00  0.00    -0.338 A  
HETATM   38  H   UNL     1     -10.807  17.516  70.762  1.00  0.00     0.000 HD 
HETATM   39  C   UNL     1      -9.531  17.668  68.123  1.00  0.00    -0.286 A  
HETATM   40  C   UNL     1      -9.143  17.297  66.820  1.00  0.00    -0.269 A  
HETATM   41  C   UNL     1      -9.532  16.080  66.258  1.00  0.00    -0.347 A  
HETATM   42  C   UNL     1     -10.334  15.212  66.997  1.00  0.00    -0.271 A  
HETATM   43  C   UNL     1     -10.872  15.660  68.193  1.00  0.00    -0.301 A  
HETATM   44  C   UNL     1     -10.421  13.741  66.754  1.00  0.00    -0.270 C  
HETATM   45  C   UNL     1      -9.139  13.073  67.346  1.00  0.00    -0.201 C  
ENDBRANCH  27  28
ENDBRANCH  14  24
TORSDOF 3
ENDMDL
MODEL       22
REMARK 921   NORMALIZED FREE ENERGY PREDICTED BY IDOCK:   -6.54 KCAL/MOL
REMARK 922        TOTAL FREE ENERGY PREDICTED BY IDOCK:   -8.75 KCAL/MOL
REMARK 923 INTER-LIGAND FREE ENERGY PREDICTED BY IDOCK:   -7.49 KCAL/MOL
REMARK 924 INTRA-LIGAND FREE ENERGY PREDICTED BY IDOCK:   -1.26 KCAL/MOL
REMARK 927      BINDING AFFINITY PREDICTED BY RF-SCORE:    0.00 PKD
ROOT
HETATM    1  C   UNL     1      -6.732  15.478  69.349  1.00  0.00    -0.169 C  
HETATM    2  C   UNL     1      -5.804  15.026  70.489  1.00  0.00    -0.126 C  
HETATM    3  C   UNL     1      -5.129  16.363  70.951  1.00  0.00    -0.188 C  
HETATM    4  C   UNL     1      -5.569  17.420  69.940  1.00  0.00    -0.234 C  
HETATM    5  N   UNL     1      -6.093  16.648  68.826  1.00  0.00    -0.139 N  
HETATM    6  C   UNL     1      -6.679  17.305  67.776  1.00  0.00    -0.160 C  
HETATM    7  O   UNL     1      -6.110  18.232  67.206  1.00  0.00    -0.157 OA 
HETATM    8  C   UNL     1      -8.057  16.727  67.324  1.00  0.00    -0.177 C  
HETATM    9  N   UNL     1      -8.713  15.747  68.380  1.00  0.00    -0.172 N  
HETATM   10  C   UNL     1     -11.765  16.018  66.901  1.00  0.00     0.662 C  
HETATM   11  C   UNL     1      -9.826  14.927  68.267  1.00  0.00    -0.218 C  
HETATM   12  C   UNL     1     -10.925  15.188  64.674  1.00  0.00    -0.321 C  
HETATM   13  O   UNL     1     -10.647  14.763  69.158  1.00  0.00    -0.238 OA 
HETATM   14  C   UNL     1      -9.715  14.154  66.973  1.00  0.00    -0.258 C  
HETATM   15  C   UNL     1      -7.804  14.667  68.441  1.00  0.00    -0.131 C  
HETATM   16  O   UNL     1      -8.094  13.529  69.267  1.00  0.00    -0.306 OA 
HETATM   17  H   UNL     1      -8.721  13.054  68.736  1.00  0.00     0.000 HD 
HETATM   18  C   UNL     1     -10.939  14.904  66.176  1.00  0.00    -0.334 C  
HETATM   19  O   UNL     1      -8.123  14.295  67.052  1.00  0.00    -0.162 OA 
ENDROOT
BRANCH   8  20
HETATM   20  C   UNL     1      -8.908  17.848  66.760  1.00  0.00    -0.271 C  
HETATM   21  C   UNL     1     -10.810  19.407  67.114  1.00  0.00    -0.561 C  
HETATM   22  C   UNL     1      -9.765  18.547  67.811  1.00  0.00    -0.327 C  
HETATM   23  C   UNL     1      -8.932  19.419  68.743  1.00  0.00    -0.396 C  
ENDBRANCH   8  20
BRANCH  14  24
HETATM   24  N   UNL     1      -9.764  12.788  66.505  1.00  0.00    -0.251 N  
HETATM   25  H   UNL     1      -9.490  12.645  65.533  1.00  0.00     0.000 HD 
HETATM   26  O   UNL     1     -10.432  11.646  68.374  1.00  0.00    -0.197 OA 
HETATM   27  C   UNL     1     -10.129  11.659  67.194  1.00  0.00    -0.204 C  
BRANCH  27  28
HETATM   28  C   UNL     1     -10.085  10.428  66.280  1.00  0.00    -0.292 C  
HETATM   29  C   UNL     1      -9.052  10.620  65.140  1.00  0.00    -0.201 C  
HETATM   30  N   UNL     1      -7.704  10.117  65.460  1.00  0.00    -0.139 NA 
HETATM   31  C   UNL     1      -7.152  10.713  66.688  1.00  0.00    -0.124 C  
HETATM   32  C   UNL     1      -7.745   8.623  65.504  1.00  0.00    -0.092 C  
HETATM   33  C   UNL     1      -6.466   7.952  66.163  1.00  0.00    -0.046 C  
HETATM   34  C   UNL     1      -6.802   6.974  67.237  1.00  0.00    -0.069 A  
HETATM   35  C   UNL     1      -6.122   6.468  68.319  1.00  0.00    -0.028 A  
HETATM   36  N   UNL     1      -6.945   5.544  68.941  1.00  0.00    -0.058 NA 
HETATM   37  C   UNL     1      -8.146   5.440  68.268  1.00  0.00    -0.095 A  
HETATM   38  H   UNL     1      -6.699   5.016  69.778  1.00  0.00     0.000 HD 
HETATM   39  C   UNL     1      -9.304   4.683  68.466  1.00  0.00    -0.190 A  
HETATM   40  C   UNL     1     -10.371   4.905  67.574  1.00  0.00    -0.105 A  
HETATM   41  C   UNL     1     -10.327   5.921  66.617  1.00  0.00    -0.283 A  
HETATM   42  C   UNL     1      -9.196   6.731  66.532  1.00  0.00    -0.190 A  
HETATM   43  C   UNL     1      -8.077   6.389  67.274  1.00  0.00    -0.113 A  
HETATM   44  C   UNL     1      -9.190   8.100  65.937  1.00  0.00    -0.158 C  
HETATM   45  C   UNL     1      -9.826   9.083  66.971  1.00  0.00    -0.270 C  
ENDBRANCH  27  28
ENDBRANCH  14  24
TORSDOF 3
ENDMDL
MODEL       23
REMARK 921   NORMALIZED FREE ENERGY PREDICTED BY IDOCK:   -6.52 KCAL/MOL
REMARK 922        TOTAL FREE ENERGY PREDICTED BY IDOCK:   -8.73 KCAL/MOL
REMARK 923 INTER-LIGAND FREE ENERGY PREDICTED BY IDOCK:   -7.49 KCAL/MOL
REMARK 924 INTRA-LIGAND FREE ENERGY PREDICTED BY IDOCK:   -1.24 KCAL/MOL
REMARK 927      BINDING AFFINITY PREDICTED BY RF-SCORE:    0.00 PKD
ROOT
HETATM    1  C   UNL     1      -9.235  10.160  64.687  1.00  0.00    -0.252 C  
HETATM    2  C   UNL     1      -8.197   9.508  63.757  1.00  0.00    -0.161 C  
HETATM    3  C   UNL     1      -8.285  10.381  62.458  1.00  0.00    -0.195 C  
HETATM    4  C   UNL     1      -9.469  11.322  62.670  1.00  0.00    -0.244 C  
HETATM    5  N   UNL     1     -10.189  10.737  63.790  1.00  0.00    -0.332 N  
HETATM    6  C   UNL     1     -11.264  11.407  64.313  1.00  0.00    -0.232 C  
HETATM    7  O   UNL     1     -12.178  11.806  63.596  1.00  0.00    -0.467 OA 
HETATM    8  C   UNL     1     -11.268  11.532  65.869  1.00  0.00    -0.177 C  
HETATM    9  N   UNL     1      -9.868  11.215  66.537  1.00  0.00    -0.203 N  
HETATM   10  C   UNL     1     -10.789  12.722  69.445  1.00  0.00     0.053 C  
HETATM   11  C   UNL     1      -9.529  11.062  67.873  1.00  0.00    -0.165 C  
HETATM   12  C   UNL     1     -12.778  11.210  69.773  1.00  0.00    -0.007 C  
HETATM   13  O   UNL     1      -8.498  11.490  68.370  1.00  0.00    -0.149 OA 
HETATM   14  C   UNL     1     -10.531  10.126  68.510  1.00  0.00    -0.195 C  
HETATM   15  C   UNL     1      -9.651   9.854  66.225  1.00  0.00    -0.209 C  
HETATM   16  O   UNL     1      -8.484   9.180  66.721  1.00  0.00    -0.120 OA 
HETATM   17  H   UNL     1      -8.728   9.001  67.622  1.00  0.00     0.000 HD 
HETATM   18  C   UNL     1     -11.283  11.238  69.455  1.00  0.00    -0.337 C  
HETATM   19  O   UNL     1     -10.784   9.459  67.078  1.00  0.00    -0.229 OA 
ENDROOT
BRANCH   8  20
HETATM   20  C   UNL     1     -11.980  12.810  66.266  1.00  0.00    -0.460 C  
HETATM   21  C   UNL     1     -11.773  15.146  67.088  1.00  0.00    -0.141 C  
HETATM   22  C   UNL     1     -11.048  14.014  66.374  1.00  0.00    -0.316 C  
HETATM   23  C   UNL     1     -10.577  14.499  65.007  1.00  0.00    -0.458 C  
ENDBRANCH   8  20
BRANCH  14  24
HETATM   24  N   UNL     1     -10.552   8.913  69.294  1.00  0.00    -0.271 N  
HETATM   25  H   UNL     1     -11.471   8.489  69.426  1.00  0.00     0.000 HD 
HETATM   26  O   UNL     1      -8.338   8.597  69.782  1.00  0.00    -0.117 OA 
HETATM   27  C   UNL     1      -9.503   8.256  69.884  1.00  0.00    -0.167 C  
BRANCH  27  28
HETATM   28  C   UNL     1     -10.000   7.034  70.669  1.00  0.00    -0.194 C  
HETATM   29  C   UNL     1     -10.957   6.173  69.806  1.00  0.00    -0.390 C  
HETATM   30  N   UNL     1     -10.285   5.099  69.052  1.00  0.00    -0.195 NA 
HETATM   31  C   UNL     1      -9.208   5.604  68.184  1.00  0.00    -0.110 C  
HETATM   32  C   UNL     1      -9.815   4.056  70.015  1.00  0.00    -0.128 C  
HETATM   33  C   UNL     1      -8.787   3.014  69.402  1.00  0.00    -0.151 C  
HETATM   34  C   UNL     1      -7.546   2.863  70.216  1.00  0.00    -0.043 A  
HETATM   35  C   UNL     1      -6.267   2.442  69.944  1.00  0.00    -0.024 A  
HETATM   36  N   UNL     1      -5.550   2.476  71.129  1.00  0.00    -0.012 NA 
HETATM   37  C   UNL     1      -6.355   2.903  72.165  1.00  0.00    -0.014 A  
HETATM   38  H   UNL     1      -4.567   2.221  71.221  1.00  0.00     0.000 HD 
HETATM   39  C   UNL     1      -6.141   3.120  73.530  1.00  0.00    -0.011 A  
HETATM   40  C   UNL     1      -7.225   3.631  74.271  1.00  0.00    -0.053 A  
HETATM   41  C   UNL     1      -8.414   4.024  73.654  1.00  0.00    -0.092 A  
HETATM   42  C   UNL     1      -8.540   3.900  72.272  1.00  0.00    -0.112 A  
HETATM   43  C   UNL     1      -7.554   3.221  71.573  1.00  0.00    -0.048 A  
HETATM   44  C   UNL     1      -9.497   4.693  71.444  1.00  0.00    -0.217 C  
HETATM   45  C   UNL     1      -8.914   6.131  71.269  1.00  0.00    -0.140 C  
ENDBRANCH  27  28
ENDBRANCH  14  24
TORSDOF 3
ENDMDL
MODEL       24
REMARK 921   NORMALIZED FREE ENERGY PREDICTED BY IDOCK:   -6.48 KCAL/MOL
REMARK 922        TOTAL FREE ENERGY PREDICTED BY IDOCK:   -8.68 KCAL/MOL
REMARK 923 INTER-LIGAND FREE ENERGY PREDICTED BY IDOCK:   -7.68 KCAL/MOL
REMARK 924 INTRA-LIGAND FREE ENERGY PREDICTED BY IDOCK:   -1.00 KCAL/MOL
REMARK 927      BINDING AFFINITY PREDICTED BY RF-SCORE:    0.00 PKD
ROOT
HETATM    1  C   UNL     1     -11.126  13.808  69.347  1.00  0.00    -0.156 C  
HETATM    2  C   UNL     1     -11.823  14.381  70.593  1.00  0.00    -0.361 C  
HETATM    3  C   UNL     1     -12.364  15.765  70.094  1.00  0.00    -0.309 C  
HETATM    4  C   UNL     1     -11.785  15.955  68.693  1.00  0.00    -0.322 C  
HETATM    5  N   UNL     1     -10.721  14.968  68.613  1.00  0.00    -0.237 N  
HETATM    6  C   UNL     1     -10.059  14.798  67.425  1.00  0.00    -0.231 C  
HETATM    7  O   UNL     1      -9.575  15.752  66.823  1.00  0.00    -0.221 OA 
HETATM    8  C   UNL     1      -9.899  13.314  66.968  1.00  0.00    -0.242 C  
HETATM    9  N   UNL     1     -10.848  12.305  67.735  1.00  0.00    -0.213 N  
HETATM   10  C   UNL     1     -10.397   9.906  65.365  1.00  0.00    -0.004 C  
HETATM   11  C   UNL     1     -10.873  10.919  67.723  1.00  0.00    -0.259 C  
HETATM   12  C   UNL     1      -7.896   9.859  65.674  1.00  0.00    -0.127 C  
HETATM   13  O   UNL     1     -11.900  10.255  67.719  1.00  0.00    -0.096 OA 
HETATM   14  C   UNL     1      -9.462  10.417  67.923  1.00  0.00    -0.138 C  
HETATM   15  C   UNL     1     -10.403  12.383  69.074  1.00  0.00     0.052 C  
HETATM   16  O   UNL     1     -10.997  11.547  70.079  1.00  0.00    -0.461 OA 
HETATM   17  H   UNL     1     -10.574  10.713  69.918  1.00  0.00     0.000 HD 
HETATM   18  C   UNL     1      -9.236   9.822  66.409  1.00  0.00    -0.200 C  
HETATM   19  O   UNL     1      -9.115  11.772  68.700  1.00  0.00    -0.159 OA 
ENDROOT
BRANCH   8  20
HETATM   20  C   UNL     1      -9.867  13.259  65.453  1.00  0.00    -0.128 C  
HETATM   21  C   UNL     1     -11.083  12.704  63.358  1.00  0.00    -0.354 C  
HETATM   22  C   UNL     1     -11.246  13.080  64.824  1.00  0.00    -0.344 C  
HETATM   23  C   UNL     1     -12.094  14.343  64.931  1.00  0.00    -0.442 C  
ENDBRANCH   8  20
BRANCH  14  24
HETATM   24  N   UNL     1      -8.731   9.512  68.779  1.00  0.00    -0.126 N  
HETATM   25  H   UNL     1      -7.909   9.905  69.238  1.00  0.00     0.000 HD 
HETATM   26  O   UNL     1      -9.964   7.588  68.636  1.00  0.00    -0.162 OA 
HETATM   27  C   UNL     1      -8.996   8.195  69.058  1.00  0.00    -0.144 C  
BRANCH  27  28
HETATM   28  C   UNL     1      -7.918   7.608  69.978  1.00  0.00    -0.114 C  
HETATM   29  C   UNL     1      -7.531   8.615  71.092  1.00  0.00    -0.095 C  
HETATM   30  N   UNL     1      -8.314   8.468  72.333  1.00  0.00    -0.333 NA 
HETATM   31  C   UNL     1      -9.765   8.566  72.104  1.00  0.00    -0.317 C  
HETATM   32  C   UNL     1      -7.916   7.193  73.005  1.00  0.00    -0.101 C  
HETATM   33  C   UNL     1      -8.897   6.728  74.162  1.00  0.00    -0.189 C  
HETATM   34  C   UNL     1      -9.351   5.315  74.017  1.00  0.00    -0.129 A  
HETATM   35  C   UNL     1     -10.437   4.605  74.472  1.00  0.00    -0.262 A  
HETATM   36  N   UNL     1     -10.293   3.295  74.046  1.00  0.00    -0.149 NA 
HETATM   37  C   UNL     1      -9.122   3.147  73.331  1.00  0.00    -0.085 A  
HETATM   38  H   UNL     1     -10.959   2.546  74.234  1.00  0.00     0.000 HD 
HETATM   39  C   UNL     1      -8.511   2.067  72.688  1.00  0.00    -0.062 A  
HETATM   40  C   UNL     1      -7.314   2.333  71.994  1.00  0.00    -0.039 A  
HETATM   41  C   UNL     1      -6.826   3.632  71.846  1.00  0.00    -0.023 A  
HETATM   42  C   UNL     1      -7.532   4.695  72.405  1.00  0.00    -0.084 A  
HETATM   43  C   UNL     1      -8.597   4.415  73.247  1.00  0.00    -0.097 A  
HETATM   44  C   UNL     1      -7.424   6.110  71.940  1.00  0.00    -0.095 C  
HETATM   45  C   UNL     1      -8.243   6.252  70.618  1.00  0.00    -0.125 C  
ENDBRANCH  27  28
ENDBRANCH  14  24
TORSDOF 3
ENDMDL
MODEL       25
REMARK 921   NORMALIZED FREE ENERGY PREDICTED BY IDOCK:   -6.47 KCAL/MOL
REMARK 922        TOTAL FREE ENERGY PREDICTED BY IDOCK:   -8.67 KCAL/MOL
REMARK 923 INTER-LIGAND FREE ENERGY PREDICTED BY IDOCK:   -7.68 KCAL/MOL
REMARK 924 INTRA-LIGAND FREE ENERGY PREDICTED BY IDOCK:   -0.99 KCAL/MOL
REMARK 927      BINDING AFFINITY PREDICTED BY RF-SCORE:    0.00 PKD
ROOT
HETATM    1  C   UNL     1     -10.398  15.384  68.562  1.00  0.00    -0.226 C  
HETATM    2  C   UNL     1     -10.679  16.388  69.692  1.00  0.00    -0.337 C  
HETATM    3  C   UNL     1     -10.890  17.739  68.925  1.00  0.00     0.270 C  
HETATM    4  C   UNL     1     -10.535  17.448  67.468  1.00  0.00    -0.354 C  
HETATM    5  N   UNL     1      -9.820  16.183  67.524  1.00  0.00    -0.235 N  
HETATM    6  C   UNL     1      -9.449  15.575  66.353  1.00  0.00    -0.291 C  
HETATM    7  O   UNL     1      -8.831  16.186  65.486  1.00  0.00    -0.239 OA 
HETATM    8  C   UNL     1      -9.792  14.055  66.264  1.00  0.00    -0.305 C  
HETATM    9  N   UNL     1     -10.836  13.573  67.352  1.00  0.00    -0.266 N  
HETATM   10  C   UNL     1     -11.493  10.721  65.617  1.00  0.00     0.749 C  
HETATM   11  C   UNL     1     -11.249  12.292  67.687  1.00  0.00    -0.290 C  
HETATM   12  C   UNL     1      -9.091   9.960  65.664  1.00  0.00    -0.220 C  
HETATM   13  O   UNL     1     -12.405  11.996  67.954  1.00  0.00    -0.338 OA 
HETATM   14  C   UNL     1     -10.021  11.427  67.856  1.00  0.00    -0.177 C  
HETATM   15  C   UNL     1     -10.160  13.780  68.575  1.00  0.00    -0.225 C  
HETATM   16  O   UNL     1     -10.780  13.396  69.813  1.00  0.00    -0.371 OA 
HETATM   17  H   UNL     1     -10.641  12.457  69.821  1.00  0.00     0.000 HD 
HETATM   18  C   UNL     1     -10.238  10.494  66.522  1.00  0.00    -0.288 C  
HETATM   19  O   UNL     1      -9.180  12.735  68.232  1.00  0.00    -0.204 OA 
ENDROOT
BRANCH   8  20
HETATM   20  C   UNL     1     -10.042  13.684  64.815  1.00  0.00    -0.268 C  
HETATM   21  C   UNL     1     -11.684  12.947  63.102  1.00  0.00    -0.210 C  
HETATM   22  C   UNL     1     -11.522  13.641  64.447  1.00  0.00    -0.410 C  
HETATM   23  C   UNL     1     -12.136  15.035  64.374  1.00  0.00    -0.373 C  
ENDBRANCH   8  20
BRANCH  14  24
HETATM   24  N   UNL     1      -9.435  10.535  68.828  1.00  0.00    -0.172 N  
HETATM   25  H   UNL     1      -8.495  10.202  68.612  1.00  0.00     0.000 HD 
HETATM   26  O   UNL     1     -11.060  10.415  70.437  1.00  0.00    -0.301 OA 
HETATM   27  C   UNL     1      -9.972  10.076  70.004  1.00  0.00    -0.222 C  
BRANCH  27  28
HETATM   28  C   UNL     1      -9.013   9.099  70.695  1.00  0.00    -0.292 C  
HETATM   29  C   UNL     1      -9.695   8.417  71.909  1.00  0.00    -0.261 C  
HETATM   30  N   UNL     1     -10.360   7.142  71.586  1.00  0.00    -0.198 NA 
HETATM   31  C   UNL     1     -11.357   7.277  70.512  1.00  0.00    -0.280 C  
HETATM   32  C   UNL     1      -9.314   6.116  71.285  1.00  0.00    -0.159 C  
HETATM   33  C   UNL     1      -9.869   4.798  70.596  1.00  0.00    -0.292 C  
HETATM   34  C   UNL     1      -9.133   4.429  69.353  1.00  0.00    -0.171 A  
HETATM   35  C   UNL     1      -9.443   3.682  68.242  1.00  0.00    -0.152 A  
HETATM   36  N   UNL     1      -8.326   3.657  67.424  1.00  0.00    -0.093 NA 
HETATM   37  C   UNL     1      -7.293   4.370  67.999  1.00  0.00    -0.065 A  
HETATM   38  H   UNL     1      -8.273   3.179  66.525  1.00  0.00     0.000 HD 
HETATM   39  C   UNL     1      -5.984   4.662  67.607  1.00  0.00    -0.023 A  
HETATM   40  C   UNL     1      -5.234   5.494  68.461  1.00  0.00    -0.003 A  
HETATM   41  C   UNL     1      -5.807   6.104  69.579  1.00  0.00    -0.017 A  
HETATM   42  C   UNL     1      -7.151   5.878  69.866  1.00  0.00    -0.068 A  
HETATM   43  C   UNL     1      -7.832   4.912  69.142  1.00  0.00    -0.072 A  
HETATM   44  C   UNL     1      -7.999   6.795  70.686  1.00  0.00    -0.110 C  
HETATM   45  C   UNL     1      -8.387   8.021  69.800  1.00  0.00    -0.122 C  
ENDBRANCH  27  28
ENDBRANCH  14  24
TORSDOF 3
ENDMDL
MODEL       26
REMARK 921   NORMALIZED FREE ENERGY PREDICTED BY IDOCK:   -6.46 KCAL/MOL
REMARK 922        TOTAL FREE ENERGY PREDICTED BY IDOCK:   -8.66 KCAL/MOL
REMARK 923 INTER-LIGAND FREE ENERGY PREDICTED BY IDOCK:   -8.00 KCAL/MOL
REMARK 924 INTRA-LIGAND FREE ENERGY PREDICTED BY IDOCK:   -0.66 KCAL/MOL
REMARK 927      BINDING AFFINITY PREDICTED BY RF-SCORE:    0.00 PKD
ROOT
HETATM    1  C   UNL     1      -7.648   7.894  69.261  1.00  0.00    -0.097 C  
HETATM    2  C   UNL     1      -6.571   7.015  68.602  1.00  0.00    -0.054 C  
HETATM    3  C   UNL     1      -6.417   5.824  69.610  1.00  0.00    -0.042 C  
HETATM    4  C   UNL     1      -7.258   6.201  70.828  1.00  0.00    -0.074 C  
HETATM    5  N   UNL     1      -7.508   7.623  70.660  1.00  0.00    -0.071 N  
HETATM    6  C   UNL     1      -8.340   8.263  71.541  1.00  0.00    -0.138 C  
HETATM    7  O   UNL     1      -8.176   8.169  72.754  1.00  0.00    -0.148 OA 
HETATM    8  C   UNL     1      -9.425   9.170  70.881  1.00  0.00    -0.276 C  
HETATM    9  N   UNL     1      -9.628   8.898  69.335  1.00  0.00    -0.161 N  
HETATM   10  C   UNL     1     -12.625  10.509  69.332  1.00  0.00     0.310 C  
HETATM   11  C   UNL     1     -10.365   9.601  68.393  1.00  0.00    -0.204 C  
HETATM   12  C   UNL     1     -11.634  12.669  70.173  1.00  0.00    -0.141 C  
HETATM   13  O   UNL     1     -11.029   9.073  67.513  1.00  0.00    -0.152 OA 
HETATM   14  C   UNL     1     -10.032  11.069  68.532  1.00  0.00    -0.193 C  
HETATM   15  C   UNL     1      -8.383   9.253  68.769  1.00  0.00    -0.117 C  
HETATM   16  O   UNL     1      -8.198   9.195  67.346  1.00  0.00    -0.107 OA 
HETATM   17  H   UNL     1      -8.629   9.990  67.057  1.00  0.00     0.000 HD 
HETATM   18  C   UNL     1     -11.479  11.555  69.137  1.00  0.00    -0.362 C  
HETATM   19  O   UNL     1      -8.602  10.665  69.126  1.00  0.00    -0.160 OA 
ENDROOT
BRANCH   8  20
HETATM   20  C   UNL     1     -10.652   9.208  71.771  1.00  0.00    -0.383 C  
HETATM   21  C   UNL     1     -12.987   8.443  72.140  1.00  0.00    -0.370 C  
HETATM   22  C   UNL     1     -11.674   8.123  71.440  1.00  0.00    -0.321 C  
HETATM   23  C   UNL     1     -11.198   6.739  71.866  1.00  0.00    -0.294 C  
ENDBRANCH   8  20
BRANCH  14  24
HETATM   24  N   UNL     1      -9.594  12.175  67.713  1.00  0.00    -0.189 N  
HETATM   25  H   UNL     1      -9.933  12.174  66.750  1.00  0.00     0.000 HD 
HETATM   26  O   UNL     1      -8.335  13.408  69.174  1.00  0.00     0.255 OA 
HETATM   27  C   UNL     1      -8.783  13.227  68.056  1.00  0.00    -0.186 C  
BRANCH  27  28
HETATM   28  C   UNL     1      -8.536  14.139  66.848  1.00  0.00    -0.157 C  
HETATM   29  C   UNL     1      -9.811  14.259  65.974  1.00  0.00    -0.314 C  
HETATM   30  N   UNL     1     -10.682  15.392  66.334  1.00  0.00    -0.310 NA 
HETATM   31  C   UNL     1     -11.092  15.367  67.748  1.00  0.00    -0.320 C  
HETATM   32  C   UNL     1     -10.000  16.666  65.948  1.00  0.00    -0.295 C  
HETATM   33  C   UNL     1     -10.650  17.972  66.570  1.00  0.00    -0.263 C  
HETATM   34  C   UNL     1      -9.662  18.849  67.263  1.00  0.00    -0.355 A  
HETATM   35  C   UNL     1      -9.754  19.806  68.244  1.00  0.00    -0.395 A  
HETATM   36  N   UNL     1      -8.485  20.321  68.452  1.00  0.00     0.047 NA 
HETATM   37  C   UNL     1      -7.576  19.715  67.607  1.00  0.00    -0.276 A  
HETATM   38  H   UNL     1      -8.254  21.045  69.132  1.00  0.00     0.000 HD 
HETATM   39  C   UNL     1      -6.199  19.850  67.410  1.00  0.00    -0.212 A  
HETATM   40  C   UNL     1      -5.602  18.988  66.470  1.00  0.00    -0.171 A  
HETATM   41  C   UNL     1      -6.322  17.961  65.857  1.00  0.00    -0.287 A  
HETATM   42  C   UNL     1      -7.668  17.788  66.172  1.00  0.00    -0.280 A  
HETATM   43  C   UNL     1      -8.299  18.751  66.944  1.00  0.00    -0.277 A  
HETATM   44  C   UNL     1      -8.412  16.505  65.997  1.00  0.00    -0.206 C  
HETATM   45  C   UNL     1      -8.008  15.545  67.161  1.00  0.00    -0.255 C  
ENDBRANCH  27  28
ENDBRANCH  14  24
TORSDOF 3
ENDMDL
MODEL       27
REMARK 921   NORMALIZED FREE ENERGY PREDICTED BY IDOCK:   -6.43 KCAL/MOL
REMARK 922        TOTAL FREE ENERGY PREDICTED BY IDOCK:   -8.63 KCAL/MOL
REMARK 923 INTER-LIGAND FREE ENERGY PREDICTED BY IDOCK:   -7.97 KCAL/MOL
REMARK 924 INTRA-LIGAND FREE ENERGY PREDICTED BY IDOCK:   -0.66 KCAL/MOL
REMARK 927      BINDING AFFINITY PREDICTED BY RF-SCORE:    0.00 PKD
ROOT
HETATM    1  C   UNL     1      -7.522   3.651  69.066  1.00  0.00    -0.053 C  
HETATM    2  C   UNL     1      -7.077   2.903  67.798  1.00  0.00    -0.049 C  
HETATM    3  C   UNL     1      -6.716   1.475  68.334  1.00  0.00    -0.029 C  
HETATM    4  C   UNL     1      -6.800   1.571  69.856  1.00  0.00    -0.033 C  
HETATM    5  N   UNL     1      -6.805   3.000  70.121  1.00  0.00    -0.033 N  
HETATM    6  C   UNL     1      -6.984   3.438  71.407  1.00  0.00    -0.032 C  
HETATM    7  O   UNL     1      -6.298   3.006  72.329  1.00  0.00    -0.013 OA 
HETATM    8  C   UNL     1      -8.043   4.573  71.574  1.00  0.00    -0.100 C  
HETATM    9  N   UNL     1      -8.992   4.749  70.319  1.00  0.00    -0.100 N  
HETATM   10  C   UNL     1     -11.251   6.528  72.136  1.00  0.00    -0.308 C  
HETATM   11  C   UNL     1      -9.922   5.737  70.034  1.00  0.00    -0.191 C  
HETATM   12  C   UNL     1      -9.570   8.294  72.777  1.00  0.00    -0.338 C  
HETATM   13  O   UNL     1     -11.010   5.522  69.519  1.00  0.00    -0.288 OA 
HETATM   14  C   UNL     1      -9.274   7.081  70.274  1.00  0.00    -0.156 C  
HETATM   15  C   UNL     1      -8.110   5.146  69.289  1.00  0.00    -0.084 C  
HETATM   16  O   UNL     1      -8.623   5.463  67.986  1.00  0.00    -0.101 OA 
HETATM   17  H   UNL     1      -8.967   6.338  68.116  1.00  0.00     0.000 HD 
HETATM   18  C   UNL     1     -10.142   7.495  71.606  1.00  0.00    -0.204 C  
HETATM   19  O   UNL     1      -7.847   6.420  69.980  1.00  0.00    -0.105 OA 
ENDROOT
BRANCH   8  20
HETATM   20  C   UNL     1      -8.680   4.463  72.946  1.00  0.00    -0.109 C  
HETATM   21  C   UNL     1     -10.676   3.810  74.274  1.00  0.00    -0.224 C  
HETATM   22  C   UNL     1      -9.933   3.592  72.963  1.00  0.00    -0.206 C  
HETATM   23  C   UNL     1      -9.604   2.111  72.809  1.00  0.00    -0.141 C  
ENDBRANCH   8  20
BRANCH  14  24
HETATM   24  N   UNL     1      -9.053   8.330  69.584  1.00  0.00    -0.153 N  
HETATM   25  H   UNL     1      -8.092   8.511  69.294  1.00  0.00     0.000 HD 
HETATM   26  O   UNL     1     -11.158   9.227  69.494  1.00  0.00    -0.192 OA 
HETATM   27  C   UNL     1      -9.964   9.306  69.268  1.00  0.00    -0.180 C  
BRANCH  27  28
HETATM   28  C   UNL     1      -9.273  10.491  68.581  1.00  0.00    -0.172 C  
HETATM   29  C   UNL     1      -8.094  10.009  67.697  1.00  0.00    -0.110 C  
HETATM   30  N   UNL     1      -8.465   9.739  66.296  1.00  0.00    -0.123 NA 
HETATM   31  C   UNL     1      -9.561   8.763  66.177  1.00  0.00    -0.253 C  
HETATM   32  C   UNL     1      -8.765  11.037  65.618  1.00  0.00    -0.157 C  
HETATM   33  C   UNL     1      -9.500  10.891  64.219  1.00  0.00    -0.289 C  
HETATM   34  C   UNL     1     -10.733  11.723  64.112  1.00  0.00    -0.410 A  
HETATM   35  C   UNL     1     -11.869  11.657  63.342  1.00  0.00    -0.212 A  
HETATM   36  N   UNL     1     -12.658  12.750  63.659  1.00  0.00    -0.736 NA 
HETATM   37  C   UNL     1     -12.040  13.528  64.617  1.00  0.00    -0.409 A  
HETATM   38  H   UNL     1     -13.567  12.951  63.243  1.00  0.00     0.000 HD 
HETATM   39  C   UNL     1     -12.390  14.708  65.279  1.00  0.00    -0.215 A  
HETATM   40  C   UNL     1     -11.497  15.175  66.263  1.00  0.00    -0.153 A  
HETATM   41  C   UNL     1     -10.380  14.433  66.651  1.00  0.00    -0.275 A  
HETATM   42  C   UNL     1     -10.133  13.203  66.045  1.00  0.00    -0.286 A  
HETATM   43  C   UNL     1     -10.898  12.837  64.949  1.00  0.00    -0.326 A  
HETATM   44  C   UNL     1      -9.313  12.116  66.659  1.00  0.00    -0.226 C  
HETATM   45  C   UNL     1     -10.178  11.412  67.752  1.00  0.00    -0.202 C  
ENDBRANCH  27  28
ENDBRANCH  14  24
TORSDOF 3
ENDMDL
MODEL       28
REMARK 921   NORMALIZED FREE ENERGY PREDICTED BY IDOCK:   -6.42 KCAL/MOL
REMARK 922        TOTAL FREE ENERGY PREDICTED BY IDOCK:   -8.61 KCAL/MOL
REMARK 923 INTER-LIGAND FREE ENERGY PREDICTED BY IDOCK:   -7.39 KCAL/MOL
REMARK 924 INTRA-LIGAND FREE ENERGY PREDICTED BY IDOCK:   -1.22 KCAL/MOL
REMARK 927      BINDING AFFINITY PREDICTED BY RF-SCORE:    0.00 PKD
ROOT
HETATM    1  C   UNL     1      -6.769  13.868  69.310  1.00  0.00    -0.108 C  
HETATM    2  C   UNL     1      -5.928  13.482  70.538  1.00  0.00    -0.133 C  
HETATM    3  C   UNL     1      -5.252  14.836  70.948  1.00  0.00    -0.132 C  
HETATM    4  C   UNL     1      -5.600  15.825  69.838  1.00  0.00    -0.139 C  
HETATM    5  N   UNL     1      -6.069  14.985  68.749  1.00  0.00    -0.082 N  
HETATM    6  C   UNL     1      -6.571  15.576  67.619  1.00  0.00    -0.169 C  
HETATM    7  O   UNL     1      -5.944  16.448  67.023  1.00  0.00    -0.247 OA 
HETATM    8  C   UNL     1      -7.930  14.993  67.119  1.00  0.00    -0.206 C  
HETATM    9  N   UNL     1      -8.677  14.104  68.196  1.00  0.00    -0.173 N  
HETATM   10  C   UNL     1     -11.619  14.327  66.503  1.00  0.00    -0.390 C  
HETATM   11  C   UNL     1      -9.800  13.301  68.068  1.00  0.00    -0.230 C  
HETATM   12  C   UNL     1     -10.658  13.322  64.401  1.00  0.00    -0.438 C  
HETATM   13  O   UNL     1     -10.680  13.217  68.913  1.00  0.00    -0.242 OA 
HETATM   14  C   UNL     1      -9.624  12.434  66.843  1.00  0.00    -0.219 C  
HETATM   15  C   UNL     1      -7.799  13.015  68.394  1.00  0.00    -0.134 C  
HETATM   16  O   UNL     1      -8.169  11.945  69.277  1.00  0.00    -0.330 OA 
HETATM   17  H   UNL     1      -8.773  11.445  68.741  1.00  0.00     0.000 HD 
HETATM   18  C   UNL     1     -10.775  13.148  65.915  1.00  0.00    -0.287 C  
HETATM   19  O   UNL     1      -8.037  12.550  67.016  1.00  0.00    -0.169 OA 
ENDROOT
BRANCH   8  20
HETATM   20  C   UNL     1      -8.716  16.086  66.421  1.00  0.00    -0.362 C  
HETATM   21  C   UNL     1     -10.554  17.752  66.564  1.00  0.00    -0.220 C  
HETATM   22  C   UNL     1      -9.566  16.923  67.373  1.00  0.00    -0.241 C  
HETATM   23  C   UNL     1      -8.716  17.849  68.236  1.00  0.00    -0.277 C  
ENDBRANCH   8  20
BRANCH  14  24
HETATM   24  N   UNL     1      -9.675  11.039  66.471  1.00  0.00    -0.193 N  
HETATM   25  H   UNL     1      -9.485  10.837  65.489  1.00  0.00     0.000 HD 
HETATM   26  O   UNL     1     -10.141  10.010  68.462  1.00  0.00    -0.159 OA 
HETATM   27  C   UNL     1      -9.945   9.951  67.261  1.00  0.00    -0.196 C  
BRANCH  27  28
HETATM   28  C   UNL     1      -9.947   8.662  66.429  1.00  0.00    -0.331 C  
HETATM   29  C   UNL     1      -9.155   8.852  65.110  1.00  0.00    -0.097 C  
HETATM   30  N   UNL     1      -7.730   8.487  65.207  1.00  0.00    -0.092 NA 
HETATM   31  C   UNL     1      -7.029   9.216  66.277  1.00  0.00    -0.086 C  
HETATM   32  C   UNL     1      -7.622   7.003  65.346  1.00  0.00    -0.097 C  
HETATM   33  C   UNL     1      -6.190   6.490  65.798  1.00  0.00    -0.038 C  
HETATM   34  C   UNL     1      -6.237   5.571  66.972  1.00  0.00    -0.034 A  
HETATM   35  C   UNL     1      -5.331   5.204  67.939  1.00  0.00    -0.011 A  
HETATM   36  N   UNL     1      -5.941   4.266  68.754  1.00  0.00    -0.025 NA 
HETATM   37  C   UNL     1      -7.227   4.013  68.319  1.00  0.00    -0.059 A  
HETATM   38  H   UNL     1      -5.503   3.824  69.562  1.00  0.00     0.000 HD 
HETATM   39  C   UNL     1      -8.255   3.180  68.770  1.00  0.00    -0.076 A  
HETATM   40  C   UNL     1      -9.479   3.247  68.076  1.00  0.00    -0.217 A  
HETATM   41  C   UNL     1      -9.700   4.188  67.069  1.00  0.00    -0.230 A  
HETATM   42  C   UNL     1      -8.684   5.079  66.732  1.00  0.00    -0.108 A  
HETATM   43  C   UNL     1      -7.424   4.887  67.276  1.00  0.00    -0.083 A  
HETATM   44  C   UNL     1      -8.912   6.397  66.066  1.00  0.00    -0.143 C  
HETATM   45  C   UNL     1      -9.445   7.399  67.139  1.00  0.00    -0.187 C  
ENDBRANCH  27  28
ENDBRANCH  14  24
TORSDOF 3
ENDMDL
MODEL       29
REMARK 921   NORMALIZED FREE ENERGY PREDICTED BY IDOCK:   -6.35 KCAL/MOL
REMARK 922        TOTAL FREE ENERGY PREDICTED BY IDOCK:   -8.53 KCAL/MOL
REMARK 923 INTER-LIGAND FREE ENERGY PREDICTED BY IDOCK:   -8.02 KCAL/MOL
REMARK 924 INTRA-LIGAND FREE ENERGY PREDICTED BY IDOCK:   -0.51 KCAL/MOL
REMARK 927      BINDING AFFINITY PREDICTED BY RF-SCORE:    0.00 PKD
ROOT
HETATM    1  C   UNL     1      -8.411   9.862  64.258  1.00  0.00    -0.166 C  
HETATM    2  C   UNL     1      -8.005   9.621  62.794  1.00  0.00    -0.125 C  
HETATM    3  C   UNL     1      -7.552   8.121  62.792  1.00  0.00    -0.122 C  
HETATM    4  C   UNL     1      -7.554   7.685  64.256  1.00  0.00    -0.108 C  
HETATM    5  N   UNL     1      -7.608   8.935  64.997  1.00  0.00    -0.097 N  
HETATM    6  C   UNL     1      -7.733   8.896  66.361  1.00  0.00    -0.095 C  
HETATM    7  O   UNL     1      -6.978   8.217  67.051  1.00  0.00    -0.071 OA 
HETATM    8  C   UNL     1      -8.830   9.838  66.948  1.00  0.00    -0.138 C  
HETATM    9  N   UNL     1      -9.855  10.374  65.867  1.00  0.00    -0.221 N  
HETATM   10  C   UNL     1     -12.085  11.285  68.269  1.00  0.00    -0.058 C  
HETATM   11  C   UNL     1     -10.842  11.342  65.974  1.00  0.00    -0.213 C  
HETATM   12  C   UNL     1     -10.450  12.824  69.415  1.00  0.00     0.342 C  
HETATM   13  O   UNL     1     -11.947  11.250  65.459  1.00  0.00     0.168 OA 
HETATM   14  C   UNL     1     -10.242  12.559  66.638  1.00  0.00    -0.230 C  
HETATM   15  C   UNL     1      -9.050  11.152  65.004  1.00  0.00    -0.121 C  
HETATM   16  O   UNL     1      -9.650  11.864  63.910  1.00  0.00    -0.481 OA 
HETATM   17  H   UNL     1     -10.024  12.619  64.346  1.00  0.00     0.000 HD 
HETATM   18  C   UNL     1     -11.051  12.441  68.063  1.00  0.00    -0.288 C  
HETATM   19  O   UNL     1      -8.806  12.127  66.081  1.00  0.00    -0.112 OA 
ENDROOT
BRANCH   8  20
HETATM   20  C   UNL     1      -9.384   9.228  68.221  1.00  0.00    -0.141 C  
HETATM   21  C   UNL     1     -11.273   8.045  69.319  1.00  0.00     0.257 C  
HETATM   22  C   UNL     1     -10.597   8.333  67.986  1.00  0.00    -0.188 C  
HETATM   23  C   UNL     1     -10.217   7.016  67.317  1.00  0.00    -0.301 C  
ENDBRANCH   8  20
BRANCH  14  24
HETATM   24  N   UNL     1     -10.116  13.980  66.413  1.00  0.00    -0.286 N  
HETATM   25  H   UNL     1     -10.955  14.449  66.069  1.00  0.00     0.000 HD 
HETATM   26  O   UNL     1      -7.957  14.396  67.051  1.00  0.00    -0.162 OA 
HETATM   27  C   UNL     1      -9.019  14.783  66.599  1.00  0.00    -0.255 C  
BRANCH  27  28
HETATM   28  C   UNL     1      -9.325  16.226  66.176  1.00  0.00    -0.374 C  
HETATM   29  C   UNL     1     -10.642  16.727  66.823  1.00  0.00    -0.203 C  
HETATM   30  N   UNL     1     -10.454  17.412  68.114  1.00  0.00    -0.374 NA 
HETATM   31  C   UNL     1      -9.741  16.582  69.099  1.00  0.00    -0.241 C  
HETATM   32  C   UNL     1      -9.786  18.727  67.869  1.00  0.00    -0.341 C  
HETATM   33  C   UNL     1      -9.214  19.425  69.174  1.00  0.00    -0.228 C  
HETATM   34  C   UNL     1      -7.786  19.834  69.046  1.00  0.00    -0.234 A  
HETATM   35  C   UNL     1      -6.775  20.079  69.945  1.00  0.00    -0.219 A  
HETATM   36  N   UNL     1      -5.658  20.474  69.226  1.00  0.00    -0.315 NA 
HETATM   37  C   UNL     1      -5.939  20.497  67.875  1.00  0.00    -0.249 A  
HETATM   38  H   UNL     1      -4.757  20.713  69.638  1.00  0.00     0.000 HD 
HETATM   39  C   UNL     1      -5.190  20.807  66.736  1.00  0.00    -0.211 A  
HETATM   40  C   UNL     1      -5.829  20.650  65.491  1.00  0.00    -0.254 A  
HETATM   41  C   UNL     1      -7.104  20.091  65.387  1.00  0.00    -0.307 A  
HETATM   42  C   UNL     1      -7.769  19.686  66.543  1.00  0.00    -0.303 A  
HETATM   43  C   UNL     1      -7.224  20.017  67.773  1.00  0.00    -0.326 A  
HETATM   44  C   UNL     1      -8.863  18.670  66.568  1.00  0.00    -0.310 C  
HETATM   45  C   UNL     1      -8.216  17.254  66.434  1.00  0.00    -0.317 C  
ENDBRANCH  27  28
ENDBRANCH  14  24
TORSDOF 3
ENDMDL
MODEL       30
REMARK 921   NORMALIZED FREE ENERGY PREDICTED BY IDOCK:   -6.28 KCAL/MOL
REMARK 922        TOTAL FREE ENERGY PREDICTED BY IDOCK:   -8.45 KCAL/MOL
REMARK 923 INTER-LIGAND FREE ENERGY PREDICTED BY IDOCK:   -7.51 KCAL/MOL
REMARK 924 INTRA-LIGAND FREE ENERGY PREDICTED BY IDOCK:   -0.95 KCAL/MOL
REMARK 927      BINDING AFFINITY PREDICTED BY RF-SCORE:    0.00 PKD
ROOT
HETATM    1  C   UNL     1      -8.655  11.931  68.156  1.00  0.00    -0.165 C  
HETATM    2  C   UNL     1      -7.594  12.953  67.717  1.00  0.00    -0.141 C  
HETATM    3  C   UNL     1      -8.388  14.304  67.693  1.00  0.00    -0.187 C  
HETATM    4  C   UNL     1      -9.850  13.929  67.930  1.00  0.00    -0.228 C  
HETATM    5  N   UNL     1      -9.889  12.495  67.699  1.00  0.00    -0.198 N  
HETATM    6  C   UNL     1     -11.053  11.813  67.937  1.00  0.00    -0.245 C  
HETATM    7  O   UNL     1     -12.120  12.184  67.454  1.00  0.00    -0.553 OA 
HETATM    8  C   UNL     1     -10.892  10.508  68.778  1.00  0.00    -0.231 C  
HETATM    9  N   UNL     1      -9.501  10.402  69.528  1.00  0.00    -0.182 N  
HETATM   10  C   UNL     1     -10.682   7.981  71.607  1.00  0.00    -0.284 C  
HETATM   11  C   UNL     1      -8.938   9.339  70.219  1.00  0.00    -0.229 C  
HETATM   12  C   UNL     1     -11.279   6.433  69.710  1.00  0.00    -0.484 C  
HETATM   13  O   UNL     1      -8.311   9.459  71.262  1.00  0.00    -0.308 OA 
HETATM   14  C   UNL     1      -9.060   8.100  69.363  1.00  0.00    -0.148 C  
HETATM   15  C   UNL     1      -8.560  10.344  68.476  1.00  0.00    -0.134 C  
HETATM   16  O   UNL     1      -7.163  10.181  68.769  1.00  0.00    -0.075 OA 
HETATM   17  H   UNL     1      -7.107   9.252  68.956  1.00  0.00     0.000 HD 
HETATM   18  C   UNL     1     -10.174   7.319  70.284  1.00  0.00    -0.205 C  
HETATM   19  O   UNL     1      -9.078   9.029  68.060  1.00  0.00    -0.135 OA 
ENDROOT
BRANCH   8  20
HETATM   20  C   UNL     1     -12.158  10.268  69.576  1.00  0.00    -0.025 C  
HETATM   21  C   UNL     1     -13.284  10.379  71.788  1.00  0.00    -0.529 C  
HETATM   22  C   UNL     1     -12.148  10.941  70.946  1.00  0.00    -0.455 C  
HETATM   23  C   UNL     1     -12.297  12.455  70.841  1.00  0.00    -0.358 C  
ENDBRANCH   8  20
BRANCH  14  24
HETATM   24  N   UNL     1      -8.226   7.045  68.836  1.00  0.00    -0.121 N  
HETATM   25  H   UNL     1      -8.150   7.008  67.818  1.00  0.00     0.000 HD 
HETATM   26  O   UNL     1      -7.461   6.020  70.734  1.00  0.00    -0.086 OA 
HETATM   27  C   UNL     1      -7.522   6.087  69.520  1.00  0.00    -0.088 C  
BRANCH  27  28
HETATM   28  C   UNL     1      -6.817   5.133  68.547  1.00  0.00    -0.055 C  
HETATM   29  C   UNL     1      -7.018   3.657  68.974  1.00  0.00    -0.046 C  
HETATM   30  N   UNL     1      -8.192   3.009  68.363  1.00  0.00    -0.064 NA 
HETATM   31  C   UNL     1      -9.443   3.740  68.622  1.00  0.00    -0.147 C  
HETATM   32  C   UNL     1      -7.927   2.808  66.905  1.00  0.00    -0.076 C  
HETATM   33  C   UNL     1      -9.211   2.436  66.050  1.00  0.00    -0.023 C  
HETATM   34  C   UNL     1      -9.393   3.306  64.853  1.00  0.00    -0.149 A  
HETATM   35  C   UNL     1     -10.473   3.653  64.075  1.00  0.00    -0.265 A  
HETATM   36  N   UNL     1     -10.014   4.472  63.057  1.00  0.00    -0.375 NA 
HETATM   37  C   UNL     1      -8.649   4.650  63.161  1.00  0.00    -0.116 A  
HETATM   38  H   UNL     1     -10.601   4.885  62.334  1.00  0.00     0.000 HD 
HETATM   39  C   UNL     1      -7.708   5.369  62.419  1.00  0.00    -0.067 A  
HETATM   40  C   UNL     1      -6.379   5.352  62.888  1.00  0.00    -0.021 A  
HETATM   41  C   UNL     1      -6.039   4.756  64.103  1.00  0.00    -0.022 A  
HETATM   42  C   UNL     1      -7.032   4.152  64.870  1.00  0.00    -0.054 A  
HETATM   43  C   UNL     1      -8.295   3.999  64.320  1.00  0.00    -0.096 A  
HETATM   44  C   UNL     1      -6.932   3.923  66.342  1.00  0.00    -0.059 C  
HETATM   45  C   UNL     1      -7.190   5.283  67.066  1.00  0.00    -0.078 C  
ENDBRANCH  27  28
ENDBRANCH  14  24
TORSDOF 3
ENDMDL
MODEL       31
REMARK 921   NORMALIZED FREE ENERGY PREDICTED BY IDOCK:   -6.24 KCAL/MOL
REMARK 922        TOTAL FREE ENERGY PREDICTED BY IDOCK:   -8.40 KCAL/MOL
REMARK 923 INTER-LIGAND FREE ENERGY PREDICTED BY IDOCK:   -7.60 KCAL/MOL
REMARK 924 INTRA-LIGAND FREE ENERGY PREDICTED BY IDOCK:   -0.80 KCAL/MOL
REMARK 927      BINDING AFFINITY PREDICTED BY RF-SCORE:    0.00 PKD
ROOT
HETATM    1  C   UNL     1     -11.103  13.449  65.898  1.00  0.00    -0.280 C  
HETATM    2  C   UNL     1     -12.412  13.579  65.101  1.00  0.00    -0.495 C  
HETATM    3  C   UNL     1     -12.274  14.982  64.415  1.00  0.00    -0.353 C  
HETATM    4  C   UNL     1     -11.015  15.611  65.008  1.00  0.00    -0.431 C  
HETATM    5  N   UNL     1     -10.736  14.803  66.184  1.00  0.00    -0.305 N  
HETATM    6  C   UNL     1      -9.590  15.039  66.898  1.00  0.00    -0.239 C  
HETATM    7  O   UNL     1      -9.299  16.168  67.283  1.00  0.00    -0.211 OA 
HETATM    8  C   UNL     1      -8.759  13.765  67.247  1.00  0.00    -0.219 C  
HETATM    9  N   UNL     1      -9.164  12.488  66.402  1.00  0.00    -0.212 N  
HETATM   10  C   UNL     1      -6.266  10.898  67.206  1.00  0.00    -0.064 C  
HETATM   11  C   UNL     1      -8.776  11.164  66.542  1.00  0.00    -0.174 C  
HETATM   12  C   UNL     1      -6.704  11.034  69.684  1.00  0.00    -0.137 C  
HETATM   13  O   UNL     1      -8.529  10.422  65.602  1.00  0.00    -0.153 OA 
HETATM   14  C   UNL     1      -8.919  10.780  67.996  1.00  0.00    -0.139 C  
HETATM   15  C   UNL     1     -10.499  12.240  66.794  1.00  0.00    -0.218 C  
HETATM   16  O   UNL     1     -11.202  11.102  66.273  1.00  0.00    -0.184 OA 
HETATM   17  H   UNL     1     -10.848  10.394  66.798  1.00  0.00     0.000 HD 
HETATM   18  C   UNL     1      -7.318  10.653  68.337  1.00  0.00    -0.091 C  
HETATM   19  O   UNL     1     -10.054  11.897  68.156  1.00  0.00    -0.186 OA 
ENDROOT
BRANCH   8  20
HETATM   20  C   UNL     1      -7.291  14.133  67.330  1.00  0.00    -0.143 C  
HETATM   21  C   UNL     1      -5.588  15.756  68.131  1.00  0.00    -0.122 C  
HETATM   22  C   UNL     1      -6.998  15.227  68.354  1.00  0.00    -0.111 C  
HETATM   23  C   UNL     1      -7.128  14.722  69.786  1.00  0.00    -0.132 C  
ENDBRANCH   8  20
BRANCH  14  24
HETATM   24  N   UNL     1      -9.542   9.757  68.803  1.00  0.00    -0.150 N  
HETATM   25  H   UNL     1      -9.507   9.907  69.812  1.00  0.00     0.000 HD 
HETATM   26  O   UNL     1     -10.350   8.305  67.228  1.00  0.00    -0.249 OA 
HETATM   27  C   UNL     1     -10.175   8.610  68.394  1.00  0.00    -0.200 C  
BRANCH  27  28
HETATM   28  C   UNL     1     -10.637   7.785  69.602  1.00  0.00    -0.242 C  
HETATM   29  C   UNL     1     -11.357   6.490  69.146  1.00  0.00    -0.261 C  
HETATM   30  N   UNL     1     -10.465   5.324  69.011  1.00  0.00    -0.180 NA 
HETATM   31  C   UNL     1      -9.339   5.573  68.096  1.00  0.00    -0.111 C  
HETATM   32  C   UNL     1     -10.025   4.893  70.373  1.00  0.00    -0.246 C  
HETATM   33  C   UNL     1      -8.807   3.876  70.377  1.00  0.00    -0.140 C  
HETATM   34  C   UNL     1      -7.688   4.299  71.267  1.00  0.00    -0.071 A  
HETATM   35  C   UNL     1      -6.343   4.020  71.315  1.00  0.00    -0.015 A  
HETATM   36  N   UNL     1      -5.813   4.682  72.410  1.00  0.00    -0.015 NA 
HETATM   37  C   UNL     1      -6.802   5.376  73.078  1.00  0.00    -0.078 A  
HETATM   38  H   UNL     1      -4.832   4.659  72.685  1.00  0.00     0.000 HD 
HETATM   39  C   UNL     1      -6.814   6.194  74.211  1.00  0.00    -0.083 A  
HETATM   40  C   UNL     1      -8.044   6.788  74.556  1.00  0.00    -0.149 A  
HETATM   41  C   UNL     1      -9.168   6.673  73.736  1.00  0.00    -0.176 A  
HETATM   42  C   UNL     1      -9.079   5.944  72.552  1.00  0.00    -0.135 A  
HETATM   43  C   UNL     1      -7.932   5.203  72.313  1.00  0.00    -0.109 A  
HETATM   44  C   UNL     1      -9.990   6.129  71.384  1.00  0.00    -0.218 C  
HETATM   45  C   UNL     1      -9.555   7.425  70.628  1.00  0.00    -0.171 C  
ENDBRANCH  27  28
ENDBRANCH  14  24
TORSDOF 3
ENDMDL
MODEL       32
REMARK 921   NORMALIZED FREE ENERGY PREDICTED BY IDOCK:   -6.22 KCAL/MOL
REMARK 922        TOTAL FREE ENERGY PREDICTED BY IDOCK:   -8.38 KCAL/MOL
REMARK 923 INTER-LIGAND FREE ENERGY PREDICTED BY IDOCK:   -7.34 KCAL/MOL
REMARK 924 INTRA-LIGAND FREE ENERGY PREDICTED BY IDOCK:   -1.04 KCAL/MOL
REMARK 927      BINDING AFFINITY PREDICTED BY RF-SCORE:    0.00 PKD
ROOT
HETATM    1  C   UNL     1     -10.825  11.852  65.099  1.00  0.00    -0.300 C  
HETATM    2  C   UNL     1     -11.672  11.607  63.839  1.00  0.00    -0.370 C  
HETATM    3  C   UNL     1     -12.224  13.034  63.498  1.00  0.00    -0.580 C  
HETATM    4  C   UNL     1     -11.816  13.927  64.667  1.00  0.00    -0.407 C  
HETATM    5  N   UNL     1     -11.439  12.990  65.713  1.00  0.00    -0.319 N  
HETATM    6  C   UNL     1     -10.911  13.473  66.882  1.00  0.00    -0.288 C  
HETATM    7  O   UNL     1     -11.474  14.360  67.517  1.00  0.00    -0.314 OA 
HETATM    8  C   UNL     1      -9.615  12.751  67.367  1.00  0.00    -0.199 C  
HETATM    9  N   UNL     1      -8.925  11.864  66.252  1.00  0.00    -0.191 N  
HETATM   10  C   UNL     1      -6.007  11.742  67.996  1.00  0.00    -0.049 C  
HETATM   11  C   UNL     1      -7.876  10.962  66.349  1.00  0.00    -0.154 C  
HETATM   12  C   UNL     1      -7.089  10.706  70.024  1.00  0.00    -0.095 C  
HETATM   13  O   UNL     1      -6.990  10.852  65.514  1.00  0.00    -0.034 OA 
HETATM   14  C   UNL     1      -8.147  10.046  67.520  1.00  0.00    -0.110 C  
HETATM   15  C   UNL     1      -9.887  10.865  65.979  1.00  0.00    -0.233 C  
HETATM   16  O   UNL     1      -9.591   9.818  65.042  1.00  0.00    -0.276 OA 
HETATM   17  H   UNL     1      -9.041   9.240  65.557  1.00  0.00     0.000 HD 
HETATM   18  C   UNL     1      -6.957  10.608  68.504  1.00  0.00    -0.067 C  
HETATM   19  O   UNL     1      -9.714  10.305  67.331  1.00  0.00    -0.155 OA 
ENDROOT
BRANCH   8  20
HETATM   20  C   UNL     1      -8.754  13.733  68.137  1.00  0.00    -0.183 C  
HETATM   21  C   UNL     1      -6.799  15.265  68.107  1.00  0.00    -0.137 C  
HETATM   22  C   UNL     1      -7.841  14.568  67.244  1.00  0.00    -0.199 C  
HETATM   23  C   UNL     1      -8.616  15.611  66.446  1.00  0.00    -0.319 C  
ENDBRANCH   8  20
BRANCH  14  24
HETATM   24  N   UNL     1      -8.219   8.634  67.813  1.00  0.00    -0.117 N  
HETATM   25  H   UNL     1      -7.648   8.030  67.221  1.00  0.00     0.000 HD 
HETATM   26  O   UNL     1      -9.645   8.569  69.603  1.00  0.00    -0.167 OA 
HETATM   27  C   UNL     1      -8.953   7.996  68.781  1.00  0.00    -0.141 C  
BRANCH  27  28
HETATM   28  C   UNL     1      -8.767   6.476  68.690  1.00  0.00    -0.123 C  
HETATM   29  C   UNL     1     -10.127   5.742  68.807  1.00  0.00    -0.177 C  
HETATM   30  N   UNL     1     -10.784   5.485  67.513  1.00  0.00    -0.187 NA 
HETATM   31  C   UNL     1     -10.987   6.712  66.726  1.00  0.00    -0.216 C  
HETATM   32  C   UNL     1     -10.006   4.442  66.776  1.00  0.00    -0.195 C  
HETATM   33  C   UNL     1     -10.387   4.303  65.242  1.00  0.00    -0.220 C  
HETATM   34  C   UNL     1      -9.206   4.366  64.334  1.00  0.00    -0.149 A  
HETATM   35  C   UNL     1      -9.032   4.686  63.009  1.00  0.00    -0.123 A  
HETATM   36  N   UNL     1      -7.691   4.519  62.707  1.00  0.00    -0.060 NA 
HETATM   37  C   UNL     1      -6.998   4.083  63.818  1.00  0.00    -0.045 A  
HETATM   38  H   UNL     1      -7.274   4.693  61.792  1.00  0.00     0.000 HD 
HETATM   39  C   UNL     1      -5.657   3.772  64.062  1.00  0.00    -0.013 A  
HETATM   40  C   UNL     1      -5.317   3.409  65.380  1.00  0.00    -0.009 A  
HETATM   41  C   UNL     1      -6.244   3.479  66.422  1.00  0.00    -0.028 A  
HETATM   42  C   UNL     1      -7.542   3.909  66.154  1.00  0.00    -0.089 A  
HETATM   43  C   UNL     1      -7.926   4.078  64.833  1.00  0.00    -0.093 A  
HETATM   44  C   UNL     1      -8.462   4.486  67.178  1.00  0.00    -0.104 C  
HETATM   45  C   UNL     1      -8.023   5.960  67.451  1.00  0.00    -0.102 C  
ENDBRANCH  27  28
ENDBRANCH  14  24
TORSDOF 3
ENDMDL
MODEL       33
REMARK 921   NORMALIZED FREE ENERGY PREDICTED BY IDOCK:   -6.18 KCAL/MOL
REMARK 922        TOTAL FREE ENERGY PREDICTED BY IDOCK:   -8.33 KCAL/MOL
REMARK 923 INTER-LIGAND FREE ENERGY PREDICTED BY IDOCK:   -7.53 KCAL/MOL
REMARK 924 INTRA-LIGAND FREE ENERGY PREDICTED BY IDOCK:   -0.80 KCAL/MOL
REMARK 927      BINDING AFFINITY PREDICTED BY RF-SCORE:    0.00 PKD
ROOT
HETATM    1  C   UNL     1      -9.830   8.756  69.211  1.00  0.00    -0.180 C  
HETATM    2  C   UNL     1      -9.990   8.927  70.731  1.00  0.00    -0.282 C  
HETATM    3  C   UNL     1     -10.060   7.450  71.251  1.00  0.00    -0.195 C  
HETATM    4  C   UNL     1     -10.124   6.573  70.002  1.00  0.00    -0.174 C  
HETATM    5  N   UNL     1     -10.463   7.501  68.936  1.00  0.00    -0.211 N  
HETATM    6  C   UNL     1     -10.492   7.049  67.642  1.00  0.00    -0.237 C  
HETATM    7  O   UNL     1     -11.134   6.049  67.331  1.00  0.00    -0.302 OA 
HETATM    8  C   UNL     1      -9.734   7.945  66.614  1.00  0.00    -0.235 C  
HETATM    9  N   UNL     1      -8.752   8.991  67.283  1.00  0.00    -0.118 N  
HETATM   10  C   UNL     1      -7.107   9.492  64.347  1.00  0.00    -0.108 C  
HETATM   11  C   UNL     1      -8.049  10.045  66.718  1.00  0.00    -0.118 C  
HETATM   12  C   UNL     1      -9.190  10.228  63.133  1.00  0.00    -0.311 C  
HETATM   13  O   UNL     1      -6.903  10.342  67.022  1.00  0.00    -0.080 OA 
HETATM   14  C   UNL     1      -9.001  10.840  65.855  1.00  0.00    -0.184 C  
HETATM   15  C   UNL     1      -9.615   9.834  68.019  1.00  0.00    -0.142 C  
HETATM   16  O   UNL     1      -9.083  10.963  68.729  1.00  0.00    -0.169 OA 
HETATM   17  H   UNL     1      -8.958  11.594  68.031  1.00  0.00     0.000 HD 
HETATM   18  C   UNL     1      -8.360  10.427  64.401  1.00  0.00    -0.142 C  
HETATM   19  O   UNL     1     -10.214  10.340  66.772  1.00  0.00    -0.211 OA 
ENDROOT
BRANCH   8  20
HETATM   20  C   UNL     1      -9.201   7.076  65.491  1.00  0.00     0.285 C  
HETATM   21  C   UNL     1      -7.240   5.919  64.499  1.00  0.00    -0.063 C  
HETATM   22  C   UNL     1      -7.826   6.483  65.785  1.00  0.00    -0.104 C  
HETATM   23  C   UNL     1      -7.890   5.381  66.837  1.00  0.00    -0.101 C  
ENDBRANCH   8  20
BRANCH  14  24
HETATM   24  N   UNL     1      -9.443  12.204  65.680  1.00  0.00    -0.407 N  
HETATM   25  H   UNL     1      -8.811  12.922  66.038  1.00  0.00     0.000 HD 
HETATM   26  O   UNL     1     -11.431  11.946  64.575  1.00  0.00    -0.327 OA 
HETATM   27  C   UNL     1     -10.596  12.664  65.098  1.00  0.00    -0.298 C  
BRANCH  27  28
HETATM   28  C   UNL     1     -10.676  14.193  65.183  1.00  0.00    -0.400 C  
HETATM   29  C   UNL     1     -11.922  14.640  65.991  1.00  0.00    -0.242 C  
HETATM   30  N   UNL     1     -11.670  14.824  67.431  1.00  0.00    -0.375 NA 
HETATM   31  C   UNL     1     -11.112  13.620  68.069  1.00  0.00    -0.262 C  
HETATM   32  C   UNL     1     -10.810  16.033  67.619  1.00  0.00    -0.311 C  
HETATM   33  C   UNL     1     -10.177  16.169  69.067  1.00  0.00    -0.250 C  
HETATM   34  C   UNL     1      -8.701  16.382  69.047  1.00  0.00    -0.233 A  
HETATM   35  C   UNL     1      -7.689  16.166  69.951  1.00  0.00     0.540 A  
HETATM   36  N   UNL     1      -6.508  16.607  69.377  1.00  0.00    -0.212 NA 
HETATM   37  C   UNL     1      -6.747  17.117  68.117  1.00  0.00    -0.163 A  
HETATM   38  H   UNL     1      -5.592  16.562  69.823  1.00  0.00     0.000 HD 
HETATM   39  C   UNL     1      -5.932  17.673  67.127  1.00  0.00    -0.163 A  
HETATM   40  C   UNL     1      -6.555  18.032  65.916  1.00  0.00    -0.319 A  
HETATM   41  C   UNL     1      -7.894  17.732  65.663  1.00  0.00     0.292 A  
HETATM   42  C   UNL     1      -8.641  17.069  66.635  1.00  0.00    -0.285 A  
HETATM   43  C   UNL     1      -8.085  16.892  67.893  1.00  0.00    -0.191 A  
HETATM   44  C   UNL     1      -9.872  16.274  66.349  1.00  0.00    -0.310 C  
HETATM   45  C   UNL     1      -9.436  14.904  65.740  1.00  0.00    -0.237 C  
ENDBRANCH  27  28
ENDBRANCH  14  24
TORSDOF 3
ENDMDL
MODEL       34
REMARK 921   NORMALIZED FREE ENERGY PREDICTED BY IDOCK:   -6.16 KCAL/MOL
REMARK 922        TOTAL FREE ENERGY PREDICTED BY IDOCK:   -8.31 KCAL/MOL
REMARK 923 INTER-LIGAND FREE ENERGY PREDICTED BY IDOCK:   -7.04 KCAL/MOL
REMARK 924 INTRA-LIGAND FREE ENERGY PREDICTED BY IDOCK:   -1.27 KCAL/MOL
REMARK 927      BINDING AFFINITY PREDICTED BY RF-SCORE:    0.00 PKD
ROOT
HETATM    1  C   UNL     1     -11.060  12.179  68.866  1.00  0.00    -0.243 C  
HETATM    2  C   UNL     1     -11.483  13.566  68.354  1.00  0.00    -0.346 C  
HETATM    3  C   UNL     1     -12.187  14.207  69.599  1.00  0.00    -0.376 C  
HETATM    4  C   UNL     1     -12.278  13.095  70.642  1.00  0.00    -0.321 C  
HETATM    5  N   UNL     1     -12.019  11.880  69.886  1.00  0.00    -0.329 N  
HETATM    6  C   UNL     1     -11.920  10.688  70.555  1.00  0.00    -0.352 C  
HETATM    7  O   UNL     1     -12.788  10.325  71.343  1.00  0.00    -0.368 OA 
HETATM    8  C   UNL     1     -10.685   9.816  70.166  1.00  0.00    -0.289 C  
HETATM    9  N   UNL     1      -9.570  10.611  69.371  1.00  0.00    -0.150 N  
HETATM   10  C   UNL     1      -7.247   8.208  70.008  1.00  0.00    -0.056 C  
HETATM   11  C   UNL     1      -8.432  10.149  68.726  1.00  0.00    -0.131 C  
HETATM   12  C   UNL     1      -8.607   6.391  68.913  1.00  0.00    -0.123 C  
HETATM   13  O   UNL     1      -7.353  10.724  68.750  1.00  0.00    -0.088 OA 
HETATM   14  C   UNL     1      -8.823   8.973  67.861  1.00  0.00    -0.129 C  
HETATM   15  C   UNL     1     -10.218  10.981  68.171  1.00  0.00    -0.182 C  
HETATM   16  O   UNL     1      -9.492  11.680  67.148  1.00  0.00    -0.174 OA 
HETATM   17  H   UNL     1      -8.998  10.978  66.741  1.00  0.00     0.000 HD 
HETATM   18  C   UNL     1      -8.064   7.809  68.735  1.00  0.00    -0.126 C  
HETATM   19  O   UNL     1     -10.305   9.569  67.761  1.00  0.00    -0.208 OA 
ENDROOT
BRANCH   8  20
HETATM   20  C   UNL     1     -10.260   8.989  71.364  1.00  0.00    -0.399 C  
HETATM   21  C   UNL     1     -10.947   7.440  73.181  1.00  0.00    -0.408 C  
HETATM   22  C   UNL     1     -11.311   7.973  71.803  1.00  0.00    -0.318 C  
HETATM   23  C   UNL     1     -11.426   6.809  70.824  1.00  0.00    -0.392 C  
ENDBRANCH   8  20
BRANCH  14  24
HETATM   24  N   UNL     1      -8.700   8.533  66.491  1.00  0.00    -0.126 N  
HETATM   25  H   UNL     1      -9.164   7.651  66.267  1.00  0.00     0.000 HD 
HETATM   26  O   UNL     1      -7.484  10.219  65.532  1.00  0.00    -0.140 OA 
HETATM   27  C   UNL     1      -8.044   9.140  65.451  1.00  0.00    -0.124 C  
BRANCH  27  28
HETATM   28  C   UNL     1      -8.128   8.284  64.181  1.00  0.00    -0.136 C  
HETATM   29  C   UNL     1      -6.853   8.448  63.315  1.00  0.00    -0.089 C  
HETATM   30  N   UNL     1      -5.798   7.460  63.607  1.00  0.00    -0.047 NA 
HETATM   31  C   UNL     1      -5.399   7.458  65.024  1.00  0.00    -0.029 C  
HETATM   32  C   UNL     1      -6.249   6.118  63.128  1.00  0.00    -0.026 C  
HETATM   33  C   UNL     1      -5.382   4.904  63.668  1.00  0.00    -0.010 C  
HETATM   34  C   UNL     1      -6.202   3.824  64.288  1.00  0.00    -0.023 A  
HETATM   35  C   UNL     1      -5.946   2.831  65.203  1.00  0.00    -0.019 A  
HETATM   36  N   UNL     1      -7.106   2.091  65.360  1.00  0.00    -0.050 NA 
HETATM   37  C   UNL     1      -8.106   2.587  64.548  1.00  0.00    -0.082 A  
HETATM   38  H   UNL     1      -7.207   1.293  65.987  1.00  0.00     0.000 HD 
HETATM   39  C   UNL     1      -9.439   2.230  64.327  1.00  0.00    -0.138 A  
HETATM   40  C   UNL     1     -10.177   3.039  63.440  1.00  0.00    -0.178 A  
HETATM   41  C   UNL     1      -9.646   4.214  62.907  1.00  0.00    -0.137 A  
HETATM   42  C   UNL     1      -8.350   4.595  63.249  1.00  0.00    -0.108 A  
HETATM   43  C   UNL     1      -7.562   3.705  63.961  1.00  0.00    -0.075 A  
HETATM   44  C   UNL     1      -7.841   5.997  63.169  1.00  0.00    -0.100 C  
HETATM   45  C   UNL     1      -8.404   6.790  64.391  1.00  0.00     0.105 C  
ENDBRANCH  27  28
ENDBRANCH  14  24
TORSDOF 3
ENDMDL
MODEL       35
REMARK 921   NORMALIZED FREE ENERGY PREDICTED BY IDOCK:   -6.01 KCAL/MOL
REMARK 922        TOTAL FREE ENERGY PREDICTED BY IDOCK:   -8.14 KCAL/MOL
REMARK 923 INTER-LIGAND FREE ENERGY PREDICTED BY IDOCK:   -7.52 KCAL/MOL
REMARK 924 INTRA-LIGAND FREE ENERGY PREDICTED BY IDOCK:   -0.62 KCAL/MOL
REMARK 927      BINDING AFFINITY PREDICTED BY RF-SCORE:    0.00 PKD
ROOT
HETATM    1  C   UNL     1      -6.529  16.379  69.273  1.00  0.00    -0.197 C  
HETATM    2  C   UNL     1      -5.648  16.899  70.421  1.00  0.00    -0.175 C  
HETATM    3  C   UNL     1      -5.270  18.346  69.953  1.00  0.00    -0.208 C  
HETATM    4  C   UNL     1      -5.793  18.469  68.524  1.00  0.00    -0.193 C  
HETATM    5  N   UNL     1      -6.061  17.097  68.126  1.00  0.00    -0.126 N  
HETATM    6  C   UNL     1      -6.653  16.858  66.913  1.00  0.00    -0.214 C  
HETATM    7  O   UNL     1      -6.207  17.347  65.879  1.00  0.00    -0.158 OA 
HETATM    8  C   UNL     1      -7.856  15.864  66.952  1.00  0.00    -0.247 C  
HETATM    9  N   UNL     1      -8.424  15.609  68.407  1.00  0.00    -0.159 N  
HETATM   10  C   UNL     1     -11.320  14.320  67.171  1.00  0.00    -0.352 C  
HETATM   11  C   UNL     1      -9.358  14.684  68.853  1.00  0.00    -0.160 C  
HETATM   12  C   UNL     1     -10.137  12.507  65.879  1.00  0.00    -0.270 C  
HETATM   13  O   UNL     1     -10.217  14.929  69.687  1.00  0.00    -0.187 OA 
HETATM   14  C   UNL     1      -8.987  13.331  68.292  1.00  0.00    -0.176 C  
HETATM   15  C   UNL     1      -7.347  14.992  69.082  1.00  0.00    -0.164 C  
HETATM   16  O   UNL     1      -7.507  14.549  70.438  1.00  0.00    -0.247 OA 
HETATM   17  H   UNL     1      -7.986  13.737  70.326  1.00  0.00     0.000 HD 
HETATM   18  C   UNL     1     -10.243  13.188  67.244  1.00  0.00    -0.243 C  
HETATM   19  O   UNL     1      -7.461  13.805  68.216  1.00  0.00    -0.099 OA 
ENDROOT
BRANCH   8  20
HETATM   20  C   UNL     1      -8.835  16.222  65.851  1.00  0.00    -0.187 C  
HETATM   21  C   UNL     1     -11.025  17.232  65.253  1.00  0.00     0.089 C  
HETATM   22  C   UNL     1      -9.921  17.197  66.299  1.00  0.00    -0.316 C  
HETATM   23  C   UNL     1      -9.375  18.606  66.507  1.00  0.00    -0.323 C  
ENDBRANCH   8  20
BRANCH  14  24
HETATM   24  N   UNL     1      -8.746  11.983  68.752  1.00  0.00    -0.369 N  
HETATM   25  H   UNL     1      -9.184  11.734  69.640  1.00  0.00     0.000 HD 
HETATM   26  O   UNL     1      -7.463  11.106  67.071  1.00  0.00    -0.117 OA 
HETATM   27  C   UNL     1      -8.008  10.993  68.155  1.00  0.00    -0.119 C  
BRANCH  27  28
HETATM   28  C   UNL     1      -7.979   9.734  69.030  1.00  0.00    -0.096 C  
HETATM   29  C   UNL     1      -9.234   9.661  69.938  1.00  0.00    -0.229 C  
HETATM   30  N   UNL     1     -10.361   8.918  69.347  1.00  0.00    -0.210 NA 
HETATM   31  C   UNL     1     -10.769   9.454  68.037  1.00  0.00    -0.190 C  
HETATM   32  C   UNL     1     -10.009   7.466  69.298  1.00  0.00    -0.173 C  
HETATM   33  C   UNL     1     -10.969   6.589  68.388  1.00  0.00    -0.358 C  
HETATM   34  C   UNL     1     -10.236   5.752  67.396  1.00  0.00    -0.243 A  
HETATM   35  C   UNL     1     -10.572   5.175  66.194  1.00  0.00    -0.236 A  
HETATM   36  N   UNL     1      -9.472   4.465  65.744  1.00  0.00    -0.160 NA 
HETATM   37  C   UNL     1      -8.432   4.566  66.646  1.00  0.00    -0.105 A  
HETATM   38  H   UNL     1      -9.435   3.941  64.870  1.00  0.00     0.000 HD 
HETATM   39  C   UNL     1      -7.128   4.063  66.681  1.00  0.00    -0.060 A  
HETATM   40  C   UNL     1      -6.326   4.447  67.773  1.00  0.00    -0.037 A  
HETATM   41  C   UNL     1      -6.764   5.385  68.710  1.00  0.00    -0.053 A  
HETATM   42  C   UNL     1      -8.029   5.951  68.570  1.00  0.00    -0.102 A  
HETATM   43  C   UNL     1      -8.887   5.432  67.613  1.00  0.00    -0.105 A  
HETATM   44  C   UNL     1      -8.432   7.261  69.163  1.00  0.00    -0.133 C  
HETATM   45  C   UNL     1      -7.818   8.400  68.289  1.00  0.00    -0.110 C  
ENDBRANCH  27  28
ENDBRANCH  14  24
TORSDOF 3
ENDMDL
MODEL       36
REMARK 921   NORMALIZED FREE ENERGY PREDICTED BY IDOCK:   -6.01 KCAL/MOL
REMARK 922        TOTAL FREE ENERGY PREDICTED BY IDOCK:   -8.13 KCAL/MOL
REMARK 923 INTER-LIGAND FREE ENERGY PREDICTED BY IDOCK:   -8.45 KCAL/MOL
REMARK 924 INTRA-LIGAND FREE ENERGY PREDICTED BY IDOCK:    0.32 KCAL/MOL
REMARK 927      BINDING AFFINITY PREDICTED BY RF-SCORE:    0.00 PKD
ROOT
HETATM    1  C   UNL     1     -11.221  13.199  66.378  1.00  0.00    -0.300 C  
HETATM    2  C   UNL     1     -12.598  13.227  65.693  1.00  0.00    -0.469 C  
HETATM    3  C   UNL     1     -12.478  14.436  64.702  1.00  0.00    -0.364 C  
HETATM    4  C   UNL     1     -11.144  15.106  65.025  1.00  0.00    -0.419 C  
HETATM    5  N   UNL     1     -10.778  14.559  66.321  1.00  0.00    -0.303 N  
HETATM    6  C   UNL     1      -9.559  14.878  66.859  1.00  0.00    -0.245 C  
HETATM    7  O   UNL     1      -9.190  16.045  66.955  1.00  0.00    -0.206 OA 
HETATM    8  C   UNL     1      -8.744  13.665  67.407  1.00  0.00    -0.213 C  
HETATM    9  N   UNL     1      -9.278  12.261  66.908  1.00  0.00    -0.204 N  
HETATM   10  C   UNL     1      -6.374  10.719  67.783  1.00  0.00    -0.058 C  
HETATM   11  C   UNL     1      -8.927  10.979  67.304  1.00  0.00    -0.138 C  
HETATM   12  C   UNL     1      -6.557  11.417  70.198  1.00  0.00     0.044 C  
HETATM   13  O   UNL     1      -8.803  10.037  66.534  1.00  0.00    -0.137 OA 
HETATM   14  C   UNL     1      -8.938  10.930  68.814  1.00  0.00    -0.164 C  
HETATM   15  C   UNL     1     -10.575  12.182  67.463  1.00  0.00    -0.214 C  
HETATM   16  O   UNL     1     -11.368  10.999  67.274  1.00  0.00    -0.408 OA 
HETATM   17  H   UNL     1     -10.990  10.404  67.909  1.00  0.00     0.000 HD 
HETATM   18  C   UNL     1      -7.316  10.788  69.030  1.00  0.00    -0.109 C  
HETATM   19  O   UNL     1     -10.009  12.119  68.822  1.00  0.00    -0.165 OA 
ENDROOT
BRANCH   8  20
HETATM   20  C   UNL     1      -7.262  13.957  67.275  1.00  0.00     0.019 C  
HETATM   21  C   UNL     1      -5.438  15.632  67.481  1.00  0.00    -0.051 C  
HETATM   22  C   UNL     1      -6.839  15.261  67.945  1.00  0.00    -0.167 C  
HETATM   23  C   UNL     1      -6.856  15.155  69.466  1.00  0.00    -0.179 C  
ENDBRANCH   8  20
BRANCH  14  24
HETATM   24  N   UNL     1      -9.514  10.145  69.881  1.00  0.00    -0.387 N  
HETATM   25  H   UNL     1      -8.876   9.501  70.349  1.00  0.00     0.000 HD 
HETATM   26  O   UNL     1     -11.677  10.894  69.937  1.00  0.00    -0.277 OA 
HETATM   27  C   UNL     1     -10.803  10.151  70.348  1.00  0.00    -0.301 C  
BRANCH  27  28
HETATM   28  C   UNL     1     -10.982   9.110  71.461  1.00  0.00    -0.434 C  
HETATM   29  C   UNL     1     -12.137   8.131  71.125  1.00  0.00    -0.260 C  
HETATM   30  N   UNL     1     -11.706   6.919  70.406  1.00  0.00    -0.342 NA 
HETATM   31  C   UNL     1     -10.982   7.224  69.161  1.00  0.00    -0.068 C  
HETATM   32  C   UNL     1     -10.919   6.057  71.341  1.00  0.00    -0.276 C  
HETATM   33  C   UNL     1     -10.108   4.892  70.634  1.00  0.00    -0.306 C  
HETATM   34  C   UNL     1      -8.668   4.859  71.019  1.00  0.00    -0.143 A  
HETATM   35  C   UNL     1      -7.530   4.358  70.433  1.00  0.00    -0.049 A  
HETATM   36  N   UNL     1      -6.473   4.590  71.298  1.00  0.00    -0.019 NA 
HETATM   37  C   UNL     1      -6.916   5.224  72.441  1.00  0.00    -0.080 A  
HETATM   38  H   UNL     1      -5.504   4.329  71.115  1.00  0.00     0.000 HD 
HETATM   39  C   UNL     1      -6.284   5.682  73.600  1.00  0.00    -0.062 A  
HETATM   40  C   UNL     1      -7.089   6.351  74.543  1.00  0.00    -0.089 A  
HETATM   41  C   UNL     1      -8.425   6.658  74.279  1.00  0.00    -0.157 A  
HETATM   42  C   UNL     1      -8.983   6.285  73.058  1.00  0.00    -0.130 A  
HETATM   43  C   UNL     1      -8.252   5.461  72.217  1.00  0.00    -0.115 A  
HETATM   44  C   UNL     1     -10.181   6.938  72.450  1.00  0.00    -0.208 C  
HETATM   45  C   UNL     1      -9.733   8.302  71.837  1.00  0.00    -0.299 C  
ENDBRANCH  27  28
ENDBRANCH  14  24
TORSDOF 3
ENDMDL
MODEL       37
REMARK 921   NORMALIZED FREE ENERGY PREDICTED BY IDOCK:   -5.88 KCAL/MOL
REMARK 922        TOTAL FREE ENERGY PREDICTED BY IDOCK:   -7.98 KCAL/MOL
REMARK 923 INTER-LIGAND FREE ENERGY PREDICTED BY IDOCK:   -6.74 KCAL/MOL
REMARK 924 INTRA-LIGAND FREE ENERGY PREDICTED BY IDOCK:   -1.24 KCAL/MOL
REMARK 927      BINDING AFFINITY PREDICTED BY RF-SCORE:    0.00 PKD
ROOT
HETATM    1  C   UNL     1      -9.118   3.862  68.166  1.00  0.00    -0.142 C  
HETATM    2  C   UNL     1      -9.361   2.900  66.991  1.00  0.00    -0.132 C  
HETATM    3  C   UNL     1      -9.173   1.486  67.643  1.00  0.00    -0.165 C  
HETATM    4  C   UNL     1      -8.665   1.748  69.059  1.00  0.00    -0.067 C  
HETATM    5  N   UNL     1      -8.238   3.137  69.031  1.00  0.00    -0.059 N  
HETATM    6  C   UNL     1      -7.822   3.729  70.195  1.00  0.00    -0.047 C  
HETATM    7  O   UNL     1      -6.967   3.208  70.906  1.00  0.00    -0.032 OA 
HETATM    8  C   UNL     1      -8.447   5.131  70.480  1.00  0.00    -0.111 C  
HETATM    9  N   UNL     1      -9.722   5.451  69.597  1.00  0.00    -0.162 N  
HETATM   10  C   UNL     1     -10.668   7.971  71.678  1.00  0.00    -0.284 C  
HETATM   11  C   UNL     1     -10.432   6.633  69.449  1.00  0.00    -0.219 C  
HETATM   12  C   UNL     1      -8.506   9.231  71.378  1.00  0.00     0.108 C  
HETATM   13  O   UNL     1     -11.651   6.692  69.372  1.00  0.00    -0.274 OA 
HETATM   14  C   UNL     1      -9.446   7.750  69.200  1.00  0.00    -0.151 C  
HETATM   15  C   UNL     1      -9.215   5.477  68.278  1.00  0.00    -0.109 C  
HETATM   16  O   UNL     1     -10.082   5.801  67.181  1.00  0.00    -0.144 OA 
HETATM   17  H   UNL     1     -10.139   6.747  67.246  1.00  0.00     0.000 HD 
HETATM   18  C   UNL     1      -9.639   8.523  70.637  1.00  0.00    -0.203 C  
HETATM   19  O   UNL     1      -8.425   6.682  68.586  1.00  0.00    -0.122 OA 
ENDROOT
BRANCH   8  20
HETATM   20  C   UNL     1      -8.541   5.341  71.978  1.00  0.00    -0.130 C  
HETATM   21  C   UNL     1      -9.995   5.391  73.992  1.00  0.00    -0.213 C  
HETATM   22  C   UNL     1      -9.853   4.845  72.579  1.00  0.00    -0.202 C  
HETATM   23  C   UNL     1      -9.928   3.322  72.615  1.00  0.00    -0.221 C  
ENDBRANCH   8  20
BRANCH  14  24
HETATM   24  N   UNL     1      -9.209   8.811  68.249  1.00  0.00    -0.140 N  
HETATM   25  H   UNL     1      -8.400   9.403  68.440  1.00  0.00     0.000 HD 
HETATM   26  O   UNL     1     -10.886   8.496  66.723  1.00  0.00    -0.153 OA 
HETATM   27  C   UNL     1      -9.926   9.129  67.124  1.00  0.00    -0.218 C  
BRANCH  27  28
HETATM   28  C   UNL     1      -9.343  10.373  66.442  1.00  0.00    -0.197 C  
HETATM   29  C   UNL     1     -10.334  10.950  65.398  1.00  0.00    -0.261 C  
HETATM   30  N   UNL     1     -11.240  11.980  65.936  1.00  0.00    -0.329 NA 
HETATM   31  C   UNL     1     -12.014  11.506  67.096  1.00  0.00     0.313 C  
HETATM   32  C   UNL     1     -10.448  13.214  66.230  1.00  0.00    -0.285 C  
HETATM   33  C   UNL     1     -11.208  14.284  67.121  1.00  0.00    -0.333 C  
HETATM   34  C   UNL     1     -10.420  14.731  68.305  1.00  0.00    -0.241 A  
HETATM   35  C   UNL     1     -10.747  15.282  69.521  1.00  0.00    -0.265 A  
HETATM   36  N   UNL     1      -9.567  15.530  70.203  1.00  0.00    -0.247 NA 
HETATM   37  C   UNL     1      -8.481  15.156  69.437  1.00  0.00    -0.190 A  
HETATM   38  H   UNL     1      -9.509  15.932  71.138  1.00  0.00     0.000 HD 
HETATM   39  C   UNL     1      -7.098  15.182  69.641  1.00  0.00    -0.193 A  
HETATM   40  C   UNL     1      -6.294  14.643  68.619  1.00  0.00    -0.082 A  
HETATM   41  C   UNL     1      -6.849  13.996  67.513  1.00  0.00    -0.150 A  
HETATM   42  C   UNL     1      -8.234  13.889  67.409  1.00  0.00    -0.198 A  
HETATM   43  C   UNL     1      -9.024  14.586  68.310  1.00  0.00    -0.184 A  
HETATM   44  C   UNL     1      -8.936  12.853  66.594  1.00  0.00    -0.141 C  
HETATM   45  C   UNL     1      -8.883  11.501  67.375  1.00  0.00    -0.157 C  
ENDBRANCH  27  28
ENDBRANCH  14  24
TORSDOF 3
ENDMDL
MODEL       38
REMARK 921   NORMALIZED FREE ENERGY PREDICTED BY IDOCK:   -5.82 KCAL/MOL
REMARK 922        TOTAL FREE ENERGY PREDICTED BY IDOCK:   -7.91 KCAL/MOL
REMARK 923 INTER-LIGAND FREE ENERGY PREDICTED BY IDOCK:   -6.59 KCAL/MOL
REMARK 924 INTRA-LIGAND FREE ENERGY PREDICTED BY IDOCK:   -1.32 KCAL/MOL
REMARK 927      BINDING AFFINITY PREDICTED BY RF-SCORE:    0.00 PKD
ROOT
HETATM    1  C   UNL     1     -10.943  11.819  64.563  1.00  0.00    -0.324 C  
HETATM    2  C   UNL     1     -11.669  12.072  63.231  1.00  0.00    -0.425 C  
HETATM    3  C   UNL     1     -12.132  13.564  63.355  1.00  0.00    -0.351 C  
HETATM    4  C   UNL     1     -11.809  13.980  64.789  1.00  0.00    -0.403 C  
HETATM    5  N   UNL     1     -11.573  12.722  65.478  1.00  0.00    -0.343 N  
HETATM    6  C   UNL     1     -11.146  12.745  66.780  1.00  0.00    -0.277 C  
HETATM    7  O   UNL     1     -11.736  13.401  67.633  1.00  0.00    -0.318 OA 
HETATM    8  C   UNL     1      -9.932  11.814  67.091  1.00  0.00    -0.203 C  
HETATM    9  N   UNL     1      -9.168  11.311  65.799  1.00  0.00    -0.217 N  
HETATM   10  C   UNL     1      -6.444  10.408  67.626  1.00  0.00    -0.058 C  
HETATM   11  C   UNL     1      -8.167  10.359  65.667  1.00  0.00    -0.158 C  
HETATM   12  C   UNL     1      -7.759   8.825  69.082  1.00  0.00    -0.093 C  
HETATM   13  O   UNL     1      -7.208  10.477  64.918  1.00  0.00    -0.089 OA 
HETATM   14  C   UNL     1      -8.587   9.123  66.427  1.00  0.00    -0.125 C  
HETATM   15  C   UNL     1     -10.134  10.530  65.125  1.00  0.00    -0.314 C  
HETATM   16  O   UNL     1      -9.785   9.844  63.912  1.00  0.00    -0.429 OA 
HETATM   17  H   UNL     1      -9.311   9.090  64.241  1.00  0.00     0.000 HD 
HETATM   18  C   UNL     1      -7.481   9.237  67.637  1.00  0.00    -0.088 C  
HETATM   19  O   UNL     1     -10.117   9.537  66.212  1.00  0.00    -0.269 OA 
ENDROOT
BRANCH   8  20
HETATM   20  C   UNL     1      -9.116  12.417  68.218  1.00  0.00    -0.183 C  
HETATM   21  C   UNL     1      -7.104  13.719  68.873  1.00  0.00    -0.107 C  
HETATM   22  C   UNL     1      -8.078  13.429  67.740  1.00  0.00    -0.173 C  
HETATM   23  C   UNL     1      -8.718  14.732  67.277  1.00  0.00    -0.226 C  
ENDBRANCH   8  20
BRANCH  14  24
HETATM   24  N   UNL     1      -8.740   7.703  66.212  1.00  0.00    -0.146 N  
HETATM   25  H   UNL     1      -9.149   7.180  66.987  1.00  0.00     0.000 HD 
HETATM   26  O   UNL     1      -7.959   7.437  64.076  1.00  0.00    -0.136 OA 
HETATM   27  C   UNL     1      -8.408   6.964  65.105  1.00  0.00    -0.076 C  
BRANCH  27  28
HETATM   28  C   UNL     1      -8.696   5.475  65.339  1.00  0.00    -0.148 C  
HETATM   29  C   UNL     1      -7.827   4.589  64.411  1.00  0.00    -0.086 C  
HETATM   30  N   UNL     1      -6.543   4.175  65.004  1.00  0.00    -0.046 NA 
HETATM   31  C   UNL     1      -5.728   5.319  65.448  1.00  0.00    -0.014 C  
HETATM   32  C   UNL     1      -6.812   3.193  66.099  1.00  0.00    -0.052 C  
HETATM   33  C   UNL     1      -5.572   2.915  67.049  1.00  0.00    -0.021 C  
HETATM   34  C   UNL     1      -5.895   3.066  68.497  1.00  0.00    -0.023 A  
HETATM   35  C   UNL     1      -5.150   3.325  69.623  1.00  0.00    -0.004 A  
HETATM   36  N   UNL     1      -6.007   3.305  70.711  1.00  0.00    -0.017 NA 
HETATM   37  C   UNL     1      -7.296   3.025  70.302  1.00  0.00    -0.040 A  
HETATM   38  H   UNL     1      -5.726   3.472  71.676  1.00  0.00     0.000 HD 
HETATM   39  C   UNL     1      -8.517   2.896  70.971  1.00  0.00    -0.096 A  
HETATM   40  C   UNL     1      -9.656   2.658  70.177  1.00  0.00    -0.098 A  
HETATM   41  C   UNL     1      -9.594   2.677  68.782  1.00  0.00    -0.070 A  
HETATM   42  C   UNL     1      -8.376   2.928  68.156  1.00  0.00    -0.095 A  
HETATM   43  C   UNL     1      -7.226   2.968  68.930  1.00  0.00    -0.048 A  
HETATM   44  C   UNL     1      -8.241   3.449  66.763  1.00  0.00    -0.095 C  
HETATM   45  C   UNL     1      -8.553   4.980  66.784  1.00  0.00    -0.109 C  
ENDBRANCH  27  28
ENDBRANCH  14  24
TORSDOF 3
ENDMDL
MODEL       39
REMARK 921   NORMALIZED FREE ENERGY PREDICTED BY IDOCK:   -5.81 KCAL/MOL
REMARK 922        TOTAL FREE ENERGY PREDICTED BY IDOCK:   -7.89 KCAL/MOL
REMARK 923 INTER-LIGAND FREE ENERGY PREDICTED BY IDOCK:   -6.93 KCAL/MOL
REMARK 924 INTRA-LIGAND FREE ENERGY PREDICTED BY IDOCK:   -0.96 KCAL/MOL
REMARK 927      BINDING AFFINITY PREDICTED BY RF-SCORE:    0.00 PKD
ROOT
HETATM    1  C   UNL     1      -8.609   4.800  66.705  1.00  0.00    -0.108 C  
HETATM    2  C   UNL     1      -9.105   3.961  65.516  1.00  0.00    -0.143 C  
HETATM    3  C   UNL     1      -8.778   2.492  65.954  1.00  0.00    -0.125 C  
HETATM    4  C   UNL     1      -7.969   2.615  67.244  1.00  0.00    -0.070 C  
HETATM    5  N   UNL     1      -7.559   4.009  67.273  1.00  0.00    -0.072 N  
HETATM    6  C   UNL     1      -6.896   4.486  68.373  1.00  0.00    -0.051 C  
HETATM    7  O   UNL     1      -5.905   3.913  68.818  1.00  0.00    -0.021 OA 
HETATM    8  C   UNL     1      -7.443   5.834  68.938  1.00  0.00    -0.085 C  
HETATM    9  N   UNL     1      -8.881   6.215  68.397  1.00  0.00    -0.114 N  
HETATM   10  C   UNL     1      -9.345   8.478  70.894  1.00  0.00    -0.214 C  
HETATM   11  C   UNL     1      -9.607   7.388  68.537  1.00  0.00    -0.146 C  
HETATM   12  C   UNL     1      -7.302   9.814  70.265  1.00  0.00    -0.165 C  
HETATM   13  O   UNL     1     -10.813   7.425  68.736  1.00  0.00    -0.155 OA 
HETATM   14  C   UNL     1      -8.700   8.549  68.200  1.00  0.00    -0.142 C  
HETATM   15  C   UNL     1      -8.678   6.391  67.009  1.00  0.00    -0.115 C  
HETATM   16  O   UNL     1      -9.767   6.809  66.171  1.00  0.00    -0.388 OA 
HETATM   17  H   UNL     1      -9.808   7.741  66.349  1.00  0.00     0.000 HD 
HETATM   18  C   UNL     1      -8.571   9.161  69.718  1.00  0.00    -0.144 C  
HETATM   19  O   UNL     1      -7.841   7.576  67.264  1.00  0.00    -0.113 OA 
ENDROOT
BRANCH   8  20
HETATM   20  C   UNL     1      -7.203   5.883  70.434  1.00  0.00    -0.072 C  
HETATM   21  C   UNL     1      -8.167   5.644  72.712  1.00  0.00    -0.112 C  
HETATM   22  C   UNL     1      -8.331   5.255  71.249  1.00  0.00    -0.123 C  
HETATM   23  C   UNL     1      -8.347   3.735  71.129  1.00  0.00    -0.085 C  
ENDBRANCH   8  20
BRANCH  14  24
HETATM   24  N   UNL     1      -8.679   9.709  67.340  1.00  0.00    -0.128 N  
HETATM   25  H   UNL     1      -7.912  10.363  67.499  1.00  0.00     0.000 HD 
HETATM   26  O   UNL     1     -10.491   9.358  65.986  1.00  0.00    -0.132 OA 
HETATM   27  C   UNL     1      -9.553  10.050  66.339  1.00  0.00    -0.196 C  
BRANCH  27  28
HETATM   28  C   UNL     1      -9.174  11.404  65.725  1.00  0.00    -0.223 C  
HETATM   29  C   UNL     1     -10.208  11.836  64.654  1.00  0.00    -0.284 C  
HETATM   30  N   UNL     1     -11.307  12.666  65.180  1.00  0.00    -0.299 NA 
HETATM   31  C   UNL     1     -12.031  12.017  66.285  1.00  0.00    -0.015 C  
HETATM   32  C   UNL     1     -10.762  14.009  65.550  1.00  0.00    -0.313 C  
HETATM   33  C   UNL     1     -11.739  14.891  66.436  1.00  0.00    -0.193 C  
HETATM   34  C   UNL     1     -11.094  15.423  67.671  1.00  0.00    -0.316 A  
HETATM   35  C   UNL     1     -11.565  15.859  68.886  1.00  0.00    -0.388 A  
HETATM   36  N   UNL     1     -10.478  16.286  69.632  1.00  0.00    -0.297 NA 
HETATM   37  C   UNL     1      -9.312  16.142  68.908  1.00  0.00    -0.235 A  
HETATM   38  H   UNL     1     -10.533  16.654  70.581  1.00  0.00     0.000 HD 
HETATM   39  C   UNL     1      -7.966  16.405  69.179  1.00  0.00    -0.204 A  
HETATM   40  C   UNL     1      -7.035  16.058  68.180  1.00  0.00    -0.129 A  
HETATM   41  C   UNL     1      -7.419  15.368  67.029  1.00  0.00    -0.166 A  
HETATM   42  C   UNL     1      -8.757  15.020  66.855  1.00  0.00    -0.285 A  
HETATM   43  C   UNL     1      -9.696  15.529  67.738  1.00  0.00    -0.211 A  
HETATM   44  C   UNL     1      -9.226  13.909  65.975  1.00  0.00     0.045 C  
HETATM   45  C   UNL     1      -8.964  12.558  66.714  1.00  0.00    -0.198 C  
ENDBRANCH  27  28
ENDBRANCH  14  24
TORSDOF 3
ENDMDL
MODEL       40
REMARK 921   NORMALIZED FREE ENERGY PREDICTED BY IDOCK:   -5.71 KCAL/MOL
REMARK 922        TOTAL FREE ENERGY PREDICTED BY IDOCK:   -7.77 KCAL/MOL
REMARK 923 INTER-LIGAND FREE ENERGY PREDICTED BY IDOCK:   -6.61 KCAL/MOL
REMARK 924 INTRA-LIGAND FREE ENERGY PREDICTED BY IDOCK:   -1.16 KCAL/MOL
REMARK 927      BINDING AFFINITY PREDICTED BY RF-SCORE:    0.00 PKD
ROOT
HETATM    1  C   UNL     1     -10.848  14.701  68.675  1.00  0.00    -0.255 C  
HETATM    2  C   UNL     1     -11.536  15.906  69.337  1.00  0.00    -0.352 C  
HETATM    3  C   UNL     1     -11.269  17.071  68.323  1.00  0.00    -0.038 C  
HETATM    4  C   UNL     1     -10.311  16.500  67.279  1.00  0.00    -0.296 C  
HETATM    5  N   UNL     1      -9.800  15.286  67.894  1.00  0.00    -0.216 N  
HETATM    6  C   UNL     1      -8.984  14.463  67.165  1.00  0.00    -0.232 C  
HETATM    7  O   UNL     1      -7.992  14.898  66.585  1.00  0.00    -0.022 OA 
HETATM    8  C   UNL     1      -9.363  12.949  67.212  1.00  0.00    -0.212 C  
HETATM    9  N   UNL     1     -10.822  12.676  67.761  1.00  0.00    -0.216 N  
HETATM   10  C   UNL     1     -10.832   9.522  66.485  1.00  0.00     0.102 C  
HETATM   11  C   UNL     1     -11.441  11.481  68.099  1.00  0.00    -0.315 C  
HETATM   12  C   UNL     1      -8.783   8.831  67.780  1.00  0.00    -0.136 C  
HETATM   13  O   UNL     1     -12.610  11.223  67.851  1.00  0.00     0.376 OA 
HETATM   14  C   UNL     1     -10.496  10.691  68.975  1.00  0.00    -0.214 C  
HETATM   15  C   UNL     1     -10.767  13.137  69.096  1.00  0.00    -0.030 C  
HETATM   16  O   UNL     1     -11.911  12.998  69.953  1.00  0.00    -0.320 OA 
HETATM   17  H   UNL     1     -11.864  12.082  70.199  1.00  0.00     0.000 HD 
HETATM   18  C   UNL     1     -10.150   9.505  67.893  1.00  0.00    -0.234 C  
HETATM   19  O   UNL     1      -9.822  12.063  69.447  1.00  0.00     0.362 OA 
ENDROOT
BRANCH   8  20
HETATM   20  C   UNL     1      -8.951  12.290  65.910  1.00  0.00     0.135 C  
HETATM   21  C   UNL     1      -9.680  11.178  63.811  1.00  0.00    -0.338 C  
HETATM   22  C   UNL     1     -10.103  12.129  64.921  1.00  0.00    -0.280 C  
HETATM   23  C   UNL     1     -10.525  13.462  64.311  1.00  0.00    -0.325 C  
ENDBRANCH   8  20
BRANCH  14  24
HETATM   24  N   UNL     1     -10.489  10.023  70.256  1.00  0.00    -0.326 N  
HETATM   25  H   UNL     1      -9.599   9.608  70.533  1.00  0.00     0.000 HD 
HETATM   26  O   UNL     1     -12.630  10.349  70.999  1.00  0.00    -0.329 OA 
HETATM   27  C   UNL     1     -11.520   9.872  71.149  1.00  0.00    -0.383 C  
BRANCH  27  28
HETATM   28  C   UNL     1     -11.073   9.041  72.358  1.00  0.00     0.037 C  
HETATM   29  C   UNL     1     -11.988   7.804  72.549  1.00  0.00    -0.253 C  
HETATM   30  N   UNL     1     -11.511   6.592  71.858  1.00  0.00    -0.276 NA 
HETATM   31  C   UNL     1     -11.313   6.802  70.414  1.00  0.00    -0.347 C  
HETATM   32  C   UNL     1     -10.281   6.096  72.548  1.00  0.00    -0.185 C  
HETATM   33  C   UNL     1      -9.464   5.009  71.730  1.00  0.00    -0.194 C  
HETATM   34  C   UNL     1      -8.016   5.340  71.594  1.00  0.00    -0.115 A  
HETATM   35  C   UNL     1      -7.031   4.981  70.707  1.00  0.00    -0.048 A  
HETATM   36  N   UNL     1      -5.851   5.577  71.121  1.00  0.00    -0.023 NA 
HETATM   37  C   UNL     1      -6.061   6.308  72.273  1.00  0.00    -0.038 A  
HETATM   38  H   UNL     1      -4.955   5.489  70.643  1.00  0.00     0.000 HD 
HETATM   39  C   UNL     1      -5.236   7.091  73.086  1.00  0.00    -0.038 A  
HETATM   40  C   UNL     1      -5.849   7.746  74.173  1.00  0.00    -0.073 A  
HETATM   41  C   UNL     1      -7.232   7.721  74.358  1.00  0.00    -0.166 A  
HETATM   42  C   UNL     1      -8.030   7.024  73.453  1.00  0.00    -0.111 A  
HETATM   43  C   UNL     1      -7.414   6.224  72.503  1.00  0.00    -0.093 A  
HETATM   44  C   UNL     1      -9.482   7.297  73.232  1.00  0.00    -0.240 C  
HETATM   45  C   UNL     1      -9.607   8.587  72.361  1.00  0.00    -0.356 C  
ENDBRANCH  27  28
ENDBRANCH  14  24
TORSDOF 3
ENDMDL
MODEL       41
REMARK 921   NORMALIZED FREE ENERGY PREDICTED BY IDOCK:   -5.70 KCAL/MOL
REMARK 922        TOTAL FREE ENERGY PREDICTED BY IDOCK:   -7.77 KCAL/MOL
REMARK 923 INTER-LIGAND FREE ENERGY PREDICTED BY IDOCK:   -6.93 KCAL/MOL
REMARK 924 INTRA-LIGAND FREE ENERGY PREDICTED BY IDOCK:   -0.84 KCAL/MOL
REMARK 927      BINDING AFFINITY PREDICTED BY RF-SCORE:    0.00 PKD
ROOT
HETATM    1  C   UNL     1     -10.103  14.457  68.610  1.00  0.00    -0.242 C  
HETATM    2  C   UNL     1     -10.243  15.063  70.017  1.00  0.00    -0.059 C  
HETATM    3  C   UNL     1     -10.778  16.508  69.731  1.00  0.00    -0.298 C  
HETATM    4  C   UNL     1     -10.725  16.677  68.214  1.00  0.00    -0.351 C  
HETATM    5  N   UNL     1      -9.870  15.590  67.767  1.00  0.00    -0.213 N  
HETATM    6  C   UNL     1      -9.699  15.386  66.422  1.00  0.00    -0.288 C  
HETATM    7  O   UNL     1      -9.367  16.303  65.676  1.00  0.00    -0.457 OA 
HETATM    8  C   UNL     1      -9.870  13.907  65.953  1.00  0.00    -0.267 C  
HETATM    9  N   UNL     1     -10.580  12.979  67.021  1.00  0.00    -0.256 N  
HETATM   10  C   UNL     1     -11.264  10.613  64.673  1.00  0.00     0.807 C  
HETATM   11  C   UNL     1     -10.753  11.603  67.034  1.00  0.00    -0.253 C  
HETATM   12  C   UNL     1      -8.838  10.304  64.062  1.00  0.00    -0.237 C  
HETATM   13  O   UNL     1     -11.777  11.047  67.406  1.00  0.00    -0.539 OA 
HETATM   14  C   UNL     1      -9.425  10.956  66.718  1.00  0.00    -0.177 C  
HETATM   15  C   UNL     1      -9.679  12.974  68.109  1.00  0.00    -0.228 C  
HETATM   16  O   UNL     1      -9.957  12.175  69.270  1.00  0.00    -0.386 OA 
HETATM   17  H   UNL     1      -9.709  11.307  68.977  1.00  0.00     0.000 HD 
HETATM   18  C   UNL     1      -9.821  10.383  65.231  1.00  0.00    -0.361 C  
HETATM   19  O   UNL     1      -8.683  12.247  67.304  1.00  0.00    -0.172 OA 
ENDROOT
BRANCH   8  20
HETATM   20  C   UNL     1     -10.390  13.892  64.529  1.00  0.00    -0.260 C  
HETATM   21  C   UNL     1     -12.305  13.443  63.011  1.00  0.00     0.156 C  
HETATM   22  C   UNL     1     -11.910  13.786  64.441  1.00  0.00    -0.458 C  
HETATM   23  C   UNL     1     -12.600  15.080  64.859  1.00  0.00     0.094 C  
ENDBRANCH   8  20
BRANCH  14  24
HETATM   24  N   UNL     1      -8.535   9.958  67.264  1.00  0.00    -0.121 N  
HETATM   25  H   UNL     1      -8.961   9.289  67.905  1.00  0.00     0.000 HD 
HETATM   26  O   UNL     1      -6.541  10.467  66.260  1.00  0.00    -0.101 OA 
HETATM   27  C   UNL     1      -7.193   9.790  67.035  1.00  0.00    -0.090 C  
BRANCH  27  28
HETATM   28  C   UNL     1      -6.639   8.631  67.873  1.00  0.00    -0.061 C  
HETATM   29  C   UNL     1      -5.473   9.106  68.776  1.00  0.00    -0.037 C  
HETATM   30  N   UNL     1      -5.893   9.545  70.119  1.00  0.00    -0.039 NA 
HETATM   31  C   UNL     1      -6.908  10.610  70.077  1.00  0.00    -0.148 C  
HETATM   32  C   UNL     1      -6.335   8.349  70.900  1.00  0.00    -0.038 C  
HETATM   33  C   UNL     1      -7.127   8.692  72.232  1.00  0.00    -0.044 C  
HETATM   34  C   UNL     1      -8.429   7.974  72.344  1.00  0.00    -0.211 A  
HETATM   35  C   UNL     1      -9.595   8.205  73.034  1.00  0.00    -0.266 A  
HETATM   36  N   UNL     1     -10.455   7.150  72.776  1.00  0.00    -0.222 NA 
HETATM   37  C   UNL     1      -9.854   6.234  71.937  1.00  0.00    -0.155 A  
HETATM   38  H   UNL     1     -11.398   7.063  73.154  1.00  0.00     0.000 HD 
HETATM   39  C   UNL     1     -10.266   5.024  71.372  1.00  0.00    -0.270 A  
HETATM   40  C   UNL     1      -9.364   4.391  70.493  1.00  0.00    -0.213 A  
HETATM   41  C   UNL     1      -8.170   5.002  70.104  1.00  0.00    -0.081 A  
HETATM   42  C   UNL     1      -7.854   6.263  70.602  1.00  0.00    -0.107 A  
HETATM   43  C   UNL     1      -8.642   6.797  71.610  1.00  0.00    -0.125 A  
HETATM   44  C   UNL     1      -6.915   7.216  69.937  1.00  0.00    -0.057 C  
HETATM   45  C   UNL     1      -7.660   7.871  68.730  1.00  0.00    -0.100 C  
ENDBRANCH  27  28
ENDBRANCH  14  24
TORSDOF 3
ENDMDL
MODEL       42
REMARK 921   NORMALIZED FREE ENERGY PREDICTED BY IDOCK:   -5.68 KCAL/MOL
REMARK 922        TOTAL FREE ENERGY PREDICTED BY IDOCK:   -7.75 KCAL/MOL
REMARK 923 INTER-LIGAND FREE ENERGY PREDICTED BY IDOCK:   -6.71 KCAL/MOL
REMARK 924 INTRA-LIGAND FREE ENERGY PREDICTED BY IDOCK:   -1.04 KCAL/MOL
REMARK 927      BINDING AFFINITY PREDICTED BY RF-SCORE:    0.00 PKD
ROOT
HETATM    1  C   UNL     1     -10.445  14.355  66.148  1.00  0.00    -0.291 C  
HETATM    2  C   UNL     1     -11.557  13.981  65.154  1.00  0.00    -0.344 C  
HETATM    3  C   UNL     1     -11.858  15.337  64.428  1.00  0.00    -0.288 C  
HETATM    4  C   UNL     1     -11.049  16.395  65.176  1.00  0.00    -0.170 C  
HETATM    5  N   UNL     1     -10.675  15.742  66.419  1.00  0.00    -0.303 N  
HETATM    6  C   UNL     1      -9.838  16.391  67.288  1.00  0.00    -0.245 C  
HETATM    7  O   UNL     1     -10.067  17.540  67.656  1.00  0.00    -0.301 OA 
HETATM    8  C   UNL     1      -8.650  15.532  67.824  1.00  0.00    -0.152 C  
HETATM    9  N   UNL     1      -8.395  14.209  66.992  1.00  0.00    -0.164 N  
HETATM   10  C   UNL     1      -5.279  13.849  68.310  1.00  0.00    -0.110 C  
HETATM   11  C   UNL     1      -7.557  13.135  67.255  1.00  0.00    -0.080 C  
HETATM   12  C   UNL     1      -6.129  13.772  70.682  1.00  0.00    -0.107 C  
HETATM   13  O   UNL     1      -6.897  12.559  66.403  1.00  0.00     0.485 OA 
HETATM   14  C   UNL     1      -7.775  12.706  68.688  1.00  0.00    -0.066 C  
HETATM   15  C   UNL     1      -9.577  13.460  67.186  1.00  0.00    -0.241 C  
HETATM   16  O   UNL     1      -9.697  12.146  66.620  1.00  0.00    -0.208 OA 
HETATM   17  H   UNL     1      -9.189  11.622  67.228  1.00  0.00     0.000 HD 
HETATM   18  C   UNL     1      -6.324  13.202  69.277  1.00  0.00    -0.106 C  
HETATM   19  O   UNL     1      -9.261  13.297  68.615  1.00  0.00    -0.115 OA 
ENDROOT
BRANCH   8  20
HETATM   20  C   UNL     1      -7.469  16.437  68.114  1.00  0.00    -0.152 C  
HETATM   21  C   UNL     1      -5.241  17.260  67.384  1.00  0.00    -0.145 C  
HETATM   22  C   UNL     1      -6.545  16.629  66.915  1.00  0.00    -0.242 C  
HETATM   23  C   UNL     1      -7.175  17.510  65.841  1.00  0.00    -0.195 C  
ENDBRANCH   8  20
BRANCH  14  24
HETATM   24  N   UNL     1      -8.080  11.511  69.439  1.00  0.00    -0.324 N  
HETATM   25  H   UNL     1      -8.836  11.598  70.119  1.00  0.00     0.000 HD 
HETATM   26  O   UNL     1      -6.609   9.988  68.570  1.00  0.00    -0.053 OA 
HETATM   27  C   UNL     1      -7.489  10.276  69.362  1.00  0.00    -0.128 C  
BRANCH  27  28
HETATM   28  C   UNL     1      -8.098   9.316  70.391  1.00  0.00    -0.178 C  
HETATM   29  C   UNL     1      -9.626   9.542  70.524  1.00  0.00    -0.251 C  
HETATM   30  N   UNL     1     -10.438   8.697  69.631  1.00  0.00    -0.219 NA 
HETATM   31  C   UNL     1     -10.069   8.851  68.213  1.00  0.00    -0.187 C  
HETATM   32  C   UNL     1     -10.358   7.280  70.102  1.00  0.00    -0.212 C  
HETATM   33  C   UNL     1     -10.895   6.211  69.061  1.00  0.00    -0.416 C  
HETATM   34  C   UNL     1      -9.930   5.104  68.802  1.00  0.00    -0.237 A  
HETATM   35  C   UNL     1      -9.740   4.221  67.766  1.00  0.00    -0.123 A  
HETATM   36  N   UNL     1      -8.697   3.379  68.115  1.00  0.00    -0.099 NA 
HETATM   37  C   UNL     1      -8.218   3.701  69.369  1.00  0.00    -0.053 A  
HETATM   38  H   UNL     1      -8.334   2.628  67.529  1.00  0.00     0.000 HD 
HETATM   39  C   UNL     1      -7.198   3.189  70.176  1.00  0.00    -0.041 A  
HETATM   40  C   UNL     1      -6.967   3.843  71.402  1.00  0.00    -0.032 A  
HETATM   41  C   UNL     1      -7.635   5.021  71.742  1.00  0.00    -0.104 A  
HETATM   42  C   UNL     1      -8.561   5.562  70.853  1.00  0.00    -0.129 A  
HETATM   43  C   UNL     1      -8.927   4.819  69.741  1.00  0.00    -0.139 A  
HETATM   44  C   UNL     1      -8.970   6.998  70.840  1.00  0.00    -0.152 C  
HETATM   45  C   UNL     1      -7.829   7.823  70.164  1.00  0.00    -0.095 C  
ENDBRANCH  27  28
ENDBRANCH  14  24
TORSDOF 3
ENDMDL
MODEL       43
REMARK 921   NORMALIZED FREE ENERGY PREDICTED BY IDOCK:   -5.68 KCAL/MOL
REMARK 922        TOTAL FREE ENERGY PREDICTED BY IDOCK:   -7.75 KCAL/MOL
REMARK 923 INTER-LIGAND FREE ENERGY PREDICTED BY IDOCK:   -7.64 KCAL/MOL
REMARK 924 INTRA-LIGAND FREE ENERGY PREDICTED BY IDOCK:   -0.11 KCAL/MOL
REMARK 927      BINDING AFFINITY PREDICTED BY RF-SCORE:    0.00 PKD
ROOT
HETATM    1  C   UNL     1      -7.360  10.044  65.635  1.00  0.00    -0.127 C  
HETATM    2  C   UNL     1      -6.152   9.103  65.487  1.00  0.00    -0.059 C  
HETATM    3  C   UNL     1      -5.785   9.230  63.968  1.00  0.00    -0.071 C  
HETATM    4  C   UNL     1      -6.900  10.065  63.341  1.00  0.00    -0.132 C  
HETATM    5  N   UNL     1      -7.960  10.043  64.335  1.00  0.00    -0.148 N  
HETATM    6  C   UNL     1      -9.083  10.800  64.128  1.00  0.00    -0.196 C  
HETATM    7  O   UNL     1      -9.712  10.734  63.076  1.00  0.00    -0.308 OA 
HETATM    8  C   UNL     1      -9.532  11.661  65.351  1.00  0.00    -0.171 C  
HETATM    9  N   UNL     1      -8.418  11.811  66.466  1.00  0.00    -0.161 N  
HETATM   10  C   UNL     1     -10.023  14.463  67.869  1.00  0.00    -0.228 C  
HETATM   11  C   UNL     1      -8.498  12.348  67.743  1.00  0.00    -0.169 C  
HETATM   12  C   UNL     1     -12.137  13.155  68.283  1.00  0.00    -0.217 C  
HETATM   13  O   UNL     1      -7.626  13.039  68.249  1.00  0.00    -0.117 OA 
HETATM   14  C   UNL     1      -9.714  11.766  68.425  1.00  0.00    -0.197 C  
HETATM   15  C   UNL     1      -8.230  10.490  66.929  1.00  0.00    -0.123 C  
HETATM   16  O   UNL     1      -7.318  10.228  68.007  1.00  0.00    -0.084 OA 
HETATM   17  H   UNL     1      -7.828  10.489  68.765  1.00  0.00     0.000 HD 
HETATM   18  C   UNL     1     -10.618  13.137  68.448  1.00  0.00    -0.264 C  
HETATM   19  O   UNL     1      -9.591  10.473  67.490  1.00  0.00    -0.158 OA 
ENDROOT
BRANCH   8  20
HETATM   20  C   UNL     1     -10.223  12.915  64.853  1.00  0.00    -0.296 C  
HETATM   21  C   UNL     1     -12.036  13.886  63.460  1.00  0.00    -0.135 C  
HETATM   22  C   UNL     1     -11.583  12.645  64.216  1.00  0.00    -0.435 C  
HETATM   23  C   UNL     1     -12.637  12.271  65.252  1.00  0.00     0.068 C  
ENDBRANCH   8  20
BRANCH  14  24
HETATM   24  N   UNL     1     -10.062  11.085  69.651  1.00  0.00    -0.429 N  
HETATM   25  H   UNL     1      -9.346  11.090  70.377  1.00  0.00     0.000 HD 
HETATM   26  O   UNL     1     -12.200  10.377  69.237  1.00  0.00    -0.133 OA 
HETATM   27  C   UNL     1     -11.227  10.433  69.967  1.00  0.00    -0.316 C  
BRANCH  27  28
HETATM   28  C   UNL     1     -11.135   9.805  71.364  1.00  0.00    -0.317 C  
HETATM   29  C   UNL     1     -12.394   8.956  71.675  1.00  0.00    -0.343 C  
HETATM   30  N   UNL     1     -12.267   7.536  71.304  1.00  0.00    -0.323 NA 
HETATM   31  C   UNL     1     -11.921   7.348  69.885  1.00  0.00     0.378 C  
HETATM   32  C   UNL     1     -11.295   6.880  72.231  1.00  0.00    -0.269 C  
HETATM   33  C   UNL     1     -10.798   5.450  71.756  1.00  0.00    -0.242 C  
HETATM   34  C   UNL     1      -9.313   5.316  71.747  1.00  0.00    -0.175 A  
HETATM   35  C   UNL     1      -8.428   4.500  71.082  1.00  0.00    -0.106 A  
HETATM   36  N   UNL     1      -7.153   4.814  71.520  1.00  0.00    -0.054 NA 
HETATM   37  C   UNL     1      -7.203   5.816  72.469  1.00  0.00    -0.086 A  
HETATM   38  H   UNL     1      -6.298   4.369  71.189  1.00  0.00     0.000 HD 
HETATM   39  C   UNL     1      -6.233   6.495  73.211  1.00  0.00    -0.063 A  
HETATM   40  C   UNL     1      -6.685   7.525  74.059  1.00  0.00    -0.090 A  
HETATM   41  C   UNL     1      -8.019   7.937  74.065  1.00  0.00    -0.262 A  
HETATM   42  C   UNL     1      -8.931   7.310  73.219  1.00  0.00    -0.192 A  
HETATM   43  C   UNL     1      -8.529   6.174  72.533  1.00  0.00    -0.118 A  
HETATM   44  C   UNL     1     -10.213   7.926  72.763  1.00  0.00    -0.380 C  
HETATM   45  C   UNL     1      -9.881   8.966  71.646  1.00  0.00    -0.387 C  
ENDBRANCH  27  28
ENDBRANCH  14  24
TORSDOF 3
ENDMDL
MODEL       44
REMARK 921   NORMALIZED FREE ENERGY PREDICTED BY IDOCK:   -5.65 KCAL/MOL
REMARK 922        TOTAL FREE ENERGY PREDICTED BY IDOCK:   -7.71 KCAL/MOL
REMARK 923 INTER-LIGAND FREE ENERGY PREDICTED BY IDOCK:   -7.15 KCAL/MOL
REMARK 924 INTRA-LIGAND FREE ENERGY PREDICTED BY IDOCK:   -0.56 KCAL/MOL
REMARK 927      BINDING AFFINITY PREDICTED BY RF-SCORE:    0.00 PKD
ROOT
HETATM    1  C   UNL     1     -12.460  13.344  70.758  1.00  0.00    -0.341 C  
HETATM    2  C   UNL     1     -13.378  13.156  71.978  1.00  0.00    -0.587 C  
HETATM    3  C   UNL     1     -14.102  14.541  72.098  1.00  0.00    -0.616 C  
HETATM    4  C   UNL     1     -13.421  15.453  71.079  1.00  0.00    -0.444 C  
HETATM    5  N   UNL     1     -12.194  14.751  70.740  1.00  0.00    -0.290 N  
HETATM    6  C   UNL     1     -11.389  15.256  69.753  1.00  0.00    -0.289 C  
HETATM    7  O   UNL     1     -11.023  16.428  69.766  1.00  0.00    -0.338 OA 
HETATM    8  C   UNL     1     -10.917  14.214  68.691  1.00  0.00    -0.258 C  
HETATM    9  N   UNL     1     -11.745  12.865  68.710  1.00  0.00    -0.305 N  
HETATM   10  C   UNL     1     -10.621  12.000  65.618  1.00  0.00    -0.303 C  
HETATM   11  C   UNL     1     -11.520  11.669  68.046  1.00  0.00    -0.315 C  
HETATM   12  C   UNL     1      -8.199  12.072  66.314  1.00  0.00     0.199 C  
HETATM   13  O   UNL     1     -12.404  10.989  67.545  1.00  0.00     0.257 OA 
HETATM   14  C   UNL     1     -10.071  11.286  68.238  1.00  0.00    -0.188 C  
HETATM   15  C   UNL     1     -11.467  12.322  69.985  1.00  0.00    -0.053 C  
HETATM   16  O   UNL     1     -12.006  11.044  70.355  1.00  0.00    -0.310 OA 
HETATM   17  H   UNL     1     -11.424  10.445  69.902  1.00  0.00     0.000 HD 
HETATM   18  C   UNL     1      -9.581  11.537  66.691  1.00  0.00    -0.215 C  
HETATM   19  O   UNL     1     -10.058  12.113  69.608  1.00  0.00     0.628 OA 
ENDROOT
BRANCH   8  20
HETATM   20  C   UNL     1     -10.714  14.913  67.361  1.00  0.00    -0.292 C  
HETATM   21  C   UNL     1      -9.722  16.839  66.144  1.00  0.00    -0.315 C  
HETATM   22  C   UNL     1      -9.623  15.979  67.396  1.00  0.00    -0.225 C  
HETATM   23  C   UNL     1      -8.228  15.369  67.482  1.00  0.00    -0.187 C  
ENDBRANCH   8  20
BRANCH  14  24
HETATM   24  N   UNL     1      -9.285  10.160  68.687  1.00  0.00    -0.150 N  
HETATM   25  H   UNL     1      -8.533  10.378  69.341  1.00  0.00     0.000 HD 
HETATM   26  O   UNL     1     -10.290   8.398  67.624  1.00  0.00    -0.226 OA 
HETATM   27  C   UNL     1      -9.415   8.836  68.350  1.00  0.00    -0.141 C  
BRANCH  27  28
HETATM   28  C   UNL     1      -8.323   7.995  69.024  1.00  0.00    -0.129 C  
HETATM   29  C   UNL     1      -8.656   7.747  70.517  1.00  0.00    -0.132 C  
HETATM   30  N   UNL     1      -9.412   6.506  70.766  1.00  0.00    -0.171 NA 
HETATM   31  C   UNL     1     -10.665   6.441  69.995  1.00  0.00    -0.259 C  
HETATM   32  C   UNL     1      -8.515   5.337  70.517  1.00  0.00    -0.120 C  
HETATM   33  C   UNL     1      -9.267   3.944  70.413  1.00  0.00    -0.209 C  
HETATM   34  C   UNL     1      -8.913   3.174  69.186  1.00  0.00    -0.181 A  
HETATM   35  C   UNL     1      -9.535   2.185  68.462  1.00  0.00    -0.151 A  
HETATM   36  N   UNL     1      -8.689   1.822  67.427  1.00  0.00    -0.096 NA 
HETATM   37  C   UNL     1      -7.522   2.558  67.480  1.00  0.00    -0.057 A  
HETATM   38  H   UNL     1      -8.898   1.112  66.726  1.00  0.00     0.000 HD 
HETATM   39  C   UNL     1      -6.366   2.597  66.695  1.00  0.00    -0.025 A  
HETATM   40  C   UNL     1      -5.391   3.552  67.043  1.00  0.00    -0.012 A  
HETATM   41  C   UNL     1      -5.619   4.501  68.042  1.00  0.00    -0.017 A  
HETATM   42  C   UNL     1      -6.835   4.500  68.721  1.00  0.00    -0.051 A  
HETATM   43  C   UNL     1      -7.711   3.445  68.514  1.00  0.00    -0.055 A  
HETATM   44  C   UNL     1      -7.402   5.687  69.427  1.00  0.00    -0.070 C  
HETATM   45  C   UNL     1      -7.994   6.655  68.353  1.00  0.00    -0.111 C  
ENDBRANCH  27  28
ENDBRANCH  14  24
TORSDOF 3
ENDMDL
MODEL       45
REMARK 921   NORMALIZED FREE ENERGY PREDICTED BY IDOCK:   -5.62 KCAL/MOL
REMARK 922        TOTAL FREE ENERGY PREDICTED BY IDOCK:   -7.67 KCAL/MOL
REMARK 923 INTER-LIGAND FREE ENERGY PREDICTED BY IDOCK:   -6.66 KCAL/MOL
REMARK 924 INTRA-LIGAND FREE ENERGY PREDICTED BY IDOCK:   -1.01 KCAL/MOL
REMARK 927      BINDING AFFINITY PREDICTED BY RF-SCORE:    0.00 PKD
ROOT
HETATM    1  C   UNL     1      -9.163   4.079  66.984  1.00  0.00    -0.168 C  
HETATM    2  C   UNL     1      -9.499   3.153  68.166  1.00  0.00    -0.217 C  
HETATM    3  C   UNL     1      -8.958   1.760  67.692  1.00  0.00    -0.167 C  
HETATM    4  C   UNL     1      -8.537   1.952  66.237  1.00  0.00    -0.112 C  
HETATM    5  N   UNL     1      -9.163   3.206  65.850  1.00  0.00    -0.152 N  
HETATM    6  C   UNL     1      -8.892   3.732  64.614  1.00  0.00    -0.120 C  
HETATM    7  O   UNL     1      -9.008   3.057  63.594  1.00  0.00    -0.092 OA 
HETATM    8  C   UNL     1      -8.524   5.249  64.610  1.00  0.00    -0.142 C  
HETATM    9  N   UNL     1      -8.151   5.817  66.040  1.00  0.00    -0.107 N  
HETATM   10  C   UNL     1      -6.669   8.563  64.685  1.00  0.00    -0.069 C  
HETATM   11  C   UNL     1      -7.937   7.123  66.455  1.00  0.00    -0.112 C  
HETATM   12  C   UNL     1      -8.764   9.286  63.484  1.00  0.00    -0.188 C  
HETATM   13  O   UNL     1      -7.062   7.454  67.242  1.00  0.00    -0.079 OA 
HETATM   14  C   UNL     1      -9.071   7.976  65.936  1.00  0.00    -0.106 C  
HETATM   15  C   UNL     1      -9.349   5.676  66.777  1.00  0.00    -0.134 C  
HETATM   16  O   UNL     1      -9.420   6.148  68.131  1.00  0.00    -0.115 OA 
HETATM   17  H   UNL     1      -9.528   7.083  68.009  1.00  0.00     0.000 HD 
HETATM   18  C   UNL     1      -8.204   8.826  64.830  1.00  0.00    -0.160 C  
HETATM   19  O   UNL     1     -10.011   6.681  65.926  1.00  0.00     0.228 OA 
ENDROOT
BRANCH   8  20
HETATM   20  C   UNL     1      -7.581   5.531  63.457  1.00  0.00    -0.071 C  
HETATM   21  C   UNL     1      -5.245   5.959  62.728  1.00  0.00    -0.017 C  
HETATM   22  C   UNL     1      -6.110   5.340  63.817  1.00  0.00    -0.022 C  
HETATM   23  C   UNL     1      -5.746   3.869  63.978  1.00  0.00    -0.014 C  
ENDBRANCH   8  20
BRANCH  14  24
HETATM   24  N   UNL     1     -10.048   8.918  66.430  1.00  0.00    -0.292 N  
HETATM   25  H   UNL     1     -10.662   9.328  65.725  1.00  0.00     0.000 HD 
HETATM   26  O   UNL     1      -9.653   8.909  68.685  1.00  0.00    -0.150 OA 
HETATM   27  C   UNL     1     -10.260   9.336  67.719  1.00  0.00    -0.218 C  
BRANCH  27  28
HETATM   28  C   UNL     1     -11.371  10.393  67.772  1.00  0.00    -0.205 C  
HETATM   29  C   UNL     1     -11.618  10.866  69.227  1.00  0.00    -0.318 C  
HETATM   30  N   UNL     1     -10.824  12.045  69.618  1.00  0.00     0.084 NA 
HETATM   31  C   UNL     1      -9.377  11.841  69.437  1.00  0.00     0.801 C  
HETATM   32  C   UNL     1     -11.340  13.239  68.881  1.00  0.00    -0.288 C  
HETATM   33  C   UNL     1     -10.385  14.505  68.934  1.00  0.00    -0.237 C  
HETATM   34  C   UNL     1     -10.090  15.078  67.589  1.00  0.00    -0.231 A  
HETATM   35  C   UNL     1      -9.076  15.852  67.079  1.00  0.00    -0.217 A  
HETATM   36  N   UNL     1      -9.371  16.112  65.750  1.00  0.00    -0.437 NA 
HETATM   37  C   UNL     1     -10.569  15.524  65.400  1.00  0.00    -0.408 A  
HETATM   38  H   UNL     1      -8.785  16.660  65.121  1.00  0.00     0.000 HD 
HETATM   39  C   UNL     1     -11.310  15.467  64.216  1.00  0.00    -0.165 A  
HETATM   40  C   UNL     1     -12.489  14.697  64.237  1.00  0.00    -0.267 A  
HETATM   41  C   UNL     1     -12.837  13.922  65.345  1.00  0.00    -0.466 A  
HETATM   42  C   UNL     1     -12.006  13.916  66.463  1.00  0.00    -0.470 A  
HETATM   43  C   UNL     1     -10.956  14.819  66.516  1.00  0.00    -0.325 A  
HETATM   44  C   UNL     1     -11.973  12.819  67.477  1.00  0.00    -0.342 C  
HETATM   45  C   UNL     1     -11.178  11.620  66.870  1.00  0.00    -0.376 C  
ENDBRANCH  27  28
ENDBRANCH  14  24
TORSDOF 3
ENDMDL
MODEL       46
REMARK 921   NORMALIZED FREE ENERGY PREDICTED BY IDOCK:   -5.59 KCAL/MOL
REMARK 922        TOTAL FREE ENERGY PREDICTED BY IDOCK:   -7.63 KCAL/MOL
REMARK 923 INTER-LIGAND FREE ENERGY PREDICTED BY IDOCK:   -6.55 KCAL/MOL
REMARK 924 INTRA-LIGAND FREE ENERGY PREDICTED BY IDOCK:   -1.08 KCAL/MOL
REMARK 927      BINDING AFFINITY PREDICTED BY RF-SCORE:    0.00 PKD
ROOT
HETATM    1  C   UNL     1      -7.533  14.617  68.550  1.00  0.00    -0.120 C  
HETATM    2  C   UNL     1      -6.515  15.300  69.478  1.00  0.00    -0.152 C  
HETATM    3  C   UNL     1      -6.934  16.809  69.420  1.00  0.00    -0.176 C  
HETATM    4  C   UNL     1      -8.013  16.898  68.343  1.00  0.00    -0.232 C  
HETATM    5  N   UNL     1      -7.894  15.643  67.618  1.00  0.00    -0.143 N  
HETATM    6  C   UNL     1      -8.805  15.351  66.637  1.00  0.00    -0.295 C  
HETATM    7  O   UNL     1      -9.050  16.149  65.737  1.00  0.00    -0.398 OA 
HETATM    8  C   UNL     1      -9.416  13.917  66.712  1.00  0.00    -0.279 C  
HETATM    9  N   UNL     1      -9.182  13.197  68.102  1.00  0.00    -0.212 N  
HETATM   10  C   UNL     1     -11.622  10.915  67.458  1.00  0.00    -0.102 C  
HETATM   11  C   UNL     1      -9.425  11.885  68.481  1.00  0.00    -0.148 C  
HETATM   12  C   UNL     1     -10.511  10.102  65.346  1.00  0.00    -0.054 C  
HETATM   13  O   UNL     1      -9.878  11.562  69.570  1.00  0.00     0.251 OA 
HETATM   14  C   UNL     1      -8.852  10.972  67.422  1.00  0.00    -0.138 C  
HETATM   15  C   UNL     1      -7.777  13.059  68.173  1.00  0.00    -0.143 C  
HETATM   16  O   UNL     1      -7.176  12.384  69.288  1.00  0.00    -0.298 OA 
HETATM   17  H   UNL     1      -7.319  11.471  69.068  1.00  0.00     0.000 HD 
HETATM   18  C   UNL     1     -10.279  10.425  66.822  1.00  0.00    -0.282 C  
HETATM   19  O   UNL     1      -7.795  12.113  67.044  1.00  0.00    -0.163 OA 
ENDROOT
BRANCH   8  20
HETATM   20  C   UNL     1     -10.822  13.943  66.145  1.00  0.00    -0.290 C  
HETATM   21  C   UNL     1     -12.275  14.418  64.186  1.00  0.00    -0.393 C  
HETATM   22  C   UNL     1     -10.861  14.066  64.625  1.00  0.00    -0.416 C  
HETATM   23  C   UNL     1     -10.423  12.778  63.935  1.00  0.00    -0.402 C  
ENDBRANCH   8  20
BRANCH  14  24
HETATM   24  N   UNL     1      -7.959   9.842  67.316  1.00  0.00    -0.105 N  
HETATM   25  H   UNL     1      -7.900   9.411  66.393  1.00  0.00     0.000 HD 
HETATM   26  O   UNL     1      -7.095   9.690  69.431  1.00  0.00    -0.055 OA 
HETATM   27  C   UNL     1      -7.182   9.270  68.291  1.00  0.00    -0.077 C  
BRANCH  27  28
HETATM   28  C   UNL     1      -6.433   8.049  67.742  1.00  0.00    -0.053 C  
HETATM   29  C   UNL     1      -6.298   6.948  68.825  1.00  0.00    -0.028 C  
HETATM   30  N   UNL     1      -7.394   5.962  68.820  1.00  0.00    -0.082 NA 
HETATM   31  C   UNL     1      -8.720   6.587  68.960  1.00  0.00    -0.128 C  
HETATM   32  C   UNL     1      -7.275   5.115  67.594  1.00  0.00    -0.067 C  
HETATM   33  C   UNL     1      -8.561   4.242  67.274  1.00  0.00    -0.105 C  
HETATM   34  C   UNL     1      -9.049   4.403  65.874  1.00  0.00    -0.133 A  
HETATM   35  C   UNL     1     -10.261   4.213  65.254  1.00  0.00    -0.191 A  
HETATM   36  N   UNL     1     -10.092   4.487  63.906  1.00  0.00    -0.379 NA 
HETATM   37  C   UNL     1      -8.784   4.840  63.647  1.00  0.00    -0.130 A  
HETATM   38  H   UNL     1     -10.831   4.434  63.206  1.00  0.00     0.000 HD 
HETATM   39  C   UNL     1      -8.093   5.210  62.490  1.00  0.00    -0.090 A  
HETATM   40  C   UNL     1      -6.738   5.566  62.643  1.00  0.00    -0.029 A  
HETATM   41  C   UNL     1      -6.145   5.669  63.902  1.00  0.00    -0.025 A  
HETATM   42  C   UNL     1      -6.906   5.404  65.039  1.00  0.00    -0.049 A  
HETATM   43  C   UNL     1      -8.175   4.869  64.880  1.00  0.00    -0.124 A  
HETATM   44  C   UNL     1      -6.585   5.923  66.402  1.00  0.00    -0.052 C  
HETATM   45  C   UNL     1      -7.005   7.426  66.462  1.00  0.00    -0.070 C  
ENDBRANCH  27  28
ENDBRANCH  14  24
TORSDOF 3
ENDMDL
MODEL       47
REMARK 921   NORMALIZED FREE ENERGY PREDICTED BY IDOCK:   -5.55 KCAL/MOL
REMARK 922        TOTAL FREE ENERGY PREDICTED BY IDOCK:   -7.59 KCAL/MOL
REMARK 923 INTER-LIGAND FREE ENERGY PREDICTED BY IDOCK:   -7.66 KCAL/MOL
REMARK 924 INTRA-LIGAND FREE ENERGY PREDICTED BY IDOCK:    0.07 KCAL/MOL
REMARK 927      BINDING AFFINITY PREDICTED BY RF-SCORE:    0.00 PKD
ROOT
HETATM    1  C   UNL     1      -9.244  11.169  64.559  1.00  0.00    -0.108 C  
HETATM    2  C   UNL     1     -10.161  11.647  63.421  1.00  0.00    -0.471 C  
HETATM    3  C   UNL     1     -10.025  10.510  62.351  1.00  0.00     0.181 C  
HETATM    4  C   UNL     1      -8.922   9.587  62.865  1.00  0.00    -0.213 C  
HETATM    5  N   UNL     1      -8.258  10.369  63.896  1.00  0.00    -0.146 N  
HETATM    6  C   UNL     1      -7.272   9.784  64.646  1.00  0.00    -0.131 C  
HETATM    7  O   UNL     1      -6.331   9.199  64.116  1.00  0.00    -0.081 OA 
HETATM    8  C   UNL     1      -7.400  10.000  66.186  1.00  0.00    -0.109 C  
HETATM    9  N   UNL     1      -8.827  10.514  66.641  1.00  0.00    -0.134 N  
HETATM   10  C   UNL     1      -8.236   9.637  69.874  1.00  0.00    -0.184 C  
HETATM   11  C   UNL     1      -9.261  10.969  67.877  1.00  0.00    -0.155 C  
HETATM   12  C   UNL     1      -6.189  11.097  70.053  1.00  0.00    -0.143 C  
HETATM   13  O   UNL     1     -10.353  10.704  68.357  1.00  0.00    -0.162 OA 
HETATM   14  C   UNL     1      -8.257  11.977  68.389  1.00  0.00    -0.151 C  
HETATM   15  C   UNL     1      -8.934  11.783  66.027  1.00  0.00    -0.107 C  
HETATM   16  O   UNL     1     -10.092  12.599  66.261  1.00  0.00    -0.243 OA 
HETATM   17  H   UNL     1      -9.911  12.959  67.121  1.00  0.00     0.000 HD 
HETATM   18  C   UNL     1      -7.653  11.065  69.614  1.00  0.00     0.080 C  
HETATM   19  O   UNL     1      -7.849  12.305  66.877  1.00  0.00    -0.138 OA 
ENDROOT
BRANCH   8  20
HETATM   20  C   UNL     1      -6.803   8.809  66.909  1.00  0.00    -0.070 C  
HETATM   21  C   UNL     1      -7.218   6.745  68.229  1.00  0.00    -0.088 C  
HETATM   22  C   UNL     1      -7.824   7.721  67.230  1.00  0.00    -0.117 C  
HETATM   23  C   UNL     1      -8.263   6.960  65.984  1.00  0.00    -0.125 C  
ENDBRANCH   8  20
BRANCH  14  24
HETATM   24  N   UNL     1      -8.223  13.329  68.895  1.00  0.00    -0.351 N  
HETATM   25  H   UNL     1      -9.064  13.640  69.383  1.00  0.00     0.000 HD 
HETATM   26  O   UNL     1      -6.124  14.028  68.305  1.00  0.00    -0.095 OA 
HETATM   27  C   UNL     1      -7.211  14.251  68.807  1.00  0.00    -0.129 C  
BRANCH  27  28
HETATM   28  C   UNL     1      -7.634  15.583  69.439  1.00  0.00    -0.225 C  
HETATM   29  C   UNL     1      -6.447  16.246  70.185  1.00  0.00     0.140 C  
HETATM   30  N   UNL     1      -5.662  17.177  69.356  1.00  0.00    -0.186 NA 
HETATM   31  C   UNL     1      -5.145  16.549  68.129  1.00  0.00    -0.109 C  
HETATM   32  C   UNL     1      -6.488  18.393  69.083  1.00  0.00    -0.260 C  
HETATM   33  C   UNL     1      -5.918  19.329  67.936  1.00  0.00    -0.215 C  
HETATM   34  C   UNL     1      -6.928  19.660  66.889  1.00  0.00    -0.216 A  
HETATM   35  C   UNL     1      -6.852  20.057  65.576  1.00  0.00    -0.303 A  
HETATM   36  N   UNL     1      -8.144  20.261  65.121  1.00  0.00    -0.269 NA 
HETATM   37  C   UNL     1      -9.054  20.013  66.129  1.00  0.00    -0.277 A  
HETATM   38  H   UNL     1      -8.389  20.554  64.175  1.00  0.00     0.000 HD 
HETATM   39  C   UNL     1     -10.449  20.058  66.207  1.00  0.00    -0.536 A  
HETATM   40  C   UNL     1     -11.032  19.666  67.427  1.00  0.00    -0.386 A  
HETATM   41  C   UNL     1     -10.268  19.135  68.468  1.00  0.00    -0.448 A  
HETATM   42  C   UNL     1      -8.891  18.997  68.302  1.00  0.00    -0.370 A  
HETATM   43  C   UNL     1      -8.297  19.560  67.184  1.00  0.00    -0.321 A  
HETATM   44  C   UNL     1      -8.046  18.040  69.077  1.00  0.00    -0.063 C  
HETATM   45  C   UNL     1      -8.267  16.610  68.490  1.00  0.00    -0.231 C  
ENDBRANCH  27  28
ENDBRANCH  14  24
TORSDOF 3
ENDMDL
MODEL       48
REMARK 921   NORMALIZED FREE ENERGY PREDICTED BY IDOCK:   -5.54 KCAL/MOL
REMARK 922        TOTAL FREE ENERGY PREDICTED BY IDOCK:   -7.57 KCAL/MOL
REMARK 923 INTER-LIGAND FREE ENERGY PREDICTED BY IDOCK:   -6.56 KCAL/MOL
REMARK 924 INTRA-LIGAND FREE ENERGY PREDICTED BY IDOCK:   -1.02 KCAL/MOL
REMARK 927      BINDING AFFINITY PREDICTED BY RF-SCORE:    0.00 PKD
ROOT
HETATM    1  C   UNL     1      -9.169   4.530  68.549  1.00  0.00    -0.133 C  
HETATM    2  C   UNL     1      -9.404   4.086  67.096  1.00  0.00    -0.207 C  
HETATM    3  C   UNL     1      -9.505   2.526  67.211  1.00  0.00    -0.035 C  
HETATM    4  C   UNL     1      -9.141   2.193  68.657  1.00  0.00    -0.151 C  
HETATM    5  N   UNL     1      -8.516   3.408  69.153  1.00  0.00    -0.060 N  
HETATM    6  C   UNL     1      -8.163   3.484  70.475  1.00  0.00    -0.053 C  
HETATM    7  O   UNL     1      -7.486   2.608  71.006  1.00  0.00    -0.033 OA 
HETATM    8  C   UNL     1      -8.607   4.793  71.201  1.00  0.00    -0.113 C  
HETATM    9  N   UNL     1      -9.705   5.617  70.411  1.00  0.00    -0.172 N  
HETATM   10  C   UNL     1     -10.521   7.403  73.190  1.00  0.00    -0.406 C  
HETATM   11  C   UNL     1     -10.212   6.886  70.650  1.00  0.00    -0.195 C  
HETATM   12  C   UNL     1      -8.178   8.281  73.496  1.00  0.00    -0.250 C  
HETATM   13  O   UNL     1     -11.391   7.184  70.522  1.00  0.00    -0.279 OA 
HETATM   14  C   UNL     1      -9.051   7.825  70.878  1.00  0.00    -0.148 C  
HETATM   15  C   UNL     1      -9.042   6.000  69.223  1.00  0.00    -0.124 C  
HETATM   16  O   UNL     1      -9.713   6.828  68.261  1.00  0.00    -0.127 OA 
HETATM   17  H   UNL     1      -9.639   7.689  68.656  1.00  0.00     0.000 HD 
HETATM   18  C   UNL     1      -9.303   8.083  72.481  1.00  0.00    -0.289 C  
HETATM   19  O   UNL     1      -8.129   6.865  69.989  1.00  0.00    -0.120 OA 
ENDROOT
BRANCH   8  20
HETATM   20  C   UNL     1      -8.852   4.493  72.667  1.00  0.00    -0.120 C  
HETATM   21  C   UNL     1     -10.518   4.096  74.467  1.00  0.00    -0.275 C  
HETATM   22  C   UNL     1     -10.281   4.048  72.964  1.00  0.00    -0.225 C  
HETATM   23  C   UNL     1     -10.561   2.639  72.453  1.00  0.00    -0.020 C  
ENDBRANCH   8  20
BRANCH  14  24
HETATM   24  N   UNL     1      -8.548   9.086  70.385  1.00  0.00    -0.172 N  
HETATM   25  H   UNL     1      -9.255   9.784  70.153  1.00  0.00     0.000 HD 
HETATM   26  O   UNL     1      -6.280   8.780  70.460  1.00  0.00    -0.034 OA 
HETATM   27  C   UNL     1      -7.246   9.470  70.187  1.00  0.00    -0.114 C  
BRANCH  27  28
HETATM   28  C   UNL     1      -7.181  10.883  69.593  1.00  0.00    -0.098 C  
HETATM   29  C   UNL     1      -6.182  10.942  68.409  1.00  0.00    -0.046 C  
HETATM   30  N   UNL     1      -6.796  10.690  67.093  1.00  0.00    -0.079 NA 
HETATM   31  C   UNL     1      -7.506   9.401  67.034  1.00  0.00    -0.091 C  
HETATM   32  C   UNL     1      -7.667  11.851  66.736  1.00  0.00    -0.051 C  
HETATM   33  C   UNL     1      -8.651  11.584  65.521  1.00  0.00     0.181 C  
HETATM   34  C   UNL     1     -10.071  11.924  65.826  1.00  0.00    -0.272 A  
HETATM   35  C   UNL     1     -11.283  11.528  65.314  1.00  0.00    -0.136 A  
HETATM   36  N   UNL     1     -12.273  12.230  65.981  1.00  0.00    -0.597 NA 
HETATM   37  C   UNL     1     -11.715  13.084  66.911  1.00  0.00    -0.383 A  
HETATM   38  H   UNL     1     -13.273  12.130  65.810  1.00  0.00     0.000 HD 
HETATM   39  C   UNL     1     -12.244  13.991  67.833  1.00  0.00    -0.188 A  
HETATM   40  C   UNL     1     -11.328  14.653  68.673  1.00  0.00    -0.305 A  
HETATM   41  C   UNL     1      -9.971  14.328  68.678  1.00  0.00    -0.234 A  
HETATM   42  C   UNL     1      -9.504  13.332  67.823  1.00  0.00    -0.208 A  
HETATM   43  C   UNL     1     -10.365  12.821  66.865  1.00  0.00    -0.245 A  
HETATM   44  C   UNL     1      -8.246  12.559  68.046  1.00  0.00    -0.166 C  
HETATM   45  C   UNL     1      -8.519  11.492  69.153  1.00  0.00     0.214 C  
ENDBRANCH  27  28
ENDBRANCH  14  24
TORSDOF 3
ENDMDL
MODEL       49
REMARK 921   NORMALIZED FREE ENERGY PREDICTED BY IDOCK:   -5.52 KCAL/MOL
REMARK 922        TOTAL FREE ENERGY PREDICTED BY IDOCK:   -7.56 KCAL/MOL
REMARK 923 INTER-LIGAND FREE ENERGY PREDICTED BY IDOCK:   -7.15 KCAL/MOL
REMARK 924 INTRA-LIGAND FREE ENERGY PREDICTED BY IDOCK:   -0.41 KCAL/MOL
REMARK 927      BINDING AFFINITY PREDICTED BY RF-SCORE:    0.00 PKD
ROOT
HETATM    1  C   UNL     1      -9.025   4.543  65.491  1.00  0.00    -0.138 C  
HETATM    2  C   UNL     1     -10.197   3.947  64.694  1.00  0.00    -0.216 C  
HETATM    3  C   UNL     1      -9.843   2.421  64.625  1.00  0.00     0.068 C  
HETATM    4  C   UNL     1      -8.437   2.296  65.210  1.00  0.00    -0.101 C  
HETATM    5  N   UNL     1      -7.933   3.659  65.214  1.00  0.00    -0.089 N  
HETATM    6  C   UNL     1      -6.715   3.917  65.788  1.00  0.00    -0.045 C  
HETATM    7  O   UNL     1      -5.717   3.271  65.481  1.00  0.00    -0.017 OA 
HETATM    8  C   UNL     1      -6.693   5.132  66.767  1.00  0.00    -0.061 C  
HETATM    9  N   UNL     1      -8.132   5.607  67.225  1.00  0.00    -0.102 N  
HETATM   10  C   UNL     1      -6.844   7.351  69.847  1.00  0.00    -0.055 C  
HETATM   11  C   UNL     1      -8.516   6.732  67.941  1.00  0.00    -0.119 C  
HETATM   12  C   UNL     1      -5.388   8.785  68.372  1.00  0.00    -0.038 C  
HETATM   13  O   UNL     1      -9.382   6.729  68.803  1.00  0.00    -0.134 OA 
HETATM   14  C   UNL     1      -7.840   7.936  67.328  1.00  0.00    -0.113 C  
HETATM   15  C   UNL     1      -8.734   6.047  66.024  1.00  0.00    -0.152 C  
HETATM   16  O   UNL     1     -10.053   6.616  66.048  1.00  0.00    -0.398 OA 
HETATM   17  H   UNL     1      -9.882   7.496  66.360  1.00  0.00     0.000 HD 
HETATM   18  C   UNL     1      -6.805   8.247  68.566  1.00  0.00    -0.064 C  
HETATM   19  O   UNL     1      -7.776   7.161  65.930  1.00  0.00    -0.092 OA 
ENDROOT
BRANCH   8  20
HETATM   20  C   UNL     1      -5.643   4.894  67.835  1.00  0.00    -0.016 C  
HETATM   21  C   UNL     1      -5.167   4.296  70.199  1.00  0.00    -0.004 C  
HETATM   22  C   UNL     1      -6.187   4.190  69.074  1.00  0.00    -0.031 C  
HETATM   23  C   UNL     1      -6.498   2.721  68.810  1.00  0.00    -0.029 C  
ENDBRANCH   8  20
BRANCH  14  24
HETATM   24  N   UNL     1      -8.183   9.240  66.810  1.00  0.00    -0.115 N  
HETATM   25  H   UNL     1      -8.063   9.361  65.804  1.00  0.00     0.000 HD 
HETATM   26  O   UNL     1      -8.896  10.348  68.682  1.00  0.00    -0.127 OA 
HETATM   27  C   UNL     1      -8.648  10.337  67.490  1.00  0.00    -0.118 C  
BRANCH  27  28
HETATM   28  C   UNL     1      -8.825  11.529  66.541  1.00  0.00    -0.190 C  
HETATM   29  C   UNL     1     -10.121  11.383  65.702  1.00  0.00    -0.248 C  
HETATM   30  N   UNL     1     -11.305  12.016  66.311  1.00  0.00    -0.347 NA 
HETATM   31  C   UNL     1     -11.576  11.522  67.672  1.00  0.00    -0.247 C  
HETATM   32  C   UNL     1     -11.141  13.501  66.253  1.00  0.00    -0.300 C  
HETATM   33  C   UNL     1     -12.161  14.309  67.162  1.00  0.00    -0.412 C  
HETATM   34  C   UNL     1     -11.495  15.296  68.060  1.00  0.00    -0.351 A  
HETATM   35  C   UNL     1     -11.844  15.904  69.242  1.00  0.00    -0.318 A  
HETATM   36  N   UNL     1     -10.823  16.775  69.586  1.00  0.00    -0.376 NA 
HETATM   37  C   UNL     1      -9.824  16.746  68.634  1.00  0.00    -0.261 A  
HETATM   38  H   UNL     1     -10.812  17.357  70.423  1.00  0.00     0.000 HD 
HETATM   39  C   UNL     1      -8.599  17.405  68.496  1.00  0.00    -0.270 A  
HETATM   40  C   UNL     1      -7.808  17.053  67.384  1.00  0.00    -0.191 A  
HETATM   41  C   UNL     1      -8.166  16.007  66.531  1.00  0.00    -0.334 A  
HETATM   42  C   UNL     1      -9.340  15.298  66.776  1.00  0.00    -0.265 A  
HETATM   43  C   UNL     1     -10.210  15.767  67.748  1.00  0.00    -0.251 A  
HETATM   44  C   UNL     1      -9.599  13.911  66.286  1.00  0.00    -0.274 C  
HETATM   45  C   UNL     1      -8.801  12.919  67.191  1.00  0.00    -0.210 C  
ENDBRANCH  27  28
ENDBRANCH  14  24
TORSDOF 3
ENDMDL
MODEL       50
REMARK 921   NORMALIZED FREE ENERGY PREDICTED BY IDOCK:   -5.51 KCAL/MOL
REMARK 922        TOTAL FREE ENERGY PREDICTED BY IDOCK:   -7.54 KCAL/MOL
REMARK 923 INTER-LIGAND FREE ENERGY PREDICTED BY IDOCK:   -6.63 KCAL/MOL
REMARK 924 INTRA-LIGAND FREE ENERGY PREDICTED BY IDOCK:   -0.91 KCAL/MOL
REMARK 927      BINDING AFFINITY PREDICTED BY RF-SCORE:    0.00 PKD
ROOT
HETATM    1  C   UNL     1     -10.721  11.312  69.009  1.00  0.00    -0.217 C  
HETATM    2  C   UNL     1     -11.683  11.716  70.139  1.00  0.00    -0.381 C  
HETATM    3  C   UNL     1     -12.351  13.023  69.589  1.00  0.00    -0.104 C  
HETATM    4  C   UNL     1     -11.599  13.362  68.303  1.00  0.00    -0.344 C  
HETATM    5  N   UNL     1     -10.394  12.553  68.374  1.00  0.00    -0.228 N  
HETATM    6  C   UNL     1      -9.537  12.539  67.305  1.00  0.00    -0.205 C  
HETATM    7  O   UNL     1      -9.121  13.583  66.808  1.00  0.00    -0.243 OA 
HETATM    8  C   UNL     1      -9.076  11.120  66.848  1.00  0.00    -0.159 C  
HETATM    9  N   UNL     1      -9.962   9.945  67.431  1.00  0.00    -0.179 N  
HETATM   10  C   UNL     1      -8.778   7.752  65.115  1.00  0.00     0.051 C  
HETATM   11  C   UNL     1      -9.767   8.572  67.387  1.00  0.00    -0.170 C  
HETATM   12  C   UNL     1      -6.379   8.072  65.820  1.00  0.00    -0.042 C  
HETATM   13  O   UNL     1     -10.664   7.761  67.204  1.00  0.00    -0.333 OA 
HETATM   14  C   UNL     1      -8.343   8.282  67.800  1.00  0.00    -0.128 C  
HETATM   15  C   UNL     1      -9.748  10.028  68.826  1.00  0.00    -0.171 C  
HETATM   16  O   UNL     1     -10.353   9.066  69.704  1.00  0.00    -0.199 OA 
HETATM   17  H   UNL     1      -9.783   8.314  69.597  1.00  0.00     0.000 HD 
HETATM   18  C   UNL     1      -7.794   7.798  66.330  1.00  0.00    -0.094 C  
HETATM   19  O   UNL     1      -8.338   9.638  68.651  1.00  0.00    -0.110 OA 
ENDROOT
BRANCH   8  20
HETATM   20  C   UNL     1      -8.801  11.139  65.357  1.00  0.00    -0.110 C  
HETATM   21  C   UNL     1      -9.600  10.550  63.079  1.00  0.00    -0.369 C  
HETATM   22  C   UNL     1     -10.034  10.837  64.510  1.00  0.00    -0.395 C  
HETATM   23  C   UNL     1     -11.030  11.991  64.514  1.00  0.00    -0.369 C  
ENDBRANCH   8  20
BRANCH  14  24
HETATM   24  N   UNL     1      -7.621   7.461  68.743  1.00  0.00    -0.104 N  
HETATM   25  H   UNL     1      -8.137   6.666  69.123  1.00  0.00     0.000 HD 
HETATM   26  O   UNL     1      -5.566   8.467  68.809  1.00  0.00    -0.038 OA 
HETATM   27  C   UNL     1      -6.335   7.606  69.197  1.00  0.00    -0.036 C  
BRANCH  27  28
HETATM   28  C   UNL     1      -6.002   6.531  70.240  1.00  0.00    -0.023 C  
HETATM   29  C   UNL     1      -5.382   7.165  71.512  1.00  0.00    -0.028 C  
HETATM   30  N   UNL     1      -6.367   7.510  72.552  1.00  0.00    -0.050 NA 
HETATM   31  C   UNL     1      -7.425   8.407  72.057  1.00  0.00    -0.105 C  
HETATM   32  C   UNL     1      -6.905   6.248  73.145  1.00  0.00    -0.075 C  
HETATM   33  C   UNL     1      -8.208   6.442  74.030  1.00  0.00    -0.115 C  
HETATM   34  C   UNL     1      -9.323   5.530  73.644  1.00  0.00    -0.137 A  
HETATM   35  C   UNL     1     -10.689   5.568  73.798  1.00  0.00    -0.260 A  
HETATM   36  N   UNL     1     -11.206   4.398  73.267  1.00  0.00    -0.281 NA 
HETATM   37  C   UNL     1     -10.190   3.599  72.782  1.00  0.00    -0.167 A  
HETATM   38  H   UNL     1     -12.197   4.161  73.238  1.00  0.00     0.000 HD 
HETATM   39  C   UNL     1     -10.156   2.351  72.155  1.00  0.00    -0.220 A  
HETATM   40  C   UNL     1      -8.894   1.879  71.742  1.00  0.00    -0.107 A  
HETATM   41  C   UNL     1      -7.749   2.672  71.835  1.00  0.00    -0.048 A  
HETATM   42  C   UNL     1      -7.850   3.959  72.360  1.00  0.00    -0.080 A  
HETATM   43  C   UNL     1      -9.047   4.347  72.942  1.00  0.00    -0.132 A  
HETATM   44  C   UNL     1      -6.875   5.055  72.083  1.00  0.00    -0.061 C  
HETATM   45  C   UNL     1      -7.157   5.609  70.650  1.00  0.00    -0.066 C  
ENDBRANCH  27  28
ENDBRANCH  14  24
TORSDOF 3
ENDMDL
MODEL       51
REMARK 921   NORMALIZED FREE ENERGY PREDICTED BY IDOCK:   -5.50 KCAL/MOL
REMARK 922        TOTAL FREE ENERGY PREDICTED BY IDOCK:   -7.54 KCAL/MOL
REMARK 923 INTER-LIGAND FREE ENERGY PREDICTED BY IDOCK:   -6.66 KCAL/MOL
REMARK 924 INTRA-LIGAND FREE ENERGY PREDICTED BY IDOCK:   -0.87 KCAL/MOL
REMARK 927      BINDING AFFINITY PREDICTED BY RF-SCORE:    0.00 PKD
ROOT
HETATM    1  C   UNL     1     -10.531  12.594  66.756  1.00  0.00    -0.240 C  
HETATM    2  C   UNL     1     -11.640  12.175  65.776  1.00  0.00    -0.414 C  
HETATM    3  C   UNL     1     -12.375  13.525  65.470  1.00  0.00    -0.524 C  
HETATM    4  C   UNL     1     -11.766  14.553  66.421  1.00  0.00    -0.363 C  
HETATM    5  N   UNL     1     -11.067  13.749  67.411  1.00  0.00    -0.290 N  
HETATM    6  C   UNL     1     -10.309  14.377  68.364  1.00  0.00    -0.244 C  
HETATM    7  O   UNL     1     -10.770  15.288  69.047  1.00  0.00    -0.225 OA 
HETATM    8  C   UNL     1      -8.879  13.785  68.563  1.00  0.00    -0.116 C  
HETATM    9  N   UNL     1      -8.414  12.834  67.386  1.00  0.00    -0.182 N  
HETATM   10  C   UNL     1      -5.156  13.060  68.339  1.00  0.00    -0.071 C  
HETATM   11  C   UNL     1      -7.302  12.010  67.288  1.00  0.00    -0.151 C  
HETATM   12  C   UNL     1      -5.616  12.170  70.652  1.00  0.00    -0.157 C  
HETATM   13  O   UNL     1      -6.644  11.870  66.268  1.00  0.00     0.143 OA 
HETATM   14  C   UNL     1      -7.200  11.201  68.561  1.00  0.00    -0.088 C  
HETATM   15  C   UNL     1      -9.327  11.757  67.449  1.00  0.00    -0.174 C  
HETATM   16  O   UNL     1      -9.186  10.642  66.555  1.00  0.00    -0.161 OA 
HETATM   17  H   UNL     1      -8.481  10.151  66.960  1.00  0.00     0.000 HD 
HETATM   18  C   UNL     1      -5.855  11.928  69.162  1.00  0.00    -0.067 C  
HETATM   19  O   UNL     1      -8.782  11.347  68.754  1.00  0.00    -0.151 OA 
ENDROOT
BRANCH   8  20
HETATM   20  C   UNL     1      -7.939  14.889  69.007  1.00  0.00    -0.170 C  
HETATM   21  C   UNL     1      -6.153  16.493  68.367  1.00  0.00    -0.127 C  
HETATM   22  C   UNL     1      -7.310  15.653  67.846  1.00  0.00    -0.151 C  
HETATM   23  C   UNL     1      -8.316  16.559  67.144  1.00  0.00    -0.206 C  
ENDBRANCH   8  20
BRANCH  14  24
HETATM   24  N   UNL     1      -7.081   9.823  68.977  1.00  0.00    -0.065 N  
HETATM   25  H   UNL     1      -6.600   9.204  68.323  1.00  0.00     0.000 HD 
HETATM   26  O   UNL     1      -8.076   9.839  71.039  1.00  0.00    -0.213 OA 
HETATM   27  C   UNL     1      -7.529   9.236  70.132  1.00  0.00    -0.098 C  
BRANCH  27  28
HETATM   28  C   UNL     1      -7.232   7.731  70.127  1.00  0.00    -0.062 C  
HETATM   29  C   UNL     1      -8.128   6.984  71.148  1.00  0.00    -0.105 C  
HETATM   30  N   UNL     1      -9.392   6.481  70.582  1.00  0.00    -0.162 NA 
HETATM   31  C   UNL     1     -10.195   7.542  69.950  1.00  0.00    -0.210 C  
HETATM   32  C   UNL     1      -9.087   5.350  69.652  1.00  0.00    -0.116 C  
HETATM   33  C   UNL     1     -10.296   4.929  68.714  1.00  0.00    -0.049 C  
HETATM   34  C   UNL     1      -9.928   4.869  67.270  1.00  0.00    -0.220 A  
HETATM   35  C   UNL     1     -10.637   4.956  66.096  1.00  0.00    -0.271 A  
HETATM   36  N   UNL     1      -9.745   4.782  65.050  1.00  0.00    -0.348 NA 
HETATM   37  C   UNL     1      -8.470   4.573  65.535  1.00  0.00    -0.121 A  
HETATM   38  H   UNL     1      -9.996   4.805  64.062  1.00  0.00     0.000 HD 
HETATM   39  C   UNL     1      -7.228   4.355  64.931  1.00  0.00    -0.070 A  
HETATM   40  C   UNL     1      -6.115   4.243  65.786  1.00  0.00    -0.027 A  
HETATM   41  C   UNL     1      -6.220   4.465  67.160  1.00  0.00    -0.036 A  
HETATM   42  C   UNL     1      -7.459   4.797  67.705  1.00  0.00    -0.078 A  
HETATM   43  C   UNL     1      -8.583   4.716  66.898  1.00  0.00    -0.104 A  
HETATM   44  C   UNL     1      -7.638   5.516  69.002  1.00  0.00    -0.087 C  
HETATM   45  C   UNL     1      -7.328   7.029  68.766  1.00  0.00    -0.093 C  
ENDBRANCH  27  28
ENDBRANCH  14  24
TORSDOF 3
ENDMDL
MODEL       52
REMARK 921   NORMALIZED FREE ENERGY PREDICTED BY IDOCK:   -5.50 KCAL/MOL
REMARK 922        TOTAL FREE ENERGY PREDICTED BY IDOCK:   -7.53 KCAL/MOL
REMARK 923 INTER-LIGAND FREE ENERGY PREDICTED BY IDOCK:   -6.93 KCAL/MOL
REMARK 924 INTRA-LIGAND FREE ENERGY PREDICTED BY IDOCK:   -0.60 KCAL/MOL
REMARK 927      BINDING AFFINITY PREDICTED BY RF-SCORE:    0.00 PKD
ROOT
HETATM    1  C   UNL     1      -6.723   5.637  72.491  1.00  0.00    -0.072 C  
HETATM    2  C   UNL     1      -5.610   6.009  73.485  1.00  0.00    -0.037 C  
HETATM    3  C   UNL     1      -5.657   4.838  74.527  1.00  0.00    -0.025 C  
HETATM    4  C   UNL     1      -6.886   4.008  74.162  1.00  0.00    -0.059 C  
HETATM    5  N   UNL     1      -7.646   4.872  73.274  1.00  0.00    -0.091 N  
HETATM    6  C   UNL     1      -8.773   4.381  72.670  1.00  0.00    -0.109 C  
HETATM    7  O   UNL     1      -9.659   3.834  73.321  1.00  0.00    -0.110 OA 
HETATM    8  C   UNL     1      -8.870   4.654  71.136  1.00  0.00    -0.118 C  
HETATM    9  N   UNL     1      -7.499   5.098  70.480  1.00  0.00    -0.068 N  
HETATM   10  C   UNL     1      -8.640   4.396  67.353  1.00  0.00    -0.105 C  
HETATM   11  C   UNL     1      -7.232   5.577  69.206  1.00  0.00    -0.065 C  
HETATM   12  C   UNL     1     -10.587   5.985  67.544  1.00  0.00    -0.345 C  
HETATM   13  O   UNL     1      -6.247   5.265  68.552  1.00  0.00    -0.028 OA 
HETATM   14  C   UNL     1      -8.232   6.665  68.891  1.00  0.00    -0.120 C  
HETATM   15  C   UNL     1      -7.214   6.330  71.109  1.00  0.00    -0.079 C  
HETATM   16  O   UNL     1      -6.053   7.082  70.723  1.00  0.00    -0.031 OA 
HETATM   17  H   UNL     1      -6.340   7.488  69.914  1.00  0.00     0.000 HD 
HETATM   18  C   UNL     1      -9.078   5.845  67.747  1.00  0.00    -0.109 C  
HETATM   19  O   UNL     1      -8.378   6.954  70.458  1.00  0.00    -0.125 OA 
ENDROOT
BRANCH   8  20
HETATM   20  C   UNL     1      -9.651   3.533  70.478  1.00  0.00    -0.246 C  
HETATM   21  C   UNL     1      -9.579   1.471  69.093  1.00  0.00    -0.109 C  
HETATM   22  C   UNL     1      -8.775   2.370  70.022  1.00  0.00    -0.121 C  
HETATM   23  C   UNL     1      -8.256   1.548  71.197  1.00  0.00    -0.055 C  
ENDBRANCH   8  20
BRANCH  14  24
HETATM   24  N   UNL     1      -8.252   8.037  68.440  1.00  0.00    -0.122 N  
HETATM   25  H   UNL     1      -7.468   8.320  67.851  1.00  0.00     0.000 HD 
HETATM   26  O   UNL     1     -10.206   8.826  69.335  1.00  0.00    -0.199 OA 
HETATM   27  C   UNL     1      -9.185   9.009  68.696  1.00  0.00    -0.136 C  
BRANCH  27  28
HETATM   28  C   UNL     1      -8.771  10.341  68.057  1.00  0.00    -0.122 C  
HETATM   29  C   UNL     1      -7.658  10.127  67.000  1.00  0.00    -0.092 C  
HETATM   30  N   UNL     1      -8.162   9.916  65.631  1.00  0.00    -0.132 NA 
HETATM   31  C   UNL     1      -9.108   8.791  65.541  1.00  0.00    -0.163 C  
HETATM   32  C   UNL     1      -8.736  11.201  65.126  1.00  0.00     0.010 C  
HETATM   33  C   UNL     1      -9.615  11.055  63.813  1.00  0.00    -0.321 C  
HETATM   34  C   UNL     1     -10.961  11.686  63.932  1.00  0.00    -0.478 A  
HETATM   35  C   UNL     1     -12.165  11.503  63.295  1.00  0.00     0.038 A  
HETATM   36  N   UNL     1     -13.060  12.427  63.809  1.00  0.00    -0.713 NA 
HETATM   37  C   UNL     1     -12.445  13.213  64.763  1.00  0.00    -0.402 A  
HETATM   38  H   UNL     1     -14.035  12.514  63.523  1.00  0.00     0.000 HD 
HETATM   39  C   UNL     1     -12.878  14.263  65.577  1.00  0.00    -0.334 A  
HETATM   40  C   UNL     1     -11.944  14.785  66.494  1.00  0.00    -0.193 A  
HETATM   41  C   UNL     1     -10.689  14.201  66.675  1.00  0.00    -0.289 A  
HETATM   42  C   UNL     1     -10.343  13.080  65.923  1.00  0.00    -0.296 A  
HETATM   43  C   UNL     1     -11.180  12.688  64.890  1.00  0.00    -0.332 A  
HETATM   44  C   UNL     1      -9.299  12.091  66.326  1.00  0.00    -0.228 C  
HETATM   45  C   UNL     1      -9.902  11.171  67.435  1.00  0.00    -0.195 C  
ENDBRANCH  27  28
ENDBRANCH  14  24
TORSDOF 3
ENDMDL
MODEL       53
REMARK 921   NORMALIZED FREE ENERGY PREDICTED BY IDOCK:   -5.47 KCAL/MOL
REMARK 922        TOTAL FREE ENERGY PREDICTED BY IDOCK:   -7.50 KCAL/MOL
REMARK 923 INTER-LIGAND FREE ENERGY PREDICTED BY IDOCK:   -7.82 KCAL/MOL
REMARK 924 INTRA-LIGAND FREE ENERGY PREDICTED BY IDOCK:    0.33 KCAL/MOL
REMARK 927      BINDING AFFINITY PREDICTED BY RF-SCORE:    0.00 PKD
ROOT
HETATM    1  C   UNL     1      -9.841  10.140  64.998  1.00  0.00    -0.322 C  
HETATM    2  C   UNL     1      -9.525  10.012  63.498  1.00  0.00    -0.241 C  
HETATM    3  C   UNL     1      -9.729  11.471  62.964  1.00  0.00    -0.382 C  
HETATM    4  C   UNL     1     -10.316  12.261  64.133  1.00  0.00    -0.369 C  
HETATM    5  N   UNL     1     -10.758  11.238  65.065  1.00  0.00    -0.281 N  
HETATM    6  C   UNL     1     -11.242  11.617  66.290  1.00  0.00    -0.271 C  
HETATM    7  O   UNL     1     -12.128  12.461  66.392  1.00  0.00    -0.607 OA 
HETATM    8  C   UNL     1     -10.651  10.833  67.503  1.00  0.00    -0.237 C  
HETATM    9  N   UNL     1      -9.335  10.023  67.158  1.00  0.00    -0.148 N  
HETATM   10  C   UNL     1      -8.532   9.707  70.449  1.00  0.00    -0.187 C  
HETATM   11  C   UNL     1      -8.632   9.096  67.913  1.00  0.00    -0.121 C  
HETATM   12  C   UNL     1     -10.691   8.536  71.017  1.00  0.00    -0.278 C  
HETATM   13  O   UNL     1      -7.411   9.035  67.956  1.00  0.00    -0.083 OA 
HETATM   14  C   UNL     1      -9.617   8.096  68.472  1.00  0.00    -0.148 C  
HETATM   15  C   UNL     1      -9.771   9.068  66.212  1.00  0.00    -0.275 C  
HETATM   16  O   UNL     1      -8.850   8.093  65.698  1.00  0.00    -0.224 OA 
HETATM   17  H   UNL     1      -8.809   7.465  66.410  1.00  0.00     0.000 HD 
HETATM   18  C   UNL     1      -9.511   8.555  70.045  1.00  0.00    -0.165 C  
HETATM   19  O   UNL     1     -10.590   8.400  67.238  1.00  0.00    -0.302 OA 
ENDROOT
BRANCH   8  20
HETATM   20  C   UNL     1     -10.640  11.734  68.722  1.00  0.00    -0.234 C  
HETATM   21  C   UNL     1     -11.956  13.142  70.290  1.00  0.00    -0.366 C  
HETATM   22  C   UNL     1     -12.028  11.986  69.303  1.00  0.00    -0.329 C  
HETATM   23  C   UNL     1     -12.588  10.755  70.006  1.00  0.00    -0.247 C  
ENDBRANCH   8  20
BRANCH  14  24
HETATM   24  N   UNL     1      -9.816   6.667  68.526  1.00  0.00    -0.137 N  
HETATM   25  H   UNL     1      -9.669   6.235  69.439  1.00  0.00     0.000 HD 
HETATM   26  O   UNL     1     -10.441   6.170  66.380  1.00  0.00    -0.140 OA 
HETATM   27  C   UNL     1     -10.177   5.813  67.515  1.00  0.00    -0.196 C  
BRANCH  27  28
HETATM   28  C   UNL     1     -10.216   4.364  68.016  1.00  0.00     0.109 C  
HETATM   29  C   UNL     1      -9.394   3.433  67.086  1.00  0.00    -0.193 C  
HETATM   30  N   UNL     1      -7.987   3.270  67.492  1.00  0.00    -0.077 NA 
HETATM   31  C   UNL     1      -7.276   4.554  67.606  1.00  0.00    -0.065 C  
HETATM   32  C   UNL     1      -7.938   2.464  68.750  1.00  0.00    -0.052 C  
HETATM   33  C   UNL     1      -6.535   2.489  69.491  1.00  0.00    -0.029 C  
HETATM   34  C   UNL     1      -6.637   2.848  70.935  1.00  0.00    -0.031 A  
HETATM   35  C   UNL     1      -5.763   3.374  71.856  1.00  0.00    -0.008 A  
HETATM   36  N   UNL     1      -6.423   3.445  73.071  1.00  0.00    -0.023 NA 
HETATM   37  C   UNL     1      -7.710   2.960  72.949  1.00  0.00    -0.051 A  
HETATM   38  H   UNL     1      -6.016   3.804  73.934  1.00  0.00     0.000 HD 
HETATM   39  C   UNL     1      -8.777   2.813  73.840  1.00  0.00    -0.072 A  
HETATM   40  C   UNL     1      -9.986   2.320  73.310  1.00  0.00    -0.172 A  
HETATM   41  C   UNL     1     -10.154   2.109  71.940  1.00  0.00    -0.194 A  
HETATM   42  C   UNL     1      -9.098   2.382  71.073  1.00  0.00    -0.174 A  
HETATM   43  C   UNL     1      -7.855   2.679  71.611  1.00  0.00    -0.048 A  
HETATM   44  C   UNL     1      -9.263   2.671  69.617  1.00  0.00    -0.199 C  
HETATM   45  C   UNL     1      -9.774   4.140  69.468  1.00  0.00    -0.254 C  
ENDBRANCH  27  28
ENDBRANCH  14  24
TORSDOF 3
ENDMDL
MODEL       54
REMARK 921   NORMALIZED FREE ENERGY PREDICTED BY IDOCK:   -5.45 KCAL/MOL
REMARK 922        TOTAL FREE ENERGY PREDICTED BY IDOCK:   -7.48 KCAL/MOL
REMARK 923 INTER-LIGAND FREE ENERGY PREDICTED BY IDOCK:   -6.93 KCAL/MOL
REMARK 924 INTRA-LIGAND FREE ENERGY PREDICTED BY IDOCK:   -0.55 KCAL/MOL
REMARK 927      BINDING AFFINITY PREDICTED BY RF-SCORE:    0.00 PKD
ROOT
HETATM    1  C   UNL     1      -7.579   8.764  70.995  1.00  0.00    -0.111 C  
HETATM    2  C   UNL     1      -6.273   9.088  70.250  1.00  0.00    -0.043 C  
HETATM    3  C   UNL     1      -5.214   8.193  70.979  1.00  0.00    -0.025 C  
HETATM    4  C   UNL     1      -5.941   7.584  72.177  1.00  0.00    -0.039 C  
HETATM    5  N   UNL     1      -7.144   8.388  72.307  1.00  0.00    -0.101 N  
HETATM    6  C   UNL     1      -8.087   8.032  73.236  1.00  0.00    -0.186 C  
HETATM    7  O   UNL     1      -7.781   7.830  74.408  1.00  0.00    -0.153 OA 
HETATM    8  C   UNL     1      -9.554   7.999  72.706  1.00  0.00    -0.277 C  
HETATM    9  N   UNL     1      -9.661   8.000  71.126  1.00  0.00    -0.158 N  
HETATM   10  C   UNL     1     -12.888   6.928  71.233  1.00  0.00    -0.336 C  
HETATM   11  C   UNL     1     -10.770   8.140  70.306  1.00  0.00    -0.235 C  
HETATM   12  C   UNL     1     -13.654   8.897  72.608  1.00  0.00    -0.395 C  
HETATM   13  O   UNL     1     -10.945   7.500  69.279  1.00  0.00    -0.162 OA 
HETATM   14  C   UNL     1     -11.571   9.326  70.791  1.00  0.00    -0.285 C  
HETATM   15  C   UNL     1      -9.108   9.246  70.756  1.00  0.00    -0.244 C  
HETATM   16  O   UNL     1      -9.085   9.641  69.376  1.00  0.00    -0.163 OA 
HETATM   17  H   UNL     1      -9.981   9.924  69.236  1.00  0.00     0.000 HD 
HETATM   18  C   UNL     1     -12.859   8.486  71.368  1.00  0.00    -0.277 C  
HETATM   19  O   UNL     1     -10.230   9.954  71.397  1.00  0.00     0.094 OA 
ENDROOT
BRANCH   8  20
HETATM   20  C   UNL     1     -10.341   6.958  73.478  1.00  0.00    -0.368 C  
HETATM   21  C   UNL     1     -11.285   4.660  73.516  1.00  0.00    -0.400 C  
HETATM   22  C   UNL     1     -10.220   5.552  72.895  1.00  0.00    -0.214 C  
HETATM   23  C   UNL     1      -8.844   4.945  73.144  1.00  0.00    -0.112 C  
ENDBRANCH   8  20
BRANCH  14  24
HETATM   24  N   UNL     1     -12.140  10.549  70.275  1.00  0.00    -0.304 N  
HETATM   25  H   UNL     1     -12.297  10.573  69.267  1.00  0.00     0.000 HD 
HETATM   26  O   UNL     1     -12.427  11.802  72.170  1.00  0.00     0.182 OA 
HETATM   27  C   UNL     1     -12.498  11.683  70.959  1.00  0.00    -0.334 C  
BRANCH  27  28
HETATM   28  C   UNL     1     -13.011  12.760  69.995  1.00  0.00     0.691 C  
HETATM   29  C   UNL     1     -13.277  14.092  70.742  1.00  0.00    -0.152 C  
HETATM   30  N   UNL     1     -12.125  15.012  70.758  1.00  0.00    -0.296 NA 
HETATM   31  C   UNL     1     -10.915  14.397  71.326  1.00  0.00     1.019 C  
HETATM   32  C   UNL     1     -11.914  15.544  69.376  1.00  0.00    -0.336 C  
HETATM   33  C   UNL     1     -10.522  16.274  69.161  1.00  0.00    -0.280 C  
HETATM   34  C   UNL     1      -9.768  15.766  67.978  1.00  0.00    -0.212 A  
HETATM   35  C   UNL     1      -8.442  15.762  67.617  1.00  0.00    -0.160 A  
HETATM   36  N   UNL     1      -8.347  15.180  66.364  1.00  0.00    -0.376 NA 
HETATM   37  C   UNL     1      -9.598  14.817  65.906  1.00  0.00    -0.285 A  
HETATM   38  H   UNL     1      -7.477  15.039  65.852  1.00  0.00     0.000 HD 
HETATM   39  C   UNL     1     -10.061  14.202  64.740  1.00  0.00    -0.200 A  
HETATM   40  C   UNL     1     -11.443  13.937  64.664  1.00  0.00    -0.386 A  
HETATM   41  C   UNL     1     -12.292  14.158  65.750  1.00  0.00    -0.481 A  
HETATM   42  C   UNL     1     -11.765  14.663  66.937  1.00  0.00    -0.366 A  
HETATM   43  C   UNL     1     -10.451  15.104  66.947  1.00  0.00    -0.282 A  
HETATM   44  C   UNL     1     -12.406  14.496  68.276  1.00  0.00     0.013 C  
HETATM   45  C   UNL     1     -12.134  13.039  68.767  1.00  0.00    -0.197 C  
ENDBRANCH  27  28
ENDBRANCH  14  24
TORSDOF 3
ENDMDL
MODEL       55
REMARK 921   NORMALIZED FREE ENERGY PREDICTED BY IDOCK:   -5.41 KCAL/MOL
REMARK 922        TOTAL FREE ENERGY PREDICTED BY IDOCK:   -7.43 KCAL/MOL
REMARK 923 INTER-LIGAND FREE ENERGY PREDICTED BY IDOCK:   -7.10 KCAL/MOL
REMARK 924 INTRA-LIGAND FREE ENERGY PREDICTED BY IDOCK:   -0.33 KCAL/MOL
REMARK 927      BINDING AFFINITY PREDICTED BY RF-SCORE:    0.00 PKD
ROOT
HETATM    1  C   UNL     1     -11.329  13.563  69.371  1.00  0.00    -0.233 C  
HETATM    2  C   UNL     1     -12.001  13.924  70.706  1.00  0.00    -0.348 C  
HETATM    3  C   UNL     1     -12.861  15.183  70.345  1.00  0.00    -0.346 C  
HETATM    4  C   UNL     1     -12.477  15.550  68.913  1.00  0.00     0.269 C  
HETATM    5  N   UNL     1     -11.247  14.813  68.677  1.00  0.00    -0.260 N  
HETATM    6  C   UNL     1     -10.685  14.837  67.427  1.00  0.00    -0.281 C  
HETATM    7  O   UNL     1     -10.470  15.896  66.844  1.00  0.00    -0.301 OA 
HETATM    8  C   UNL     1     -10.270  13.441  66.865  1.00  0.00    -0.252 C  
HETATM    9  N   UNL     1     -10.910  12.223  67.649  1.00  0.00    -0.218 N  
HETATM   10  C   UNL     1     -10.216  10.076  65.103  1.00  0.00    -0.146 C  
HETATM   11  C   UNL     1     -10.652  10.864  67.553  1.00  0.00    -0.230 C  
HETATM   12  C   UNL     1      -7.740  10.543  65.185  1.00  0.00    -0.062 C  
HETATM   13  O   UNL     1     -11.515  10.000  67.598  1.00  0.00    -0.192 OA 
HETATM   14  C   UNL     1      -9.154  10.663  67.595  1.00  0.00    -0.142 C  
HETATM   15  C   UNL     1     -10.359  12.336  68.945  1.00  0.00    -0.059 C  
HETATM   16  O   UNL     1     -10.666  11.352  69.945  1.00  0.00    -0.446 OA 
HETATM   17  H   UNL     1     -10.098  10.632  69.696  1.00  0.00     0.000 HD 
HETATM   18  C   UNL     1      -8.963  10.193  66.033  1.00  0.00    -0.174 C  
HETATM   19  O   UNL     1      -9.018  12.026  68.421  1.00  0.00    -0.183 OA 
ENDROOT
BRANCH   8  20
HETATM   20  C   UNL     1     -10.380  13.458  65.353  1.00  0.00    -0.321 C  
HETATM   21  C   UNL     1     -11.664  12.758  63.345  1.00  0.00    -0.556 C  
HETATM   22  C   UNL     1     -11.752  13.030  64.840  1.00  0.00    -0.381 C  
HETATM   23  C   UNL     1     -12.817  14.089  65.099  1.00  0.00    -0.368 C  
ENDBRANCH   8  20
BRANCH  14  24
HETATM   24  N   UNL     1      -8.172   9.896  68.325  1.00  0.00    -0.108 N  
HETATM   25  H   UNL     1      -8.299   8.884  68.307  1.00  0.00     0.000 HD 
HETATM   26  O   UNL     1      -6.766  11.519  69.120  1.00  0.00    -0.089 OA 
HETATM   27  C   UNL     1      -7.091  10.348  69.039  1.00  0.00    -0.076 C  
BRANCH  27  28
HETATM   28  C   UNL     1      -6.350   9.178  69.700  1.00  0.00    -0.039 C  
HETATM   29  C   UNL     1      -6.387   9.300  71.245  1.00  0.00    -0.072 C  
HETATM   30  N   UNL     1      -7.524   8.606  71.875  1.00  0.00    -0.232 NA 
HETATM   31  C   UNL     1      -8.825   9.049  71.345  1.00  0.00    -0.150 C  
HETATM   32  C   UNL     1      -7.318   7.131  71.751  1.00  0.00    -0.084 C  
HETATM   33  C   UNL     1      -8.603   6.259  72.074  1.00  0.00    -0.131 C  
HETATM   34  C   UNL     1      -8.930   5.271  71.005  1.00  0.00    -0.159 A  
HETATM   35  C   UNL     1     -10.076   4.616  70.624  1.00  0.00    -0.191 A  
HETATM   36  N   UNL     1      -9.750   3.773  69.573  1.00  0.00    -0.155 NA 
HETATM   37  C   UNL     1      -8.405   3.869  69.279  1.00  0.00    -0.060 A  
HETATM   38  H   UNL     1     -10.411   3.169  69.087  1.00  0.00     0.000 HD 
HETATM   39  C   UNL     1      -7.576   3.260  68.333  1.00  0.00    -0.056 A  
HETATM   40  C   UNL     1      -6.230   3.674  68.305  1.00  0.00    -0.032 A  
HETATM   41  C   UNL     1      -5.771   4.730  69.095  1.00  0.00    -0.016 A  
HETATM   42  C   UNL     1      -6.662   5.388  69.940  1.00  0.00    -0.051 A  
HETATM   43  C   UNL     1      -7.932   4.857  70.110  1.00  0.00    -0.073 A  
HETATM   44  C   UNL     1      -6.464   6.777  70.449  1.00  0.00    -0.043 C  
HETATM   45  C   UNL     1      -6.812   7.772  69.296  1.00  0.00    -0.048 C  
ENDBRANCH  27  28
ENDBRANCH  14  24
TORSDOF 3
ENDMDL
MODEL       56
REMARK 921   NORMALIZED FREE ENERGY PREDICTED BY IDOCK:   -5.39 KCAL/MOL
REMARK 922        TOTAL FREE ENERGY PREDICTED BY IDOCK:   -7.40 KCAL/MOL
REMARK 923 INTER-LIGAND FREE ENERGY PREDICTED BY IDOCK:   -6.44 KCAL/MOL
REMARK 924 INTRA-LIGAND FREE ENERGY PREDICTED BY IDOCK:   -0.95 KCAL/MOL
REMARK 927      BINDING AFFINITY PREDICTED BY RF-SCORE:    0.00 PKD
ROOT
HETATM    1  C   UNL     1     -10.809  13.814  65.386  1.00  0.00    -0.312 C  
HETATM    2  C   UNL     1     -12.042  14.309  64.611  1.00  0.00    -0.478 C  
HETATM    3  C   UNL     1     -11.772  15.845  64.456  1.00  0.00    -0.161 C  
HETATM    4  C   UNL     1     -10.530  16.135  65.296  1.00  0.00    -0.331 C  
HETATM    5  N   UNL     1     -10.390  14.958  66.138  1.00  0.00    -0.288 N  
HETATM    6  C   UNL     1      -9.292  14.846  66.950  1.00  0.00    -0.241 C  
HETATM    7  O   UNL     1      -8.969  15.752  67.713  1.00  0.00    -0.175 OA 
HETATM    8  C   UNL     1      -8.563  13.467  66.886  1.00  0.00    -0.099 C  
HETATM    9  N   UNL     1      -8.973  12.588  65.635  1.00  0.00     0.319 N  
HETATM   10  C   UNL     1      -6.240  10.595  66.001  1.00  0.00    -0.134 C  
HETATM   11  C   UNL     1      -8.672  11.268  65.333  1.00  0.00     0.010 C  
HETATM   12  C   UNL     1      -6.862   9.919  68.349  1.00  0.00    -0.063 C  
HETATM   13  O   UNL     1      -8.394  10.871  64.211  1.00  0.00    -0.009 OA 
HETATM   14  C   UNL     1      -8.950  10.428  66.558  1.00  0.00    -0.145 C  
HETATM   15  C   UNL     1     -10.346  12.329  65.845  1.00  0.00    -0.252 C  
HETATM   16  O   UNL     1     -11.068  11.493  64.928  1.00  0.00    -0.284 OA 
HETATM   17  H   UNL     1     -10.797  10.624  65.197  1.00  0.00     0.000 HD 
HETATM   18  C   UNL     1      -7.389  10.066  66.921  1.00  0.00    -0.092 C  
HETATM   19  O   UNL     1     -10.029  11.512  67.029  1.00  0.00    -0.197 OA 
ENDROOT
BRANCH   8  20
HETATM   20  C   UNL     1      -7.088  13.668  67.171  1.00  0.00     0.246 C  
HETATM   21  C   UNL     1      -5.364  14.788  68.567  1.00  0.00    -0.102 C  
HETATM   22  C   UNL     1      -6.815  14.330  68.519  1.00  0.00    -0.100 C  
HETATM   23  C   UNL     1      -7.086  13.386  69.685  1.00  0.00     0.311 C  
ENDBRANCH   8  20
BRANCH  14  24
HETATM   24  N   UNL     1      -9.690   9.245  66.931  1.00  0.00    -0.175 N  
HETATM   25  H   UNL     1     -10.368   9.367  67.683  1.00  0.00     0.000 HD 
HETATM   26  O   UNL     1      -8.884   7.674  65.473  1.00  0.00    -0.108 OA 
HETATM   27  C   UNL     1      -9.603   7.980  66.408  1.00  0.00    -0.197 C  
BRANCH  27  28
HETATM   28  C   UNL     1     -10.541   7.020  67.150  1.00  0.00    -0.412 C  
HETATM   29  C   UNL     1      -9.946   5.589  67.200  1.00  0.00    -0.169 C  
HETATM   30  N   UNL     1      -9.132   5.319  68.398  1.00  0.00    -0.108 NA 
HETATM   31  C   UNL     1      -8.033   6.283  68.568  1.00  0.00    -0.105 C  
HETATM   32  C   UNL     1     -10.035   5.250  69.588  1.00  0.00    -0.232 C  
HETATM   33  C   UNL     1      -9.283   5.303  70.985  1.00  0.00    -0.183 C  
HETATM   34  C   UNL     1      -9.831   6.337  71.909  1.00  0.00    -0.172 A  
HETATM   35  C   UNL     1      -9.324   7.023  72.987  1.00  0.00    -0.147 A  
HETATM   36  N   UNL     1     -10.331   7.836  73.481  1.00  0.00    -0.272 NA 
HETATM   37  C   UNL     1     -11.486   7.674  72.742  1.00  0.00    -0.332 A  
HETATM   38  H   UNL     1     -10.233   8.464  74.278  1.00  0.00     0.000 HD 
HETATM   39  C   UNL     1     -12.762   8.240  72.805  1.00  0.00    -0.014 A  
HETATM   40  C   UNL     1     -13.681   7.853  71.810  1.00  0.00    -0.417 A  
HETATM   41  C   UNL     1     -13.302   7.043  70.737  1.00  0.00     0.236 A  
HETATM   42  C   UNL     1     -11.985   6.596  70.652  1.00  0.00    -0.404 A  
HETATM   43  C   UNL     1     -11.137   6.815  71.726  1.00  0.00    -0.275 A  
HETATM   44  C   UNL     1     -11.328   6.162  69.382  1.00  0.00    -0.401 C  
HETATM   45  C   UNL     1     -10.955   7.441  68.566  1.00  0.00     0.021 C  
ENDBRANCH  27  28
ENDBRANCH  14  24
TORSDOF 3
ENDMDL
MODEL       57
REMARK 921   NORMALIZED FREE ENERGY PREDICTED BY IDOCK:   -5.18 KCAL/MOL
REMARK 922        TOTAL FREE ENERGY PREDICTED BY IDOCK:   -7.16 KCAL/MOL
REMARK 923 INTER-LIGAND FREE ENERGY PREDICTED BY IDOCK:   -6.55 KCAL/MOL
REMARK 924 INTRA-LIGAND FREE ENERGY PREDICTED BY IDOCK:   -0.60 KCAL/MOL
REMARK 927      BINDING AFFINITY PREDICTED BY RF-SCORE:    0.00 PKD
ROOT
HETATM    1  C   UNL     1      -8.676   3.791  66.095  1.00  0.00    -0.117 C  
HETATM    2  C   UNL     1      -9.211   3.472  64.689  1.00  0.00    -0.139 C  
HETATM    3  C   UNL     1      -8.897   1.945  64.526  1.00  0.00    -0.106 C  
HETATM    4  C   UNL     1      -8.058   1.562  65.743  1.00  0.00    -0.076 C  
HETATM    5  N   UNL     1      -7.626   2.838  66.290  1.00  0.00    -0.075 N  
HETATM    6  C   UNL     1      -6.932   2.855  67.472  1.00  0.00    -0.049 C  
HETATM    7  O   UNL     1      -5.940   2.151  67.639  1.00  0.00    -0.019 OA 
HETATM    8  C   UNL     1      -7.445   3.890  68.522  1.00  0.00    -0.055 C  
HETATM    9  N   UNL     1      -8.889   4.456  68.204  1.00  0.00    -0.105 N  
HETATM   10  C   UNL     1      -9.262   5.599  71.387  1.00  0.00    -0.163 C  
HETATM   11  C   UNL     1      -9.594   5.492  68.800  1.00  0.00    -0.135 C  
HETATM   12  C   UNL     1      -7.214   7.063  71.260  1.00  0.00    -0.075 C  
HETATM   13  O   UNL     1     -10.794   5.457  69.030  1.00  0.00    -0.170 OA 
HETATM   14  C   UNL     1      -8.677   6.688  68.906  1.00  0.00    -0.128 C  
HETATM   15  C   UNL     1      -8.715   5.147  66.984  1.00  0.00    -0.103 C  
HETATM   16  O   UNL     1      -9.815   5.859  66.397  1.00  0.00    -0.181 OA 
HETATM   17  H   UNL     1      -9.838   6.653  66.917  1.00  0.00     0.000 HD 
HETATM   18  C   UNL     1      -8.504   6.675  70.540  1.00  0.00    -0.138 C  
HETATM   19  O   UNL     1      -7.853   6.140  67.648  1.00  0.00    -0.102 OA 
ENDROOT
BRANCH   8  20
HETATM   20  C   UNL     1      -7.171   3.363  69.917  1.00  0.00    -0.041 C  
HETATM   21  C   UNL     1      -8.118   2.613  72.088  1.00  0.00    -0.054 C  
HETATM   22  C   UNL     1      -8.411   2.801  70.606  1.00  0.00    -0.092 C  
HETATM   23  C   UNL     1      -8.847   1.469  70.004  1.00  0.00    -0.112 C  
ENDBRANCH   8  20
BRANCH  14  24
HETATM   24  N   UNL     1      -8.657   8.089  68.553  1.00  0.00    -0.127 N  
HETATM   25  H   UNL     1      -7.806   8.417  68.096  1.00  0.00     0.000 HD 
HETATM   26  O   UNL     1     -10.723   8.802  69.236  1.00  0.00    -0.221 OA 
HETATM   27  C   UNL     1      -9.629   9.036  68.752  1.00  0.00    -0.152 C  
BRANCH  27  28
HETATM   28  C   UNL     1      -9.154  10.412  68.268  1.00  0.00    -0.145 C  
HETATM   29  C   UNL     1      -7.913  10.278  67.349  1.00  0.00    -0.107 C  
HETATM   30  N   UNL     1      -8.236  10.166  65.915  1.00  0.00    -0.132 NA 
HETATM   31  C   UNL     1      -9.149   9.047  65.625  1.00  0.00    -0.223 C  
HETATM   32  C   UNL     1      -8.757  11.482  65.434  1.00  0.00     0.162 C  
HETATM   33  C   UNL     1      -9.460  11.429  64.012  1.00  0.00    -0.159 C  
HETATM   34  C   UNL     1     -10.818  12.045  64.004  1.00  0.00    -0.433 A  
HETATM   35  C   UNL     1     -11.929  11.905  63.206  1.00  0.00    -0.337 A  
HETATM   36  N   UNL     1     -12.893  12.787  63.667  1.00  0.00    -0.698 NA 
HETATM   37  C   UNL     1     -12.414  13.503  64.745  1.00  0.00    -0.355 A  
HETATM   38  H   UNL     1     -13.824  12.892  63.265  1.00  0.00     0.000 HD 
HETATM   39  C   UNL     1     -12.959  14.491  65.570  1.00  0.00    -0.024 A  
HETATM   40  C   UNL     1     -12.156  14.948  66.633  1.00  0.00     0.006 A  
HETATM   41  C   UNL     1     -10.927  14.356  66.931  1.00  0.00    -0.308 A  
HETATM   42  C   UNL     1     -10.475  13.293  66.152  1.00  0.00    -0.296 A  
HETATM   43  C   UNL     1     -11.169  12.974  64.995  1.00  0.00    -0.324 A  
HETATM   44  C   UNL     1      -9.479  12.281  66.613  1.00  0.00    -0.227 C  
HETATM   45  C   UNL     1     -10.206  11.281  67.568  1.00  0.00    -0.217 C  
ENDBRANCH  27  28
ENDBRANCH  14  24
TORSDOF 3
ENDMDL
MODEL       58
REMARK 921   NORMALIZED FREE ENERGY PREDICTED BY IDOCK:   -5.17 KCAL/MOL
REMARK 922        TOTAL FREE ENERGY PREDICTED BY IDOCK:   -7.15 KCAL/MOL
REMARK 923 INTER-LIGAND FREE ENERGY PREDICTED BY IDOCK:   -6.20 KCAL/MOL
REMARK 924 INTRA-LIGAND FREE ENERGY PREDICTED BY IDOCK:   -0.95 KCAL/MOL
REMARK 927      BINDING AFFINITY PREDICTED BY RF-SCORE:    0.00 PKD
ROOT
HETATM    1  C   UNL     1      -9.825  11.818  66.236  1.00  0.00    -0.221 C  
HETATM    2  C   UNL     1     -10.565  10.909  65.240  1.00  0.00    -0.259 C  
HETATM    3  C   UNL     1     -11.506  11.906  64.479  1.00  0.00    -0.363 C  
HETATM    4  C   UNL     1     -11.372  13.241  65.209  1.00  0.00    -0.295 C  
HETATM    5  N   UNL     1     -10.742  12.892  66.472  1.00  0.00    -0.267 N  
HETATM    6  C   UNL     1     -10.376  13.894  67.332  1.00  0.00    -0.252 C  
HETATM    7  O   UNL     1     -11.172  14.766  67.671  1.00  0.00    -0.298 OA 
HETATM    8  C   UNL     1      -8.927  13.777  67.901  1.00  0.00    -0.193 C  
HETATM    9  N   UNL     1      -8.011  12.762  67.103  1.00  0.00    -0.147 N  
HETATM   10  C   UNL     1      -5.182  14.078  68.460  1.00  0.00    -0.098 C  
HETATM   11  C   UNL     1      -6.746  12.277  67.401  1.00  0.00    -0.150 C  
HETATM   12  C   UNL     1      -5.920  13.611  70.825  1.00  0.00    -0.130 C  
HETATM   13  O   UNL     1      -5.865  12.109  66.569  1.00  0.00    -0.212 OA 
HETATM   14  C   UNL     1      -6.741  11.819  68.841  1.00  0.00    -0.094 C  
HETATM   15  C   UNL     1      -8.643  11.514  67.304  1.00  0.00    -0.150 C  
HETATM   16  O   UNL     1      -8.057  10.317  66.769  1.00  0.00    -0.117 OA 
HETATM   17  H   UNL     1      -7.365  10.140  67.394  1.00  0.00     0.000 HD 
HETATM   18  C   UNL     1      -5.765  13.000  69.432  1.00  0.00    -0.090 C  
HETATM   19  O   UNL     1      -8.317  11.560  68.739  1.00  0.00    -0.141 OA 
ENDROOT
BRANCH   8  20
HETATM   20  C   UNL     1      -8.387  15.166  68.180  1.00  0.00    -0.147 C  
HETATM   21  C   UNL     1      -6.993  17.062  67.384  1.00  0.00    -0.182 C  
HETATM   22  C   UNL     1      -7.796  15.845  66.948  1.00  0.00    -0.282 C  
HETATM   23  C   UNL     1      -8.874  16.278  65.960  1.00  0.00    -0.308 C  
ENDBRANCH   8  20
BRANCH  14  24
HETATM   24  N   UNL     1      -6.403  10.650  69.618  1.00  0.00    -0.071 N  
HETATM   25  H   UNL     1      -6.439  10.767  70.631  1.00  0.00     0.000 HD 
HETATM   26  O   UNL     1      -5.999   9.079  68.003  1.00  0.00    -0.048 OA 
HETATM   27  C   UNL     1      -6.041   9.403  69.176  1.00  0.00    -0.041 C  
BRANCH  27  28
HETATM   28  C   UNL     1      -5.715   8.481  70.358  1.00  0.00    -0.027 C  
HETATM   29  C   UNL     1      -6.155   9.122  71.699  1.00  0.00    -0.067 C  
HETATM   30  N   UNL     1      -7.520   8.761  72.119  1.00  0.00    -0.323 NA 
HETATM   31  C   UNL     1      -8.532   9.083  71.099  1.00  0.00    -0.177 C  
HETATM   32  C   UNL     1      -7.536   7.320  72.520  1.00  0.00    -0.083 C  
HETATM   33  C   UNL     1      -8.987   6.697  72.672  1.00  0.00    -0.136 C  
HETATM   34  C   UNL     1      -9.166   5.429  71.907  1.00  0.00    -0.155 A  
HETATM   35  C   UNL     1     -10.256   4.761  71.403  1.00  0.00    -0.166 A  
HETATM   36  N   UNL     1      -9.799   3.592  70.816  1.00  0.00    -0.142 NA 
HETATM   37  C   UNL     1      -8.429   3.492  70.945  1.00  0.00    -0.070 A  
HETATM   38  H   UNL     1     -10.392   2.903  70.354  1.00  0.00     0.000 HD 
HETATM   39  C   UNL     1      -7.485   2.545  70.539  1.00  0.00    -0.036 A  
HETATM   40  C   UNL     1      -6.133   2.835  70.812  1.00  0.00    -0.019 A  
HETATM   41  C   UNL     1      -5.740   4.063  71.345  1.00  0.00    -0.012 A  
HETATM   42  C   UNL     1      -6.707   5.027  71.626  1.00  0.00    -0.047 A  
HETATM   43  C   UNL     1      -8.044   4.671  71.541  1.00  0.00    -0.102 A  
HETATM   44  C   UNL     1      -6.428   6.490  71.725  1.00  0.00    -0.046 C  
HETATM   45  C   UNL     1      -6.276   7.055  70.276  1.00  0.00    -0.030 C  
ENDBRANCH  27  28
ENDBRANCH  14  24
TORSDOF 3
ENDMDL
MODEL       59
REMARK 921   NORMALIZED FREE ENERGY PREDICTED BY IDOCK:   -5.17 KCAL/MOL
REMARK 922        TOTAL FREE ENERGY PREDICTED BY IDOCK:   -7.15 KCAL/MOL
REMARK 923 INTER-LIGAND FREE ENERGY PREDICTED BY IDOCK:   -6.17 KCAL/MOL
REMARK 924 INTRA-LIGAND FREE ENERGY PREDICTED BY IDOCK:   -0.98 KCAL/MOL
REMARK 927      BINDING AFFINITY PREDICTED BY RF-SCORE:    0.00 PKD
ROOT
HETATM    1  C   UNL     1      -7.934  14.851  68.324  1.00  0.00    -0.130 C  
HETATM    2  C   UNL     1      -7.083  15.749  69.237  1.00  0.00    -0.199 C  
HETATM    3  C   UNL     1      -7.642  17.185  68.948  1.00  0.00    -0.234 C  
HETATM    4  C   UNL     1      -8.614  17.023  67.781  1.00  0.00    -0.213 C  
HETATM    5  N   UNL     1      -8.302  15.711  67.239  1.00  0.00    -0.169 N  
HETATM    6  C   UNL     1      -9.080  15.203  66.232  1.00  0.00    -0.278 C  
HETATM    7  O   UNL     1      -9.313  15.855  65.217  1.00  0.00    -0.253 OA 
HETATM    8  C   UNL     1      -9.551  13.730  66.442  1.00  0.00    -0.272 C  
HETATM    9  N   UNL     1      -9.383  13.214  67.929  1.00  0.00    -0.207 N  
HETATM   10  C   UNL     1     -11.512  10.616  67.386  1.00  0.00    -0.022 C  
HETATM   11  C   UNL     1      -9.531  11.939  68.455  1.00  0.00    -0.189 C  
HETATM   12  C   UNL     1     -10.126   9.680  65.500  1.00  0.00    -0.165 C  
HETATM   13  O   UNL     1     -10.053  11.702  69.534  1.00  0.00     0.202 OA 
HETATM   14  C   UNL     1      -8.770  10.974  67.576  1.00  0.00    -0.128 C  
HETATM   15  C   UNL     1      -7.985  13.242  68.135  1.00  0.00    -0.150 C  
HETATM   16  O   UNL     1      -7.432  12.777  69.375  1.00  0.00    -0.310 OA 
HETATM   17  H   UNL     1      -7.461  11.834  69.265  1.00  0.00     0.000 HD 
HETATM   18  C   UNL     1     -10.072  10.204  66.935  1.00  0.00    -0.279 C  
HETATM   19  O   UNL     1      -7.800  12.170  67.142  1.00  0.00    -0.163 OA 
ENDROOT
BRANCH   8  20
HETATM   20  C   UNL     1     -10.891  13.532  65.761  1.00  0.00    -0.280 C  
HETATM   21  C   UNL     1     -12.190  13.616  63.644  1.00  0.00    -0.376 C  
HETATM   22  C   UNL     1     -10.795  13.479  64.239  1.00  0.00    -0.340 C  
HETATM   23  C   UNL     1     -10.162  12.181  63.749  1.00  0.00    -0.449 C  
ENDBRANCH   8  20
BRANCH  14  24
HETATM   24  N   UNL     1      -7.764   9.944  67.694  1.00  0.00    -0.091 N  
HETATM   25  H   UNL     1      -7.521   9.462  66.828  1.00  0.00     0.000 HD 
HETATM   26  O   UNL     1      -7.225  10.028  69.918  1.00  0.00    -0.108 OA 
HETATM   27  C   UNL     1      -7.093   9.526  68.815  1.00  0.00    -0.068 C  
BRANCH  27  28
HETATM   28  C   UNL     1      -6.152   8.362  68.483  1.00  0.00    -0.045 C  
HETATM   29  C   UNL     1      -5.680   7.644  69.773  1.00  0.00    -0.023 C  
HETATM   30  N   UNL     1      -6.531   6.510  70.175  1.00  0.00    -0.039 NA 
HETATM   31  C   UNL     1      -7.943   6.892  70.349  1.00  0.00    -0.114 C  
HETATM   32  C   UNL     1      -6.347   5.397  69.194  1.00  0.00    -0.034 C  
HETATM   33  C   UNL     1      -7.436   4.247  69.294  1.00  0.00    -0.055 C  
HETATM   34  C   UNL     1      -8.075   3.926  67.986  1.00  0.00    -0.088 A  
HETATM   35  C   UNL     1      -9.269   3.353  67.618  1.00  0.00    -0.190 A  
HETATM   36  N   UNL     1      -9.291   3.274  66.235  1.00  0.00    -0.287 NA 
HETATM   37  C   UNL     1      -8.120   3.778  65.706  1.00  0.00    -0.093 A  
HETATM   38  H   UNL     1     -10.063   2.896  65.686  1.00  0.00     0.000 HD 
HETATM   39  C   UNL     1      -7.637   3.939  64.404  1.00  0.00    -0.079 A  
HETATM   40  C   UNL     1      -6.384   4.567  64.263  1.00  0.00    -0.033 A  
HETATM   41  C   UNL     1      -5.713   5.118  65.356  1.00  0.00    -0.014 A  
HETATM   42  C   UNL     1      -6.288   5.038  66.622  1.00  0.00    -0.040 A  
HETATM   43  C   UNL     1      -7.420   4.255  66.789  1.00  0.00    -0.081 A  
HETATM   44  C   UNL     1      -5.962   5.960  67.750  1.00  0.00    -0.017 C  
HETATM   45  C   UNL     1      -6.692   7.318  67.496  1.00  0.00    -0.065 C  
ENDBRANCH  27  28
ENDBRANCH  14  24
TORSDOF 3
ENDMDL
MODEL       60
REMARK 921   NORMALIZED FREE ENERGY PREDICTED BY IDOCK:   -4.97 KCAL/MOL
REMARK 922        TOTAL FREE ENERGY PREDICTED BY IDOCK:   -6.91 KCAL/MOL
REMARK 923 INTER-LIGAND FREE ENERGY PREDICTED BY IDOCK:   -5.95 KCAL/MOL
REMARK 924 INTRA-LIGAND FREE ENERGY PREDICTED BY IDOCK:   -0.96 KCAL/MOL
REMARK 927      BINDING AFFINITY PREDICTED BY RF-SCORE:    0.00 PKD
ROOT
HETATM    1  C   UNL     1      -8.889  15.835  67.889  1.00  0.00    -0.175 C  
HETATM    2  C   UNL     1      -8.225  16.977  68.676  1.00  0.00    -0.261 C  
HETATM    3  C   UNL     1      -8.989  18.250  68.171  1.00  0.00    -0.314 C  
HETATM    4  C   UNL     1      -9.878  17.771  67.025  1.00  0.00    -0.309 C  
HETATM    5  N   UNL     1      -9.344  16.463  66.685  1.00  0.00    -0.243 N  
HETATM    6  C   UNL     1      -9.993  15.701  65.749  1.00  0.00    -0.359 C  
HETATM    7  O   UNL     1     -10.286  16.157  64.647  1.00  0.00    -0.425 OA 
HETATM    8  C   UNL     1     -10.237  14.216  66.164  1.00  0.00    -0.304 C  
HETATM    9  N   UNL     1     -10.048  13.948  67.713  1.00  0.00    -0.237 N  
HETATM   10  C   UNL     1     -11.723  10.993  67.519  1.00  0.00    -0.023 C  
HETATM   11  C   UNL     1     -10.016  12.753  68.416  1.00  0.00    -0.210 C  
HETATM   12  C   UNL     1     -10.135  10.034  65.811  1.00  0.00    -0.320 C  
HETATM   13  O   UNL     1     -10.537  12.590  69.510  1.00  0.00     0.153 OA 
HETATM   14  C   UNL     1      -9.080  11.807  67.699  1.00  0.00    -0.177 C  
HETATM   15  C   UNL     1      -8.681  14.228  67.935  1.00  0.00    -0.178 C  
HETATM   16  O   UNL     1      -8.110  14.037  69.239  1.00  0.00    -0.342 OA 
HETATM   17  H   UNL     1      -7.988  13.096  69.266  1.00  0.00     0.000 HD 
HETATM   18  C   UNL     1     -10.219  10.757  67.156  1.00  0.00    -0.255 C  
HETATM   19  O   UNL     1      -8.292  13.070  67.111  1.00  0.00    -0.184 OA 
ENDROOT
BRANCH   8  20
HETATM   20  C   UNL     1     -11.502  13.712  65.497  1.00  0.00    -0.317 C  
HETATM   21  C   UNL     1     -12.756  13.383  63.378  1.00  0.00     0.156 C  
HETATM   22  C   UNL     1     -11.371  13.563  63.984  1.00  0.00    -0.306 C  
HETATM   23  C   UNL     1     -10.492  12.378  63.598  1.00  0.00    -0.460 C  
ENDBRANCH   8  20
BRANCH  14  24
HETATM   24  N   UNL     1      -7.931  10.979  67.982  1.00  0.00    -0.111 N  
HETATM   25  H   UNL     1      -7.671  10.318  67.248  1.00  0.00     0.000 HD 
HETATM   26  O   UNL     1      -7.283  11.717  70.050  1.00  0.00     0.232 OA 
HETATM   27  C   UNL     1      -7.144  10.961  69.105  1.00  0.00    -0.109 C  
BRANCH  27  28
HETATM   28  C   UNL     1      -6.065   9.876  68.994  1.00  0.00    -0.040 C  
HETATM   29  C   UNL     1      -5.573   9.436  70.397  1.00  0.00    -0.036 C  
HETATM   30  N   UNL     1      -6.310   8.291  70.961  1.00  0.00    -0.037 NA 
HETATM   31  C   UNL     1      -7.762   8.530  71.033  1.00  0.00    -0.097 C  
HETATM   32  C   UNL     1      -5.960   7.063  70.183  1.00  0.00    -0.024 C  
HETATM   33  C   UNL     1      -6.918   5.826  70.446  1.00  0.00    -0.065 C  
HETATM   34  C   UNL     1      -7.460   5.224  69.193  1.00  0.00    -0.069 A  
HETATM   35  C   UNL     1      -8.565   4.464  68.895  1.00  0.00    -0.084 A  
HETATM   36  N   UNL     1      -8.517   4.159  67.545  1.00  0.00    -0.098 NA 
HETATM   37  C   UNL     1      -7.387   4.704  66.969  1.00  0.00    -0.081 A  
HETATM   38  H   UNL     1      -9.217   3.610  67.047  1.00  0.00     0.000 HD 
HETATM   39  C   UNL     1      -6.868   4.707  65.671  1.00  0.00    -0.061 A  
HETATM   40  C   UNL     1      -5.688   5.446  65.459  1.00  0.00    -0.014 A  
HETATM   41  C   UNL     1      -5.131   6.242  66.462  1.00  0.00    -0.012 A  
HETATM   42  C   UNL     1      -5.749   6.302  67.709  1.00  0.00    -0.009 A  
HETATM   43  C   UNL     1      -6.793   5.429  67.975  1.00  0.00    -0.060 A  
HETATM   44  C   UNL     1      -5.578   7.426  68.676  1.00  0.00    -0.022 C  
HETATM   45  C   UNL     1      -6.442   8.630  68.181  1.00  0.00    -0.060 C  
ENDBRANCH  27  28
ENDBRANCH  14  24
TORSDOF 3
ENDMDL
MODEL       61
REMARK 921   NORMALIZED FREE ENERGY PREDICTED BY IDOCK:   -4.94 KCAL/MOL
REMARK 922        TOTAL FREE ENERGY PREDICTED BY IDOCK:   -6.87 KCAL/MOL
REMARK 923 INTER-LIGAND FREE ENERGY PREDICTED BY IDOCK:   -5.89 KCAL/MOL
REMARK 924 INTRA-LIGAND FREE ENERGY PREDICTED BY IDOCK:   -0.98 KCAL/MOL
REMARK 927      BINDING AFFINITY PREDICTED BY RF-SCORE:    0.00 PKD
ROOT
HETATM    1  C   UNL     1      -6.777   4.003  69.595  1.00  0.00    -0.037 C  
HETATM    2  C   UNL     1      -5.845   3.381  68.541  1.00  0.00    -0.023 C  
HETATM    3  C   UNL     1      -5.620   1.926  69.078  1.00  0.00    -0.018 C  
HETATM    4  C   UNL     1      -6.269   1.889  70.460  1.00  0.00    -0.023 C  
HETATM    5  N   UNL     1      -6.465   3.290  70.797  1.00  0.00    -0.030 N  
HETATM    6  C   UNL     1      -7.137   3.611  71.947  1.00  0.00    -0.045 C  
HETATM    7  O   UNL     1      -6.818   3.126  73.029  1.00  0.00    -0.032 OA 
HETATM    8  C   UNL     1      -8.252   4.690  71.778  1.00  0.00    -0.105 C  
HETATM    9  N   UNL     1      -8.675   4.939  70.273  1.00  0.00    -0.097 N  
HETATM   10  C   UNL     1     -11.557   6.478  71.220  1.00  0.00    -0.381 C  
HETATM   11  C   UNL     1      -9.493   5.915  69.724  1.00  0.00    -0.148 C  
HETATM   12  C   UNL     1     -10.352   8.240  72.561  1.00  0.00    -0.401 C  
HETATM   13  O   UNL     1     -10.295   5.707  68.825  1.00  0.00    -0.188 OA 
HETATM   14  C   UNL     1      -9.069   7.255  70.279  1.00  0.00    -0.152 C  
HETATM   15  C   UNL     1      -7.500   5.452  69.678  1.00  0.00    -0.066 C  
HETATM   16  O   UNL     1      -7.510   5.861  68.302  1.00  0.00    -0.082 OA 
HETATM   17  H   UNL     1      -7.934   6.710  68.351  1.00  0.00     0.000 HD 
HETATM   18  C   UNL     1     -10.395   7.525  71.210  1.00  0.00    -0.203 C  
HETATM   19  O   UNL     1      -7.595   6.671  70.500  1.00  0.00    -0.094 OA 
ENDROOT
BRANCH   8  20
HETATM   20  C   UNL     1      -9.346   4.442  72.799  1.00  0.00    -0.151 C  
HETATM   21  C   UNL     1     -11.597   3.496  73.258  1.00  0.00     0.009 C  
HETATM   22  C   UNL     1     -10.388   3.428  72.336  1.00  0.00    -0.153 C  
HETATM   23  C   UNL     1      -9.840   2.006  72.325  1.00  0.00    -0.207 C  
ENDBRANCH   8  20
BRANCH  14  24
HETATM   24  N   UNL     1      -8.688   8.566  69.806  1.00  0.00    -0.131 N  
HETATM   25  H   UNL     1      -9.091   8.847  68.912  1.00  0.00     0.000 HD 
HETATM   26  O   UNL     1      -7.335   9.327  71.489  1.00  0.00    -0.323 OA 
HETATM   27  C   UNL     1      -7.856   9.482  70.399  1.00  0.00    -0.172 C  
BRANCH  27  28
HETATM   28  C   UNL     1      -7.692  10.721  69.510  1.00  0.00    -0.074 C  
HETATM   29  C   UNL     1      -6.195  11.008  69.229  1.00  0.00    -0.059 C  
HETATM   30  N   UNL     1      -5.681  10.372  68.003  1.00  0.00    -0.041 NA 
HETATM   31  C   UNL     1      -5.882   8.913  67.993  1.00  0.00    -0.046 C  
HETATM   32  C   UNL     1      -6.287  11.051  66.817  1.00  0.00    -0.114 C  
HETATM   33  C   UNL     1      -6.100  10.271  65.448  1.00  0.00    -0.120 C  
HETATM   34  C   UNL     1      -7.377  10.073  64.704  1.00  0.00    -0.143 A  
HETATM   35  C   UNL     1      -7.803   9.177  63.752  1.00  0.00    -0.133 A  
HETATM   36  N   UNL     1      -9.097   9.522  63.396  1.00  0.00    -0.404 NA 
HETATM   37  C   UNL     1      -9.507  10.637  64.098  1.00  0.00    -0.281 A  
HETATM   38  H   UNL     1      -9.665   9.023  62.712  1.00  0.00     0.000 HD 
HETATM   39  C   UNL     1     -10.691  11.380  64.128  1.00  0.00    -0.434 A  
HETATM   40  C   UNL     1     -10.751  12.447  65.046  1.00  0.00    -0.329 A  
HETATM   41  C   UNL     1      -9.732  12.674  65.973  1.00  0.00    -0.232 A  
HETATM   42  C   UNL     1      -8.620  11.834  65.985  1.00  0.00     0.064 A  
HETATM   43  C   UNL     1      -8.473  10.912  64.961  1.00  0.00    -0.009 A  
HETATM   44  C   UNL     1      -7.728  11.643  67.168  1.00  0.00    -0.159 C  
HETATM   45  C   UNL     1      -8.458  10.705  68.181  1.00  0.00    -0.122 C  
ENDBRANCH  27  28
ENDBRANCH  14  24
TORSDOF 3
ENDMDL
MODEL       62
REMARK 921   NORMALIZED FREE ENERGY PREDICTED BY IDOCK:   -4.90 KCAL/MOL
REMARK 922        TOTAL FREE ENERGY PREDICTED BY IDOCK:   -6.82 KCAL/MOL
REMARK 923 INTER-LIGAND FREE ENERGY PREDICTED BY IDOCK:   -5.87 KCAL/MOL
REMARK 924 INTRA-LIGAND FREE ENERGY PREDICTED BY IDOCK:   -0.96 KCAL/MOL
REMARK 927      BINDING AFFINITY PREDICTED BY RF-SCORE:    0.00 PKD
ROOT
HETATM    1  C   UNL     1      -6.513  12.763  69.406  1.00  0.00    -0.096 C  
HETATM    2  C   UNL     1      -5.458  12.442  70.478  1.00  0.00    -0.159 C  
HETATM    3  C   UNL     1      -5.299  13.802  71.241  1.00  0.00    -0.191 C  
HETATM    4  C   UNL     1      -6.114  14.821  70.446  1.00  0.00    -0.160 C  
HETATM    5  N   UNL     1      -6.351  14.166  69.170  1.00  0.00    -0.100 N  
HETATM    6  C   UNL     1      -7.160  14.777  68.247  1.00  0.00    -0.113 C  
HETATM    7  O   UNL     1      -6.976  15.944  67.912  1.00  0.00    -0.120 OA 
HETATM    8  C   UNL     1      -8.247  13.854  67.612  1.00  0.00    -0.177 C  
HETATM    9  N   UNL     1      -8.481  12.505  68.407  1.00  0.00    -0.156 N  
HETATM   10  C   UNL     1     -11.459  11.975  66.850  1.00  0.00    -0.402 C  
HETATM   11  C   UNL     1      -9.226  11.386  68.067  1.00  0.00    -0.171 C  
HETATM   12  C   UNL     1     -10.430  11.990  64.549  1.00  0.00    -0.341 C  
HETATM   13  O   UNL     1      -9.911  10.756  68.860  1.00  0.00    -0.188 OA 
HETATM   14  C   UNL     1      -8.874  10.995  66.650  1.00  0.00    -0.164 C  
HETATM   15  C   UNL     1      -7.242  11.834  68.294  1.00  0.00    -0.084 C  
HETATM   16  O   UNL     1      -7.083  10.520  68.852  1.00  0.00    -0.064 OA 
HETATM   17  H   UNL     1      -7.510   9.976  68.201  1.00  0.00     0.000 HD 
HETATM   18  C   UNL     1     -10.305  11.410  65.958  1.00  0.00    -0.297 C  
HETATM   19  O   UNL     1      -7.439  11.675  66.843  1.00  0.00    -0.146 OA 
ENDROOT
BRANCH   8  20
HETATM   20  C   UNL     1      -9.458  14.689  67.244  1.00  0.00    -0.221 C  
HETATM   21  C   UNL     1     -11.756  15.413  67.848  1.00  0.00    -0.198 C  
HETATM   22  C   UNL     1     -10.446  14.863  68.393  1.00  0.00    -0.243 C  
HETATM   23  C   UNL     1      -9.913  15.802  69.471  1.00  0.00    -0.283 C  
ENDBRANCH   8  20
BRANCH  14  24
HETATM   24  N   UNL     1      -8.439   9.834  65.910  1.00  0.00    -0.126 N  
HETATM   25  H   UNL     1      -7.618   9.969  65.319  1.00  0.00     0.000 HD 
HETATM   26  O   UNL     1      -9.929   8.230  66.579  1.00  0.00    -0.259 OA 
HETATM   27  C   UNL     1      -8.982   8.574  65.895  1.00  0.00    -0.189 C  
BRANCH  27  28
HETATM   28  C   UNL     1      -8.224   7.668  64.916  1.00  0.00    -0.098 C  
HETATM   29  C   UNL     1      -6.695   7.740  65.164  1.00  0.00    -0.051 C  
HETATM   30  N   UNL     1      -6.191   6.723  66.104  1.00  0.00    -0.043 NA 
HETATM   31  C   UNL     1      -6.873   6.765  67.408  1.00  0.00    -0.073 C  
HETATM   32  C   UNL     1      -6.270   5.381  65.449  1.00  0.00    -0.034 C  
HETATM   33  C   UNL     1      -6.085   4.156  66.441  1.00  0.00    -0.031 C  
HETATM   34  C   UNL     1      -7.170   3.139  66.330  1.00  0.00    -0.070 A  
HETATM   35  C   UNL     1      -7.672   2.177  67.174  1.00  0.00    -0.065 A  
HETATM   36  N   UNL     1      -8.666   1.495  66.493  1.00  0.00    -0.111 NA 
HETATM   37  C   UNL     1      -8.804   1.996  65.214  1.00  0.00    -0.120 A  
HETATM   38  H   UNL     1      -9.217   0.730  66.881  1.00  0.00     0.000 HD 
HETATM   39  C   UNL     1      -9.641   1.686  64.138  1.00  0.00    -0.133 A  
HETATM   40  C   UNL     1      -9.519   2.486  62.985  1.00  0.00    -0.090 A  
HETATM   41  C   UNL     1      -8.697   3.614  62.959  1.00  0.00    -0.095 A  
HETATM   42  C   UNL     1      -7.969   3.955  64.097  1.00  0.00    -0.086 A  
HETATM   43  C   UNL     1      -7.939   3.064  65.159  1.00  0.00    -0.082 A  
HETATM   44  C   UNL     1      -7.460   5.329  64.386  1.00  0.00    -0.066 C  
HETATM   45  C   UNL     1      -8.659   6.197  64.884  1.00  0.00     0.025 C  
ENDBRANCH  27  28
ENDBRANCH  14  24
TORSDOF 3
ENDMDL
MODEL       63
REMARK 921   NORMALIZED FREE ENERGY PREDICTED BY IDOCK:   -4.70 KCAL/MOL
REMARK 922        TOTAL FREE ENERGY PREDICTED BY IDOCK:   -6.60 KCAL/MOL
REMARK 923 INTER-LIGAND FREE ENERGY PREDICTED BY IDOCK:   -6.28 KCAL/MOL
REMARK 924 INTRA-LIGAND FREE ENERGY PREDICTED BY IDOCK:   -0.32 KCAL/MOL
REMARK 927      BINDING AFFINITY PREDICTED BY RF-SCORE:    0.00 PKD
ROOT
HETATM    1  C   UNL     1      -7.138  14.354  68.829  1.00  0.00    -0.114 C  
HETATM    2  C   UNL     1      -6.191  14.728  69.981  1.00  0.00    -0.158 C  
HETATM    3  C   UNL     1      -6.351  16.284  70.083  1.00  0.00     0.044 C  
HETATM    4  C   UNL     1      -7.211  16.691  68.888  1.00  0.00    -0.219 C  
HETATM    5  N   UNL     1      -7.174  15.530  68.014  1.00  0.00    -0.113 N  
HETATM    6  C   UNL     1      -7.946  15.524  66.882  1.00  0.00    -0.229 C  
HETATM    7  O   UNL     1      -7.911  16.455  66.081  1.00  0.00    -0.261 OA 
HETATM    8  C   UNL     1      -8.781  14.224  66.661  1.00  0.00    -0.068 C  
HETATM    9  N   UNL     1      -8.895  13.314  67.952  1.00  0.00    -0.182 N  
HETATM   10  C   UNL     1     -11.526  11.599  66.645  1.00  0.00    -0.280 C  
HETATM   11  C   UNL     1      -9.402  12.031  68.099  1.00  0.00    -0.199 C  
HETATM   12  C   UNL     1     -10.228  10.855  64.617  1.00  0.00    -0.411 C  
HETATM   13  O   UNL     1     -10.072  11.667  69.054  1.00  0.00    -0.138 OA 
HETATM   14  C   UNL     1      -8.814  11.163  67.010  1.00  0.00    -0.149 C  
HETATM   15  C   UNL     1      -7.561  12.920  68.200  1.00  0.00    -0.135 C  
HETATM   16  O   UNL     1      -7.265  12.021  69.279  1.00  0.00    -0.288 OA 
HETATM   17  H   UNL     1      -7.513  11.181  68.911  1.00  0.00     0.000 HD 
HETATM   18  C   UNL     1     -10.192  10.955  66.142  1.00  0.00    -0.304 C  
HETATM   19  O   UNL     1      -7.543  12.133  66.954  1.00  0.00    -0.122 OA 
ENDROOT
BRANCH   8  20
HETATM   20  C   UNL     1     -10.053  14.568  65.911  1.00  0.00    -0.346 C  
HETATM   21  C   UNL     1     -12.527  14.788  65.987  1.00  0.00     0.101 C  
HETATM   22  C   UNL     1     -11.256  14.783  66.825  1.00  0.00    -0.344 C  
HETATM   23  C   UNL     1     -11.159  16.091  67.604  1.00  0.00    -0.243 C  
ENDBRANCH   8  20
BRANCH  14  24
HETATM   24  N   UNL     1      -8.107   9.911  66.869  1.00  0.00    -0.112 N  
HETATM   25  H   UNL     1      -7.187   9.970  66.432  1.00  0.00     0.000 HD 
HETATM   26  O   UNL     1      -9.551   8.414  67.825  1.00  0.00    -0.149 OA 
HETATM   27  C   UNL     1      -8.507   8.654  67.245  1.00  0.00    -0.115 C  
BRANCH  27  28
HETATM   28  C   UNL     1      -7.457   7.609  66.849  1.00  0.00    -0.094 C  
HETATM   29  C   UNL     1      -6.398   7.435  67.967  1.00  0.00    -0.048 C  
HETATM   30  N   UNL     1      -6.719   6.375  68.939  1.00  0.00    -0.058 NA 
HETATM   31  C   UNL     1      -8.034   6.565  69.574  1.00  0.00    -0.117 C  
HETATM   32  C   UNL     1      -6.585   5.047  68.266  1.00  0.00    -0.049 C  
HETATM   33  C   UNL     1      -7.218   3.836  69.072  1.00  0.00    -0.050 C  
HETATM   34  C   UNL     1      -8.153   3.009  68.255  1.00  0.00    -0.074 A  
HETATM   35  C   UNL     1      -9.197   2.167  68.553  1.00  0.00    -0.179 A  
HETATM   36  N   UNL     1      -9.666   1.639  67.362  1.00  0.00    -0.380 NA 
HETATM   37  C   UNL     1      -8.930   2.121  66.298  1.00  0.00    -0.099 A  
HETATM   38  H   UNL     1     -10.446   0.986  67.282  1.00  0.00     0.000 HD 
HETATM   39  C   UNL     1      -8.982   1.922  64.916  1.00  0.00    -0.122 A  
HETATM   40  C   UNL     1      -8.073   2.659  64.132  1.00  0.00    -0.082 A  
HETATM   41  C   UNL     1      -7.246   3.635  64.691  1.00  0.00    -0.066 A  
HETATM   42  C   UNL     1      -7.312   3.883  66.060  1.00  0.00    -0.072 A  
HETATM   43  C   UNL     1      -8.060   3.029  66.855  1.00  0.00    -0.080 A  
HETATM   44  C   UNL     1      -6.884   5.162  66.702  1.00  0.00    -0.063 C  
HETATM   45  C   UNL     1      -7.996   6.229  66.448  1.00  0.00    -0.109 C  
ENDBRANCH  27  28
ENDBRANCH  14  24
TORSDOF 3
ENDMDL
MODEL       64
REMARK 921   NORMALIZED FREE ENERGY PREDICTED BY IDOCK:   -4.59 KCAL/MOL
REMARK 922        TOTAL FREE ENERGY PREDICTED BY IDOCK:   -6.47 KCAL/MOL
REMARK 923 INTER-LIGAND FREE ENERGY PREDICTED BY IDOCK:   -6.01 KCAL/MOL
REMARK 924 INTRA-LIGAND FREE ENERGY PREDICTED BY IDOCK:   -0.46 KCAL/MOL
REMARK 927      BINDING AFFINITY PREDICTED BY RF-SCORE:    0.00 PKD
ROOT
HETATM    1  C   UNL     1      -6.526   5.430  72.172  1.00  0.00    -0.055 C  
HETATM    2  C   UNL     1      -5.414   5.705  73.198  1.00  0.00    -0.023 C  
HETATM    3  C   UNL     1      -5.606   4.556  74.248  1.00  0.00    -0.013 C  
HETATM    4  C   UNL     1      -6.897   3.844  73.851  1.00  0.00    -0.050 C  
HETATM    5  N   UNL     1      -7.542   4.767  72.932  1.00  0.00    -0.090 N  
HETATM    6  C   UNL     1      -8.693   4.380  72.296  1.00  0.00    -0.113 C  
HETATM    7  O   UNL     1      -9.647   3.928  72.923  1.00  0.00    -0.120 OA 
HETATM    8  C   UNL     1      -8.715   4.643  70.757  1.00  0.00    -0.104 C  
HETATM    9  N   UNL     1      -7.288   4.945  70.142  1.00  0.00    -0.053 N  
HETATM   10  C   UNL     1      -8.393   4.320  66.986  1.00  0.00    -0.101 C  
HETATM   11  C   UNL     1      -6.936   5.382  68.873  1.00  0.00    -0.056 C  
HETATM   12  C   UNL     1     -10.183   6.092  67.101  1.00  0.00    -0.246 C  
HETATM   13  O   UNL     1      -5.966   4.969  68.254  1.00  0.00    -0.023 OA 
HETATM   14  C   UNL     1      -7.816   6.557  68.517  1.00  0.00    -0.106 C  
HETATM   15  C   UNL     1      -6.904   6.152  70.770  1.00  0.00    -0.062 C  
HETATM   16  O   UNL     1      -5.665   6.784  70.415  1.00  0.00    -0.022 OA 
HETATM   17  H   UNL     1      -5.886   7.207  69.593  1.00  0.00     0.000 HD 
HETATM   18  C   UNL     1      -8.702   5.809  67.353  1.00  0.00    -0.107 C  
HETATM   19  O   UNL     1      -7.982   6.877  70.076  1.00  0.00    -0.111 OA 
ENDROOT
BRANCH   8  20
HETATM   20  C   UNL     1      -9.580   3.595  70.084  1.00  0.00    -0.242 C  
HETATM   21  C   UNL     1      -9.665   1.470  68.800  1.00  0.00    -0.098 C  
HETATM   22  C   UNL     1      -8.827   2.309  69.754  1.00  0.00    -0.138 C  
HETATM   23  C   UNL     1      -8.513   1.493  71.003  1.00  0.00    -0.073 C  
ENDBRANCH   8  20
BRANCH  14  24
HETATM   24  N   UNL     1      -7.690   7.920  68.054  1.00  0.00    -0.122 N  
HETATM   25  H   UNL     1      -6.896   8.106  67.440  1.00  0.00     0.000 HD 
HETATM   26  O   UNL     1      -9.510   8.937  68.999  1.00  0.00    -0.154 OA 
HETATM   27  C   UNL     1      -8.495   8.996  68.329  1.00  0.00    -0.129 C  
BRANCH  27  28
HETATM   28  C   UNL     1      -7.948  10.266  67.665  1.00  0.00    -0.102 C  
HETATM   29  C   UNL     1      -8.063  10.180  66.122  1.00  0.00    -0.123 C  
HETATM   30  N   UNL     1      -9.314  10.739  65.580  1.00  0.00    -0.197 NA 
HETATM   31  C   UNL     1     -10.514  10.121  66.169  1.00  0.00    -0.103 C  
HETATM   32  C   UNL     1      -9.287  12.225  65.741  1.00  0.00    -0.046 C  
HETATM   33  C   UNL     1     -10.690  12.934  65.520  1.00  0.00    -0.301 C  
HETATM   34  C   UNL     1     -11.072  13.845  66.637  1.00  0.00    -0.310 A  
HETATM   35  C   UNL     1     -12.266  14.339  67.105  1.00  0.00    -0.277 A  
HETATM   36  N   UNL     1     -11.986  15.189  68.162  1.00  0.00    -0.521 NA 
HETATM   37  C   UNL     1     -10.624  15.259  68.375  1.00  0.00    -0.246 A  
HETATM   38  H   UNL     1     -12.687  15.693  68.705  1.00  0.00     0.000 HD 
HETATM   39  C   UNL     1      -9.823  15.944  69.293  1.00  0.00    -0.259 A  
HETATM   40  C   UNL     1      -8.436  15.705  69.230  1.00  0.00    -0.265 A  
HETATM   41  C   UNL     1      -7.897  14.736  68.382  1.00  0.00    -0.128 A  
HETATM   42  C   UNL     1      -8.748  13.991  67.567  1.00  0.00    -0.201 A  
HETATM   43  C   UNL     1     -10.082  14.360  67.488  1.00  0.00    -0.232 A  
HETATM   44  C   UNL     1      -8.407  12.651  67.003  1.00  0.00    -0.130 C  
HETATM   45  C   UNL     1      -8.558  11.592  68.141  1.00  0.00    -0.156 C  
ENDBRANCH  27  28
ENDBRANCH  14  24
TORSDOF 3
ENDMDL
MODEL       65
REMARK 921   NORMALIZED FREE ENERGY PREDICTED BY IDOCK:   -4.50 KCAL/MOL
REMARK 922        TOTAL FREE ENERGY PREDICTED BY IDOCK:   -6.36 KCAL/MOL
REMARK 923 INTER-LIGAND FREE ENERGY PREDICTED BY IDOCK:   -5.03 KCAL/MOL
REMARK 924 INTRA-LIGAND FREE ENERGY PREDICTED BY IDOCK:   -1.33 KCAL/MOL
REMARK 927      BINDING AFFINITY PREDICTED BY RF-SCORE:    0.00 PKD
ROOT
HETATM    1  C   UNL     1      -6.747   4.581  70.450  1.00  0.00    -0.036 C  
HETATM    2  C   UNL     1      -5.674   3.617  69.918  1.00  0.00    -0.017 C  
HETATM    3  C   UNL     1      -5.565   2.541  71.054  1.00  0.00    -0.012 C  
HETATM    4  C   UNL     1      -6.426   3.064  72.202  1.00  0.00    -0.015 C  
HETATM    5  N   UNL     1      -6.643   4.463  71.873  1.00  0.00    -0.022 N  
HETATM    6  C   UNL     1      -7.482   5.210  72.659  1.00  0.00    -0.096 C  
HETATM    7  O   UNL     1      -7.348   5.247  73.879  1.00  0.00    -0.082 OA 
HETATM    8  C   UNL     1      -8.534   6.058  71.878  1.00  0.00    -0.133 C  
HETATM    9  N   UNL     1      -8.708   5.621  70.366  1.00  0.00    -0.131 N  
HETATM   10  C   UNL     1     -11.672   7.273  70.115  1.00  0.00    -0.095 C  
HETATM   11  C   UNL     1      -9.410   6.229  69.336  1.00  0.00    -0.140 C  
HETATM   12  C   UNL     1     -10.658   9.495  70.738  1.00  0.00    -0.387 C  
HETATM   13  O   UNL     1     -10.064   5.619  68.502  1.00  0.00    -0.156 OA 
HETATM   14  C   UNL     1      -9.051   7.697  69.321  1.00  0.00    -0.145 C  
HETATM   15  C   UNL     1      -7.444   5.890  69.795  1.00  0.00    -0.080 C  
HETATM   16  O   UNL     1      -7.229   5.673  68.392  1.00  0.00    -0.072 OA 
HETATM   17  H   UNL     1      -7.637   6.440  68.008  1.00  0.00     0.000 HD 
HETATM   18  C   UNL     1     -10.502   8.272  69.834  1.00  0.00    -0.223 C  
HETATM   19  O   UNL     1      -7.643   7.336  69.990  1.00  0.00    -0.086 OA 
ENDROOT
BRANCH   8  20
HETATM   20  C   UNL     1      -9.780   6.214  72.728  1.00  0.00    -0.165 C  
HETATM   21  C   UNL     1     -12.165   5.604  73.069  1.00  0.00     0.371 C  
HETATM   22  C   UNL     1     -10.854   5.173  72.426  1.00  0.00    -0.265 C  
HETATM   23  C   UNL     1     -10.472   3.788  72.937  1.00  0.00    -0.246 C  
ENDBRANCH   8  20
BRANCH  14  24
HETATM   24  N   UNL     1      -8.573   8.699  68.397  1.00  0.00    -0.134 N  
HETATM   25  H   UNL     1      -8.357   9.609  68.805  1.00  0.00     0.000 HD 
HETATM   26  O   UNL     1      -8.532   7.563  66.409  1.00  0.00    -0.119 OA 
HETATM   27  C   UNL     1      -8.372   8.590  67.044  1.00  0.00    -0.110 C  
BRANCH  27  28
HETATM   28  C   UNL     1      -7.908   9.928  66.455  1.00  0.00    -0.110 C  
HETATM   29  C   UNL     1      -8.436  10.111  65.009  1.00  0.00    -0.163 C  
HETATM   30  N   UNL     1      -9.730  10.812  64.926  1.00  0.00    -0.250 NA 
HETATM   31  C   UNL     1     -10.782  10.159  65.724  1.00  0.00     0.185 C  
HETATM   32  C   UNL     1      -9.526  12.246  65.296  1.00  0.00     0.074 C  
HETATM   33  C   UNL     1     -10.866  13.047  65.581  1.00  0.00    -0.293 C  
HETATM   34  C   UNL     1     -10.853  13.771  66.885  1.00  0.00    -0.286 A  
HETATM   35  C   UNL     1     -11.830  14.234  67.734  1.00  0.00    -0.379 A  
HETATM   36  N   UNL     1     -11.203  14.877  68.788  1.00  0.00    -0.261 NA 
HETATM   37  C   UNL     1      -9.832  14.846  68.624  1.00  0.00    -0.225 A  
HETATM   38  H   UNL     1     -11.685  15.313  69.574  1.00  0.00     0.000 HD 
HETATM   39  C   UNL     1      -8.757  15.327  69.376  1.00  0.00    -0.216 A  
HETATM   40  C   UNL     1      -7.464  15.038  68.896  1.00  0.00    -0.143 A  
HETATM   41  C   UNL     1      -7.261  14.203  67.796  1.00  0.00    -0.187 A  
HETATM   42  C   UNL     1      -8.361  13.649  67.146  1.00  0.00    -0.151 A  
HETATM   43  C   UNL     1      -9.629  14.087  67.496  1.00  0.00    -0.228 A  
HETATM   44  C   UNL     1      -8.307  12.410  66.314  1.00  0.00     0.328 C  
HETATM   45  C   UNL     1      -8.246  11.180  67.275  1.00  0.00    -0.136 C  
ENDBRANCH  27  28
ENDBRANCH  14  24
TORSDOF 3
ENDMDL
MODEL       66
REMARK 921   NORMALIZED FREE ENERGY PREDICTED BY IDOCK:   -4.21 KCAL/MOL
REMARK 922        TOTAL FREE ENERGY PREDICTED BY IDOCK:   -6.02 KCAL/MOL
REMARK 923 INTER-LIGAND FREE ENERGY PREDICTED BY IDOCK:   -5.98 KCAL/MOL
REMARK 924 INTRA-LIGAND FREE ENERGY PREDICTED BY IDOCK:   -0.04 KCAL/MOL
REMARK 927      BINDING AFFINITY PREDICTED BY RF-SCORE:    0.00 PKD
ROOT
HETATM    1  C   UNL     1      -7.006  15.960  68.622  1.00  0.00    -0.127 C  
HETATM    2  C   UNL     1      -6.230  16.503  69.832  1.00  0.00    -0.159 C  
HETATM    3  C   UNL     1      -6.338  18.057  69.657  1.00  0.00    -0.178 C  
HETATM    4  C   UNL     1      -6.988  18.276  68.293  1.00  0.00    -0.237 C  
HETATM    5  N   UNL     1      -6.868  16.986  67.633  1.00  0.00    -0.135 N  
HETATM    6  C   UNL     1      -7.459  16.806  66.410  1.00  0.00    -0.267 C  
HETATM    7  O   UNL     1      -7.263  17.590  65.485  1.00  0.00    -0.338 OA 
HETATM    8  C   UNL     1      -8.305  15.501  66.273  1.00  0.00     0.026 C  
HETATM    9  N   UNL     1      -8.651  14.819  67.659  1.00  0.00    -0.164 N  
HETATM   10  C   UNL     1     -11.124  12.955  66.249  1.00  0.00    -0.317 C  
HETATM   11  C   UNL     1      -9.228  13.586  67.928  1.00  0.00    -0.211 C  
HETATM   12  C   UNL     1      -9.564  11.865  64.595  1.00  0.00    -0.048 C  
HETATM   13  O   UNL     1     -10.051  13.396  68.813  1.00  0.00    -0.192 OA 
HETATM   14  C   UNL     1      -8.519  12.541  67.099  1.00  0.00    -0.186 C  
HETATM   15  C   UNL     1      -7.388  14.449  68.172  1.00  0.00    -0.130 C  
HETATM   16  O   UNL     1      -7.298  13.735  69.415  1.00  0.00    -0.306 OA 
HETATM   17  H   UNL     1      -7.522  12.851  69.152  1.00  0.00     0.000 HD 
HETATM   18  C   UNL     1      -9.757  12.215  66.070  1.00  0.00    -0.258 C  
HETATM   19  O   UNL     1      -7.214  13.467  67.088  1.00  0.00    -0.075 OA 
ENDROOT
BRANCH   8  20
HETATM   20  C   UNL     1      -9.433  15.738  65.287  1.00  0.00     0.233 C  
HETATM   21  C   UNL     1     -11.849  16.209  64.954  1.00  0.00     0.356 C  
HETATM   22  C   UNL     1     -10.687  16.321  65.931  1.00  0.00    -0.235 C  
HETATM   23  C   UNL     1     -10.502  17.780  66.331  1.00  0.00    -0.297 C  
ENDBRANCH   8  20
BRANCH  14  24
HETATM   24  N   UNL     1      -7.852  11.271  67.274  1.00  0.00    -0.134 N  
HETATM   25  H   UNL     1      -8.445  10.445  67.191  1.00  0.00     0.000 HD 
HETATM   26  O   UNL     1      -5.675  11.896  67.613  1.00  0.00    -0.056 OA 
HETATM   27  C   UNL     1      -6.527  11.029  67.535  1.00  0.00    -0.063 C  
BRANCH  27  28
HETATM   28  C   UNL     1      -6.273   9.525  67.698  1.00  0.00    -0.053 C  
HETATM   29  C   UNL     1      -5.697   9.208  69.103  1.00  0.00    -0.036 C  
HETATM   30  N   UNL     1      -6.720   8.889  70.114  1.00  0.00    -0.039 NA 
HETATM   31  C   UNL     1      -7.729   9.951  70.256  1.00  0.00    -0.142 C  
HETATM   32  C   UNL     1      -7.319   7.558  69.789  1.00  0.00    -0.082 C  
HETATM   33  C   UNL     1      -8.657   7.230  70.578  1.00  0.00    -0.143 C  
HETATM   34  C   UNL     1      -9.776   6.807  69.689  1.00  0.00    -0.160 A  
HETATM   35  C   UNL     1     -11.146   6.810  69.805  1.00  0.00    -0.316 A  
HETATM   36  N   UNL     1     -11.668   6.243  68.654  1.00  0.00    -0.212 NA 
HETATM   37  C   UNL     1     -10.652   5.863  67.801  1.00  0.00    -0.259 A  
HETATM   38  H   UNL     1     -12.663   6.124  68.464  1.00  0.00     0.000 HD 
HETATM   39  C   UNL     1     -10.622   5.266  66.537  1.00  0.00    -0.348 A  
HETATM   40  C   UNL     1      -9.355   5.087  65.948  1.00  0.00    -0.165 A  
HETATM   41  C   UNL     1      -8.195   5.595  66.534  1.00  0.00    -0.106 A  
HETATM   42  C   UNL     1      -8.286   6.289  67.739  1.00  0.00    -0.117 A  
HETATM   43  C   UNL     1      -9.498   6.296  68.412  1.00  0.00    -0.118 A  
HETATM   44  C   UNL     1      -7.270   7.272  68.219  1.00  0.00    -0.094 C  
HETATM   45  C   UNL     1      -7.470   8.604  67.428  1.00  0.00    -0.089 C  
ENDBRANCH  27  28
ENDBRANCH  14  24
TORSDOF 3
ENDMDL
MODEL       67
REMARK 921   NORMALIZED FREE ENERGY PREDICTED BY IDOCK:   -4.18 KCAL/MOL
REMARK 922        TOTAL FREE ENERGY PREDICTED BY IDOCK:   -5.99 KCAL/MOL
REMARK 923 INTER-LIGAND FREE ENERGY PREDICTED BY IDOCK:   -6.18 KCAL/MOL
REMARK 924 INTRA-LIGAND FREE ENERGY PREDICTED BY IDOCK:    0.19 KCAL/MOL
REMARK 927      BINDING AFFINITY PREDICTED BY RF-SCORE:    0.00 PKD
ROOT
HETATM    1  C   UNL     1      -7.601  16.082  67.106  1.00  0.00    -0.211 C  
HETATM    2  C   UNL     1      -6.293  16.877  66.954  1.00  0.00    -0.237 C  
HETATM    3  C   UNL     1      -6.718  18.338  67.335  1.00  0.00    -0.204 C  
HETATM    4  C   UNL     1      -8.237  18.301  67.487  1.00  0.00    -0.237 C  
HETATM    5  N   UNL     1      -8.626  17.050  66.857  1.00  0.00    -0.213 N  
HETATM    6  C   UNL     1      -9.936  16.652  66.917  1.00  0.00    -0.271 C  
HETATM    7  O   UNL     1     -10.847  17.405  66.584  1.00  0.00    -0.141 OA 
HETATM    8  C   UNL     1     -10.154  15.167  67.346  1.00  0.00    -0.229 C  
HETATM    9  N   UNL     1      -8.878  14.500  68.003  1.00  0.00    -0.168 N  
HETATM   10  C   UNL     1     -10.740  11.981  69.330  1.00  0.00    -0.063 C  
HETATM   11  C   UNL     1      -8.638  13.178  68.349  1.00  0.00    -0.124 C  
HETATM   12  C   UNL     1     -11.608  11.238  67.083  1.00  0.00    -0.113 C  
HETATM   13  O   UNL     1      -8.058  12.834  69.368  1.00  0.00     0.575 OA 
HETATM   14  C   UNL     1      -9.025  12.305  67.177  1.00  0.00    -0.192 C  
HETATM   15  C   UNL     1      -7.927  14.500  66.957  1.00  0.00    -0.041 C  
HETATM   16  O   UNL     1      -6.635  13.908  67.160  1.00  0.00    -0.424 OA 
HETATM   17  H   UNL     1      -6.826  12.982  67.073  1.00  0.00     0.000 HD 
HETATM   18  C   UNL     1     -10.347  11.611  67.862  1.00  0.00    -0.206 C  
HETATM   19  O   UNL     1      -8.738  13.536  66.195  1.00  0.00     0.239 OA 
ENDROOT
BRANCH   8  20
HETATM   20  C   UNL     1     -11.480  15.046  68.070  1.00  0.00    -0.357 C  
HETATM   21  C   UNL     1     -12.654  14.681  70.229  1.00  0.00    -0.370 C  
HETATM   22  C   UNL     1     -11.352  15.141  69.588  1.00  0.00    -0.302 C  
HETATM   23  C   UNL     1     -11.035  16.559  70.050  1.00  0.00    -0.245 C  
ENDBRANCH   8  20
BRANCH  14  24
HETATM   24  N   UNL     1      -8.458  11.264  66.352  1.00  0.00    -0.170 N  
HETATM   25  H   UNL     1      -7.652  10.778  66.747  1.00  0.00     0.000 HD 
HETATM   26  O   UNL     1      -9.829  11.280  64.519  1.00  0.00    -0.242 OA 
HETATM   27  C   UNL     1      -8.857  10.843  65.110  1.00  0.00    -0.156 C  
BRANCH  27  28
HETATM   28  C   UNL     1      -7.925   9.744  64.583  1.00  0.00    -0.139 C  
HETATM   29  C   UNL     1      -6.670   9.603  65.482  1.00  0.00    -0.085 C  
HETATM   30  N   UNL     1      -6.814   8.613  66.564  1.00  0.00    -0.071 NA 
HETATM   31  C   UNL     1      -7.974   8.881  67.429  1.00  0.00    -0.101 C  
HETATM   32  C   UNL     1      -6.839   7.244  65.964  1.00  0.00    -0.057 C  
HETATM   33  C   UNL     1      -7.325   6.103  66.954  1.00  0.00    -0.082 C  
HETATM   34  C   UNL     1      -8.417   5.258  66.389  1.00  0.00    -0.113 A  
HETATM   35  C   UNL     1      -9.398   4.468  66.938  1.00  0.00    -0.145 A  
HETATM   36  N   UNL     1     -10.102   3.885  65.897  1.00  0.00    -0.422 NA 
HETATM   37  C   UNL     1      -9.580   4.281  64.682  1.00  0.00    -0.157 A  
HETATM   38  H   UNL     1     -10.894   3.253  66.013  1.00  0.00     0.000 HD 
HETATM   39  C   UNL     1      -9.907   4.003  63.352  1.00  0.00    -0.134 A  
HETATM   40  C   UNL     1      -9.157   4.664  62.360  1.00  0.00    -0.124 A  
HETATM   41  C   UNL     1      -8.218   5.646  62.684  1.00  0.00    -0.104 A  
HETATM   42  C   UNL     1      -8.007   5.975  64.021  1.00  0.00    -0.117 A  
HETATM   43  C   UNL     1      -8.601   5.193  64.999  1.00  0.00    -0.151 A  
HETATM   44  C   UNL     1      -7.438   7.276  64.484  1.00  0.00    -0.092 C  
HETATM   45  C   UNL     1      -8.558   8.360  64.385  1.00  0.00     0.017 C  
ENDBRANCH  27  28
ENDBRANCH  14  24
TORSDOF 3
ENDMDL
MODEL       68
REMARK 921   NORMALIZED FREE ENERGY PREDICTED BY IDOCK:   -4.11 KCAL/MOL
REMARK 922        TOTAL FREE ENERGY PREDICTED BY IDOCK:   -5.90 KCAL/MOL
REMARK 923 INTER-LIGAND FREE ENERGY PREDICTED BY IDOCK:   -5.45 KCAL/MOL
REMARK 924 INTRA-LIGAND FREE ENERGY PREDICTED BY IDOCK:   -0.45 KCAL/MOL
REMARK 927      BINDING AFFINITY PREDICTED BY RF-SCORE:    0.00 PKD
ROOT
HETATM    1  C   UNL     1      -7.552   6.120  64.283  1.00  0.00    -0.096 C  
HETATM    2  C   UNL     1      -7.440   5.750  62.794  1.00  0.00    -0.059 C  
HETATM    3  C   UNL     1      -6.613   4.419  62.819  1.00  0.00    -0.027 C  
HETATM    4  C   UNL     1      -6.165   4.236  64.268  1.00  0.00    -0.026 C  
HETATM    5  N   UNL     1      -6.383   5.540  64.873  1.00  0.00    -0.036 N  
HETATM    6  C   UNL     1      -6.181   5.692  66.219  1.00  0.00    -0.034 C  
HETATM    7  O   UNL     1      -5.135   5.330  66.751  1.00  0.00    -0.004 OA 
HETATM    8  C   UNL     1      -7.327   6.430  66.979  1.00  0.00    -0.083 C  
HETATM    9  N   UNL     1      -8.676   6.528  66.155  1.00  0.00    -0.144 N  
HETATM   10  C   UNL     1     -10.463   7.259  68.957  1.00  0.00    -0.219 C  
HETATM   11  C   UNL     1      -9.836   7.239  66.423  1.00  0.00    -0.054 C  
HETATM   12  C   UNL     1      -9.086   9.304  69.482  1.00  0.00    -0.163 C  
HETATM   13  O   UNL     1     -10.963   6.807  66.224  1.00  0.00     0.292 OA 
HETATM   14  C   UNL     1      -9.451   8.654  66.787  1.00  0.00    -0.191 C  
HETATM   15  C   UNL     1      -8.328   7.325  65.042  1.00  0.00    -0.048 C  
HETATM   16  O   UNL     1      -9.329   7.690  64.078  1.00  0.00     1.026 OA 
HETATM   17  H   UNL     1      -9.784   8.395  64.522  1.00  0.00     0.000 HD 
HETATM   18  C   UNL     1      -9.853   8.578  68.377  1.00  0.00    -0.189 C  
HETATM   19  O   UNL     1      -8.117   8.490  65.918  1.00  0.00    -0.106 OA 
ENDROOT
BRANCH   8  20
HETATM   20  C   UNL     1      -7.392   5.918  68.404  1.00  0.00    -0.084 C  
HETATM   21  C   UNL     1      -6.174   5.492  70.527  1.00  0.00    -0.026 C  
HETATM   22  C   UNL     1      -6.183   6.314  69.246  1.00  0.00    -0.033 C  
HETATM   23  C   UNL     1      -6.189   7.798  69.598  1.00  0.00    -0.030 C  
ENDBRANCH   8  20
BRANCH  14  24
HETATM   24  N   UNL     1      -9.766  10.010  66.400  1.00  0.00    -0.198 N  
HETATM   25  H   UNL     1     -10.680  10.144  65.966  1.00  0.00     0.000 HD 
HETATM   26  O   UNL     1      -7.911  11.165  67.081  1.00  0.00    -0.126 OA 
HETATM   27  C   UNL     1      -9.001  11.140  66.538  1.00  0.00    -0.178 C  
BRANCH  27  28
HETATM   28  C   UNL     1      -9.715  12.356  65.934  1.00  0.00    -0.237 C  
HETATM   29  C   UNL     1     -11.231  12.080  65.761  1.00  0.00    -0.334 C  
HETATM   30  N   UNL     1     -12.051  12.489  66.914  1.00  0.00    -0.533 NA 
HETATM   31  C   UNL     1     -11.609  11.868  68.174  1.00  0.00    -0.334 C  
HETATM   32  C   UNL     1     -12.080  13.982  66.981  1.00  0.00    -0.420 C  
HETATM   33  C   UNL     1     -12.634  14.568  68.348  1.00  0.00     0.450 C  
HETATM   34  C   UNL     1     -11.727  15.577  68.966  1.00  0.00    -0.392 A  
HETATM   35  C   UNL     1     -11.545  16.045  70.246  1.00  0.00    -0.324 A  
HETATM   36  N   UNL     1     -10.573  17.030  70.200  1.00  0.00    -0.077 NA 
HETATM   37  C   UNL     1     -10.133  17.213  68.905  1.00  0.00    -0.322 A  
HETATM   38  H   UNL     1     -10.231  17.548  71.010  1.00  0.00     0.000 HD 
HETATM   39  C   UNL     1      -9.184  18.052  68.314  1.00  0.00    -0.298 A  
HETATM   40  C   UNL     1      -8.970  17.898  66.931  1.00  0.00    -0.265 A  
HETATM   41  C   UNL     1      -9.578  16.872  66.205  1.00  0.00    -0.280 A  
HETATM   42  C   UNL     1     -10.428  15.983  66.860  1.00  0.00    -0.306 A  
HETATM   43  C   UNL     1     -10.788  16.252  68.171  1.00  0.00    -0.342 A  
HETATM   44  C   UNL     1     -10.747  14.611  66.365  1.00  0.00    -0.309 C  
HETATM   45  C   UNL     1      -9.528  13.686  66.676  1.00  0.00    -0.285 C  
ENDBRANCH  27  28
ENDBRANCH  14  24
TORSDOF 3
ENDMDL
MODEL       69
REMARK 921   NORMALIZED FREE ENERGY PREDICTED BY IDOCK:   -4.08 KCAL/MOL
REMARK 922        TOTAL FREE ENERGY PREDICTED BY IDOCK:   -5.86 KCAL/MOL
REMARK 923 INTER-LIGAND FREE ENERGY PREDICTED BY IDOCK:   -5.35 KCAL/MOL
REMARK 924 INTRA-LIGAND FREE ENERGY PREDICTED BY IDOCK:   -0.52 KCAL/MOL
REMARK 927      BINDING AFFINITY PREDICTED BY RF-SCORE:    0.00 PKD
ROOT
HETATM    1  C   UNL     1      -7.421   8.069  70.830  1.00  0.00    -0.072 C  
HETATM    2  C   UNL     1      -6.042   8.167  70.156  1.00  0.00    -0.032 C  
HETATM    3  C   UNL     1      -5.151   7.216  71.028  1.00  0.00    -0.023 C  
HETATM    4  C   UNL     1      -6.021   6.807  72.215  1.00  0.00    -0.038 C  
HETATM    5  N   UNL     1      -7.118   7.759  72.194  1.00  0.00    -0.066 N  
HETATM    6  C   UNL     1      -8.153   7.603  73.079  1.00  0.00    -0.117 C  
HETATM    7  O   UNL     1      -7.947   7.468  74.283  1.00  0.00    -0.143 OA 
HETATM    8  C   UNL     1      -9.578   7.703  72.450  1.00  0.00    -0.168 C  
HETATM    9  N   UNL     1      -9.587   7.579  70.872  1.00  0.00    -0.166 N  
HETATM   10  C   UNL     1     -12.925   6.922  70.833  1.00  0.00    -0.068 C  
HETATM   11  C   UNL     1     -10.618   7.781  69.966  1.00  0.00    -0.238 C  
HETATM   12  C   UNL     1     -13.516   9.082  71.990  1.00  0.00    -0.498 C  
HETATM   13  O   UNL     1     -10.810   7.080  68.983  1.00  0.00    -0.222 OA 
HETATM   14  C   UNL     1     -11.289   9.094  70.298  1.00  0.00    -0.188 C  
HETATM   15  C   UNL     1      -8.859   8.712  70.445  1.00  0.00    -0.157 C  
HETATM   16  O   UNL     1      -8.702   8.980  69.043  1.00  0.00    -0.134 OA 
HETATM   17  H   UNL     1      -9.544   9.356  68.818  1.00  0.00     0.000 HD 
HETATM   18  C   UNL     1     -12.706   8.471  70.847  1.00  0.00     0.103 C  
HETATM   19  O   UNL     1      -9.918   9.605  70.947  1.00  0.00    -0.262 OA 
ENDROOT
BRANCH   8  20
HETATM   20  C   UNL     1     -10.536   6.836  73.244  1.00  0.00    -0.321 C  
HETATM   21  C   UNL     1     -11.743   4.671  73.411  1.00  0.00    -0.128 C  
HETATM   22  C   UNL     1     -10.537   5.375  72.805  1.00  0.00    -0.273 C  
HETATM   23  C   UNL     1      -9.264   4.649  73.224  1.00  0.00    -0.121 C  
ENDBRANCH   8  20
BRANCH  14  24
HETATM   24  N   UNL     1     -11.665  10.328  69.648  1.00  0.00    -0.426 N  
HETATM   25  H   UNL     1     -11.598  10.329  68.630  1.00  0.00     0.000 HD 
HETATM   26  O   UNL     1     -12.286  11.649  71.412  1.00  0.00    -0.242 OA 
HETATM   27  C   UNL     1     -12.101  11.497  70.217  1.00  0.00    -0.359 C  
BRANCH  27  28
HETATM   28  C   UNL     1     -12.333  12.569  69.145  1.00  0.00     0.130 C  
HETATM   29  C   UNL     1     -11.470  13.827  69.422  1.00  0.00    -0.286 C  
HETATM   30  N   UNL     1     -10.153  13.810  68.760  1.00  0.00    -0.184 NA 
HETATM   31  C   UNL     1      -9.359  12.619  69.106  1.00  0.00     0.673 C  
HETATM   32  C   UNL     1     -10.352  13.969  67.287  1.00  0.00    -0.264 C  
HETATM   33  C   UNL     1      -9.071  13.633  66.412  1.00  0.00    -0.073 C  
HETATM   34  C   UNL     1      -9.346  12.665  65.312  1.00  0.00     0.320 A  
HETATM   35  C   UNL     1      -8.570  11.794  64.585  1.00  0.00     0.958 A  
HETATM   36  N   UNL     1      -9.388  11.179  63.651  1.00  0.00    -0.334 NA 
HETATM   37  C   UNL     1     -10.680  11.650  63.758  1.00  0.00    -0.419 A  
HETATM   38  H   UNL     1      -9.078  10.477  62.979  1.00  0.00     0.000 HD 
HETATM   39  C   UNL     1     -11.872  11.370  63.083  1.00  0.00     0.219 A  
HETATM   40  C   UNL     1     -13.030  12.033  63.534  1.00  0.00    -0.329 A  
HETATM   41  C   UNL     1     -13.019  12.832  64.678  1.00  0.00    -0.231 A  
HETATM   42  C   UNL     1     -11.832  12.989  65.390  1.00  0.00    -0.428 A  
HETATM   43  C   UNL     1     -10.658  12.499  64.840  1.00  0.00    -0.330 A  
HETATM   44  C   UNL     1     -11.764  13.379  66.830  1.00  0.00    -0.429 C  
HETATM   45  C   UNL     1     -12.123  12.126  67.691  1.00  0.00     0.017 C  
ENDBRANCH  27  28
ENDBRANCH  14  24
TORSDOF 3
ENDMDL
MODEL       70
REMARK 921   NORMALIZED FREE ENERGY PREDICTED BY IDOCK:   -3.91 KCAL/MOL
REMARK 922        TOTAL FREE ENERGY PREDICTED BY IDOCK:   -5.66 KCAL/MOL
REMARK 923 INTER-LIGAND FREE ENERGY PREDICTED BY IDOCK:   -4.75 KCAL/MOL
REMARK 924 INTRA-LIGAND FREE ENERGY PREDICTED BY IDOCK:   -0.91 KCAL/MOL
REMARK 927      BINDING AFFINITY PREDICTED BY RF-SCORE:    0.00 PKD
ROOT
HETATM    1  C   UNL     1      -9.831   6.567  67.616  1.00  0.00    -0.125 C  
HETATM    2  C   UNL     1     -10.798   6.592  66.420  1.00  0.00     0.175 C  
HETATM    3  C   UNL     1     -11.011   5.072  66.102  1.00  0.00    -0.015 C  
HETATM    4  C   UNL     1     -10.028   4.319  66.997  1.00  0.00    -0.123 C  
HETATM    5  N   UNL     1      -9.102   5.346  67.447  1.00  0.00    -0.111 N  
HETATM    6  C   UNL     1      -8.141   5.020  68.367  1.00  0.00    -0.086 C  
HETATM    7  O   UNL     1      -7.399   4.056  68.200  1.00  0.00    -0.059 OA 
HETATM    8  C   UNL     1      -8.017   6.009  69.568  1.00  0.00    -0.106 C  
HETATM    9  N   UNL     1      -9.255   6.984  69.720  1.00  0.00    -0.148 N  
HETATM   10  C   UNL     1      -8.390   7.762  72.918  1.00  0.00    -0.188 C  
HETATM   11  C   UNL     1      -9.428   8.086  70.545  1.00  0.00    -0.166 C  
HETATM   12  C   UNL     1      -6.113   8.615  72.253  1.00  0.00    -0.072 C  
HETATM   13  O   UNL     1     -10.474   8.351  71.120  1.00  0.00    -0.201 OA 
HETATM   14  C   UNL     1      -8.202   8.963  70.427  1.00  0.00    -0.138 C  
HETATM   15  C   UNL     1      -9.220   7.754  68.536  1.00  0.00    -0.137 C  
HETATM   16  O   UNL     1     -10.173   8.809  68.335  1.00  0.00    -0.186 OA 
HETATM   17  H   UNL     1      -9.815   9.504  68.874  1.00  0.00     0.000 HD 
HETATM   18  C   UNL     1      -7.606   8.690  71.933  1.00  0.00    -0.106 C  
HETATM   19  O   UNL     1      -7.954   8.379  68.958  1.00  0.00    -0.107 OA 
ENDROOT
BRANCH   8  20
HETATM   20  C   UNL     1      -7.545   5.251  70.794  1.00  0.00    -0.083 C  
HETATM   21  C   UNL     1      -8.113   4.353  73.039  1.00  0.00    -0.095 C  
HETATM   22  C   UNL     1      -8.685   4.796  71.700  1.00  0.00    -0.134 C  
HETATM   23  C   UNL     1      -9.482   3.649  71.087  1.00  0.00    -0.234 C  
ENDBRANCH   8  20
BRANCH  14  24
HETATM   24  N   UNL     1      -7.862  10.338  70.148  1.00  0.00    -0.323 N  
HETATM   25  H   UNL     1      -8.535  11.034  70.469  1.00  0.00     0.000 HD 
HETATM   26  O   UNL     1      -5.830  10.146  69.110  1.00  0.00    -0.038 OA 
HETATM   27  C   UNL     1      -6.753  10.833  69.509  1.00  0.00    -0.108 C  
BRANCH  27  28
HETATM   28  C   UNL     1      -6.835  12.360  69.384  1.00  0.00     0.021 C  
HETATM   29  C   UNL     1      -6.125  12.850  68.096  1.00  0.00    -0.094 C  
HETATM   30  N   UNL     1      -7.012  12.959  66.925  1.00  0.00     0.133 NA 
HETATM   31  C   UNL     1      -7.706  11.697  66.618  1.00  0.00    -0.065 C  
HETATM   32  C   UNL     1      -7.952  14.103  67.137  1.00  0.00    -0.075 C  
HETATM   33  C   UNL     1      -9.179  14.139  66.131  1.00  0.00    -0.088 C  
HETATM   34  C   UNL     1     -10.498  14.260  66.816  1.00  0.00    -0.273 A  
HETATM   35  C   UNL     1     -11.790  13.943  66.470  1.00  0.00    -0.414 A  
HETATM   36  N   UNL     1     -12.614  14.333  67.512  1.00  0.00    -0.409 NA 
HETATM   37  C   UNL     1     -11.871  14.908  68.524  1.00  0.00    -0.294 A  
HETATM   38  H   UNL     1     -13.626  14.212  67.530  1.00  0.00     0.000 HD 
HETATM   39  C   UNL     1     -12.192  15.451  69.771  1.00  0.00    -0.336 A  
HETATM   40  C   UNL     1     -11.118  15.898  70.566  1.00  0.00    -0.381 A  
HETATM   41  C   UNL     1      -9.790  15.693  70.187  1.00  0.00     0.039 A  
HETATM   42  C   UNL     1      -9.515  15.040  68.987  1.00  0.00    -0.210 A  
HETATM   43  C   UNL     1     -10.563  14.776  68.119  1.00  0.00    -0.241 A  
HETATM   44  C   UNL     1      -8.232  14.336  68.691  1.00  0.00    -0.139 C  
HETATM   45  C   UNL     1      -8.243  12.967  69.443  1.00  0.00     0.984 C  
ENDBRANCH  27  28
ENDBRANCH  14  24
TORSDOF 3
ENDMDL
MODEL       71
REMARK 921   NORMALIZED FREE ENERGY PREDICTED BY IDOCK:   -3.89 KCAL/MOL
REMARK 922        TOTAL FREE ENERGY PREDICTED BY IDOCK:   -5.64 KCAL/MOL
REMARK 923 INTER-LIGAND FREE ENERGY PREDICTED BY IDOCK:   -5.69 KCAL/MOL
REMARK 924 INTRA-LIGAND FREE ENERGY PREDICTED BY IDOCK:    0.05 KCAL/MOL
REMARK 927      BINDING AFFINITY PREDICTED BY RF-SCORE:    0.00 PKD
ROOT
HETATM    1  C   UNL     1      -7.726  16.080  67.039  1.00  0.00    -0.229 C  
HETATM    2  C   UNL     1      -6.375  16.762  66.768  1.00  0.00    -0.210 C  
HETATM    3  C   UNL     1      -6.615  18.234  67.250  1.00  0.00    -0.199 C  
HETATM    4  C   UNL     1      -8.105  18.325  67.574  1.00  0.00    -0.239 C  
HETATM    5  N   UNL     1      -8.677  17.146  66.946  1.00  0.00    -0.222 N  
HETATM    6  C   UNL     1     -10.004  16.865  67.141  1.00  0.00    -0.276 C  
HETATM    7  O   UNL     1     -10.871  17.711  66.943  1.00  0.00    -0.203 OA 
HETATM    8  C   UNL     1     -10.312  15.386  67.535  1.00  0.00    -0.264 C  
HETATM    9  N   UNL     1      -9.039  14.577  68.016  1.00  0.00    -0.179 N  
HETATM   10  C   UNL     1     -10.972  12.173  69.452  1.00  0.00    -0.109 C  
HETATM   11  C   UNL     1      -8.889  13.224  68.282  1.00  0.00    -0.168 C  
HETATM   12  C   UNL     1     -12.150  11.620  67.293  1.00  0.00     0.332 C  
HETATM   13  O   UNL     1      -8.234  12.780  69.214  1.00  0.00     0.455 OA 
HETATM   14  C   UNL     1      -9.483  12.446  67.130  1.00  0.00    -0.198 C  
HETATM   15  C   UNL     1      -8.215  14.543  66.869  1.00  0.00    -0.039 C  
HETATM   16  O   UNL     1      -6.969  13.828  66.900  1.00  0.00    -0.331 OA 
HETATM   17  H   UNL     1      -7.255  12.928  66.800  1.00  0.00     0.000 HD 
HETATM   18  C   UNL     1     -10.781  11.841  67.935  1.00  0.00    -0.241 C  
HETATM   19  O   UNL     1      -9.192  13.692  66.169  1.00  0.00    -0.138 OA 
ENDROOT
BRANCH   8  20
HETATM   20  C   UNL     1     -11.556  15.349  68.402  1.00  0.00    -0.368 C  
HETATM   21  C   UNL     1     -12.503  15.074  70.682  1.00  0.00    -0.422 C  
HETATM   22  C   UNL     1     -11.256  15.452  69.895  1.00  0.00    -0.310 C  
HETATM   23  C   UNL     1     -10.811  16.854  70.296  1.00  0.00     0.219 C  
ENDBRANCH   8  20
BRANCH  14  24
HETATM   24  N   UNL     1      -9.111  11.400  66.207  1.00  0.00    -0.199 N  
HETATM   25  H   UNL     1      -8.536  10.652  66.595  1.00  0.00     0.000 HD 
HETATM   26  O   UNL     1     -10.147  12.053  64.272  1.00  0.00    -0.289 OA 
HETATM   27  C   UNL     1      -9.428  11.278  64.878  1.00  0.00    -0.196 C  
BRANCH  27  28
HETATM   28  C   UNL     1      -8.769  10.031  64.275  1.00  0.00    -0.222 C  
HETATM   29  C   UNL     1      -7.313  10.331  63.834  1.00  0.00    -0.061 C  
HETATM   30  N   UNL     1      -6.303  10.055  64.871  1.00  0.00    -0.111 NA 
HETATM   31  C   UNL     1      -6.565  10.778  66.127  1.00  0.00    -0.127 C  
HETATM   32  C   UNL     1      -6.200   8.576  65.062  1.00  0.00    -0.060 C  
HETATM   33  C   UNL     1      -5.412   8.136  66.368  1.00  0.00    -0.028 C  
HETATM   34  C   UNL     1      -6.165   7.164  67.211  1.00  0.00    -0.045 A  
HETATM   35  C   UNL     1      -6.122   6.813  68.539  1.00  0.00    -0.026 A  
HETATM   36  N   UNL     1      -7.047   5.801  68.738  1.00  0.00    -0.071 NA 
HETATM   37  C   UNL     1      -7.679   5.486  67.552  1.00  0.00    -0.096 A  
HETATM   38  H   UNL     1      -7.234   5.352  69.635  1.00  0.00     0.000 HD 
HETATM   39  C   UNL     1      -8.673   4.569  67.199  1.00  0.00    -0.104 A  
HETATM   40  C   UNL     1      -9.110   4.588  65.860  1.00  0.00    -0.133 A  
HETATM   41  C   UNL     1      -8.669   5.558  64.959  1.00  0.00    -0.096 A  
HETATM   42  C   UNL     1      -7.764   6.527  65.387  1.00  0.00    -0.099 A  
HETATM   43  C   UNL     1      -7.189   6.392  66.641  1.00  0.00    -0.077 A  
HETATM   44  C   UNL     1      -7.586   7.856  64.729  1.00  0.00    -0.110 C  
HETATM   45  C   UNL     1      -8.779   8.772  65.151  1.00  0.00    -0.202 C  
ENDBRANCH  27  28
ENDBRANCH  14  24
TORSDOF 3
ENDMDL
MODEL       72
REMARK 921   NORMALIZED FREE ENERGY PREDICTED BY IDOCK:   -3.80 KCAL/MOL
REMARK 922        TOTAL FREE ENERGY PREDICTED BY IDOCK:   -5.54 KCAL/MOL
REMARK 923 INTER-LIGAND FREE ENERGY PREDICTED BY IDOCK:   -5.12 KCAL/MOL
REMARK 924 INTRA-LIGAND FREE ENERGY PREDICTED BY IDOCK:   -0.42 KCAL/MOL
REMARK 927      BINDING AFFINITY PREDICTED BY RF-SCORE:    0.00 PKD
ROOT
HETATM    1  C   UNL     1      -9.024   3.970  65.914  1.00  0.00    -0.128 C  
HETATM    2  C   UNL     1      -9.384   3.629  64.458  1.00  0.00    -0.149 C  
HETATM    3  C   UNL     1      -9.393   2.061  64.451  1.00  0.00    -0.132 C  
HETATM    4  C   UNL     1      -8.865   1.638  65.820  1.00  0.00    -0.124 C  
HETATM    5  N   UNL     1      -8.255   2.845  66.353  1.00  0.00    -0.086 N  
HETATM    6  C   UNL     1      -7.772   2.838  67.635  1.00  0.00    -0.061 C  
HETATM    7  O   UNL     1      -7.000   1.964  68.021  1.00  0.00    -0.038 OA 
HETATM    8  C   UNL     1      -8.206   4.056  68.509  1.00  0.00    -0.075 C  
HETATM    9  N   UNL     1      -9.420   4.873  67.905  1.00  0.00    -0.132 N  
HETATM   10  C   UNL     1     -10.035   6.382  70.891  1.00  0.00    -0.211 C  
HETATM   11  C   UNL     1      -9.965   6.086  68.299  1.00  0.00    -0.147 C  
HETATM   12  C   UNL     1      -7.721   7.371  71.038  1.00  0.00    -0.091 C  
HETATM   13  O   UNL     1     -11.164   6.323  68.314  1.00  0.00    -0.328 OA 
HETATM   14  C   UNL     1      -8.836   7.072  68.490  1.00  0.00    -0.124 C  
HETATM   15  C   UNL     1      -8.904   5.387  66.694  1.00  0.00    -0.115 C  
HETATM   16  O   UNL     1      -9.712   6.248  65.876  1.00  0.00    -0.386 OA 
HETATM   17  H   UNL     1      -9.642   7.077  66.333  1.00  0.00     0.000 HD 
HETATM   18  C   UNL     1      -8.934   7.187  70.126  1.00  0.00    -0.145 C  
HETATM   19  O   UNL     1      -7.963   6.242  67.436  1.00  0.00    -0.107 OA 
ENDROOT
BRANCH   8  20
HETATM   20  C   UNL     1      -8.282   3.627  69.962  1.00  0.00    -0.070 C  
HETATM   21  C   UNL     1      -9.709   2.819  71.828  1.00  0.00    -0.225 C  
HETATM   22  C   UNL     1      -9.581   2.908  70.314  1.00  0.00    -0.141 C  
HETATM   23  C   UNL     1      -9.639   1.505  69.719  1.00  0.00    -0.081 C  
ENDBRANCH   8  20
BRANCH  14  24
HETATM   24  N   UNL     1      -8.451   8.396  68.058  1.00  0.00    -0.131 N  
HETATM   25  H   UNL     1      -7.727   8.433  67.340  1.00  0.00     0.000 HD 
HETATM   26  O   UNL     1      -9.829   9.742  69.296  1.00  0.00    -0.179 OA 
HETATM   27  C   UNL     1      -8.930   9.609  68.485  1.00  0.00    -0.124 C  
BRANCH  27  28
HETATM   28  C   UNL     1      -8.191  10.759  67.789  1.00  0.00    -0.112 C  
HETATM   29  C   UNL     1      -7.953  10.440  66.291  1.00  0.00    -0.138 C  
HETATM   30  N   UNL     1      -9.022  10.922  65.398  1.00  0.00    -0.196 NA 
HETATM   31  C   UNL     1     -10.351  10.411  65.774  1.00  0.00    -0.187 C  
HETATM   32  C   UNL     1      -8.967  12.416  65.342  1.00  0.00     0.593 C  
HETATM   33  C   UNL     1     -10.249  13.095  64.701  1.00  0.00    -0.327 C  
HETATM   34  C   UNL     1     -10.836  14.168  65.554  1.00  0.00    -0.312 A  
HETATM   35  C   UNL     1     -12.083  14.739  65.654  1.00  0.00    -0.114 A  
HETATM   36  N   UNL     1     -12.015  15.737  66.612  1.00  0.00     0.682 NA 
HETATM   37  C   UNL     1     -10.736  15.826  67.124  1.00  0.00    -0.312 A  
HETATM   38  H   UNL     1     -12.798  16.323  66.898  1.00  0.00     0.000 HD 
HETATM   39  C   UNL     1     -10.136  16.634  68.093  1.00  0.00    -0.267 A  
HETATM   40  C   UNL     1      -8.783  16.376  68.391  1.00  0.00    -0.213 A  
HETATM   41  C   UNL     1      -8.108  15.284  67.841  1.00  0.00    -0.146 A  
HETATM   42  C   UNL     1      -8.782  14.433  66.968  1.00  0.00    -0.244 A  
HETATM   43  C   UNL     1     -10.045  14.797  66.527  1.00  0.00    -0.281 A  
HETATM   44  C   UNL     1      -8.381  13.020  66.699  1.00  0.00     0.159 C  
HETATM   45  C   UNL     1      -8.834  12.146  67.912  1.00  0.00    -0.177 C  
ENDBRANCH  27  28
ENDBRANCH  14  24
TORSDOF 3
ENDMDL
MODEL       73
REMARK 921   NORMALIZED FREE ENERGY PREDICTED BY IDOCK:   -3.65 KCAL/MOL
REMARK 922        TOTAL FREE ENERGY PREDICTED BY IDOCK:   -5.36 KCAL/MOL
REMARK 923 INTER-LIGAND FREE ENERGY PREDICTED BY IDOCK:   -5.66 KCAL/MOL
REMARK 924 INTRA-LIGAND FREE ENERGY PREDICTED BY IDOCK:    0.30 KCAL/MOL
REMARK 927      BINDING AFFINITY PREDICTED BY RF-SCORE:    0.00 PKD
ROOT
HETATM    1  C   UNL     1      -7.095   6.169  67.969  1.00  0.00    -0.078 C  
HETATM    2  C   UNL     1      -6.505   5.976  66.563  1.00  0.00    -0.046 C  
HETATM    3  C   UNL     1      -5.292   5.015  66.814  1.00  0.00    -0.009 C  
HETATM    4  C   UNL     1      -5.172   4.888  68.331  1.00  0.00    -0.004 C  
HETATM    5  N   UNL     1      -5.976   5.986  68.843  1.00  0.00    -0.022 N  
HETATM    6  C   UNL     1      -6.170   6.095  70.195  1.00  0.00    -0.031 C  
HETATM    7  O   UNL     1      -5.225   6.078  70.978  1.00  0.00    -0.012 OA 
HETATM    8  C   UNL     1      -7.651   6.331  70.630  1.00  0.00    -0.096 C  
HETATM    9  N   UNL     1      -8.706   6.019  69.492  1.00  0.00    -0.125 N  
HETATM   10  C   UNL     1     -11.254   5.871  71.741  1.00  0.00    -0.311 C  
HETATM   11  C   UNL     1     -10.071   6.262  69.448  1.00  0.00    -0.176 C  
HETATM   12  C   UNL     1     -10.860   8.220  72.567  1.00  0.00    -0.421 C  
HETATM   13  O   UNL     1     -10.888   5.484  68.978  1.00  0.00    -0.227 OA 
HETATM   14  C   UNL     1     -10.311   7.691  69.876  1.00  0.00    -0.225 C  
HETATM   15  C   UNL     1      -8.406   6.970  68.490  1.00  0.00    -0.121 C  
HETATM   16  O   UNL     1      -9.207   7.038  67.300  1.00  0.00    -0.125 OA 
HETATM   17  H   UNL     1      -9.975   7.506  67.605  1.00  0.00     0.000 HD 
HETATM   18  C   UNL     1     -11.030   7.360  71.315  1.00  0.00    -0.263 C  
HETATM   19  O   UNL     1      -8.838   8.065  69.375  1.00  0.00    -0.142 OA 
ENDROOT
BRANCH   8  20
HETATM   20  C   UNL     1      -7.872   5.721  72.000  1.00  0.00    -0.107 C  
HETATM   21  C   UNL     1      -8.835   3.852  73.323  1.00  0.00    -0.095 C  
HETATM   22  C   UNL     1      -8.324   4.265  71.950  1.00  0.00    -0.103 C  
HETATM   23  C   UNL     1      -7.197   3.329  71.527  1.00  0.00    -0.036 C  
ENDBRANCH   8  20
BRANCH  14  24
HETATM   24  N   UNL     1     -10.983   8.879  69.403  1.00  0.00    -0.418 N  
HETATM   25  H   UNL     1     -11.494   9.409  70.110  1.00  0.00     0.000 HD 
HETATM   26  O   UNL     1     -10.428   8.913  67.182  1.00  0.00    -0.275 OA 
HETATM   27  C   UNL     1     -11.024   9.390  68.131  1.00  0.00    -0.045 C  
BRANCH  27  28
HETATM   28  C   UNL     1     -11.907  10.644  68.078  1.00  0.00     0.175 C  
HETATM   29  C   UNL     1     -12.068  11.269  69.488  1.00  0.00    -0.317 C  
HETATM   30  N   UNL     1     -11.062  12.298  69.807  1.00  0.00     0.037 NA 
HETATM   31  C   UNL     1      -9.682  11.803  69.676  1.00  0.00     1.179 C  
HETATM   32  C   UNL     1     -11.328  13.508  68.971  1.00  0.00    -0.288 C  
HETATM   33  C   UNL     1     -10.144  14.564  68.951  1.00  0.00    -0.224 C  
HETATM   34  C   UNL     1      -9.732  14.961  67.574  1.00  0.00    -0.212 A  
HETATM   35  C   UNL     1      -8.582  15.481  67.030  1.00  0.00    -0.233 A  
HETATM   36  N   UNL     1      -8.810  15.688  65.680  1.00  0.00    -0.156 NA 
HETATM   37  C   UNL     1     -10.098  15.319  65.347  1.00  0.00    -0.362 A  
HETATM   38  H   UNL     1      -8.123  16.061  65.025  1.00  0.00     0.000 HD 
HETATM   39  C   UNL     1     -10.825  15.316  64.153  1.00  0.00     0.622 A  
HETATM   40  C   UNL     1     -12.132  14.793  64.206  1.00  0.00    -0.415 A  
HETATM   41  C   UNL     1     -12.635  14.190  65.360  1.00  0.00    -0.485 A  
HETATM   42  C   UNL     1     -11.830  14.110  66.495  1.00  0.00    -0.439 A  
HETATM   43  C   UNL     1     -10.624  14.793  66.503  1.00  0.00    -0.299 A  
HETATM   44  C   UNL     1     -12.020  13.111  67.588  1.00  0.00    -0.363 C  
HETATM   45  C   UNL     1     -11.471  11.735  67.092  1.00  0.00    -0.366 C  
ENDBRANCH  27  28
ENDBRANCH  14  24
TORSDOF 3
ENDMDL
MODEL       74
REMARK 921   NORMALIZED FREE ENERGY PREDICTED BY IDOCK:   -3.62 KCAL/MOL
REMARK 922        TOTAL FREE ENERGY PREDICTED BY IDOCK:   -5.32 KCAL/MOL
REMARK 923 INTER-LIGAND FREE ENERGY PREDICTED BY IDOCK:   -5.07 KCAL/MOL
REMARK 924 INTRA-LIGAND FREE ENERGY PREDICTED BY IDOCK:   -0.25 KCAL/MOL
REMARK 927      BINDING AFFINITY PREDICTED BY RF-SCORE:    0.00 PKD
ROOT
HETATM    1  C   UNL     1     -10.695  13.771  65.804  1.00  0.00    -0.281 C  
HETATM    2  C   UNL     1     -11.644  13.938  64.605  1.00  0.00    -0.398 C  
HETATM    3  C   UNL     1     -11.733  15.493  64.433  1.00  0.00    -0.243 C  
HETATM    4  C   UNL     1     -10.998  16.085  65.635  1.00  0.00    -0.171 C  
HETATM    5  N   UNL     1     -10.882  14.971  66.562  1.00  0.00    -0.316 N  
HETATM    6  C   UNL     1     -10.165  15.139  67.718  1.00  0.00    -0.236 C  
HETATM    7  O   UNL     1     -10.382  16.084  68.471  1.00  0.00    -0.227 OA 
HETATM    8  C   UNL     1      -9.141  14.002  68.028  1.00  0.00    -0.190 C  
HETATM    9  N   UNL     1      -8.831  13.069  66.787  1.00  0.00    -0.181 N  
HETATM   10  C   UNL     1      -6.012  11.861  68.259  1.00  0.00    -0.050 C  
HETATM   11  C   UNL     1      -8.118  11.881  66.718  1.00  0.00    -0.108 C  
HETATM   12  C   UNL     1      -7.254  11.003  70.277  1.00  0.00     0.647 C  
HETATM   13  O   UNL     1      -7.360  11.591  65.804  1.00  0.00     0.294 OA 
HETATM   14  C   UNL     1      -8.602  10.975  67.827  1.00  0.00    -0.130 C  
HETATM   15  C   UNL     1     -10.073  12.453  66.515  1.00  0.00    -0.232 C  
HETATM   16  O   UNL     1     -10.176  11.473  65.470  1.00  0.00    -0.237 OA 
HETATM   17  H   UNL     1      -9.812  10.701  65.887  1.00  0.00     0.000 HD 
HETATM   18  C   UNL     1      -7.244  11.031  68.749  1.00  0.00    -0.091 C  
HETATM   19  O   UNL     1     -10.014  11.727  67.795  1.00  0.00    -0.183 OA 
ENDROOT
BRANCH   8  20
HETATM   20  C   UNL     1      -7.972  14.580  68.801  1.00  0.00    -0.142 C  
HETATM   21  C   UNL     1      -5.577  15.239  68.781  1.00  0.00    -0.090 C  
HETATM   22  C   UNL     1      -6.803  14.994  67.912  1.00  0.00    -0.172 C  
HETATM   23  C   UNL     1      -7.111  16.251  67.107  1.00  0.00    -0.244 C  
ENDBRANCH   8  20
BRANCH  14  24
HETATM   24  N   UNL     1      -9.103   9.632  68.005  1.00  0.00    -0.126 N  
HETATM   25  H   UNL     1      -9.905   9.539  68.628  1.00  0.00     0.000 HD 
HETATM   26  O   UNL     1      -7.730   8.405  66.644  1.00  0.00    -0.088 OA 
HETATM   27  C   UNL     1      -8.644   8.466  67.448  1.00  0.00    -0.124 C  
BRANCH  27  28
HETATM   28  C   UNL     1      -9.447   7.265  67.964  1.00  0.00    -0.139 C  
HETATM   29  C   UNL     1     -10.261   6.609  66.819  1.00  0.00    -0.195 C  
HETATM   30  N   UNL     1      -9.553   5.517  66.128  1.00  0.00    -0.156 NA 
HETATM   31  C   UNL     1      -8.250   5.939  65.586  1.00  0.00    -0.134 C  
HETATM   32  C   UNL     1      -9.447   4.348  67.054  1.00  0.00    -0.175 C  
HETATM   33  C   UNL     1      -8.425   3.229  66.583  1.00  0.00    -0.107 C  
HETATM   34  C   UNL     1      -7.440   2.851  67.636  1.00  0.00    -0.057 A  
HETATM   35  C   UNL     1      -6.188   2.284  67.618  1.00  0.00    -0.024 A  
HETATM   36  N   UNL     1      -5.775   2.130  68.932  1.00  0.00    -0.022 NA 
HETATM   37  C   UNL     1      -6.751   2.579  69.798  1.00  0.00    -0.033 A  
HETATM   38  H   UNL     1      -4.878   1.739  69.217  1.00  0.00     0.000 HD 
HETATM   39  C   UNL     1      -6.847   2.658  71.191  1.00  0.00    -0.032 A  
HETATM   40  C   UNL     1      -8.011   3.250  71.716  1.00  0.00    -0.058 A  
HETATM   41  C   UNL     1      -8.967   3.846  70.892  1.00  0.00    -0.157 A  
HETATM   42  C   UNL     1      -8.773   3.848  69.512  1.00  0.00    -0.127 A  
HETATM   43  C   UNL     1      -7.731   3.100  68.987  1.00  0.00    -0.047 A  
HETATM   44  C   UNL     1      -9.409   4.824  68.578  1.00  0.00    -0.181 C  
HETATM   45  C   UNL     1      -8.645   6.181  68.695  1.00  0.00    -0.113 C  
ENDBRANCH  27  28
ENDBRANCH  14  24
TORSDOF 3
ENDMDL
MODEL       75
REMARK 921   NORMALIZED FREE ENERGY PREDICTED BY IDOCK:   -3.57 KCAL/MOL
REMARK 922        TOTAL FREE ENERGY PREDICTED BY IDOCK:   -5.26 KCAL/MOL
REMARK 923 INTER-LIGAND FREE ENERGY PREDICTED BY IDOCK:   -4.58 KCAL/MOL
REMARK 924 INTRA-LIGAND FREE ENERGY PREDICTED BY IDOCK:   -0.68 KCAL/MOL
REMARK 927      BINDING AFFINITY PREDICTED BY RF-SCORE:    0.00 PKD
ROOT
HETATM    1  C   UNL     1      -7.191  15.140  68.670  1.00  0.00    -0.118 C  
HETATM    2  C   UNL     1      -6.316  15.665  69.820  1.00  0.00    -0.170 C  
HETATM    3  C   UNL     1      -6.522  17.217  69.745  1.00  0.00    -0.077 C  
HETATM    4  C   UNL     1      -7.328  17.467  68.471  1.00  0.00    -0.237 C  
HETATM    5  N   UNL     1      -7.215  16.221  67.731  1.00  0.00    -0.127 N  
HETATM    6  C   UNL     1      -7.925  16.069  66.569  1.00  0.00    -0.236 C  
HETATM    7  O   UNL     1      -7.872  16.909  65.675  1.00  0.00    -0.187 OA 
HETATM    8  C   UNL     1      -8.713  14.727  66.450  1.00  0.00    -0.027 C  
HETATM    9  N   UNL     1      -8.871  13.957  67.824  1.00  0.00    -0.178 N  
HETATM   10  C   UNL     1     -11.384  12.029  66.582  1.00  0.00    -0.399 C  
HETATM   11  C   UNL     1      -9.352  12.682  68.084  1.00  0.00    -0.210 C  
HETATM   12  C   UNL     1      -9.961  11.114  64.714  1.00  0.00    -0.339 C  
HETATM   13  O   UNL     1     -10.062  12.402  69.039  1.00  0.00    -0.028 OA 
HETATM   14  C   UNL     1      -8.685  11.721  67.127  1.00  0.00    -0.169 C  
HETATM   15  C   UNL     1      -7.542  13.634  68.179  1.00  0.00    -0.137 C  
HETATM   16  O   UNL     1      -7.281  12.866  69.364  1.00  0.00    -0.315 OA 
HETATM   17  H   UNL     1      -7.487  11.984  69.077  1.00  0.00     0.000 HD 
HETATM   18  C   UNL     1     -10.009  11.378  66.219  1.00  0.00    -0.259 C  
HETATM   19  O   UNL     1      -7.438  12.720  67.030  1.00  0.00    -0.074 OA 
ENDROOT
BRANCH   8  20
HETATM   20  C   UNL     1      -9.952  14.948  65.604  1.00  0.00    -0.389 C  
HETATM   21  C   UNL     1     -12.434  15.029  65.519  1.00  0.00     0.287 C  
HETATM   22  C   UNL     1     -11.220  15.151  66.429  1.00  0.00    -0.277 C  
HETATM   23  C   UNL     1     -11.242  16.509  67.122  1.00  0.00     0.195 C  
ENDBRANCH   8  20
BRANCH  14  24
HETATM   24  N   UNL     1      -7.939  10.485  67.158  1.00  0.00    -0.114 N  
HETATM   25  H   UNL     1      -7.043  10.496  66.669  1.00  0.00     0.000 HD 
HETATM   26  O   UNL     1      -9.279   9.127  68.425  1.00  0.00    -0.133 OA 
HETATM   27  C   UNL     1      -8.273   9.297  67.758  1.00  0.00    -0.115 C  
BRANCH  27  28
HETATM   28  C   UNL     1      -7.205   8.231  67.485  1.00  0.00    -0.088 C  
HETATM   29  C   UNL     1      -5.820   8.686  68.013  1.00  0.00    -0.042 C  
HETATM   30  N   UNL     1      -5.533   8.259  69.393  1.00  0.00    -0.030 NA 
HETATM   31  C   UNL     1      -6.560   8.702  70.350  1.00  0.00    -0.037 C  
HETATM   32  C   UNL     1      -5.325   6.778  69.407  1.00  0.00    -0.014 C  
HETATM   33  C   UNL     1      -5.344   6.127  70.854  1.00  0.00    -0.018 C  
HETATM   34  C   UNL     1      -6.277   4.969  70.966  1.00  0.00    -0.022 A  
HETATM   35  C   UNL     1      -6.929   4.362  72.013  1.00  0.00    -0.054 A  
HETATM   36  N   UNL     1      -7.635   3.285  71.503  1.00  0.00    -0.047 NA 
HETATM   37  C   UNL     1      -7.438   3.182  70.140  1.00  0.00    -0.044 A  
HETATM   38  H   UNL     1      -8.218   2.657  72.056  1.00  0.00     0.000 HD 
HETATM   39  C   UNL     1      -7.908   2.306  69.158  1.00  0.00    -0.049 A  
HETATM   40  C   UNL     1      -7.520   2.570  67.830  1.00  0.00    -0.056 A  
HETATM   41  C   UNL     1      -6.808   3.722  67.490  1.00  0.00    -0.054 A  
HETATM   42  C   UNL     1      -6.461   4.630  68.488  1.00  0.00    -0.037 A  
HETATM   43  C   UNL     1      -6.672   4.276  69.811  1.00  0.00    -0.034 A  
HETATM   44  C   UNL     1      -6.156   6.071  68.241  1.00  0.00    -0.021 C  
HETATM   45  C   UNL     1      -7.506   6.823  68.015  1.00  0.00    -0.099 C  
ENDBRANCH  27  28
ENDBRANCH  14  24
TORSDOF 3
ENDMDL
MODEL       76
REMARK 921   NORMALIZED FREE ENERGY PREDICTED BY IDOCK:   -3.56 KCAL/MOL
REMARK 922        TOTAL FREE ENERGY PREDICTED BY IDOCK:   -5.25 KCAL/MOL
REMARK 923 INTER-LIGAND FREE ENERGY PREDICTED BY IDOCK:   -4.79 KCAL/MOL
REMARK 924 INTRA-LIGAND FREE ENERGY PREDICTED BY IDOCK:   -0.46 KCAL/MOL
REMARK 927      BINDING AFFINITY PREDICTED BY RF-SCORE:    0.00 PKD
ROOT
HETATM    1  C   UNL     1      -9.404  15.081  67.758  1.00  0.00    -0.186 C  
HETATM    2  C   UNL     1      -8.824  16.317  68.466  1.00  0.00    -0.219 C  
HETATM    3  C   UNL     1      -9.723  17.487  67.936  1.00  0.00    -0.278 C  
HETATM    4  C   UNL     1     -10.603  16.873  66.849  1.00  0.00    -0.214 C  
HETATM    5  N   UNL     1      -9.960  15.605  66.547  1.00  0.00    -0.261 N  
HETATM    6  C   UNL     1     -10.566  14.741  65.673  1.00  0.00    -0.340 C  
HETATM    7  O   UNL     1     -10.940  15.114  64.565  1.00  0.00    -0.326 OA 
HETATM    8  C   UNL     1     -10.653  13.262  66.163  1.00  0.00    -0.287 C  
HETATM    9  N   UNL     1     -10.384  13.088  67.714  1.00  0.00    -0.222 N  
HETATM   10  C   UNL     1     -11.776   9.983  67.719  1.00  0.00     0.996 C  
HETATM   11  C   UNL     1     -10.214  11.936  68.467  1.00  0.00    -0.215 C  
HETATM   12  C   UNL     1     -10.167   9.096  65.994  1.00  0.00    -0.093 C  
HETATM   13  O   UNL     1     -10.677  11.778  69.588  1.00  0.00    -0.008 OA 
HETATM   14  C   UNL     1      -9.218  11.049  67.756  1.00  0.00    -0.155 C  
HETATM   15  C   UNL     1      -9.043  13.504  67.868  1.00  0.00    -0.204 C  
HETATM   16  O   UNL     1      -8.410  13.431  69.155  1.00  0.00    -0.320 OA 
HETATM   17  H   UNL     1      -8.199  12.507  69.219  1.00  0.00     0.000 HD 
HETATM   18  C   UNL     1     -10.271   9.871  67.307  1.00  0.00    -0.277 C  
HETATM   19  O   UNL     1      -8.575  12.350  67.082  1.00  0.00    -0.177 OA 
ENDROOT
BRANCH   8  20
HETATM   20  C   UNL     1     -11.887  12.611  65.571  1.00  0.00    -0.479 C  
HETATM   21  C   UNL     1     -13.090  11.897  63.517  1.00  0.00    -0.140 C  
HETATM   22  C   UNL     1     -11.724  12.224  64.104  1.00  0.00    -0.481 C  
HETATM   23  C   UNL     1     -10.798  11.025  63.927  1.00  0.00    -0.221 C  
ENDBRANCH   8  20
BRANCH  14  24
HETATM   24  N   UNL     1      -7.986  10.346  68.030  1.00  0.00    -0.104 N  
HETATM   25  H   UNL     1      -7.702   9.662  67.327  1.00  0.00     0.000 HD 
HETATM   26  O   UNL     1      -7.311  11.276  70.009  1.00  0.00     0.111 OA 
HETATM   27  C   UNL     1      -7.148  10.473  69.108  1.00  0.00    -0.089 C  
BRANCH  27  28
HETATM   28  C   UNL     1      -5.981   9.482  69.009  1.00  0.00    -0.042 C  
HETATM   29  C   UNL     1      -5.129   9.497  70.304  1.00  0.00    -0.028 C  
HETATM   30  N   UNL     1      -5.552   8.509  71.312  1.00  0.00    -0.033 NA 
HETATM   31  C   UNL     1      -6.969   8.653  71.689  1.00  0.00    -0.085 C  
HETATM   32  C   UNL     1      -5.218   7.139  70.815  1.00  0.00    -0.023 C  
HETATM   33  C   UNL     1      -5.909   5.962  71.624  1.00  0.00    -0.026 C  
HETATM   34  C   UNL     1      -6.630   4.991  70.750  1.00  0.00    -0.035 A  
HETATM   35  C   UNL     1      -7.657   4.100  70.951  1.00  0.00    -0.051 A  
HETATM   36  N   UNL     1      -7.873   3.428  69.759  1.00  0.00    -0.050 NA 
HETATM   37  C   UNL     1      -6.990   3.867  68.793  1.00  0.00    -0.047 A  
HETATM   38  H   UNL     1      -8.583   2.711  69.616  1.00  0.00     0.000 HD 
HETATM   39  C   UNL     1      -6.783   3.539  67.451  1.00  0.00    -0.042 A  
HETATM   40  C   UNL     1      -5.796   4.269  66.761  1.00  0.00    -0.023 A  
HETATM   41  C   UNL     1      -5.144   5.356  67.348  1.00  0.00    -0.004 A  
HETATM   42  C   UNL     1      -5.467   5.723  68.652  1.00  0.00    -0.011 A  
HETATM   43  C   UNL     1      -6.291   4.889  69.392  1.00  0.00    -0.031 A  
HETATM   44  C   UNL     1      -5.241   7.085  69.220  1.00  0.00    -0.014 C  
HETATM   45  C   UNL     1      -6.354   8.033  68.669  1.00  0.00    -0.052 C  
ENDBRANCH  27  28
ENDBRANCH  14  24
TORSDOF 3
ENDMDL
MODEL       77
REMARK 921   NORMALIZED FREE ENERGY PREDICTED BY IDOCK:   -3.54 KCAL/MOL
REMARK 922        TOTAL FREE ENERGY PREDICTED BY IDOCK:   -5.23 KCAL/MOL
REMARK 923 INTER-LIGAND FREE ENERGY PREDICTED BY IDOCK:   -5.73 KCAL/MOL
REMARK 924 INTRA-LIGAND FREE ENERGY PREDICTED BY IDOCK:    0.50 KCAL/MOL
REMARK 927      BINDING AFFINITY PREDICTED BY RF-SCORE:    0.00 PKD
ROOT
HETATM    1  C   UNL     1      -8.604  13.303  68.560  1.00  0.00    -0.065 C  
HETATM    2  C   UNL     1      -7.582  14.449  68.646  1.00  0.00    -0.132 C  
HETATM    3  C   UNL     1      -8.416  15.625  69.260  1.00  0.00    -0.265 C  
HETATM    4  C   UNL     1      -9.862  15.132  69.299  1.00  0.00    -0.230 C  
HETATM    5  N   UNL     1      -9.863  13.971  68.424  1.00  0.00    -0.229 N  
HETATM    6  C   UNL     1     -11.002  13.216  68.320  1.00  0.00    -0.253 C  
HETATM    7  O   UNL     1     -12.088  13.732  68.071  1.00  0.00    -0.362 OA 
HETATM    8  C   UNL     1     -10.785  11.676  68.452  1.00  0.00    -0.217 C  
HETATM    9  N   UNL     1      -9.378  11.281  69.061  1.00  0.00    -0.072 N  
HETATM   10  C   UNL     1     -10.445   8.130  69.771  1.00  0.00    -0.227 C  
HETATM   11  C   UNL     1      -8.770  10.040  69.173  1.00  0.00    -0.167 C  
HETATM   12  C   UNL     1     -11.034   7.627  67.373  1.00  0.00    -0.112 C  
HETATM   13  O   UNL     1      -8.127   9.680  70.148  1.00  0.00    -0.160 OA 
HETATM   14  C   UNL     1      -8.873   9.340  67.837  1.00  0.00    -0.124 C  
HETATM   15  C   UNL     1      -8.456  11.755  68.100  1.00  0.00    -0.158 C  
HETATM   16  O   UNL     1      -7.050  11.523  68.278  1.00  0.00    -0.071 OA 
HETATM   17  H   UNL     1      -6.963  10.617  68.009  1.00  0.00     0.000 HD 
HETATM   18  C   UNL     1      -9.945   8.181  68.290  1.00  0.00    -0.212 C  
HETATM   19  O   UNL     1      -8.943  10.769  67.120  1.00  0.00    -0.140 OA 
ENDROOT
BRANCH   8  20
HETATM   20  C   UNL     1     -12.028  11.046  69.051  1.00  0.00    -0.364 C  
HETATM   21  C   UNL     1     -13.152  10.172  71.087  1.00  0.00    -0.480 C  
HETATM   22  C   UNL     1     -12.063  11.104  70.575  1.00  0.00    -0.474 C  
HETATM   23  C   UNL     1     -12.323  12.516  71.090  1.00  0.00    -0.241 C  
ENDBRANCH   8  20
BRANCH  14  24
HETATM   24  N   UNL     1      -8.018   8.684  66.875  1.00  0.00    -0.095 N  
HETATM   25  H   UNL     1      -7.178   8.248  67.256  1.00  0.00     0.000 HD 
HETATM   26  O   UNL     1      -9.155   8.988  64.911  1.00  0.00    -0.183 OA 
HETATM   27  C   UNL     1      -8.185   8.570  65.518  1.00  0.00    -0.137 C  
BRANCH  27  28
HETATM   28  C   UNL     1      -6.997   7.836  64.884  1.00  0.00    -0.055 C  
HETATM   29  C   UNL     1      -5.711   8.029  65.729  1.00  0.00    -0.037 C  
HETATM   30  N   UNL     1      -5.495   6.979  66.742  1.00  0.00    -0.021 NA 
HETATM   31  C   UNL     1      -6.636   6.834  67.661  1.00  0.00    -0.058 C  
HETATM   32  C   UNL     1      -5.142   5.704  66.046  1.00  0.00    -0.009 C  
HETATM   33  C   UNL     1      -5.212   4.414  66.967  1.00  0.00    -0.012 C  
HETATM   34  C   UNL     1      -6.030   3.314  66.379  1.00  0.00    -0.024 A  
HETATM   35  C   UNL     1      -6.700   2.234  66.902  1.00  0.00    -0.039 A  
HETATM   36  N   UNL     1      -7.252   1.528  65.846  1.00  0.00    -0.053 NA 
HETATM   37  C   UNL     1      -6.937   2.133  64.646  1.00  0.00    -0.047 A  
HETATM   38  H   UNL     1      -7.811   0.681  65.941  1.00  0.00     0.000 HD 
HETATM   39  C   UNL     1      -7.235   1.848  63.311  1.00  0.00    -0.040 A  
HETATM   40  C   UNL     1      -6.770   2.761  62.345  1.00  0.00    -0.022 A  
HETATM   41  C   UNL     1      -6.151   3.959  62.707  1.00  0.00    -0.017 A  
HETATM   42  C   UNL     1      -5.979   4.258  64.056  1.00  0.00    -0.018 A  
HETATM   43  C   UNL     1      -6.259   3.278  64.995  1.00  0.00    -0.024 A  
HETATM   44  C   UNL     1      -5.801   5.641  64.592  1.00  0.00    -0.021 C  
HETATM   45  C   UNL     1      -7.197   6.341  64.608  1.00  0.00    -0.064 C  
ENDBRANCH  27  28
ENDBRANCH  14  24
TORSDOF 3
ENDMDL
MODEL       78
REMARK 921   NORMALIZED FREE ENERGY PREDICTED BY IDOCK:   -3.53 KCAL/MOL
REMARK 922        TOTAL FREE ENERGY PREDICTED BY IDOCK:   -5.22 KCAL/MOL
REMARK 923 INTER-LIGAND FREE ENERGY PREDICTED BY IDOCK:   -6.07 KCAL/MOL
REMARK 924 INTRA-LIGAND FREE ENERGY PREDICTED BY IDOCK:    0.85 KCAL/MOL
REMARK 927      BINDING AFFINITY PREDICTED BY RF-SCORE:    0.00 PKD
ROOT
HETATM    1  C   UNL     1      -6.719  17.297  66.276  1.00  0.00    -0.234 C  
HETATM    2  C   UNL     1      -5.320  17.422  65.650  1.00  0.00     0.252 C  
HETATM    3  C   UNL     1      -5.134  18.971  65.500  1.00  0.00    -0.183 C  
HETATM    4  C   UNL     1      -6.482  19.588  65.866  1.00  0.00    -0.215 C  
HETATM    5  N   UNL     1      -7.407  18.467  65.822  1.00  0.00    -0.199 N  
HETATM    6  C   UNL     1      -8.707  18.661  66.212  1.00  0.00    -0.215 C  
HETATM    7  O   UNL     1      -9.382  19.575  65.748  1.00  0.00    -0.386 OA 
HETATM    8  C   UNL     1      -9.263  17.589  67.202  1.00  0.00    -0.243 C  
HETATM    9  N   UNL     1      -8.140  16.702  67.878  1.00  0.00    -0.170 N  
HETATM   10  C   UNL     1     -10.274  15.658  70.313  1.00  0.00    -0.121 C  
HETATM   11  C   UNL     1      -8.252  15.566  68.665  1.00  0.00    -0.162 C  
HETATM   12  C   UNL     1     -11.913  14.681  68.666  1.00  0.00    -0.305 C  
HETATM   13  O   UNL     1      -7.557  15.344  69.646  1.00  0.00    -0.215 OA 
HETATM   14  C   UNL     1      -9.202  14.609  67.982  1.00  0.00    -0.197 C  
HETATM   15  C   UNL     1      -7.563  16.010  66.789  1.00  0.00    -0.212 C  
HETATM   16  O   UNL     1      -6.525  15.045  67.020  1.00  0.00    -0.263 OA 
HETATM   17  H   UNL     1      -7.019  14.291  67.321  1.00  0.00     0.000 HD 
HETATM   18  C   UNL     1     -10.437  14.738  69.058  1.00  0.00    -0.249 C  
HETATM   19  O   UNL     1      -8.816  15.266  66.575  1.00  0.00    -0.276 OA 
ENDROOT
BRANCH   8  20
HETATM   20  C   UNL     1     -10.307  18.229  68.096  1.00  0.00    -0.393 C  
HETATM   21  C   UNL     1     -10.768  19.615  70.106  1.00  0.00     1.548 C  
HETATM   22  C   UNL     1      -9.733  19.281  69.041  1.00  0.00    -0.453 C  
HETATM   23  C   UNL     1      -9.334  20.556  68.306  1.00  0.00     0.061 C  
ENDBRANCH   8  20
BRANCH  14  24
HETATM   24  N   UNL     1      -9.246  13.233  67.546  1.00  0.00    -0.203 N  
HETATM   25  H   UNL     1      -8.918  12.544  68.224  1.00  0.00     0.000 HD 
HETATM   26  O   UNL     1     -10.138  13.405  65.445  1.00  0.00    -0.295 OA 
HETATM   27  C   UNL     1      -9.669  12.728  66.343  1.00  0.00    -0.261 C  
BRANCH  27  28
HETATM   28  C   UNL     1      -9.486  11.206  66.298  1.00  0.00    -0.220 C  
HETATM   29  C   UNL     1      -8.178  10.827  65.557  1.00  0.00    -0.104 C  
HETATM   30  N   UNL     1      -7.006  10.689  66.440  1.00  0.00    -0.122 NA 
HETATM   31  C   UNL     1      -6.751  11.899  67.239  1.00  0.00    -0.138 C  
HETATM   32  C   UNL     1      -7.176   9.463  67.279  1.00  0.00    -0.087 C  
HETATM   33  C   UNL     1      -6.174   9.363  68.505  1.00  0.00    -0.048 C  
HETATM   34  C   UNL     1      -6.858   9.106  69.805  1.00  0.00    -0.051 A  
HETATM   35  C   UNL     1      -6.528   9.326  71.121  1.00  0.00    -0.083 A  
HETATM   36  N   UNL     1      -7.558   8.829  71.903  1.00  0.00    -0.300 NA 
HETATM   37  C   UNL     1      -8.544   8.280  71.108  1.00  0.00    -0.142 A  
HETATM   38  H   UNL     1      -7.583   8.864  72.922  1.00  0.00     0.000 HD 
HETATM   39  C   UNL     1      -9.770   7.664  71.374  1.00  0.00    -0.183 A  
HETATM   40  C   UNL     1     -10.543   7.278  70.262  1.00  0.00    -0.243 A  
HETATM   41  C   UNL     1     -10.168   7.608  68.958  1.00  0.00    -0.211 A  
HETATM   42  C   UNL     1      -8.994   8.328  68.746  1.00  0.00    -0.144 A  
HETATM   43  C   UNL     1      -8.140   8.536  69.818  1.00  0.00    -0.116 A  
HETATM   44  C   UNL     1      -8.722   9.147  67.528  1.00  0.00    -0.120 C  
HETATM   45  C   UNL     1      -9.526  10.481  67.649  1.00  0.00    -0.164 C  
ENDBRANCH  27  28
ENDBRANCH  14  24
TORSDOF 3
ENDMDL
MODEL       79
REMARK 921   NORMALIZED FREE ENERGY PREDICTED BY IDOCK:   -3.42 KCAL/MOL
REMARK 922        TOTAL FREE ENERGY PREDICTED BY IDOCK:   -5.09 KCAL/MOL
REMARK 923 INTER-LIGAND FREE ENERGY PREDICTED BY IDOCK:   -5.03 KCAL/MOL
REMARK 924 INTRA-LIGAND FREE ENERGY PREDICTED BY IDOCK:   -0.06 KCAL/MOL
REMARK 927      BINDING AFFINITY PREDICTED BY RF-SCORE:    0.00 PKD
ROOT
HETATM    1  C   UNL     1      -7.851  14.310  67.354  1.00  0.00    -0.187 C  
HETATM    2  C   UNL     1      -6.735  15.346  67.138  1.00  0.00     0.031 C  
HETATM    3  C   UNL     1      -7.447  16.707  67.447  1.00  0.00    -0.188 C  
HETATM    4  C   UNL     1      -8.926  16.370  67.627  1.00  0.00    -0.196 C  
HETATM    5  N   UNL     1      -9.054  15.033  67.071  1.00  0.00    -0.217 N  
HETATM    6  C   UNL     1     -10.255  14.381  67.173  1.00  0.00    -0.257 C  
HETATM    7  O   UNL     1     -11.302  14.913  66.816  1.00  0.00    -0.344 OA 
HETATM    8  C   UNL     1     -10.162  12.909  67.684  1.00  0.00    -0.220 C  
HETATM    9  N   UNL     1      -8.773  12.554  68.355  1.00  0.00    -0.158 N  
HETATM   10  C   UNL     1     -10.074   9.786  69.845  1.00  0.00    -0.288 C  
HETATM   11  C   UNL     1      -8.267  11.330  68.767  1.00  0.00    -0.122 C  
HETATM   12  C   UNL     1     -10.784   8.758  67.656  1.00  0.00    -0.206 C  
HETATM   13  O   UNL     1      -7.623  11.168  69.794  1.00  0.00     0.051 OA 
HETATM   14  C   UNL     1      -8.473  10.332  67.650  1.00  0.00    -0.118 C  
HETATM   15  C   UNL     1      -7.848  12.689  67.295  1.00  0.00    -0.155 C  
HETATM   16  O   UNL     1      -6.461  12.385  67.508  1.00  0.00    -0.115 OA 
HETATM   17  H   UNL     1      -6.459  11.436  67.474  1.00  0.00     0.000 HD 
HETATM   18  C   UNL     1      -9.622   9.423  68.393  1.00  0.00    -0.157 C  
HETATM   19  O   UNL     1      -8.449  11.539  66.599  1.00  0.00    -0.167 OA 
ENDROOT
BRANCH   8  20
HETATM   20  C   UNL     1     -11.432  12.561  68.437  1.00  0.00    -0.355 C  
HETATM   21  C   UNL     1     -12.504  12.130  70.636  1.00  0.00    -0.330 C  
HETATM   22  C   UNL     1     -11.334  12.810  69.939  1.00  0.00    -0.032 C  
HETATM   23  C   UNL     1     -11.339  14.297  70.276  1.00  0.00    -0.143 C  
ENDBRANCH   8  20
BRANCH  14  24
HETATM   24  N   UNL     1      -7.709   9.385  66.873  1.00  0.00    -0.091 N  
HETATM   25  H   UNL     1      -6.782   9.161  67.235  1.00  0.00     0.000 HD 
HETATM   26  O   UNL     1      -9.152   8.857  65.175  1.00  0.00    -0.187 OA 
HETATM   27  C   UNL     1      -8.065   8.745  65.712  1.00  0.00    -0.109 C  
BRANCH  27  28
HETATM   28  C   UNL     1      -6.916   7.865  65.204  1.00  0.00    -0.059 C  
HETATM   29  C   UNL     1      -5.735   7.858  66.209  1.00  0.00    -0.036 C  
HETATM   30  N   UNL     1      -5.796   6.768  67.199  1.00  0.00    -0.013 NA 
HETATM   31  C   UNL     1      -7.054   6.765  67.964  1.00  0.00    -0.085 C  
HETATM   32  C   UNL     1      -5.533   5.471  66.504  1.00  0.00    -0.013 C  
HETATM   33  C   UNL     1      -5.895   4.184  67.359  1.00  0.00    -0.023 C  
HETATM   34  C   UNL     1      -6.774   3.222  66.633  1.00  0.00    -0.048 A  
HETATM   35  C   UNL     1      -7.646   2.236  67.027  1.00  0.00    -0.065 A  
HETATM   36  N   UNL     1      -8.148   1.636  65.884  1.00  0.00    -0.077 NA 
HETATM   37  C   UNL     1      -7.602   2.215  64.757  1.00  0.00    -0.068 A  
HETATM   38  H   UNL     1      -8.826   0.873  65.877  1.00  0.00     0.000 HD 
HETATM   39  C   UNL     1      -7.763   2.003  63.385  1.00  0.00    -0.056 A  
HETATM   40  C   UNL     1      -7.058   2.861  62.520  1.00  0.00    -0.036 A  
HETATM   41  C   UNL     1      -6.334   3.954  63.001  1.00  0.00    -0.022 A  
HETATM   42  C   UNL     1      -6.297   4.198  64.372  1.00  0.00    -0.033 A  
HETATM   43  C   UNL     1      -6.826   3.247  65.231  1.00  0.00    -0.048 A  
HETATM   44  C   UNL     1      -6.002   5.530  64.979  1.00  0.00    -0.022 C  
HETATM   45  C   UNL     1      -7.280   6.418  64.847  1.00  0.00    -0.067 C  
ENDBRANCH  27  28
ENDBRANCH  14  24
TORSDOF 3
ENDMDL
MODEL       80
REMARK 921   NORMALIZED FREE ENERGY PREDICTED BY IDOCK:   -3.38 KCAL/MOL
REMARK 922        TOTAL FREE ENERGY PREDICTED BY IDOCK:   -5.05 KCAL/MOL
REMARK 923 INTER-LIGAND FREE ENERGY PREDICTED BY IDOCK:   -5.29 KCAL/MOL
REMARK 924 INTRA-LIGAND FREE ENERGY PREDICTED BY IDOCK:    0.24 KCAL/MOL
REMARK 927      BINDING AFFINITY PREDICTED BY RF-SCORE:    0.00 PKD
ROOT
HETATM    1  C   UNL     1     -12.411  11.694  70.806  1.00  0.00    -0.358 C  
HETATM    2  C   UNL     1     -13.391  11.173  71.870  1.00  0.00    -0.409 C  
HETATM    3  C   UNL     1     -14.252  12.438  72.210  1.00  0.00     0.412 C  
HETATM    4  C   UNL     1     -13.591  13.600  71.472  1.00  0.00    -0.219 C  
HETATM    5  N   UNL     1     -12.281  13.087  71.106  1.00  0.00    -0.177 N  
HETATM    6  C   UNL     1     -11.459  13.856  70.324  1.00  0.00    -0.056 C  
HETATM    7  O   UNL     1     -11.210  15.023  70.615  1.00  0.00    -0.272 OA 
HETATM    8  C   UNL     1     -10.813  13.109  69.115  1.00  0.00    -0.094 C  
HETATM    9  N   UNL     1     -11.507  11.727  68.776  1.00  0.00    -0.263 N  
HETATM   10  C   UNL     1     -10.084  11.644  65.687  1.00  0.00    -0.278 C  
HETATM   11  C   UNL     1     -11.120  10.724  67.900  1.00  0.00    -0.308 C  
HETATM   12  C   UNL     1      -7.737  11.753  66.601  1.00  0.00    -0.023 C  
HETATM   13  O   UNL     1     -11.896  10.101  67.190  1.00  0.00     0.573 OA 
HETATM   14  C   UNL     1      -9.658  10.425  68.139  1.00  0.00    -0.144 C  
HETATM   15  C   UNL     1     -11.270  10.945  69.929  1.00  0.00    -0.282 C  
HETATM   16  O   UNL     1     -11.708   9.578  69.973  1.00  0.00    -0.442 OA 
HETATM   17  H   UNL     1     -11.040   9.140  69.460  1.00  0.00     0.000 HD 
HETATM   18  C   UNL     1      -9.084  11.043  66.730  1.00  0.00    -0.172 C  
HETATM   19  O   UNL     1      -9.824  10.934  69.647  1.00  0.00    -0.038 OA 
ENDROOT
BRANCH   8  20
HETATM   20  C   UNL     1     -10.584  14.093  67.985  1.00  0.00    -0.241 C  
HETATM   21  C   UNL     1      -9.589  16.254  67.268  1.00  0.00    -0.231 C  
HETATM   22  C   UNL     1      -9.512  15.135  68.296  1.00  0.00    -0.201 C  
HETATM   23  C   UNL     1      -8.110  14.535  68.287  1.00  0.00    -0.140 C  
ENDBRANCH   8  20
BRANCH  14  24
HETATM   24  N   UNL     1      -8.802   9.294  68.412  1.00  0.00    -0.129 N  
HETATM   25  H   UNL     1      -8.637   9.092  69.399  1.00  0.00     0.000 HD 
HETATM   26  O   UNL     1      -8.311   8.524  66.312  1.00  0.00    -0.108 OA 
HETATM   27  C   UNL     1      -8.180   8.456  67.522  1.00  0.00    -0.125 C  
BRANCH  27  28
HETATM   28  C   UNL     1      -7.319   7.422  68.259  1.00  0.00    -0.100 C  
HETATM   29  C   UNL     1      -5.858   7.921  68.406  1.00  0.00    -0.036 C  
HETATM   30  N   UNL     1      -5.598   8.657  69.656  1.00  0.00    -0.030 NA 
HETATM   31  C   UNL     1      -6.499   9.807  69.836  1.00  0.00    -0.062 C  
HETATM   32  C   UNL     1      -5.645   7.696  70.800  1.00  0.00    -0.026 C  
HETATM   33  C   UNL     1      -5.720   8.381  72.229  1.00  0.00    -0.049 C  
HETATM   34  C   UNL     1      -6.832   7.858  73.075  1.00  0.00    -0.094 A  
HETATM   35  C   UNL     1      -7.539   8.356  74.144  1.00  0.00    -0.166 A  
HETATM   36  N   UNL     1      -8.436   7.381  74.547  1.00  0.00    -0.250 NA 
HETATM   37  C   UNL     1      -8.310   6.255  73.759  1.00  0.00    -0.116 A  
HETATM   38  H   UNL     1      -9.096   7.481  75.318  1.00  0.00     0.000 HD 
HETATM   39  C   UNL     1      -8.958   5.017  73.729  1.00  0.00    -0.114 A  
HETATM   40  C   UNL     1      -8.579   4.124  72.708  1.00  0.00    -0.101 A  
HETATM   41  C   UNL     1      -7.694   4.500  71.696  1.00  0.00    -0.083 A  
HETATM   42  C   UNL     1      -7.162   5.788  71.698  1.00  0.00    -0.086 A  
HETATM   43  C   UNL     1      -7.381   6.595  72.803  1.00  0.00    -0.084 A  
HETATM   44  C   UNL     1      -6.625   6.475  70.486  1.00  0.00    -0.049 C  
HETATM   45  C   UNL     1      -7.835   6.969  69.631  1.00  0.00    -0.119 C  
ENDBRANCH  27  28
ENDBRANCH  14  24
TORSDOF 3
ENDMDL
MODEL       81
REMARK 921   NORMALIZED FREE ENERGY PREDICTED BY IDOCK:   -3.32 KCAL/MOL
REMARK 922        TOTAL FREE ENERGY PREDICTED BY IDOCK:   -4.97 KCAL/MOL
REMARK 923 INTER-LIGAND FREE ENERGY PREDICTED BY IDOCK:   -6.08 KCAL/MOL
REMARK 924 INTRA-LIGAND FREE ENERGY PREDICTED BY IDOCK:    1.11 KCAL/MOL
REMARK 927      BINDING AFFINITY PREDICTED BY RF-SCORE:    0.00 PKD
ROOT
HETATM    1  C   UNL     1     -11.433  12.629  65.357  1.00  0.00    -0.338 C  
HETATM    2  C   UNL     1     -12.902  13.041  65.163  1.00  0.00    -0.335 C  
HETATM    3  C   UNL     1     -13.375  12.131  63.978  1.00  0.00     0.277 C  
HETATM    4  C   UNL     1     -12.119  11.422  63.474  1.00  0.00     0.170 C  
HETATM    5  N   UNL     1     -11.026  12.179  64.060  1.00  0.00    -0.343 N  
HETATM    6  C   UNL     1      -9.741  11.734  63.891  1.00  0.00    -0.202 C  
HETATM    7  O   UNL     1      -9.302  11.463  62.777  1.00  0.00    -0.369 OA 
HETATM    8  C   UNL     1      -8.882  11.692  65.193  1.00  0.00     0.294 C  
HETATM    9  N   UNL     1      -9.735  11.796  66.523  1.00  0.00    -0.201 N  
HETATM   10  C   UNL     1      -7.154  10.623  68.403  1.00  0.00    -0.078 C  
HETATM   11  C   UNL     1      -9.325  11.957  67.838  1.00  0.00    -0.187 C  
HETATM   12  C   UNL     1      -5.597  12.472  67.688  1.00  0.00    -0.128 C  
HETATM   13  O   UNL     1      -9.836  11.382  68.788  1.00  0.00    -0.205 OA 
HETATM   14  C   UNL     1      -8.319  13.084  67.884  1.00  0.00    -0.170 C  
HETATM   15  C   UNL     1     -10.319  13.080  66.445  1.00  0.00    -0.281 C  
HETATM   16  O   UNL     1     -11.132  13.567  67.523  1.00  0.00    -0.262 OA 
HETATM   17  H   UNL     1     -10.480  13.832  68.160  1.00  0.00     0.000 HD 
HETATM   18  C   UNL     1      -6.997  12.169  68.221  1.00  0.00    -0.080 C  
HETATM   19  O   UNL     1      -8.993  13.710  66.575  1.00  0.00    -0.172 OA 
ENDROOT
BRANCH   8  20
HETATM   20  C   UNL     1      -7.859  10.579  65.082  1.00  0.00    -0.076 C  
HETATM   21  C   UNL     1      -7.011   8.425  65.984  1.00  0.00    -0.065 C  
HETATM   22  C   UNL     1      -8.227   9.335  65.886  1.00  0.00    -0.116 C  
HETATM   23  C   UNL     1      -9.384   8.567  65.257  1.00  0.00     0.156 C  
ENDBRANCH   8  20
BRANCH  14  24
HETATM   24  N   UNL     1      -8.091  14.321  68.594  1.00  0.00    -0.145 N  
HETATM   25  H   UNL     1      -8.724  15.087  68.360  1.00  0.00     0.000 HD 
HETATM   26  O   UNL     1      -6.340  13.790  69.970  1.00  0.00    -0.136 OA 
HETATM   27  C   UNL     1      -7.138  14.603  69.539  1.00  0.00    -0.152 C  
BRANCH  27  28
HETATM   28  C   UNL     1      -7.232  16.069  69.984  1.00  0.00     0.393 C  
HETATM   29  C   UNL     1      -5.823  16.658  70.251  1.00  0.00    -0.118 C  
HETATM   30  N   UNL     1      -5.215  17.315  69.081  1.00  0.00    -0.150 NA 
HETATM   31  C   UNL     1      -5.129  16.425  67.911  1.00  0.00    -0.119 C  
HETATM   32  C   UNL     1      -5.959  18.580  68.796  1.00  0.00    -0.210 C  
HETATM   33  C   UNL     1      -5.645  19.221  67.379  1.00  0.00    -0.168 C  
HETATM   34  C   UNL     1      -6.871  19.525  66.585  1.00  0.00    -0.204 A  
HETATM   35  C   UNL     1      -7.129  19.686  65.245  1.00  0.00    -0.103 A  
HETATM   36  N   UNL     1      -8.470  20.005  65.109  1.00  0.00    -0.020 NA 
HETATM   37  C   UNL     1      -9.079  20.062  66.346  1.00  0.00    -0.336 A  
HETATM   38  H   UNL     1      -8.940  20.173  64.220  1.00  0.00     0.000 HD 
HETATM   39  C   UNL     1     -10.384  20.328  66.771  1.00  0.00    -0.420 A  
HETATM   40  C   UNL     1     -10.636  20.231  68.154  1.00  0.00    -0.187 A  
HETATM   41  C   UNL     1      -9.666  19.768  69.045  1.00  0.00    -0.371 A  
HETATM   42  C   UNL     1      -8.413  19.401  68.560  1.00  0.00    -0.397 A  
HETATM   43  C   UNL     1      -8.104  19.679  67.237  1.00  0.00    -0.317 A  
HETATM   44  C   UNL     1      -7.482  18.468  69.263  1.00  0.00    -0.054 C  
HETATM   45  C   UNL     1      -8.001  17.010  69.047  1.00  0.00    -0.153 C  
ENDBRANCH  27  28
ENDBRANCH  14  24
TORSDOF 3
ENDMDL
MODEL       82
REMARK 921   NORMALIZED FREE ENERGY PREDICTED BY IDOCK:   -3.29 KCAL/MOL
REMARK 922        TOTAL FREE ENERGY PREDICTED BY IDOCK:   -4.94 KCAL/MOL
REMARK 923 INTER-LIGAND FREE ENERGY PREDICTED BY IDOCK:   -4.47 KCAL/MOL
REMARK 924 INTRA-LIGAND FREE ENERGY PREDICTED BY IDOCK:   -0.47 KCAL/MOL
REMARK 927      BINDING AFFINITY PREDICTED BY RF-SCORE:    0.00 PKD
ROOT
HETATM    1  C   UNL     1      -6.551   7.046  65.733  1.00  0.00    -0.052 C  
HETATM    2  C   UNL     1      -5.890   6.589  64.422  1.00  0.00    -0.030 C  
HETATM    3  C   UNL     1      -5.228   5.223  64.814  1.00  0.00    -0.009 C  
HETATM    4  C   UNL     1      -5.397   5.100  66.327  1.00  0.00    -0.012 C  
HETATM    5  N   UNL     1      -5.748   6.444  66.754  1.00  0.00    -0.013 N  
HETATM    6  C   UNL     1      -6.080   6.661  68.066  1.00  0.00    -0.028 C  
HETATM    7  O   UNL     1      -5.352   6.280  68.979  1.00  0.00    -0.010 OA 
HETATM    8  C   UNL     1      -7.381   7.494  68.288  1.00  0.00    -0.096 C  
HETATM    9  N   UNL     1      -8.290   7.610  66.996  1.00  0.00    -0.123 N  
HETATM   10  C   UNL     1     -10.979   8.580  68.841  1.00  0.00     0.106 C  
HETATM   11  C   UNL     1      -9.413   8.390  66.762  1.00  0.00    -0.197 C  
HETATM   12  C   UNL     1      -9.787  10.583  69.800  1.00  0.00    -0.050 C  
HETATM   13  O   UNL     1     -10.397   8.002  66.149  1.00  0.00     0.078 OA 
HETATM   14  C   UNL     1      -9.108   9.803  67.202  1.00  0.00    -0.135 C  
HETATM   15  C   UNL     1      -7.482   8.327  66.085  1.00  0.00    -0.081 C  
HETATM   16  O   UNL     1      -7.999   8.684  64.794  1.00  0.00    -0.124 OA 
HETATM   17  H   UNL     1      -8.544   9.434  65.000  1.00  0.00     0.000 HD 
HETATM   18  C   UNL     1     -10.105   9.834  68.507  1.00  0.00    -0.185 C  
HETATM   19  O   UNL     1      -7.555   9.527  66.936  1.00  0.00    -0.094 OA 
ENDROOT
BRANCH   8  20
HETATM   20  C   UNL     1      -8.033   7.066  69.588  1.00  0.00    -0.124 C  
HETATM   21  C   UNL     1      -7.752   6.616  72.015  1.00  0.00    -0.097 C  
HETATM   22  C   UNL     1      -7.184   7.368  70.820  1.00  0.00    -0.068 C  
HETATM   23  C   UNL     1      -7.140   8.859  71.134  1.00  0.00    -0.103 C  
ENDBRANCH   8  20
BRANCH  14  24
HETATM   24  N   UNL     1      -9.157  11.148  66.679  1.00  0.00    -0.166 N  
HETATM   25  H   UNL     1      -9.775  11.289  65.879  1.00  0.00     0.000 HD 
HETATM   26  O   UNL     1      -7.747  12.280  68.084  1.00  0.00    -0.119 OA 
HETATM   27  C   UNL     1      -8.483  12.261  67.113  1.00  0.00    -0.184 C  
BRANCH  27  28
HETATM   28  C   UNL     1      -8.798  13.469  66.221  1.00  0.00     0.227 C  
HETATM   29  C   UNL     1     -10.303  13.510  65.853  1.00  0.00    -0.299 C  
HETATM   30  N   UNL     1     -11.128  14.301  66.783  1.00  0.00    -0.307 NA 
HETATM   31  C   UNL     1     -11.005  13.847  68.178  1.00  0.00    -0.249 C  
HETATM   32  C   UNL     1     -10.794  15.748  66.611  1.00  0.00    -0.241 C  
HETATM   33  C   UNL     1     -11.344  16.689  67.765  1.00  0.00     0.058 C  
HETATM   34  C   UNL     1     -10.296  17.570  68.356  1.00  0.00    -0.378 A  
HETATM   35  C   UNL     1     -10.156  18.218  69.559  1.00  0.00     0.257 A  
HETATM   36  N   UNL     1      -8.972  18.936  69.518  1.00  0.00     0.294 NA 
HETATM   37  C   UNL     1      -8.351  18.769  68.296  1.00  0.00    -0.330 A  
HETATM   38  H   UNL     1      -8.611  19.508  70.281  1.00  0.00     0.000 HD 
HETATM   39  C   UNL     1      -7.161  19.249  67.742  1.00  0.00    -0.274 A  
HETATM   40  C   UNL     1      -6.830  18.792  66.451  1.00  0.00    -0.239 A  
HETATM   41  C   UNL     1      -7.583  17.810  65.806  1.00  0.00    -0.040 A  
HETATM   42  C   UNL     1      -8.697  17.272  66.446  1.00  0.00    -0.285 A  
HETATM   43  C   UNL     1      -9.132  17.857  67.625  1.00  0.00    -0.250 A  
HETATM   44  C   UNL     1      -9.285  15.937  66.127  1.00  0.00    -0.384 C  
HETATM   45  C   UNL     1      -8.377  14.840  66.768  1.00  0.00    -0.114 C  
ENDBRANCH  27  28
ENDBRANCH  14  24
TORSDOF 3
ENDMDL
MODEL       83
REMARK 921   NORMALIZED FREE ENERGY PREDICTED BY IDOCK:   -3.18 KCAL/MOL
REMARK 922        TOTAL FREE ENERGY PREDICTED BY IDOCK:   -4.80 KCAL/MOL
REMARK 923 INTER-LIGAND FREE ENERGY PREDICTED BY IDOCK:   -5.49 KCAL/MOL
REMARK 924 INTRA-LIGAND FREE ENERGY PREDICTED BY IDOCK:    0.69 KCAL/MOL
REMARK 927      BINDING AFFINITY PREDICTED BY RF-SCORE:    0.00 PKD
ROOT
HETATM    1  C   UNL     1      -7.848  10.440  65.207  1.00  0.00    -0.137 C  
HETATM    2  C   UNL     1      -6.476  10.152  64.575  1.00  0.00    -0.124 C  
HETATM    3  C   UNL     1      -6.617  10.743  63.130  1.00  0.00     0.164 C  
HETATM    4  C   UNL     1      -8.084  11.143  62.988  1.00  0.00     0.263 C  
HETATM    5  N   UNL     1      -8.744  10.464  64.091  1.00  0.00    -0.189 N  
HETATM    6  C   UNL     1     -10.074  10.702  64.320  1.00  0.00    -0.343 C  
HETATM    7  O   UNL     1     -10.904  10.604  63.420  1.00  0.00     0.142 OA 
HETATM    8  C   UNL     1     -10.442  11.010  65.805  1.00  0.00    -0.228 C  
HETATM    9  N   UNL     1      -9.193  11.374  66.708  1.00  0.00    -0.172 N  
HETATM   10  C   UNL     1     -11.184  12.735  69.108  1.00  0.00    -0.294 C  
HETATM   11  C   UNL     1      -9.102  11.541  68.082  1.00  0.00    -0.181 C  
HETATM   12  C   UNL     1     -12.483  10.602  69.451  1.00  0.00     0.063 C  
HETATM   13  O   UNL     1      -8.431  12.409  68.621  1.00  0.00    -0.102 OA 
HETATM   14  C   UNL     1      -9.786  10.369  68.747  1.00  0.00    -0.185 C  
HETATM   15  C   UNL     1      -8.423  10.190  66.703  1.00  0.00    -0.126 C  
HETATM   16  O   UNL     1      -7.216  10.113  67.478  1.00  0.00    -0.087 OA 
HETATM   17  H   UNL     1      -7.553   9.966  68.354  1.00  0.00     0.000 HD 
HETATM   18  C   UNL     1     -11.077  11.192  69.342  1.00  0.00    -0.314 C  
HETATM   19  O   UNL     1      -9.473   9.481  67.453  1.00  0.00    -0.132 OA 
ENDROOT
BRANCH   8  20
HETATM   20  C   UNL     1     -11.646  11.931  65.841  1.00  0.00    -0.291 C  
HETATM   21  C   UNL     1     -12.513  14.217  66.284  1.00  0.00    -0.329 C  
HETATM   22  C   UNL     1     -11.276  13.410  65.918  1.00  0.00    -0.314 C  
HETATM   23  C   UNL     1     -10.706  13.927  64.602  1.00  0.00    -0.422 C  
ENDBRANCH   8  20
BRANCH  14  24
HETATM   24  N   UNL     1      -9.511   9.361  69.744  1.00  0.00    -0.188 N  
HETATM   25  H   UNL     1      -8.866   8.623  69.459  1.00  0.00     0.000 HD 
HETATM   26  O   UNL     1     -10.739  10.084  71.536  1.00  0.00     0.061 OA 
HETATM   27  C   UNL     1     -10.001   9.262  71.021  1.00  0.00    -0.293 C  
BRANCH  27  28
HETATM   28  C   UNL     1      -9.480   7.992  71.706  1.00  0.00    -0.223 C  
HETATM   29  C   UNL     1     -10.653   7.117  72.218  1.00  0.00    -0.215 C  
HETATM   30  N   UNL     1     -11.112   6.104  71.251  1.00  0.00    -0.284 NA 
HETATM   31  C   UNL     1     -11.502   6.688  69.957  1.00  0.00    -0.375 C  
HETATM   32  C   UNL     1     -10.059   5.050  71.120  1.00  0.00    -0.223 C  
HETATM   33  C   UNL     1     -10.253   4.080  69.880  1.00  0.00     0.405 C  
HETATM   34  C   UNL     1      -9.033   3.960  69.030  1.00  0.00    -0.175 A  
HETATM   35  C   UNL     1      -8.808   3.609  67.721  1.00  0.00    -0.118 A  
HETATM   36  N   UNL     1      -7.440   3.636  67.506  1.00  0.00    -0.066 NA 
HETATM   37  C   UNL     1      -6.777   3.988  68.664  1.00  0.00    -0.046 A  
HETATM   38  H   UNL     1      -6.986   3.424  66.617  1.00  0.00     0.000 HD 
HETATM   39  C   UNL     1      -5.431   4.166  68.993  1.00  0.00    -0.012 A  
HETATM   40  C   UNL     1      -5.147   4.599  70.303  1.00  0.00     0.000 A  
HETATM   41  C   UNL     1      -6.161   4.958  71.193  1.00  0.00    -0.019 A  
HETATM   42  C   UNL     1      -7.490   4.876  70.782  1.00  0.00    -0.065 A  
HETATM   43  C   UNL     1      -7.774   4.269  69.569  1.00  0.00    -0.054 A  
HETATM   44  C   UNL     1      -8.607   5.651  71.400  1.00  0.00    -0.132 C  
HETATM   45  C   UNL     1      -8.527   7.121  70.878  1.00  0.00    -0.133 C  
ENDBRANCH  27  28
ENDBRANCH  14  24
TORSDOF 3
ENDMDL
MODEL       84
REMARK 921   NORMALIZED FREE ENERGY PREDICTED BY IDOCK:   -3.12 KCAL/MOL
REMARK 922        TOTAL FREE ENERGY PREDICTED BY IDOCK:   -4.74 KCAL/MOL
REMARK 923 INTER-LIGAND FREE ENERGY PREDICTED BY IDOCK:   -3.78 KCAL/MOL
REMARK 924 INTRA-LIGAND FREE ENERGY PREDICTED BY IDOCK:   -0.96 KCAL/MOL
REMARK 927      BINDING AFFINITY PREDICTED BY RF-SCORE:    0.00 PKD
ROOT
HETATM    1  C   UNL     1     -10.261  16.793  68.784  1.00  0.00    -0.299 C  
HETATM    2  C   UNL     1     -10.415  18.031  69.684  1.00  0.00     0.586 C  
HETATM    3  C   UNL     1      -9.934  19.204  68.762  1.00  0.00    -0.493 C  
HETATM    4  C   UNL     1      -9.377  18.540  67.504  1.00  0.00    -0.279 C  
HETATM    5  N   UNL     1      -9.205  17.148  67.885  1.00  0.00    -0.238 N  
HETATM    6  C   UNL     1      -8.815  16.241  66.935  1.00  0.00    -0.215 C  
HETATM    7  O   UNL     1      -7.831  16.441  66.228  1.00  0.00    -0.296 OA 
HETATM    8  C   UNL     1      -9.655  14.926  66.898  1.00  0.00    -0.245 C  
HETATM    9  N   UNL     1     -11.028  15.024  67.680  1.00  0.00    -0.295 N  
HETATM   10  C   UNL     1     -12.247  12.262  66.112  1.00  0.00    -0.002 C  
HETATM   11  C   UNL     1     -11.945  14.035  68.004  1.00  0.00    -0.350 C  
HETATM   12  C   UNL     1     -10.369  10.789  66.923  1.00  0.00    -0.290 C  
HETATM   13  O   UNL     1     -13.157  14.186  67.955  1.00  0.00     1.378 OA 
HETATM   14  C   UNL     1     -11.192  12.869  68.602  1.00  0.00    -0.281 C  
HETATM   15  C   UNL     1     -10.632  15.232  69.021  1.00  0.00    -0.245 C  
HETATM   16  O   UNL     1     -11.621  15.314  70.058  1.00  0.00    -0.260 OA 
HETATM   17  H   UNL     1     -11.839  14.400  70.196  1.00  0.00     0.000 HD 
HETATM   18  C   UNL     1     -11.411  11.819  67.358  1.00  0.00    -0.375 C  
HETATM   19  O   UNL     1     -10.047  13.881  69.077  1.00  0.00    -0.152 OA 
ENDROOT
BRANCH   8  20
HETATM   20  C   UNL     1      -9.674  14.385  65.481  1.00  0.00    -0.214 C  
HETATM   21  C   UNL     1     -11.039  13.779  63.496  1.00  0.00     0.775 C  
HETATM   22  C   UNL     1     -10.993  14.632  64.756  1.00  0.00    -0.399 C  
HETATM   23  C   UNL     1     -11.176  16.099  64.381  1.00  0.00    -0.184 C  
ENDBRANCH   8  20
BRANCH  14  24
HETATM   24  N   UNL     1     -11.216  12.039  69.783  1.00  0.00    -0.490 N  
HETATM   25  H   UNL     1     -10.406  11.433  69.914  1.00  0.00     0.000 HD 
HETATM   26  O   UNL     1     -13.188  12.646  70.777  1.00  0.00     0.130 OA 
HETATM   27  C   UNL     1     -12.184  11.956  70.752  1.00  0.00    -0.303 C  
BRANCH  27  28
HETATM   28  C   UNL     1     -11.816  10.896  71.798  1.00  0.00     0.786 C  
HETATM   29  C   UNL     1     -13.079  10.149  72.298  1.00  0.00    -0.255 C  
HETATM   30  N   UNL     1     -13.394   8.926  71.538  1.00  0.00    -0.341 NA 
HETATM   31  C   UNL     1     -13.548   9.179  70.095  1.00  0.00     1.630 C  
HETATM   32  C   UNL     1     -12.361   7.890  71.840  1.00  0.00    -0.315 C  
HETATM   33  C   UNL     1     -12.368   6.648  70.852  1.00  0.00    -0.260 C  
HETATM   34  C   UNL     1     -11.026   6.349  70.274  1.00  0.00    -0.378 A  
HETATM   35  C   UNL     1     -10.594   5.699  69.142  1.00  0.00    -0.264 A  
HETATM   36  N   UNL     1      -9.209   5.696  69.161  1.00  0.00    -0.114 NA 
HETATM   37  C   UNL     1      -8.741   6.326  70.296  1.00  0.00    -0.142 A  
HETATM   38  H   UNL     1      -8.618   5.286  68.437  1.00  0.00     0.000 HD 
HETATM   39  C   UNL     1      -7.464   6.599  70.795  1.00  0.00    -0.087 A  
HETATM   40  C   UNL     1      -7.393   7.337  71.993  1.00  0.00    -0.079 A  
HETATM   41  C   UNL     1      -8.533   7.881  72.588  1.00  0.00    -0.203 A  
HETATM   42  C   UNL     1      -9.776   7.682  71.991  1.00  0.00    -0.209 A  
HETATM   43  C   UNL     1      -9.868   6.798  70.927  1.00  0.00    -0.197 A  
HETATM   44  C   UNL     1     -10.961   8.564  72.209  1.00  0.00    -0.426 C  
HETATM   45  C   UNL     1     -10.759   9.867  71.373  1.00  0.00     0.107 C  
ENDBRANCH  27  28
ENDBRANCH  14  24
TORSDOF 3
ENDMDL
MODEL       85
REMARK 921   NORMALIZED FREE ENERGY PREDICTED BY IDOCK:   -2.67 KCAL/MOL
REMARK 922        TOTAL FREE ENERGY PREDICTED BY IDOCK:   -4.21 KCAL/MOL
REMARK 923 INTER-LIGAND FREE ENERGY PREDICTED BY IDOCK:   -3.77 KCAL/MOL
REMARK 924 INTRA-LIGAND FREE ENERGY PREDICTED BY IDOCK:   -0.43 KCAL/MOL
REMARK 927      BINDING AFFINITY PREDICTED BY RF-SCORE:    0.00 PKD
ROOT
HETATM    1  C   UNL     1      -9.124  10.818  64.584  1.00  0.00    -0.201 C  
HETATM    2  C   UNL     1      -8.028  10.461  63.566  1.00  0.00    -0.101 C  
HETATM    3  C   UNL     1      -8.185  11.568  62.468  1.00  0.00     0.269 C  
HETATM    4  C   UNL     1      -9.450  12.341  62.839  1.00  0.00     1.103 C  
HETATM    5  N   UNL     1     -10.121  11.482  63.800  1.00  0.00    -0.328 N  
HETATM    6  C   UNL     1     -11.254  11.936  64.422  1.00  0.00    -0.336 C  
HETATM    7  O   UNL     1     -12.195  12.393  63.779  1.00  0.00    -0.453 OA 
HETATM    8  C   UNL     1     -11.277  11.741  65.971  1.00  0.00    -0.296 C  
HETATM    9  N   UNL     1      -9.858  11.417  66.593  1.00  0.00    -0.201 N  
HETATM   10  C   UNL     1     -10.925  12.216  69.723  1.00  0.00     0.176 C  
HETATM   11  C   UNL     1      -9.515  11.024  67.879  1.00  0.00    -0.165 C  
HETATM   12  C   UNL     1     -12.775  10.504  69.692  1.00  0.00     0.201 C  
HETATM   13  O   UNL     1      -8.528  11.430  68.476  1.00  0.00    -0.149 OA 
HETATM   14  C   UNL     1     -10.433   9.896  68.290  1.00  0.00    -0.210 C  
HETATM   15  C   UNL     1      -9.519  10.171  66.018  1.00  0.00    -0.197 C  
HETATM   16  O   UNL     1      -8.301   9.513  66.395  1.00  0.00    -0.117 OA 
HETATM   17  H   UNL     1      -8.532   9.134  67.235  1.00  0.00     0.000 HD 
HETATM   18  C   UNL     1     -11.286  10.724  69.422  1.00  0.00    -0.351 C  
HETATM   19  O   UNL     1     -10.618   9.515  66.747  1.00  0.00    -0.212 OA 
ENDROOT
BRANCH   8  20
HETATM   20  C   UNL     1     -12.102  12.846  66.601  1.00  0.00    -0.360 C  
HETATM   21  C   UNL     1     -12.107  15.003  67.835  1.00  0.00    -0.011 C  
HETATM   22  C   UNL     1     -11.292  14.100  66.919  1.00  0.00    -0.343 C  
HETATM   23  C   UNL     1     -10.910  14.870  65.660  1.00  0.00    -0.347 C  
ENDBRANCH   8  20
BRANCH  14  24
HETATM   24  N   UNL     1     -10.351   8.552  68.811  1.00  0.00    -0.217 N  
HETATM   25  H   UNL     1      -9.741   8.428  69.620  1.00  0.00     0.000 HD 
HETATM   26  O   UNL     1     -11.783   7.400  67.446  1.00  0.00     0.828 OA 
HETATM   27  C   UNL     1     -10.984   7.420  68.364  1.00  0.00     0.076 C  
BRANCH  27  28
HETATM   28  C   UNL     1     -10.557   6.198  69.189  1.00  0.00    -0.345 C  
HETATM   29  C   UNL     1      -9.819   5.162  68.303  1.00  0.00    -0.156 C  
HETATM   30  N   UNL     1      -8.356   5.334  68.269  1.00  0.00    -0.097 NA 
HETATM   31  C   UNL     1      -7.953   6.682  67.836  1.00  0.00    -0.113 C  
HETATM   32  C   UNL     1      -7.795   4.959  69.604  1.00  0.00    -0.067 C  
HETATM   33  C   UNL     1      -6.291   5.409  69.833  1.00  0.00    -0.030 C  
HETATM   34  C   UNL     1      -6.090   6.166  71.102  1.00  0.00    -0.035 A  
HETATM   35  C   UNL     1      -5.148   7.066  71.542  1.00  0.00    -0.027 A  
HETATM   36  N   UNL     1      -5.464   7.402  72.848  1.00  0.00    -0.037 NA 
HETATM   37  C   UNL     1      -6.591   6.721  73.261  1.00  0.00    -0.064 A  
HETATM   38  H   UNL     1      -4.937   8.059  73.423  1.00  0.00     0.000 HD 
HETATM   39  C   UNL     1      -7.324   6.695  74.451  1.00  0.00    -0.098 A  
HETATM   40  C   UNL     1      -8.484   5.895  74.468  1.00  0.00    -0.115 A  
HETATM   41  C   UNL     1      -8.953   5.261  73.316  1.00  0.00    -0.120 A  
HETATM   42  C   UNL     1      -8.253   5.411  72.121  1.00  0.00    -0.115 A  
HETATM   43  C   UNL     1      -7.015   6.033  72.149  1.00  0.00    -0.078 A  
HETATM   44  C   UNL     1      -8.857   5.222  70.768  1.00  0.00    -0.151 C  
HETATM   45  C   UNL     1      -9.711   6.487  70.435  1.00  0.00    -0.186 C  
ENDBRANCH  27  28
ENDBRANCH  14  24
TORSDOF 3
ENDMDL
MODEL       86
REMARK 921   NORMALIZED FREE ENERGY PREDICTED BY IDOCK:   -2.67 KCAL/MOL
REMARK 922        TOTAL FREE ENERGY PREDICTED BY IDOCK:   -4.20 KCAL/MOL
REMARK 923 INTER-LIGAND FREE ENERGY PREDICTED BY IDOCK:   -2.93 KCAL/MOL
REMARK 924 INTRA-LIGAND FREE ENERGY PREDICTED BY IDOCK:   -1.28 KCAL/MOL
REMARK 927      BINDING AFFINITY PREDICTED BY RF-SCORE:    0.00 PKD
ROOT
HETATM    1  C   UNL     1      -9.406   6.146  66.613  1.00  0.00    -0.146 C  
HETATM    2  C   UNL     1     -10.428   5.259  65.880  1.00  0.00    -0.098 C  
HETATM    3  C   UNL     1      -9.714   3.865  65.823  1.00  0.00    -0.169 C  
HETATM    4  C   UNL     1      -8.298   4.103  66.344  1.00  0.00    -0.105 C  
HETATM    5  N   UNL     1      -8.143   5.548  66.302  1.00  0.00    -0.105 N  
HETATM    6  C   UNL     1      -7.004   6.111  66.814  1.00  0.00    -0.071 C  
HETATM    7  O   UNL     1      -5.891   5.720  66.473  1.00  0.00    -0.017 OA 
HETATM    8  C   UNL     1      -7.240   7.322  67.770  1.00  0.00    -0.091 C  
HETATM    9  N   UNL     1      -8.733   7.445  68.285  1.00  0.00    -0.123 N  
HETATM   10  C   UNL     1      -7.807   9.523  70.814  1.00  0.00    -0.093 C  
HETATM   11  C   UNL     1      -9.351   8.461  68.998  1.00  0.00    -0.147 C  
HETATM   12  C   UNL     1      -6.807  11.227  69.249  1.00  0.00    -0.116 C  
HETATM   13  O   UNL     1     -10.155   8.271  69.899  1.00  0.00    -0.188 OA 
HETATM   14  C   UNL     1      -9.016   9.776  68.334  1.00  0.00    -0.123 C  
HETATM   15  C   UNL     1      -9.472   7.689  67.106  1.00  0.00    -0.155 C  
HETATM   16  O   UNL     1     -10.888   7.920  67.179  1.00  0.00    -0.483 OA 
HETATM   17  H   UNL     1     -10.926   8.824  67.468  1.00  0.00     0.000 HD 
HETATM   18  C   UNL     1      -8.041  10.365  69.517  1.00  0.00    -0.145 C  
HETATM   19  O   UNL     1      -8.821   9.001  66.948  1.00  0.00    -0.114 OA 
ENDROOT
BRANCH   8  20
HETATM   20  C   UNL     1      -6.122   7.378  68.792  1.00  0.00    -0.027 C  
HETATM   21  C   UNL     1      -5.382   6.861  71.107  1.00  0.00    -0.027 C  
HETATM   22  C   UNL     1      -6.368   6.490  70.009  1.00  0.00    -0.039 C  
HETATM   23  C   UNL     1      -6.223   5.009  69.678  1.00  0.00    -0.026 C  
ENDBRANCH   8  20
BRANCH  14  24
HETATM   24  N   UNL     1      -9.689  10.942  67.809  1.00  0.00    -0.166 N  
HETATM   25  H   UNL     1      -9.084  11.720  67.546  1.00  0.00     0.000 HD 
HETATM   26  O   UNL     1     -11.886  10.299  67.829  1.00  0.00    -0.096 OA 
HETATM   27  C   UNL     1     -11.033  11.141  67.617  1.00  0.00    -0.269 C  
BRANCH  27  28
HETATM   28  C   UNL     1     -11.301  12.556  67.088  1.00  0.00    -0.381 C  
HETATM   29  C   UNL     1     -12.534  13.185  67.787  1.00  0.00     0.409 C  
HETATM   30  N   UNL     1     -12.206  13.970  68.990  1.00  0.00    -0.316 NA 
HETATM   31  C   UNL     1     -11.455  13.191  69.989  1.00  0.00    -0.024 C  
HETATM   32  C   UNL     1     -11.497  15.218  68.573  1.00  0.00    -0.342 C  
HETATM   33  C   UNL     1     -10.786  15.996  69.759  1.00  0.00    -0.331 C  
HETATM   34  C   UNL     1      -9.354  16.310  69.483  1.00  0.00    -0.028 A  
HETATM   35  C   UNL     1      -8.262  16.576  70.272  1.00  0.00     2.187 A  
HETATM   36  N   UNL     1      -7.191  16.843  69.435  1.00  0.00    -0.170 NA 
HETATM   37  C   UNL     1      -7.581  16.763  68.114  1.00  0.00    -0.177 A  
HETATM   38  H   UNL     1      -6.247  17.067  69.751  1.00  0.00     0.000 HD 
HETATM   39  C   UNL     1      -6.915  16.929  66.896  1.00  0.00    -0.251 A  
HETATM   40  C   UNL     1      -7.663  16.699  65.725  1.00  0.00     0.690 A  
HETATM   41  C   UNL     1      -8.968  16.205  65.773  1.00  0.00    -0.086 A  
HETATM   42  C   UNL     1      -9.553  15.941  67.010  1.00  0.00    -0.232 A  
HETATM   43  C   UNL     1      -8.892  16.349  68.158  1.00  0.00    -0.192 A  
HETATM   44  C   UNL     1     -10.689  14.994  67.214  1.00  0.00    -0.298 C  
HETATM   45  C   UNL     1     -10.126  13.539  67.162  1.00  0.00    -0.245 C  
ENDBRANCH  27  28
ENDBRANCH  14  24
TORSDOF 3
ENDMDL
MODEL       87
REMARK 921   NORMALIZED FREE ENERGY PREDICTED BY IDOCK:   -2.59 KCAL/MOL
REMARK 922        TOTAL FREE ENERGY PREDICTED BY IDOCK:   -4.11 KCAL/MOL
REMARK 923 INTER-LIGAND FREE ENERGY PREDICTED BY IDOCK:   -4.34 KCAL/MOL
REMARK 924 INTRA-LIGAND FREE ENERGY PREDICTED BY IDOCK:    0.23 KCAL/MOL
REMARK 927      BINDING AFFINITY PREDICTED BY RF-SCORE:    0.00 PKD
ROOT
HETATM    1  C   UNL     1     -10.685   5.244  72.251  1.00  0.00    -0.223 C  
HETATM    2  C   UNL     1     -12.102   5.219  72.848  1.00  0.00     0.036 C  
HETATM    3  C   UNL     1     -12.270   3.730  73.308  1.00  0.00     0.501 C  
HETATM    4  C   UNL     1     -11.040   2.993  72.781  1.00  0.00     0.221 C  
HETATM    5  N   UNL     1     -10.478   3.902  71.796  1.00  0.00     0.056 N  
HETATM    6  C   UNL     1      -9.284   3.585  71.202  1.00  0.00    -0.121 C  
HETATM    7  O   UNL     1      -9.105   2.489  70.677  1.00  0.00    -0.093 OA 
HETATM    8  C   UNL     1      -8.237   4.742  71.171  1.00  0.00    -0.104 C  
HETATM    9  N   UNL     1      -8.576   5.934  72.155  1.00  0.00    -0.129 N  
HETATM   10  C   UNL     1      -5.393   7.124  71.987  1.00  0.00    -0.036 C  
HETATM   11  C   UNL     1      -7.986   7.183  72.282  1.00  0.00    -0.097 C  
HETATM   12  C   UNL     1      -5.474   7.415  69.485  1.00  0.00    -0.022 C  
HETATM   13  O   UNL     1      -7.776   7.733  73.354  1.00  0.00    -0.110 OA 
HETATM   14  C   UNL     1      -7.856   7.788  70.903  1.00  0.00    -0.089 C  
HETATM   15  C   UNL     1      -9.788   6.451  71.646  1.00  0.00    -0.167 C  
HETATM   16  O   UNL     1     -10.390   7.605  72.255  1.00  0.00    -0.201 OA 
HETATM   17  H   UNL     1      -9.865   8.312  71.900  1.00  0.00     0.000 HD 
HETATM   18  C   UNL     1      -6.220   7.697  70.789  1.00  0.00    -0.034 C  
HETATM   19  O   UNL     1      -9.102   6.906  70.424  1.00  0.00    -0.155 OA 
ENDROOT
BRANCH   8  20
HETATM   20  C   UNL     1      -6.841   4.152  71.211  1.00  0.00    -0.035 C  
HETATM   21  C   UNL     1      -5.238   2.514  70.253  1.00  0.00    -0.004 C  
HETATM   22  C   UNL     1      -6.497   3.323  69.977  1.00  0.00    -0.032 C  
HETATM   23  C   UNL     1      -6.278   4.194  68.744  1.00  0.00    -0.032 C  
ENDBRANCH   8  20
BRANCH  14  24
HETATM   24  N   UNL     1      -8.199   9.003  70.203  1.00  0.00    -0.121 N  
HETATM   25  H   UNL     1      -7.533   9.771  70.298  1.00  0.00     0.000 HD 
HETATM   26  O   UNL     1     -10.163   8.443  69.168  1.00  0.00    -0.202 OA 
HETATM   27  C   UNL     1      -9.300   9.263  69.427  1.00  0.00    -0.164 C  
BRANCH  27  28
HETATM   28  C   UNL     1      -9.281  10.712  68.925  1.00  0.00    -0.189 C  
HETATM   29  C   UNL     1      -7.836  11.164  68.589  1.00  0.00    -0.138 C  
HETATM   30  N   UNL     1      -7.447  10.938  67.186  1.00  0.00    -0.103 NA 
HETATM   31  C   UNL     1      -7.600   9.533  66.773  1.00  0.00    -0.098 C  
HETATM   32  C   UNL     1      -8.209  11.887  66.316  1.00  0.00     0.137 C  
HETATM   33  C   UNL     1      -8.156  11.543  64.768  1.00  0.00     1.066 C  
HETATM   34  C   UNL     1      -9.504  11.484  64.132  1.00  0.00    -0.110 A  
HETATM   35  C   UNL     1     -10.007  10.871  63.009  1.00  0.00    -0.274 A  
HETATM   36  N   UNL     1     -11.344  11.218  62.902  1.00  0.00    -0.710 NA 
HETATM   37  C   UNL     1     -11.707  12.058  63.936  1.00  0.00    -0.446 A  
HETATM   38  H   UNL     1     -11.970  10.899  62.164  1.00  0.00     0.000 HD 
HETATM   39  C   UNL     1     -12.903  12.683  64.300  1.00  0.00    -0.306 A  
HETATM   40  C   UNL     1     -12.891  13.437  65.489  1.00  0.00    -0.361 A  
HETATM   41  C   UNL     1     -11.779  13.457  66.334  1.00  0.00    -0.409 A  
HETATM   42  C   UNL     1     -10.647  12.722  65.989  1.00  0.00    -0.289 A  
HETATM   43  C   UNL     1     -10.588  12.142  64.732  1.00  0.00    -0.335 A  
HETATM   44  C   UNL     1      -9.618  12.259  66.968  1.00  0.00    -0.208 C  
HETATM   45  C   UNL     1     -10.195  11.026  67.733  1.00  0.00    -0.210 C  
ENDBRANCH  27  28
ENDBRANCH  14  24
TORSDOF 3
ENDMDL
MODEL       88
REMARK 921   NORMALIZED FREE ENERGY PREDICTED BY IDOCK:   -2.22 KCAL/MOL
REMARK 922        TOTAL FREE ENERGY PREDICTED BY IDOCK:   -3.68 KCAL/MOL
REMARK 923 INTER-LIGAND FREE ENERGY PREDICTED BY IDOCK:   -3.75 KCAL/MOL
REMARK 924 INTRA-LIGAND FREE ENERGY PREDICTED BY IDOCK:    0.07 KCAL/MOL
REMARK 927      BINDING AFFINITY PREDICTED BY RF-SCORE:    0.00 PKD
ROOT
HETATM    1  C   UNL     1      -7.086   6.140  67.968  1.00  0.00    -0.078 C  
HETATM    2  C   UNL     1      -6.455   5.983  66.575  1.00  0.00    -0.046 C  
HETATM    3  C   UNL     1      -5.312   4.937  66.817  1.00  0.00    -0.012 C  
HETATM    4  C   UNL     1      -5.258   4.726  68.329  1.00  0.00    -0.007 C  
HETATM    5  N   UNL     1      -6.014   5.843  68.870  1.00  0.00    -0.019 N  
HETATM    6  C   UNL     1      -6.254   5.894  70.218  1.00  0.00    -0.031 C  
HETATM    7  O   UNL     1      -5.342   5.778  71.033  1.00  0.00    -0.012 OA 
HETATM    8  C   UNL     1      -7.733   6.198  70.613  1.00  0.00    -0.105 C  
HETATM    9  N   UNL     1      -8.761   6.010  69.423  1.00  0.00    -0.121 N  
HETATM   10  C   UNL     1     -11.398   5.903  71.570  1.00  0.00    -0.256 C  
HETATM   11  C   UNL     1     -10.106   6.339  69.344  1.00  0.00    -0.176 C  
HETATM   12  C   UNL     1     -10.897   8.177  72.535  1.00  0.00    -0.431 C  
HETATM   13  O   UNL     1     -10.950   5.637  68.804  1.00  0.00    -0.216 OA 
HETATM   14  C   UNL     1     -10.277   7.756  69.840  1.00  0.00    -0.213 C  
HETATM   15  C   UNL     1      -8.366   6.991  68.485  1.00  0.00    -0.121 C  
HETATM   16  O   UNL     1      -9.115   7.170  67.273  1.00  0.00    -0.120 OA 
HETATM   17  H   UNL     1      -9.865   7.668  67.576  1.00  0.00     0.000 HD 
HETATM   18  C   UNL     1     -11.069   7.395  71.233  1.00  0.00    -0.269 C  
HETATM   19  O   UNL     1      -8.766   8.064  69.412  1.00  0.00    -0.135 OA 
ENDROOT
BRANCH   8  20
HETATM   20  C   UNL     1      -8.043   5.533  71.940  1.00  0.00    -0.115 C  
HETATM   21  C   UNL     1      -9.209   3.689  73.129  1.00  0.00    -0.118 C  
HETATM   22  C   UNL     1      -8.629   4.131  71.793  1.00  0.00    -0.119 C  
HETATM   23  C   UNL     1      -7.586   3.118  71.335  1.00  0.00    -0.044 C  
ENDBRANCH   8  20
BRANCH  14  24
HETATM   24  N   UNL     1     -10.858   9.006  69.408  1.00  0.00    -0.368 N  
HETATM   25  H   UNL     1     -11.863   8.989  69.234  1.00  0.00     0.000 HD 
HETATM   26  O   UNL     1      -9.056  10.418  69.410  1.00  0.00    -0.196 OA 
HETATM   27  C   UNL     1     -10.238  10.212  69.200  1.00  0.00    -0.214 C  
BRANCH  27  28
HETATM   28  C   UNL     1     -11.239  11.255  68.688  1.00  0.00    -0.310 C  
HETATM   29  C   UNL     1     -12.696  10.829  69.004  1.00  0.00     0.966 C  
HETATM   30  N   UNL     1     -13.205  11.341  70.289  1.00  0.00     0.314 NA 
HETATM   31  C   UNL     1     -12.355  10.961  71.429  1.00  0.00    -0.298 C  
HETATM   32  C   UNL     1     -13.402  12.819  70.176  1.00  0.00     1.463 C  
HETATM   33  C   UNL     1     -13.620  13.559  71.562  1.00  0.00    -0.254 C  
HETATM   34  C   UNL     1     -12.711  14.725  71.756  1.00  0.00    -0.396 A  
HETATM   35  C   UNL     1     -12.238  15.399  72.857  1.00  0.00    -0.421 A  
HETATM   36  N   UNL     1     -11.449  16.444  72.406  1.00  0.00    -0.151 NA 
HETATM   37  C   UNL     1     -11.415  16.460  71.026  1.00  0.00    -0.191 A  
HETATM   38  H   UNL     1     -10.962  17.107  73.008  1.00  0.00     0.000 HD 
HETATM   39  C   UNL     1     -10.782  17.275  70.083  1.00  0.00     0.588 A  
HETATM   40  C   UNL     1     -10.946  16.927  68.728  1.00  0.00    -0.234 A  
HETATM   41  C   UNL     1     -11.600  15.754  68.346  1.00  0.00    -0.343 A  
HETATM   42  C   UNL     1     -12.114  14.909  69.327  1.00  0.00    -0.286 A  
HETATM   43  C   UNL     1     -12.124  15.346  70.642  1.00  0.00    -0.412 A  
HETATM   44  C   UNL     1     -12.384  13.455  69.122  1.00  0.00    -0.050 C  
HETATM   45  C   UNL     1     -11.020  12.695  69.171  1.00  0.00    -0.195 C  
ENDBRANCH  27  28
ENDBRANCH  14  24
TORSDOF 3
ENDMDL
MODEL       89
REMARK 921   NORMALIZED FREE ENERGY PREDICTED BY IDOCK:   -1.85 KCAL/MOL
REMARK 922        TOTAL FREE ENERGY PREDICTED BY IDOCK:   -3.25 KCAL/MOL
REMARK 923 INTER-LIGAND FREE ENERGY PREDICTED BY IDOCK:   -3.13 KCAL/MOL
REMARK 924 INTRA-LIGAND FREE ENERGY PREDICTED BY IDOCK:   -0.12 KCAL/MOL
REMARK 927      BINDING AFFINITY PREDICTED BY RF-SCORE:    0.00 PKD
ROOT
HETATM    1  C   UNL     1      -6.629  18.840  69.785  1.00  0.00    -0.071 C  
HETATM    2  C   UNL     1      -6.014  18.967  71.188  1.00  0.00     0.276 C  
HETATM    3  C   UNL     1      -5.203  20.306  71.103  1.00  0.00    -0.314 C  
HETATM    4  C   UNL     1      -5.262  20.733  69.637  1.00  0.00    -0.356 C  
HETATM    5  N   UNL     1      -5.710  19.539  68.939  1.00  0.00    -0.215 N  
HETATM    6  C   UNL     1      -5.975  19.613  67.596  1.00  0.00    -0.190 C  
HETATM    7  O   UNL     1      -5.158  20.083  66.810  1.00  0.00    -0.159 OA 
HETATM    8  C   UNL     1      -7.331  18.978  67.157  1.00  0.00    -0.216 C  
HETATM    9  N   UNL     1      -8.328  18.712  68.359  1.00  0.00    -0.326 N  
HETATM   10  C   UNL     1     -10.972  18.398  66.241  1.00  0.00     0.192 C  
HETATM   11  C   UNL     1      -9.532  18.024  68.385  1.00  0.00    -0.308 C  
HETATM   12  C   UNL     1      -9.914  16.502  64.961  1.00  0.00     0.672 C  
HETATM   13  O   UNL     1     -10.513  18.388  69.017  1.00  0.00    -0.187 OA 
HETATM   14  C   UNL     1      -9.334  16.697  67.690  1.00  0.00    -0.224 C  
HETATM   15  C   UNL     1      -7.651  17.754  69.147  1.00  0.00    -0.053 C  
HETATM   16  O   UNL     1      -8.281  17.212  70.318  1.00  0.00     2.045 OA 
HETATM   17  H   UNL     1      -8.880  16.577  69.945  1.00  0.00     0.000 HD 
HETATM   18  C   UNL     1     -10.243  17.019  66.361  1.00  0.00    -0.330 C  
HETATM   19  O   UNL     1      -7.781  16.753  68.074  1.00  0.00    -0.164 OA 
ENDROOT
BRANCH   8  20
HETATM   20  C   UNL     1      -7.856  19.712  65.939  1.00  0.00    -0.295 C  
HETATM   21  C   UNL     1      -7.327  21.128  63.967  1.00  0.00     0.838 C  
HETATM   22  C   UNL     1      -6.758  20.127  64.963  1.00  0.00    -0.313 C  
HETATM   23  C   UNL     1      -6.181  18.935  64.208  1.00  0.00     0.295 C  
ENDBRANCH   8  20
BRANCH  14  24
HETATM   24  N   UNL     1      -9.541  15.289  67.936  1.00  0.00    -0.199 N  
HETATM   25  H   UNL     1      -9.102  14.654  67.268  1.00  0.00     0.000 HD 
HETATM   26  O   UNL     1     -10.792  15.298  69.853  1.00  0.00    -0.249 OA 
HETATM   27  C   UNL     1     -10.251  14.691  68.946  1.00  0.00    -0.241 C  
BRANCH  27  28
HETATM   28  C   UNL     1     -10.251  13.166  68.782  1.00  0.00    -0.109 C  
HETATM   29  C   UNL     1     -11.698  12.611  68.759  1.00  0.00    -0.323 C  
HETATM   30  N   UNL     1     -12.279  12.504  67.408  1.00  0.00    -0.370 NA 
HETATM   31  C   UNL     1     -12.263  13.784  66.680  1.00  0.00    -0.409 C  
HETATM   32  C   UNL     1     -11.583  11.405  66.670  1.00  0.00     0.094 C  
HETATM   33  C   UNL     1     -11.857  11.390  65.107  1.00  0.00     0.385 C  
HETATM   34  C   UNL     1     -10.610  11.343  64.291  1.00  0.00    -0.416 A  
HETATM   35  C   UNL     1     -10.293  11.701  63.002  1.00  0.00    -0.232 A  
HETATM   36  N   UNL     1      -8.964  11.376  62.788  1.00  0.00    -0.523 NA 
HETATM   37  C   UNL     1      -8.421  10.800  63.919  1.00  0.00     0.016 A  
HETATM   38  H   UNL     1      -8.459  11.538  61.917  1.00  0.00     0.000 HD 
HETATM   39  C   UNL     1      -7.154  10.306  64.240  1.00  0.00    -0.056 A  
HETATM   40  C   UNL     1      -6.967   9.839  65.556  1.00  0.00    -0.099 A  
HETATM   41  C   UNL     1      -7.956   9.979  66.531  1.00  0.00    -0.115 A  
HETATM   42  C   UNL     1      -9.164  10.586  66.196  1.00  0.00    -0.197 A  
HETATM   43  C   UNL     1      -9.420  10.867  64.862  1.00  0.00    -0.277 A  
HETATM   44  C   UNL     1     -10.082  11.228  67.183  1.00  0.00    -0.223 C  
HETATM   45  C   UNL     1      -9.483  12.618  67.572  1.00  0.00    -0.186 C  
ENDBRANCH  27  28
ENDBRANCH  14  24
TORSDOF 3
ENDMDL
MODEL       90
REMARK 921   NORMALIZED FREE ENERGY PREDICTED BY IDOCK:   -1.57 KCAL/MOL
REMARK 922        TOTAL FREE ENERGY PREDICTED BY IDOCK:   -2.92 KCAL/MOL
REMARK 923 INTER-LIGAND FREE ENERGY PREDICTED BY IDOCK:   -2.56 KCAL/MOL
REMARK 924 INTRA-LIGAND FREE ENERGY PREDICTED BY IDOCK:   -0.36 KCAL/MOL
REMARK 927      BINDING AFFINITY PREDICTED BY RF-SCORE:    0.00 PKD
ROOT
HETATM    1  C   UNL     1     -10.165  14.896  66.611  1.00  0.00    -0.261 C  
HETATM    2  C   UNL     1     -11.106  15.095  65.411  1.00  0.00    -0.371 C  
HETATM    3  C   UNL     1     -11.234  16.654  65.312  1.00  0.00     0.094 C  
HETATM    4  C   UNL     1     -10.527  17.207  66.548  1.00  0.00    -0.255 C  
HETATM    5  N   UNL     1     -10.391  16.054  67.423  1.00  0.00    -0.288 N  
HETATM    6  C   UNL     1      -9.690  16.185  68.593  1.00  0.00    -0.227 C  
HETATM    7  O   UNL     1      -9.940  17.087  69.389  1.00  0.00    -0.203 OA 
HETATM    8  C   UNL     1      -8.640  15.062  68.861  1.00  0.00    -0.189 C  
HETATM    9  N   UNL     1      -8.292  14.197  67.581  1.00  0.00    -0.169 N  
HETATM   10  C   UNL     1      -5.457  12.994  69.026  1.00  0.00    -0.069 C  
HETATM   11  C   UNL     1      -7.548  13.033  67.464  1.00  0.00    -0.165 C  
HETATM   12  C   UNL     1      -6.696  12.008  70.987  1.00  0.00     2.499 C  
HETATM   13  O   UNL     1      -6.773  12.806  66.545  1.00  0.00     0.461 OA 
HETATM   14  C   UNL     1      -8.018  12.063  68.523  1.00  0.00    -0.132 C  
HETATM   15  C   UNL     1      -9.515  13.563  67.266  1.00  0.00    -0.230 C  
HETATM   16  O   UNL     1      -9.582  12.631  66.175  1.00  0.00    -0.253 OA 
HETATM   17  H   UNL     1      -9.201  11.850  66.558  1.00  0.00     0.000 HD 
HETATM   18  C   UNL     1      -6.671  12.110  69.462  1.00  0.00    -0.017 C  
HETATM   19  O   UNL     1      -9.449  12.778  68.511  1.00  0.00    -0.187 OA 
ENDROOT
BRANCH   8  20
HETATM   20  C   UNL     1      -7.494  15.632  69.674  1.00  0.00    -0.134 C  
HETATM   21  C   UNL     1      -5.278  16.754  69.656  1.00  0.00    -0.148 C  
HETATM   22  C   UNL     1      -6.550  16.510  68.857  1.00  0.00    -0.173 C  
HETATM   23  C   UNL     1      -7.182  17.848  68.492  1.00  0.00    -0.261 C  
ENDBRANCH   8  20
BRANCH  14  24
HETATM   24  N   UNL     1      -8.485  10.700  68.632  1.00  0.00    -0.135 N  
HETATM   25  H   UNL     1      -9.137  10.516  69.395  1.00  0.00     0.000 HD 
HETATM   26  O   UNL     1      -7.450   9.677  66.864  1.00  0.00    -0.091 OA 
HETATM   27  C   UNL     1      -8.170   9.621  67.846  1.00  0.00    -0.106 C  
BRANCH  27  28
HETATM   28  C   UNL     1      -8.858   8.352  68.364  1.00  0.00    -0.140 C  
HETATM   29  C   UNL     1      -8.659   7.171  67.379  1.00  0.00    -0.121 C  
HETATM   30  N   UNL     1      -7.474   6.343  67.667  1.00  0.00    -0.091 NA 
HETATM   31  C   UNL     1      -6.228   7.127  67.707  1.00  0.00    -0.042 C  
HETATM   32  C   UNL     1      -7.718   5.574  68.926  1.00  0.00    -0.091 C  
HETATM   33  C   UNL     1      -6.421   4.902  69.546  1.00  0.00    -0.038 C  
HETATM   34  C   UNL     1      -6.224   5.222  70.989  1.00  0.00    -0.023 A  
HETATM   35  C   UNL     1      -5.135   5.238  71.827  1.00  0.00    -0.005 A  
HETATM   36  N   UNL     1      -5.582   5.579  73.093  1.00  0.00    -0.023 NA 
HETATM   37  C   UNL     1      -6.949   5.772  73.085  1.00  0.00    -0.084 A  
HETATM   38  H   UNL     1      -4.986   5.673  73.915  1.00  0.00     0.000 HD 
HETATM   39  C   UNL     1      -7.882   6.126  74.064  1.00  0.00    -0.099 A  
HETATM   40  C   UNL     1      -9.217   6.287  73.643  1.00  0.00    -0.136 A  
HETATM   41  C   UNL     1      -9.573   6.224  72.294  1.00  0.00    -0.159 A  
HETATM   42  C   UNL     1      -8.588   5.985  71.339  1.00  0.00    -0.129 A  
HETATM   43  C   UNL     1      -7.317   5.635  71.767  1.00  0.00    -0.092 A  
HETATM   44  C   UNL     1      -8.708   6.362  69.899  1.00  0.00    -0.142 C  
HETATM   45  C   UNL     1      -8.465   7.900  69.776  1.00  0.00    -0.132 C  
ENDBRANCH  27  28
ENDBRANCH  14  24
TORSDOF 3
ENDMDL
MODEL       91
REMARK 921   NORMALIZED FREE ENERGY PREDICTED BY IDOCK:   -1.53 KCAL/MOL
REMARK 922        TOTAL FREE ENERGY PREDICTED BY IDOCK:   -2.86 KCAL/MOL
REMARK 923 INTER-LIGAND FREE ENERGY PREDICTED BY IDOCK:   -3.79 KCAL/MOL
REMARK 924 INTRA-LIGAND FREE ENERGY PREDICTED BY IDOCK:    0.93 KCAL/MOL
REMARK 927      BINDING AFFINITY PREDICTED BY RF-SCORE:    0.00 PKD
ROOT
HETATM    1  C   UNL     1      -9.567  16.470  67.800  1.00  0.00    -0.232 C  
HETATM    2  C   UNL     1      -9.053  17.657  68.631  1.00  0.00    -0.261 C  
HETATM    3  C   UNL     1      -9.937  18.852  68.133  1.00  0.00    -0.431 C  
HETATM    4  C   UNL     1     -10.738  18.310  66.951  1.00  0.00    -0.242 C  
HETATM    5  N   UNL     1     -10.056  17.076  66.597  1.00  0.00    -0.296 N  
HETATM    6  C   UNL     1     -10.593  16.272  65.626  1.00  0.00    -0.346 C  
HETATM    7  O   UNL     1     -10.904  16.722  64.527  1.00  0.00    -0.886 OA 
HETATM    8  C   UNL     1     -10.685  14.760  66.000  1.00  0.00    -0.312 C  
HETATM    9  N   UNL     1     -10.510  14.474  67.548  1.00  0.00    -0.252 N  
HETATM   10  C   UNL     1     -11.847  11.362  67.238  1.00  0.00     0.032 C  
HETATM   11  C   UNL     1     -10.367  13.272  68.224  1.00  0.00    -0.249 C  
HETATM   12  C   UNL     1     -10.120  10.623  65.557  1.00  0.00    -0.343 C  
HETATM   13  O   UNL     1     -10.896  13.026  69.298  1.00  0.00    -0.138 OA 
HETATM   14  C   UNL     1      -9.314  12.452  67.514  1.00  0.00    -0.181 C  
HETATM   15  C   UNL     1      -9.187  14.894  67.816  1.00  0.00    -0.186 C  
HETATM   16  O   UNL     1      -8.634  14.733  69.131  1.00  0.00    -0.277 OA 
HETATM   17  H   UNL     1      -8.412  13.810  69.140  1.00  0.00     0.000 HD 
HETATM   18  C   UNL     1     -10.318  11.298  66.914  1.00  0.00    -0.272 C  
HETATM   19  O   UNL     1      -8.653  13.807  66.978  1.00  0.00    -0.214 OA 
ENDROOT
BRANCH   8  20
HETATM   20  C   UNL     1     -11.869  14.139  65.285  1.00  0.00    -0.367 C  
HETATM   21  C   UNL     1     -12.907  13.520  63.115  1.00  0.00     0.817 C  
HETATM   22  C   UNL     1     -11.592  13.816  63.820  1.00  0.00    -0.125 C  
HETATM   23  C   UNL     1     -10.655  12.622  63.664  1.00  0.00    -0.378 C  
ENDBRANCH   8  20
BRANCH  14  24
HETATM   24  N   UNL     1      -8.091  11.745  67.812  1.00  0.00    -0.134 N  
HETATM   25  H   UNL     1      -7.990  11.421  68.774  1.00  0.00     0.000 HD 
HETATM   26  O   UNL     1      -7.026  11.717  65.785  1.00  0.00     0.655 OA 
HETATM   27  C   UNL     1      -7.046  11.451  66.973  1.00  0.00    -0.138 C  
BRANCH  27  28
HETATM   28  C   UNL     1      -5.924  10.732  67.734  1.00  0.00    -0.043 C  
HETATM   29  C   UNL     1      -5.200  11.702  68.702  1.00  0.00    -0.046 C  
HETATM   30  N   UNL     1      -5.765  11.726  70.063  1.00  0.00    -0.119 NA 
HETATM   31  C   UNL     1      -7.202  12.047  70.076  1.00  0.00     1.029 C  
HETATM   32  C   UNL     1      -5.452  10.429  70.738  1.00  0.00    -0.085 C  
HETATM   33  C   UNL     1      -6.274  10.168  72.070  1.00  0.00     0.797 C  
HETATM   34  C   UNL     1      -6.955   8.842  72.092  1.00  0.00    -0.019 A  
HETATM   35  C   UNL     1      -8.038   8.331  72.766  1.00  0.00    -0.146 A  
HETATM   36  N   UNL     1      -8.172   7.001  72.405  1.00  0.00    -0.105 NA 
HETATM   37  C   UNL     1      -7.181   6.642  71.514  1.00  0.00    -0.082 A  
HETATM   38  H   UNL     1      -8.900   6.375  72.749  1.00  0.00     0.000 HD 
HETATM   39  C   UNL     1      -6.863   5.456  70.846  1.00  0.00    -0.048 A  
HETATM   40  C   UNL     1      -5.780   5.502  69.946  1.00  0.00    -0.016 A  
HETATM   41  C   UNL     1      -5.135   6.701  69.637  1.00  0.00    -0.014 A  
HETATM   42  C   UNL     1      -5.563   7.882  70.239  1.00  0.00    -0.023 A  
HETATM   43  C   UNL     1      -6.493   7.807  71.264  1.00  0.00    -0.038 A  
HETATM   44  C   UNL     1      -5.325   9.244  69.675  1.00  0.00    -0.034 C  
HETATM   45  C   UNL     1      -6.333   9.468  68.503  1.00  0.00    -0.048 C  
ENDBRANCH  27  28
ENDBRANCH  14  24
TORSDOF 3
ENDMDL
MODEL       92
REMARK 921   NORMALIZED FREE ENERGY PREDICTED BY IDOCK:   -1.38 KCAL/MOL
REMARK 922        TOTAL FREE ENERGY PREDICTED BY IDOCK:   -2.69 KCAL/MOL
REMARK 923 INTER-LIGAND FREE ENERGY PREDICTED BY IDOCK:   -3.62 KCAL/MOL
REMARK 924 INTRA-LIGAND FREE ENERGY PREDICTED BY IDOCK:    0.93 KCAL/MOL
REMARK 927      BINDING AFFINITY PREDICTED BY RF-SCORE:    0.00 PKD
ROOT
HETATM    1  C   UNL     1     -11.818   8.968  71.755  1.00  0.00    -0.372 C  
HETATM    2  C   UNL     1     -12.381  10.345  71.365  1.00  0.00    -0.500 C  
HETATM    3  C   UNL     1     -13.840  10.309  71.936  1.00  0.00    -0.006 C  
HETATM    4  C   UNL     1     -14.056   8.879  72.429  1.00  0.00    -0.420 C  
HETATM    5  N   UNL     1     -12.975   8.126  71.817  1.00  0.00    -0.336 N  
HETATM    6  C   UNL     1     -12.811   6.806  72.147  1.00  0.00    -0.052 C  
HETATM    7  O   UNL     1     -13.747   6.014  72.086  1.00  0.00     0.317 OA 
HETATM    8  C   UNL     1     -11.350   6.393  72.507  1.00  0.00    -0.264 C  
HETATM    9  N   UNL     1     -10.396   7.622  72.805  1.00  0.00    -0.265 N  
HETATM   10  C   UNL     1      -8.113   5.620  74.340  1.00  0.00    -0.103 C  
HETATM   11  C   UNL     1      -9.022   7.662  72.991  1.00  0.00    -0.176 C  
HETATM   12  C   UNL     1      -7.797   4.167  72.304  1.00  0.00    -0.082 C  
HETATM   13  O   UNL     1      -8.467   8.364  73.824  1.00  0.00    -0.305 OA 
HETATM   14  C   UNL     1      -8.371   6.871  71.880  1.00  0.00    -0.107 C  
HETATM   15  C   UNL     1     -10.347   8.311  71.572  1.00  0.00    -0.214 C  
HETATM   16  O   UNL     1      -9.515   9.473  71.431  1.00  0.00    -0.289 OA 
HETATM   17  H   UNL     1      -8.654   9.088  71.324  1.00  0.00     0.000 HD 
HETATM   18  C   UNL     1      -7.849   5.613  72.798  1.00  0.00    -0.102 C  
HETATM   19  O   UNL     1      -9.634   7.182  70.949  1.00  0.00    -0.167 OA 
ENDROOT
BRANCH   8  20
HETATM   20  C   UNL     1     -11.385   5.253  73.506  1.00  0.00    -0.134 C  
HETATM   21  C   UNL     1     -11.877   2.853  73.917  1.00  0.00     0.424 C  
HETATM   22  C   UNL     1     -11.518   3.880  72.853  1.00  0.00     0.147 C  
HETATM   23  C   UNL     1     -10.234   3.452  72.151  1.00  0.00    -0.145 C  
ENDBRANCH   8  20
BRANCH  14  24
HETATM   24  N   UNL     1      -7.347   7.033  70.875  1.00  0.00    -0.075 N  
HETATM   25  H   UNL     1      -7.682   7.178  69.922  1.00  0.00     0.000 HD 
HETATM   26  O   UNL     1      -5.419   6.909  72.105  1.00  0.00    -0.036 OA 
HETATM   27  C   UNL     1      -5.984   7.019  71.031  1.00  0.00    -0.036 C  
BRANCH  27  28
HETATM   28  C   UNL     1      -5.281   7.174  69.676  1.00  0.00    -0.015 C  
HETATM   29  C   UNL     1      -5.126   5.802  68.971  1.00  0.00    -0.004 C  
HETATM   30  N   UNL     1      -6.240   5.461  68.069  1.00  0.00    -0.032 NA 
HETATM   31  C   UNL     1      -7.547   5.487  68.746  1.00  0.00    -0.083 C  
HETATM   32  C   UNL     1      -6.185   6.358  66.874  1.00  0.00    -0.040 C  
HETATM   33  C   UNL     1      -7.499   6.345  65.984  1.00  0.00    -0.082 C  
HETATM   34  C   UNL     1      -8.037   7.708  65.709  1.00  0.00    -0.126 A  
HETATM   35  C   UNL     1      -9.275   8.200  65.370  1.00  0.00     0.214 A  
HETATM   36  N   UNL     1      -9.153   9.569  65.197  1.00  0.00    -0.215 NA 
HETATM   37  C   UNL     1      -7.848   9.966  65.410  1.00  0.00    -0.132 A  
HETATM   38  H   UNL     1      -9.919  10.194  64.948  1.00  0.00     0.000 HD 
HETATM   39  C   UNL     1      -7.195  11.201  65.373  1.00  0.00     0.436 A  
HETATM   40  C   UNL     1      -5.829  11.210  65.717  1.00  0.00     0.012 A  
HETATM   41  C   UNL     1      -5.187  10.066  66.195  1.00  0.00    -0.044 A  
HETATM   42  C   UNL     1      -5.908   8.882  66.327  1.00  0.00    -0.050 A  
HETATM   43  C   UNL     1      -7.193   8.825  65.809  1.00  0.00    -0.084 A  
HETATM   44  C   UNL     1      -5.525   7.765  67.241  1.00  0.00    -0.035 C  
HETATM   45  C   UNL     1      -5.914   8.173  68.698  1.00  0.00    -0.044 C  
ENDBRANCH  27  28
ENDBRANCH  14  24
TORSDOF 3
ENDMDL
MODEL       93
REMARK 921   NORMALIZED FREE ENERGY PREDICTED BY IDOCK:   -1.20 KCAL/MOL
REMARK 922        TOTAL FREE ENERGY PREDICTED BY IDOCK:   -2.48 KCAL/MOL
REMARK 923 INTER-LIGAND FREE ENERGY PREDICTED BY IDOCK:   -2.48 KCAL/MOL
REMARK 924 INTRA-LIGAND FREE ENERGY PREDICTED BY IDOCK:    0.00 KCAL/MOL
REMARK 927      BINDING AFFINITY PREDICTED BY RF-SCORE:    0.00 PKD
ROOT
HETATM    1  C   UNL     1     -12.083  14.060  70.086  1.00  0.00    -0.351 C  
HETATM    2  C   UNL     1     -13.343  13.333  70.586  1.00  0.00     0.385 C  
HETATM    3  C   UNL     1     -14.183  14.483  71.240  1.00  0.00    -0.311 C  
HETATM    4  C   UNL     1     -13.277  15.713  71.233  1.00  0.00    -0.443 C  
HETATM    5  N   UNL     1     -11.952  15.175  70.975  1.00  0.00    -0.304 N  
HETATM    6  C   UNL     1     -10.905  16.040  70.795  1.00  0.00    -0.076 C  
HETATM    7  O   UNL     1     -10.670  16.933  71.605  1.00  0.00     1.236 OA 
HETATM    8  C   UNL     1     -10.007  15.740  69.554  1.00  0.00    -0.283 C  
HETATM    9  N   UNL     1     -10.670  14.746  68.515  1.00  0.00    -0.241 N  
HETATM   10  C   UNL     1      -8.482  15.661  66.076  1.00  0.00     0.184 C  
HETATM   11  C   UNL     1     -10.126  14.126  67.400  1.00  0.00    -0.240 C  
HETATM   12  C   UNL     1      -6.462  14.998  67.431  1.00  0.00    -0.017 C  
HETATM   13  O   UNL     1     -10.722  13.978  66.342  1.00  0.00    -0.276 OA 
HETATM   14  C   UNL     1      -8.804  13.513  67.797  1.00  0.00    -0.198 C  
HETATM   15  C   UNL     1     -10.799  13.541  69.242  1.00  0.00    -0.063 C  
HETATM   16  O   UNL     1     -11.318  12.366  68.601  1.00  0.00    -0.243 OA 
HETATM   17  H   UNL     1     -10.566  12.062  68.107  1.00  0.00     0.000 HD 
HETATM   18  C   UNL     1      -7.837  14.535  66.949  1.00  0.00     0.135 C  
HETATM   19  O   UNL     1      -9.334  13.399  69.302  1.00  0.00     0.437 OA 
ENDROOT
BRANCH   8  20
HETATM   20  C   UNL     1      -9.423  17.038  69.033  1.00  0.00    -0.177 C  
HETATM   21  C   UNL     1      -9.300  18.670  67.164  1.00  0.00    -0.300 C  
HETATM   22  C   UNL     1     -10.144  17.576  67.800  1.00  0.00    -0.330 C  
HETATM   23  C   UNL     1     -11.523  18.133  68.140  1.00  0.00     1.133 C  
ENDBRANCH   8  20
BRANCH  14  24
HETATM   24  N   UNL     1      -8.124  12.240  67.737  1.00  0.00    -0.143 N  
HETATM   25  H   UNL     1      -8.512  11.562  67.080  1.00  0.00     0.000 HD 
HETATM   26  O   UNL     1      -6.409  12.521  69.228  1.00  0.00    -0.096 OA 
HETATM   27  C   UNL     1      -7.025  11.821  68.444  1.00  0.00    -0.080 C  
BRANCH  27  28
HETATM   28  C   UNL     1      -6.679  10.367  68.098  1.00  0.00    -0.061 C  
HETATM   29  C   UNL     1      -5.417   9.900  68.867  1.00  0.00    -0.035 C  
HETATM   30  N   UNL     1      -5.706   9.257  70.162  1.00  0.00    -0.030 NA 
HETATM   31  C   UNL     1      -6.502  10.115  71.056  1.00  0.00     0.123 C  
HETATM   32  C   UNL     1      -6.345   7.929  69.909  1.00  0.00    -0.030 C  
HETATM   33  C   UNL     1      -7.019   7.272  71.186  1.00  0.00    -0.060 C  
HETATM   34  C   UNL     1      -8.430   6.848  70.956  1.00  0.00    -0.131 A  
HETATM   35  C   UNL     1      -9.510   6.625  71.776  1.00  0.00    -0.151 A  
HETATM   36  N   UNL     1     -10.561   6.197  70.983  1.00  0.00    -0.235 NA 
HETATM   37  C   UNL     1     -10.170   6.130  69.661  1.00  0.00    -0.201 A  
HETATM   38  H   UNL     1     -11.492   5.965  71.327  1.00  0.00     0.000 HD 
HETATM   39  C   UNL     1     -10.821   5.775  68.476  1.00  0.00    -0.257 A  
HETATM   40  C   UNL     1     -10.083   5.894  67.282  1.00  0.00    -0.208 A  
HETATM   41  C   UNL     1      -8.806   6.460  67.264  1.00  0.00    -0.108 A  
HETATM   42  C   UNL     1      -8.241   6.910  68.455  1.00  0.00    -0.121 A  
HETATM   43  C   UNL     1      -8.884   6.616  69.648  1.00  0.00    -0.143 A  
HETATM   44  C   UNL     1      -7.159   7.935  68.535  1.00  0.00    -0.076 C  
HETATM   45  C   UNL     1      -7.800   9.340  68.300  1.00  0.00    -0.098 C  
ENDBRANCH  27  28
ENDBRANCH  14  24
TORSDOF 3
ENDMDL
MODEL       94
REMARK 921   NORMALIZED FREE ENERGY PREDICTED BY IDOCK:   -0.52 KCAL/MOL
REMARK 922        TOTAL FREE ENERGY PREDICTED BY IDOCK:   -1.68 KCAL/MOL
REMARK 923 INTER-LIGAND FREE ENERGY PREDICTED BY IDOCK:   -4.71 KCAL/MOL
REMARK 924 INTRA-LIGAND FREE ENERGY PREDICTED BY IDOCK:    3.03 KCAL/MOL
REMARK 927      BINDING AFFINITY PREDICTED BY RF-SCORE:    0.00 PKD
ROOT
HETATM    1  C   UNL     1     -12.282   9.328  71.385  1.00  0.00    -0.349 C  
HETATM    2  C   UNL     1     -13.027   8.573  72.499  1.00  0.00    -0.300 C  
HETATM    3  C   UNL     1     -14.308   9.447  72.728  1.00  0.00     0.254 C  
HETATM    4  C   UNL     1     -14.108  10.703  71.882  1.00  0.00     0.664 C  
HETATM    5  N   UNL     1     -12.692  10.689  71.556  1.00  0.00    -0.425 N  
HETATM    6  C   UNL     1     -12.195  11.639  70.702  1.00  0.00    -0.366 C  
HETATM    7  O   UNL     1     -12.409  12.834  70.884  1.00  0.00    -0.372 OA 
HETATM    8  C   UNL     1     -11.283  11.086  69.562  1.00  0.00    -0.279 C  
HETATM    9  N   UNL     1     -11.400   9.521  69.355  1.00  0.00    -0.031 N  
HETATM   10  C   UNL     1      -9.962   9.708  66.278  1.00  0.00    -0.335 C  
HETATM   11  C   UNL     1     -10.641   8.664  68.571  1.00  0.00    -0.119 C  
HETATM   12  C   UNL     1      -7.853  10.769  67.162  1.00  0.00    -0.124 C  
HETATM   13  O   UNL     1     -11.107   7.736  67.927  1.00  0.00     0.045 OA 
HETATM   14  C   UNL     1      -9.181   8.956  68.828  1.00  0.00    -0.140 C  
HETATM   15  C   UNL     1     -10.920   8.988  70.573  1.00  0.00    -0.252 C  
HETATM   16  O   UNL     1     -10.816   7.566  70.745  1.00  0.00    -0.233 OA 
HETATM   17  H   UNL     1     -10.019   7.367  70.269  1.00  0.00     0.000 HD 
HETATM   18  C   UNL     1      -8.840   9.619  67.364  1.00  0.00    -0.134 C  
HETATM   19  O   UNL     1      -9.568   9.496  70.284  1.00  0.00    -0.233 OA 
ENDROOT
BRANCH   8  20
HETATM   20  C   UNL     1     -11.407  11.982  68.345  1.00  0.00    -0.332 C  
HETATM   21  C   UNL     1     -11.374  14.298  67.445  1.00  0.00    -0.349 C  
HETATM   22  C   UNL     1     -10.909  13.404  68.586  1.00  0.00    -0.287 C  
HETATM   23  C   UNL     1      -9.389  13.470  68.693  1.00  0.00    -0.036 C  
ENDBRANCH   8  20
BRANCH  14  24
HETATM   24  N   UNL     1      -7.972   8.258  69.197  1.00  0.00    -0.110 N  
HETATM   25  H   UNL     1      -8.037   7.672  70.030  1.00  0.00     0.000 HD 
HETATM   26  O   UNL     1      -6.513   8.881  67.546  1.00  0.00    -0.059 OA 
HETATM   27  C   UNL     1      -6.748   8.277  68.577  1.00  0.00    -0.063 C  
BRANCH  27  28
HETATM   28  C   UNL     1      -5.734   7.425  69.352  1.00  0.00    -0.023 C  
HETATM   29  C   UNL     1      -5.132   8.222  70.538  1.00  0.00    -0.022 C  
HETATM   30  N   UNL     1      -5.863   8.053  71.807  1.00  0.00    -0.035 NA 
HETATM   31  C   UNL     1      -7.289   8.402  71.692  1.00  0.00    -0.098 C  
HETATM   32  C   UNL     1      -5.642   6.662  72.309  1.00  0.00    -0.037 C  
HETATM   33  C   UNL     1      -6.625   6.222  73.474  1.00  0.00    -0.074 C  
HETATM   34  C   UNL     1      -7.309   4.924  73.210  1.00  0.00    -0.087 A  
HETATM   35  C   UNL     1      -8.470   4.343  73.660  1.00  0.00    -0.097 A  
HETATM   36  N   UNL     1      -8.563   3.086  73.087  1.00  0.00    -0.079 NA 
HETATM   37  C   UNL     1      -7.470   2.842  72.280  1.00  0.00    -0.052 A  
HETATM   38  H   UNL     1      -9.331   2.432  73.239  1.00  0.00     0.000 HD 
HETATM   39  C   UNL     1      -7.076   1.764  71.483  1.00  0.00    -0.031 A  
HETATM   40  C   UNL     1      -5.889   1.920  70.740  1.00  0.00    -0.017 A  
HETATM   41  C   UNL     1      -5.206   3.137  70.699  1.00  0.00    -0.004 A  
HETATM   42  C   UNL     1      -5.700   4.223  71.418  1.00  0.00    -0.012 A  
HETATM   43  C   UNL     1      -6.752   4.015  72.297  1.00  0.00    -0.036 A  
HETATM   44  C   UNL     1      -5.388   5.649  71.101  1.00  0.00    -0.009 C  
HETATM   45  C   UNL     1      -6.241   6.070  69.862  1.00  0.00    -0.027 C  
ENDBRANCH  27  28
ENDBRANCH  14  24
TORSDOF 3
ENDMDL
MODEL       95
REMARK 921   NORMALIZED FREE ENERGY PREDICTED BY IDOCK:   -0.22 KCAL/MOL
REMARK 922        TOTAL FREE ENERGY PREDICTED BY IDOCK:   -1.33 KCAL/MOL
REMARK 923 INTER-LIGAND FREE ENERGY PREDICTED BY IDOCK:   -1.93 KCAL/MOL
REMARK 924 INTRA-LIGAND FREE ENERGY PREDICTED BY IDOCK:    0.60 KCAL/MOL
REMARK 927      BINDING AFFINITY PREDICTED BY RF-SCORE:    0.00 PKD
ROOT
HETATM    1  C   UNL     1      -9.237  11.767  66.330  1.00  0.00    -0.217 C  
HETATM    2  C   UNL     1      -9.804  11.897  64.907  1.00  0.00    -0.224 C  
HETATM    3  C   UNL     1      -9.717  13.437  64.627  1.00  0.00     0.223 C  
HETATM    4  C   UNL     1      -9.294  14.075  65.950  1.00  0.00     0.028 C  
HETATM    5  N   UNL     1      -9.527  13.032  66.935  1.00  0.00    -0.236 N  
HETATM    6  C   UNL     1      -9.143  13.245  68.233  1.00  0.00    -0.184 C  
HETATM    7  O   UNL     1      -9.481  14.257  68.841  1.00  0.00    -0.171 OA 
HETATM    8  C   UNL     1      -8.338  12.075  68.882  1.00  0.00     0.152 C  
HETATM    9  N   UNL     1      -7.776  11.031  67.833  1.00  0.00    -0.102 N  
HETATM   10  C   UNL     1      -5.575   9.771  70.101  1.00  0.00    -0.042 C  
HETATM   11  C   UNL     1      -7.170   9.800  68.035  1.00  0.00    -0.080 C  
HETATM   12  C   UNL     1      -7.388   9.150  71.739  1.00  0.00     0.161 C  
HETATM   13  O   UNL     1      -6.216   9.393  67.387  1.00  0.00    -0.059 OA 
HETATM   14  C   UNL     1      -8.010   9.014  69.016  1.00  0.00    -0.102 C  
HETATM   15  C   UNL     1      -8.941  10.473  67.262  1.00  0.00    -0.139 C  
HETATM   16  O   UNL     1      -8.833   9.423  66.289  1.00  0.00    -0.138 OA 
HETATM   17  H   UNL     1      -8.660   8.665  66.834  1.00  0.00     0.000 HD 
HETATM   18  C   UNL     1      -6.957   9.059  70.275  1.00  0.00    -0.052 C  
HETATM   19  O   UNL     1      -9.294   9.847  68.547  1.00  0.00    -0.139 OA 
ENDROOT
BRANCH   8  20
HETATM   20  C   UNL     1      -7.383  12.639  69.916  1.00  0.00     1.089 C  
HETATM   21  C   UNL     1      -5.197  13.732  70.363  1.00  0.00    -0.106 C  
HETATM   22  C   UNL     1      -6.274  13.496  69.313  1.00  0.00    -0.105 C  
HETATM   23  C   UNL     1      -6.795  14.839  68.813  1.00  0.00    -0.099 C  
ENDBRANCH   8  20
BRANCH  14  24
HETATM   24  N   UNL     1      -8.647   7.723  69.124  1.00  0.00    -0.138 N  
HETATM   25  H   UNL     1      -8.017   6.920  69.153  1.00  0.00     0.000 HD 
HETATM   26  O   UNL     1     -10.868   8.271  69.225  1.00  0.00    -0.171 OA 
HETATM   27  C   UNL     1      -9.986   7.431  69.194  1.00  0.00    -0.173 C  
BRANCH  27  28
HETATM   28  C   UNL     1     -10.209   5.914  69.244  1.00  0.00    -0.275 C  
HETATM   29  C   UNL     1     -11.160   5.456  68.108  1.00  0.00     0.629 C  
HETATM   30  N   UNL     1     -10.467   5.060  66.869  1.00  0.00    -0.221 NA 
HETATM   31  C   UNL     1      -9.594   6.121  66.341  1.00  0.00    -0.127 C  
HETATM   32  C   UNL     1      -9.740   3.776  67.112  1.00  0.00    -0.101 C  
HETATM   33  C   UNL     1      -8.682   3.399  65.991  1.00  0.00    -0.125 C  
HETATM   34  C   UNL     1      -7.332   3.081  66.539  1.00  0.00    -0.074 A  
HETATM   35  C   UNL     1      -6.059   3.098  66.020  1.00  0.00    -0.024 A  
HETATM   36  N   UNL     1      -5.195   2.652  67.007  1.00  0.00    -0.008 NA 
HETATM   37  C   UNL     1      -5.896   2.337  68.153  1.00  0.00    -0.023 A  
HETATM   38  H   UNL     1      -4.185   2.568  66.900  1.00  0.00     0.000 HD 
HETATM   39  C   UNL     1      -5.525   1.862  69.414  1.00  0.00    -0.013 A  
HETATM   40  C   UNL     1      -6.551   1.717  70.368  1.00  0.00    -0.025 A  
HETATM   41  C   UNL     1      -7.855   2.147  70.113  1.00  0.00    -0.048 A  
HETATM   42  C   UNL     1      -8.155   2.725  68.881  1.00  0.00    -0.069 A  
HETATM   43  C   UNL     1      -7.197   2.689  67.880  1.00  0.00    -0.049 A  
HETATM   44  C   UNL     1      -9.310   3.641  68.644  1.00  0.00    -0.228 C  
HETATM   45  C   UNL     1      -8.945   5.045  69.222  1.00  0.00    -0.127 C  
ENDBRANCH  27  28
ENDBRANCH  14  24
TORSDOF 3
ENDMDL
MODEL       96
REMARK 921   NORMALIZED FREE ENERGY PREDICTED BY IDOCK:   -0.16 KCAL/MOL
REMARK 922        TOTAL FREE ENERGY PREDICTED BY IDOCK:   -1.26 KCAL/MOL
REMARK 923 INTER-LIGAND FREE ENERGY PREDICTED BY IDOCK:   -2.83 KCAL/MOL
REMARK 924 INTRA-LIGAND FREE ENERGY PREDICTED BY IDOCK:    1.57 KCAL/MOL
REMARK 927      BINDING AFFINITY PREDICTED BY RF-SCORE:    0.00 PKD
ROOT
HETATM    1  C   UNL     1      -9.237  11.767  66.330  1.00  0.00    -0.217 C  
HETATM    2  C   UNL     1      -9.804  11.897  64.907  1.00  0.00    -0.224 C  
HETATM    3  C   UNL     1      -9.717  13.437  64.627  1.00  0.00     0.223 C  
HETATM    4  C   UNL     1      -9.294  14.075  65.950  1.00  0.00     0.028 C  
HETATM    5  N   UNL     1      -9.527  13.032  66.935  1.00  0.00    -0.236 N  
HETATM    6  C   UNL     1      -9.143  13.245  68.233  1.00  0.00    -0.184 C  
HETATM    7  O   UNL     1      -9.481  14.257  68.841  1.00  0.00    -0.171 OA 
HETATM    8  C   UNL     1      -8.338  12.075  68.882  1.00  0.00     0.152 C  
HETATM    9  N   UNL     1      -7.776  11.031  67.833  1.00  0.00    -0.102 N  
HETATM   10  C   UNL     1      -5.575   9.771  70.101  1.00  0.00    -0.042 C  
HETATM   11  C   UNL     1      -7.170   9.800  68.035  1.00  0.00    -0.080 C  
HETATM   12  C   UNL     1      -7.388   9.150  71.739  1.00  0.00     0.161 C  
HETATM   13  O   UNL     1      -6.216   9.393  67.387  1.00  0.00    -0.059 OA 
HETATM   14  C   UNL     1      -8.010   9.014  69.016  1.00  0.00    -0.102 C  
HETATM   15  C   UNL     1      -8.941  10.473  67.262  1.00  0.00    -0.139 C  
HETATM   16  O   UNL     1      -8.833   9.423  66.289  1.00  0.00    -0.138 OA 
HETATM   17  H   UNL     1      -8.660   8.665  66.834  1.00  0.00     0.000 HD 
HETATM   18  C   UNL     1      -6.957   9.059  70.275  1.00  0.00    -0.052 C  
HETATM   19  O   UNL     1      -9.294   9.847  68.547  1.00  0.00    -0.139 OA 
ENDROOT
BRANCH   8  20
HETATM   20  C   UNL     1      -7.383  12.639  69.916  1.00  0.00     1.089 C  
HETATM   21  C   UNL     1      -5.151  13.628  70.377  1.00  0.00    -0.098 C  
HETATM   22  C   UNL     1      -6.208  13.397  69.306  1.00  0.00    -0.103 C  
HETATM   23  C   UNL     1      -6.634  14.738  68.719  1.00  0.00    -0.088 C  
ENDBRANCH   8  20
BRANCH  14  24
HETATM   24  N   UNL     1      -8.647   7.723  69.124  1.00  0.00    -0.138 N  
HETATM   25  H   UNL     1      -8.017   6.920  69.153  1.00  0.00     0.000 HD 
HETATM   26  O   UNL     1     -10.868   8.271  69.225  1.00  0.00    -0.171 OA 
HETATM   27  C   UNL     1      -9.986   7.431  69.194  1.00  0.00    -0.173 C  
BRANCH  27  28
HETATM   28  C   UNL     1     -10.209   5.914  69.244  1.00  0.00    -0.275 C  
HETATM   29  C   UNL     1      -9.800   5.249  67.904  1.00  0.00    -0.149 C  
HETATM   30  N   UNL     1      -8.401   4.788  67.865  1.00  0.00    -0.103 NA 
HETATM   31  C   UNL     1      -7.440   5.863  68.160  1.00  0.00    -0.081 C  
HETATM   32  C   UNL     1      -8.256   3.612  68.777  1.00  0.00    -0.072 C  
HETATM   33  C   UNL     1      -6.754   3.216  69.103  1.00  0.00    -0.037 C  
HETATM   34  C   UNL     1      -6.483   3.087  70.564  1.00  0.00    -0.028 A  
HETATM   35  C   UNL     1      -5.350   3.167  71.339  1.00  0.00    -0.004 A  
HETATM   36  N   UNL     1      -5.717   2.913  72.650  1.00  0.00    -0.007 NA 
HETATM   37  C   UNL     1      -7.072   2.659  72.730  1.00  0.00    -0.032 A  
HETATM   38  H   UNL     1      -5.077   2.913  73.443  1.00  0.00     0.000 HD 
HETATM   39  C   UNL     1      -7.940   2.360  73.784  1.00  0.00    -0.055 A  
HETATM   40  C   UNL     1      -9.305   2.224  73.465  1.00  0.00    -0.097 A  
HETATM   41  C   UNL     1      -9.791   2.500  72.186  1.00  0.00    -0.226 A  
HETATM   42  C   UNL     1      -8.904   2.911  71.193  1.00  0.00    -0.141 A  
HETATM   43  C   UNL     1      -7.544   2.856  71.453  1.00  0.00    -0.040 A  
HETATM   44  C   UNL     1      -9.304   3.683  69.979  1.00  0.00    -0.248 C  
HETATM   45  C   UNL     1      -9.532   5.170  70.402  1.00  0.00    -0.229 C  
ENDBRANCH  27  28
ENDBRANCH  14  24
TORSDOF 3
ENDMDL
MODEL       97
REMARK 921   NORMALIZED FREE ENERGY PREDICTED BY IDOCK:   -0.13 KCAL/MOL
REMARK 922        TOTAL FREE ENERGY PREDICTED BY IDOCK:   -1.22 KCAL/MOL
REMARK 923 INTER-LIGAND FREE ENERGY PREDICTED BY IDOCK:   -1.18 KCAL/MOL
REMARK 924 INTRA-LIGAND FREE ENERGY PREDICTED BY IDOCK:   -0.04 KCAL/MOL
REMARK 927      BINDING AFFINITY PREDICTED BY RF-SCORE:    0.00 PKD
ROOT
HETATM    1  C   UNL     1     -10.078  15.308  66.055  1.00  0.00    -0.318 C  
HETATM    2  C   UNL     1     -10.490  16.055  64.775  1.00  0.00     0.057 C  
HETATM    3  C   UNL     1     -10.690  17.528  65.270  1.00  0.00     0.080 C  
HETATM    4  C   UNL     1     -10.566  17.474  66.792  1.00  0.00    -0.201 C  
HETATM    5  N   UNL     1     -10.691  16.061  67.107  1.00  0.00    -0.308 N  
HETATM    6  C   UNL     1     -10.514  15.649  68.402  1.00  0.00    -0.242 C  
HETATM    7  O   UNL     1     -11.122  16.178  69.328  1.00  0.00    -0.288 OA 
HETATM    8  C   UNL     1      -9.566  14.421  68.578  1.00  0.00    -0.217 C  
HETATM    9  N   UNL     1      -8.682  14.112  67.302  1.00  0.00    -0.208 N  
HETATM   10  C   UNL     1      -6.548  12.177  69.113  1.00  0.00    -0.106 C  
HETATM   11  C   UNL     1      -7.863  13.027  67.024  1.00  0.00     0.028 C  
HETATM   12  C   UNL     1      -8.372  10.609  69.867  1.00  0.00     0.349 C  
HETATM   13  O   UNL     1      -6.777  13.116  66.470  1.00  0.00     0.770 OA 
HETATM   14  C   UNL     1      -8.631  11.763  67.332  1.00  0.00    -0.160 C  
HETATM   15  C   UNL     1      -9.632  13.771  66.313  1.00  0.00    -0.249 C  
HETATM   16  O   UNL     1      -9.197  13.362  65.008  1.00  0.00    -0.008 OA 
HETATM   17  H   UNL     1      -8.936  12.462  65.159  1.00  0.00     0.000 HD 
HETATM   18  C   UNL     1      -7.764  11.308  68.651  1.00  0.00    -0.136 C  
HETATM   19  O   UNL     1      -9.995  12.552  67.057  1.00  0.00    -0.210 OA 
ENDROOT
BRANCH   8  20
HETATM   20  C   UNL     1      -8.875  14.512  69.925  1.00  0.00     0.762 C  
HETATM   21  C   UNL     1      -6.728  14.687  71.162  1.00  0.00     0.690 C  
HETATM   22  C   UNL     1      -7.415  14.946  69.829  1.00  0.00    -0.067 C  
HETATM   23  C   UNL     1      -7.278  16.421  69.467  1.00  0.00    -0.082 C  
ENDBRANCH   8  20
BRANCH  14  24
HETATM   24  N   UNL     1      -8.996  10.520  66.694  1.00  0.00    -0.141 N  
HETATM   25  H   UNL     1      -9.856  10.086  67.032  1.00  0.00     0.000 HD 
HETATM   26  O   UNL     1      -7.331  10.248  65.146  1.00  0.00    -0.139 OA 
HETATM   27  C   UNL     1      -8.341   9.844  65.696  1.00  0.00    -0.137 C  
BRANCH  27  28
HETATM   28  C   UNL     1      -9.062   8.532  65.364  1.00  0.00    -0.103 C  
HETATM   29  C   UNL     1      -8.720   8.058  63.928  1.00  0.00     0.471 C  
HETATM   30  N   UNL     1      -7.563   7.147  63.856  1.00  0.00    -0.103 NA 
HETATM   31  C   UNL     1      -6.348   7.723  64.455  1.00  0.00    -0.048 C  
HETATM   32  C   UNL     1      -7.945   5.835  64.462  1.00  0.00    -0.126 C  
HETATM   33  C   UNL     1      -6.721   4.872  64.765  1.00  0.00    -0.048 C  
HETATM   34  C   UNL     1      -6.711   4.354  66.164  1.00  0.00    -0.050 A  
HETATM   35  C   UNL     1      -5.735   3.862  66.997  1.00  0.00    -0.022 A  
HETATM   36  N   UNL     1      -6.341   3.490  68.185  1.00  0.00    -0.035 NA 
HETATM   37  C   UNL     1      -7.700   3.725  68.126  1.00  0.00    -0.065 A  
HETATM   38  H   UNL     1      -5.853   3.097  68.989  1.00  0.00     0.000 HD 
HETATM   39  C   UNL     1      -8.753   3.543  69.026  1.00  0.00    -0.139 A  
HETATM   40  C   UNL     1     -10.029   3.972  68.609  1.00  0.00     0.092 A  
HETATM   41  C   UNL     1     -10.214   4.662  67.410  1.00  0.00    -0.095 A  
HETATM   42  C   UNL     1      -9.114   4.926  66.597  1.00  0.00    -0.119 A  
HETATM   43  C   UNL     1      -7.899   4.338  66.911  1.00  0.00    -0.097 A  
HETATM   44  C   UNL     1      -9.064   6.024  65.586  1.00  0.00    -0.033 C  
HETATM   45  C   UNL     1      -8.837   7.372  66.343  1.00  0.00    -0.176 C  
ENDBRANCH  27  28
ENDBRANCH  14  24
TORSDOF 3
ENDMDL
MODEL       98
REMARK 921   NORMALIZED FREE ENERGY PREDICTED BY IDOCK:    0.05 KCAL/MOL
REMARK 922        TOTAL FREE ENERGY PREDICTED BY IDOCK:   -1.01 KCAL/MOL
REMARK 923 INTER-LIGAND FREE ENERGY PREDICTED BY IDOCK:   -3.15 KCAL/MOL
REMARK 924 INTRA-LIGAND FREE ENERGY PREDICTED BY IDOCK:    2.14 KCAL/MOL
REMARK 927      BINDING AFFINITY PREDICTED BY RF-SCORE:    0.00 PKD
ROOT
HETATM    1  C   UNL     1      -6.451  18.367  70.251  1.00  0.00     0.372 C  
HETATM    2  C   UNL     1      -5.605  18.475  71.531  1.00  0.00     0.099 C  
HETATM    3  C   UNL     1      -5.284  20.006  71.620  1.00  0.00    -0.415 C  
HETATM    4  C   UNL     1      -5.799  20.613  70.316  1.00  0.00    -0.181 C  
HETATM    5  N   UNL     1      -6.004  19.465  69.448  1.00  0.00    -0.251 N  
HETATM    6  C   UNL     1      -6.573  19.655  68.216  1.00  0.00    -0.259 C  
HETATM    7  O   UNL     1      -6.138  20.497  67.435  1.00  0.00    -0.190 OA 
HETATM    8  C   UNL     1      -7.732  18.669  67.868  1.00  0.00    -0.256 C  
HETATM    9  N   UNL     1      -8.303  17.889  69.122  1.00  0.00     0.016 N  
HETATM   10  C   UNL     1     -11.128  17.022  67.436  1.00  0.00     0.053 C  
HETATM   11  C   UNL     1      -9.200  16.833  69.184  1.00  0.00    -0.140 C  
HETATM   12  C   UNL     1      -9.856  15.836  65.612  1.00  0.00    -0.357 C  
HETATM   13  O   UNL     1     -10.077  16.731  70.030  1.00  0.00     0.098 OA 
HETATM   14  C   UNL     1      -8.766  15.784  68.187  1.00  0.00    -0.173 C  
HETATM   15  C   UNL     1      -7.206  17.112  69.557  1.00  0.00     0.099 C  
HETATM   16  O   UNL     1      -7.360  16.207  70.662  1.00  0.00     1.428 OA 
HETATM   17  H   UNL     1      -7.803  15.472  70.256  1.00  0.00     0.000 HD 
HETATM   18  C   UNL     1     -10.004  15.979  67.126  1.00  0.00    -0.249 C  
HETATM   19  O   UNL     1      -7.261  16.310  68.322  1.00  0.00    -0.134 OA 
ENDROOT
BRANCH   8  20
HETATM   20  C   UNL     1      -8.715  19.360  66.944  1.00  0.00    -0.335 C  
HETATM   21  C   UNL     1     -11.029  20.205  66.612  1.00  0.00     0.116 C  
HETATM   22  C   UNL     1      -9.980  19.837  67.652  1.00  0.00    -0.535 C  
HETATM   23  C   UNL     1      -9.716  21.040  68.551  1.00  0.00     0.705 C  
ENDBRANCH   8  20
BRANCH  14  24
HETATM   24  N   UNL     1      -8.471  14.370  68.141  1.00  0.00    -0.152 N  
HETATM   25  H   UNL     1      -9.198  13.781  67.734  1.00  0.00     0.000 HD 
HETATM   26  O   UNL     1      -6.365  14.272  69.034  1.00  0.00    -0.087 OA 
HETATM   27  C   UNL     1      -7.346  13.715  68.572  1.00  0.00    -0.114 C  
BRANCH  27  28
HETATM   28  C   UNL     1      -7.491  12.201  68.376  1.00  0.00    -0.114 C  
HETATM   29  C   UNL     1      -8.657  11.640  69.230  1.00  0.00     0.496 C  
HETATM   30  N   UNL     1      -9.951  11.600  68.527  1.00  0.00    -0.197 NA 
HETATM   31  C   UNL     1     -10.353  12.916  68.002  1.00  0.00    -0.227 C  
HETATM   32  C   UNL     1      -9.893  10.545  67.469  1.00  0.00    -0.168 C  
HETATM   33  C   UNL     1     -11.075  10.609  66.413  1.00  0.00     0.039 C  
HETATM   34  C   UNL     1     -10.602  10.610  64.999  1.00  0.00    -0.187 A  
HETATM   35  C   UNL     1     -11.141  11.036  63.808  1.00  0.00     0.122 A  
HETATM   36  N   UNL     1     -10.239  10.729  62.803  1.00  0.00    -0.773 NA 
HETATM   37  C   UNL     1      -9.129  10.098  63.328  1.00  0.00    -0.271 A  
HETATM   38  H   UNL     1     -10.377  10.938  61.814  1.00  0.00     0.000 HD 
HETATM   39  C   UNL     1      -7.949   9.595  62.773  1.00  0.00    -0.125 A  
HETATM   40  C   UNL     1      -7.002   9.061  63.668  1.00  0.00    -0.089 A  
HETATM   41  C   UNL     1      -7.171   9.146  65.052  1.00  0.00    -0.096 A  
HETATM   42  C   UNL     1      -8.310   9.763  65.564  1.00  0.00    -0.141 A  
HETATM   43  C   UNL     1      -9.328  10.111  64.689  1.00  0.00    -0.334 A  
HETATM   44  C   UNL     1      -8.401  10.349  66.934  1.00  0.00    -0.124 C  
HETATM   45  C   UNL     1      -7.652  11.720  66.928  1.00  0.00    -0.119 C  
ENDBRANCH  27  28
ENDBRANCH  14  24
TORSDOF 3
ENDMDL
MODEL       99
REMARK 921   NORMALIZED FREE ENERGY PREDICTED BY IDOCK:    0.66 KCAL/MOL
REMARK 922        TOTAL FREE ENERGY PREDICTED BY IDOCK:   -0.29 KCAL/MOL
REMARK 923 INTER-LIGAND FREE ENERGY PREDICTED BY IDOCK:   -4.35 KCAL/MOL
REMARK 924 INTRA-LIGAND FREE ENERGY PREDICTED BY IDOCK:    4.06 KCAL/MOL
REMARK 927      BINDING AFFINITY PREDICTED BY RF-SCORE:    0.00 PKD
ROOT
HETATM    1  C   UNL     1      -7.337  17.644  66.748  1.00  0.00    -0.210 C  
HETATM    2  C   UNL     1      -6.108  18.491  66.377  1.00  0.00    -0.194 C  
HETATM    3  C   UNL     1      -6.644  19.960  66.477  1.00  0.00    -0.212 C  
HETATM    4  C   UNL     1      -8.149  19.837  66.707  1.00  0.00    -0.304 C  
HETATM    5  N   UNL     1      -8.449  18.458  66.359  1.00  0.00    -0.267 N  
HETATM    6  C   UNL     1      -9.717  17.981  66.561  1.00  0.00    -0.338 C  
HETATM    7  O   UNL     1     -10.699  18.577  66.128  1.00  0.00    -0.365 OA 
HETATM    8  C   UNL     1      -9.794  16.602  67.289  1.00  0.00    -0.255 C  
HETATM    9  N   UNL     1      -8.444  16.184  68.004  1.00  0.00    -0.167 N  
HETATM   10  C   UNL     1     -10.041  13.851  69.897  1.00  0.00     1.025 C  
HETATM   11  C   UNL     1      -8.082  14.983  68.595  1.00  0.00    -0.153 C  
HETATM   12  C   UNL     1     -10.913  12.601  67.889  1.00  0.00    -0.262 C  
HETATM   13  O   UNL     1      -7.442  14.899  69.634  1.00  0.00    -0.180 OA 
HETATM   14  C   UNL     1      -8.429  13.862  67.643  1.00  0.00    -0.192 C  
HETATM   15  C   UNL     1      -7.531  16.045  66.935  1.00  0.00    -0.218 C  
HETATM   16  O   UNL     1      -6.187  15.608  67.190  1.00  0.00    -0.317 OA 
HETATM   17  H   UNL     1      -6.300  14.672  67.299  1.00  0.00     0.000 HD 
HETATM   18  C   UNL     1      -9.664  13.221  68.515  1.00  0.00    -0.146 C  
HETATM   19  O   UNL     1      -8.280  14.885  66.421  1.00  0.00     0.061 OA 
ENDROOT
BRANCH   8  20
HETATM   20  C   UNL     1     -11.081  16.529  68.086  1.00  0.00    -0.303 C  
HETATM   21  C   UNL     1     -12.218  15.733  70.147  1.00  0.00    -0.340 C  
HETATM   22  C   UNL     1     -10.873  16.098  69.535  1.00  0.00    -0.329 C  
HETATM   23  C   UNL     1     -10.217  17.193  70.370  1.00  0.00     1.174 C  
ENDBRANCH   8  20
BRANCH  14  24
HETATM   24  N   UNL     1      -7.801  12.722  67.017  1.00  0.00    -0.380 N  
HETATM   25  H   UNL     1      -7.102  12.938  66.305  1.00  0.00     0.000 HD 
HETATM   26  O   UNL     1      -8.778  10.958  68.101  1.00  0.00    -0.124 OA 
HETATM   27  C   UNL     1      -8.018  11.388  67.251  1.00  0.00    -0.149 C  
BRANCH  27  28
HETATM   28  C   UNL     1      -7.166  10.526  66.312  1.00  0.00    -0.133 C  
HETATM   29  C   UNL     1      -5.690  10.482  66.785  1.00  0.00    -0.056 C  
HETATM   30  N   UNL     1      -5.381   9.358  67.687  1.00  0.00    -0.037 NA 
HETATM   31  C   UNL     1      -6.249   9.329  68.876  1.00  0.00    -0.043 C  
HETATM   32  C   UNL     1      -5.425   8.085  66.903  1.00  0.00    -0.032 C  
HETATM   33  C   UNL     1      -5.449   6.770  67.790  1.00  0.00    -0.012 C  
HETATM   34  C   UNL     1      -6.552   5.835  67.427  1.00  0.00    -0.056 A  
HETATM   35  C   UNL     1      -7.221   4.836  68.094  1.00  0.00    -0.065 A  
HETATM   36  N   UNL     1      -8.132   4.277  67.214  1.00  0.00    -0.099 NA 
HETATM   37  C   UNL     1      -8.053   4.896  65.982  1.00  0.00    -0.108 A  
HETATM   38  H   UNL     1      -8.771   3.516  67.443  1.00  0.00     0.000 HD 
HETATM   39  C   UNL     1      -8.732   4.731  64.772  1.00  0.00    -0.153 A  
HETATM   40  C   UNL     1      -8.400   5.619  63.730  1.00  0.00    -0.046 A  
HETATM   41  C   UNL     1      -7.531   6.693  63.931  1.00  0.00    -0.094 A  
HETATM   42  C   UNL     1      -6.967   6.889  65.189  1.00  0.00    -0.052 A  
HETATM   43  C   UNL     1      -7.139   5.909  66.154  1.00  0.00    -0.071 A  
HETATM   44  C   UNL     1      -6.443   8.199  65.678  1.00  0.00    -0.049 C  
HETATM   45  C   UNL     1      -7.660   9.092  66.077  1.00  0.00    -0.095 C  
ENDBRANCH  27  28
ENDBRANCH  14  24
TORSDOF 3
ENDMDL
MODEL      100
REMARK 921   NORMALIZED FREE ENERGY PREDICTED BY IDOCK:    1.50 KCAL/MOL
REMARK 922        TOTAL FREE ENERGY PREDICTED BY IDOCK:    0.70 KCAL/MOL
REMARK 923 INTER-LIGAND FREE ENERGY PREDICTED BY IDOCK:    1.38 KCAL/MOL
REMARK 924 INTRA-LIGAND FREE ENERGY PREDICTED BY IDOCK:   -0.69 KCAL/MOL
REMARK 927      BINDING AFFINITY PREDICTED BY RF-SCORE:    0.00 PKD
ROOT
HETATM    1  C   UNL     1     -10.102  17.716  69.333  1.00  0.00    -0.033 C  
HETATM    2  C   UNL     1     -11.011  18.565  70.237  1.00  0.00     2.744 C  
HETATM    3  C   UNL     1     -10.540  20.031  69.943  1.00  0.00     0.723 C  
HETATM    4  C   UNL     1      -9.301  19.898  69.060  1.00  0.00    -0.049 C  
HETATM    5  N   UNL     1      -8.913  18.504  69.201  1.00  0.00    -0.029 N  
HETATM    6  C   UNL     1      -7.882  18.018  68.440  1.00  0.00    -0.295 C  
HETATM    7  O   UNL     1      -6.795  18.588  68.401  1.00  0.00    -0.237 OA 
HETATM    8  C   UNL     1      -8.175  16.664  67.722  1.00  0.00    -0.177 C  
HETATM    9  N   UNL     1      -9.712  16.286  67.678  1.00  0.00    -0.232 N  
HETATM   10  C   UNL     1      -9.194  14.000  65.212  1.00  0.00     0.908 C  
HETATM   11  C   UNL     1     -10.332  15.110  67.282  1.00  0.00    -0.261 C  
HETATM   12  C   UNL     1      -7.547  12.673  66.584  1.00  0.00     0.436 C  
HETATM   13  O   UNL     1     -11.371  15.069  66.639  1.00  0.00    -0.344 OA 
HETATM   14  C   UNL     1      -9.624  13.954  67.950  1.00  0.00    -0.227 C  
HETATM   15  C   UNL     1     -10.053  16.122  69.040  1.00  0.00    -0.247 C  
HETATM   16  O   UNL     1     -11.380  15.711  69.404  1.00  0.00    -0.282 OA 
HETATM   17  H   UNL     1     -11.351  14.777  69.232  1.00  0.00     0.000 HD 
HETATM   18  C   UNL     1      -8.928  13.329  66.600  1.00  0.00    -0.137 C  
HETATM   19  O   UNL     1      -9.184  14.937  69.133  1.00  0.00    -0.193 OA 
ENDROOT
BRANCH   8  20
HETATM   20  C   UNL     1      -7.384  16.602  66.430  1.00  0.00    -0.216 C  
HETATM   21  C   UNL     1      -5.296  17.213  65.229  1.00  0.00     1.437 C  
HETATM   22  C   UNL     1      -5.915  16.980  66.600  1.00  0.00    -0.217 C  
HETATM   23  C   UNL     1      -5.127  15.901  67.334  1.00  0.00    -0.015 C  
ENDBRANCH   8  20
BRANCH  14  24
HETATM   24  N   UNL     1      -9.934  12.801  68.763  1.00  0.00    -0.421 N  
HETATM   25  H   UNL     1      -9.148  12.394  69.269  1.00  0.00     0.000 HD 
HETATM   26  O   UNL     1     -12.191  12.569  68.456  1.00  0.00    -0.168 OA 
HETATM   27  C   UNL     1     -11.145  12.182  68.944  1.00  0.00    -0.243 C  
BRANCH  27  28
HETATM   28  C   UNL     1     -10.995  10.954  69.852  1.00  0.00    -0.266 C  
HETATM   29  C   UNL     1     -11.885   9.785  69.356  1.00  0.00     0.332 C  
HETATM   30  N   UNL     1     -11.205   8.866  68.427  1.00  0.00     0.295 NA 
HETATM   31  C   UNL     1     -10.649   9.556  67.250  1.00  0.00    -0.248 C  
HETATM   32  C   UNL     1     -10.177   8.087  69.184  1.00  0.00    -0.217 C  
HETATM   33  C   UNL     1      -9.140   7.309  68.270  1.00  0.00    -0.134 C  
HETATM   34  C   UNL     1      -7.718   7.579  68.630  1.00  0.00    -0.119 A  
HETATM   35  C   UNL     1      -6.526   7.496  67.953  1.00  0.00    -0.054 A  
HETATM   36  N   UNL     1      -5.514   7.838  68.835  1.00  0.00    -0.025 NA 
HETATM   37  C   UNL     1      -6.038   8.131  70.078  1.00  0.00    -0.029 A  
HETATM   38  H   UNL     1      -4.523   7.869  68.599  1.00  0.00     0.000 HD 
HETATM   39  C   UNL     1      -5.478   8.529  71.295  1.00  0.00    -0.034 A  
HETATM   40  C   UNL     1      -6.372   8.798  72.350  1.00  0.00    -0.042 A  
HETATM   41  C   UNL     1      -7.755   8.792  72.158  1.00  0.00     0.001 A  
HETATM   42  C   UNL     1      -8.268   8.505  70.896  1.00  0.00    -0.150 A  
HETATM   43  C   UNL     1      -7.401   8.053  69.913  1.00  0.00    -0.066 A  
HETATM   44  C   UNL     1      -9.623   8.923  70.426  1.00  0.00    -0.227 C  
HETATM   45  C   UNL     1      -9.565  10.442  70.065  1.00  0.00     0.141 C  
ENDBRANCH  27  28
ENDBRANCH  14  24
TORSDOF 3
ENDMDL
MODEL      101
REMARK 921   NORMALIZED FREE ENERGY PREDICTED BY IDOCK:    1.78 KCAL/MOL
REMARK 922        TOTAL FREE ENERGY PREDICTED BY IDOCK:    1.02 KCAL/MOL
REMARK 923 INTER-LIGAND FREE ENERGY PREDICTED BY IDOCK:   -1.87 KCAL/MOL
REMARK 924 INTRA-LIGAND FREE ENERGY PREDICTED BY IDOCK:    2.89 KCAL/MOL
REMARK 927      BINDING AFFINITY PREDICTED BY RF-SCORE:    0.00 PKD
ROOT
HETATM    1  C   UNL     1      -7.444   7.441  72.107  1.00  0.00    -0.080 C  
HETATM    2  C   UNL     1      -6.245   7.517  73.067  1.00  0.00    -0.059 C  
HETATM    3  C   UNL     1      -6.907   7.901  74.435  1.00  0.00    -0.142 C  
HETATM    4  C   UNL     1      -8.372   8.193  74.118  1.00  0.00    -0.224 C  
HETATM    5  N   UNL     1      -8.398   8.346  72.673  1.00  0.00    -0.166 N  
HETATM    6  C   UNL     1      -9.604   8.511  72.042  1.00  0.00    -0.301 C  
HETATM    7  O   UNL     1     -10.402   9.369  72.409  1.00  0.00     0.433 OA 
HETATM    8  C   UNL     1      -9.824   7.601  70.794  1.00  0.00    -0.177 C  
HETATM    9  N   UNL     1      -8.806   6.392  70.700  1.00  0.00    -0.143 N  
HETATM   10  C   UNL     1     -10.781   4.759  68.462  1.00  0.00     0.610 C  
HETATM   11  C   UNL     1      -8.586   5.487  69.672  1.00  0.00    -0.108 C  
HETATM   12  C   UNL     1     -10.730   6.657  66.805  1.00  0.00    -0.329 C  
HETATM   13  O   UNL     1      -8.375   4.295  69.845  1.00  0.00    -0.061 OA 
HETATM   14  C   UNL     1      -8.454   6.261  68.381  1.00  0.00    -0.115 C  
HETATM   15  C   UNL     1      -7.552   7.023  70.544  1.00  0.00    -0.090 C  
HETATM   16  O   UNL     1      -6.367   6.234  70.362  1.00  0.00    -0.034 OA 
HETATM   17  H   UNL     1      -6.430   5.989  69.447  1.00  0.00     0.000 HD 
HETATM   18  C   UNL     1      -9.864   5.769  67.697  1.00  0.00    -0.142 C  
HETATM   19  O   UNL     1      -7.951   7.528  69.219  1.00  0.00    -0.116 OA 
ENDROOT
BRANCH   8  20
HETATM   20  C   UNL     1     -11.304   7.307  70.644  1.00  0.00    -0.311 C  
HETATM   21  C   UNL     1     -13.628   7.930  71.262  1.00  0.00    -0.225 C  
HETATM   22  C   UNL     1     -12.199   8.440  71.139  1.00  0.00    -0.248 C  
HETATM   23  C   UNL     1     -12.170   9.644  70.205  1.00  0.00     0.027 C  
ENDBRANCH   8  20
BRANCH  14  24
HETATM   24  N   UNL     1      -7.540   6.391  67.270  1.00  0.00    -0.094 N  
HETATM   25  H   UNL     1      -7.953   6.714  66.394  1.00  0.00     0.000 HD 
HETATM   26  O   UNL     1      -5.536   5.794  68.201  1.00  0.00    -0.007 OA 
HETATM   27  C   UNL     1      -6.193   6.136  67.234  1.00  0.00    -0.029 C  
BRANCH  27  28
HETATM   28  C   UNL     1      -5.635   6.358  65.823  1.00  0.00    -0.017 C  
HETATM   29  C   UNL     1      -5.946   5.147  64.906  1.00  0.00    -0.022 C  
HETATM   30  N   UNL     1      -7.208   5.271  64.155  1.00  0.00    -0.049 NA 
HETATM   31  C   UNL     1      -8.370   5.500  65.029  1.00  0.00    -0.146 C  
HETATM   32  C   UNL     1      -7.046   6.331  63.113  1.00  0.00    -0.052 C  
HETATM   33  C   UNL     1      -8.405   6.815  62.453  1.00  0.00     0.008 C  
HETATM   34  C   UNL     1      -8.574   8.297  62.472  1.00  0.00    -0.029 A  
HETATM   35  C   UNL     1      -9.659   9.138  62.413  1.00  0.00     0.958 A  
HETATM   36  N   UNL     1      -9.185  10.440  62.428  1.00  0.00    -0.336 NA 
HETATM   37  C   UNL     1      -7.806  10.449  62.485  1.00  0.00    -0.154 A  
HETATM   38  H   UNL     1      -9.773  11.273  62.401  1.00  0.00     0.000 HD 
HETATM   39  C   UNL     1      -6.846  11.464  62.527  1.00  0.00     0.572 A  
HETATM   40  C   UNL     1      -5.501  11.064  62.645  1.00  0.00    -0.120 A  
HETATM   41  C   UNL     1      -5.148   9.727  62.839  1.00  0.00    -0.078 A  
HETATM   42  C   UNL     1      -6.148   8.760  62.908  1.00  0.00    -0.090 A  
HETATM   43  C   UNL     1      -7.449   9.126  62.600  1.00  0.00    -0.097 A  
HETATM   44  C   UNL     1      -5.986   7.433  63.573  1.00  0.00    -0.049 C  
HETATM   45  C   UNL     1      -6.076   7.648  65.118  1.00  0.00    -0.038 C  
ENDBRANCH  27  28
ENDBRANCH  14  24
TORSDOF 3
ENDMDL
MODEL      102
REMARK 921   NORMALIZED FREE ENERGY PREDICTED BY IDOCK:    2.20 KCAL/MOL
REMARK 922        TOTAL FREE ENERGY PREDICTED BY IDOCK:    1.52 KCAL/MOL
REMARK 923 INTER-LIGAND FREE ENERGY PREDICTED BY IDOCK:    0.16 KCAL/MOL
REMARK 924 INTRA-LIGAND FREE ENERGY PREDICTED BY IDOCK:    1.35 KCAL/MOL
REMARK 927      BINDING AFFINITY PREDICTED BY RF-SCORE:    0.00 PKD
ROOT
HETATM    1  C   UNL     1     -11.119  14.067  65.554  1.00  0.00    -0.309 C  
HETATM    2  C   UNL     1     -11.771  13.473  64.294  1.00  0.00    -0.455 C  
HETATM    3  C   UNL     1     -13.124  14.258  64.188  1.00  0.00     1.015 C  
HETATM    4  C   UNL     1     -13.225  15.084  65.469  1.00  0.00     1.047 C  
HETATM    5  N   UNL     1     -12.231  14.493  66.350  1.00  0.00    -0.328 N  
HETATM    6  C   UNL     1     -11.985  15.079  67.565  1.00  0.00    -0.054 C  
HETATM    7  O   UNL     1     -12.898  15.342  68.342  1.00  0.00     0.823 OA 
HETATM    8  C   UNL     1     -10.475  15.290  67.900  1.00  0.00    -0.253 C  
HETATM    9  N   UNL     1      -9.519  15.156  66.646  1.00  0.00    -0.247 N  
HETATM   10  C   UNL     1      -6.977  16.723  68.275  1.00  0.00    -0.161 C  
HETATM   11  C   UNL     1      -8.135  15.113  66.578  1.00  0.00     0.188 C  
HETATM   12  C   UNL     1      -6.939  15.038  70.149  1.00  0.00    -0.016 C  
HETATM   13  O   UNL     1      -7.476  15.672  65.713  1.00  0.00     1.563 OA 
HETATM   14  C   UNL     1      -7.641  14.118  67.603  1.00  0.00    -0.180 C  
HETATM   15  C   UNL     1      -9.677  13.808  66.250  1.00  0.00    -0.284 C  
HETATM   16  O   UNL     1      -8.908  13.285  65.156  1.00  0.00     0.683 OA 
HETATM   17  H   UNL     1      -8.063  13.134  65.563  1.00  0.00     0.000 HD 
HETATM   18  C   UNL     1      -6.953  15.200  68.629  1.00  0.00    -0.113 C  
HETATM   19  O   UNL     1      -9.040  13.349  67.496  1.00  0.00    -0.194 OA 
ENDROOT
BRANCH   8  20
HETATM   20  C   UNL     1     -10.327  16.510  68.788  1.00  0.00    -0.286 C  
HETATM   21  C   UNL     1      -9.294  18.747  69.107  1.00  0.00    -0.113 C  
HETATM   22  C   UNL     1      -9.705  17.707  68.075  1.00  0.00    -0.301 C  
HETATM   23  C   UNL     1     -10.666  18.341  67.074  1.00  0.00    -0.305 C  
ENDBRANCH   8  20
BRANCH  14  24
HETATM   24  N   UNL     1      -6.788  12.955  67.679  1.00  0.00    -0.136 N  
HETATM   25  H   UNL     1      -6.402  12.631  66.791  1.00  0.00     0.000 HD 
HETATM   26  O   UNL     1      -6.755  12.508  69.924  1.00  0.00     0.042 OA 
HETATM   27  C   UNL     1      -6.426  12.229  68.785  1.00  0.00    -0.082 C  
BRANCH  27  28
HETATM   28  C   UNL     1      -5.547  11.036  68.388  1.00  0.00    -0.043 C  
HETATM   29  C   UNL     1      -5.192  10.172  69.625  1.00  0.00    -0.038 C  
HETATM   30  N   UNL     1      -6.135   9.069  69.877  1.00  0.00    -0.034 NA 
HETATM   31  C   UNL     1      -7.526   9.532  70.020  1.00  0.00    -0.126 C  
HETATM   32  C   UNL     1      -5.972   8.040  68.805  1.00  0.00    -0.039 C  
HETATM   33  C   UNL     1      -7.138   6.965  68.745  1.00  0.00    -0.089 C  
HETATM   34  C   UNL     1      -7.727   6.810  67.384  1.00  0.00    -0.110 A  
HETATM   35  C   UNL     1      -8.934   6.358  66.908  1.00  0.00    -0.124 A  
HETATM   36  N   UNL     1      -8.888   6.407  65.524  1.00  0.00    -0.336 NA 
HETATM   37  C   UNL     1      -7.660   6.875  65.100  1.00  0.00    -0.102 A  
HETATM   38  H   UNL     1      -9.652   6.136  64.906  1.00  0.00     0.000 HD 
HETATM   39  C   UNL     1      -7.099   7.120  63.844  1.00  0.00    -0.061 A  
HETATM   40  C   UNL     1      -5.802   7.669  63.821  1.00  0.00    -0.049 A  
HETATM   41  C   UNL     1      -5.155   8.069  64.991  1.00  0.00    -0.032 A  
HETATM   42  C   UNL     1      -5.801   7.915  66.216  1.00  0.00    -0.040 A  
HETATM   43  C   UNL     1      -6.989   7.201  66.255  1.00  0.00    -0.065 A  
HETATM   44  C   UNL     1      -5.476   8.705  67.441  1.00  0.00    -0.038 C  
HETATM   45  C   UNL     1      -6.101  10.128  67.282  1.00  0.00    -0.058 C  
ENDBRANCH  27  28
ENDBRANCH  14  24
TORSDOF 3
ENDMDL
MODEL      103
REMARK 921   NORMALIZED FREE ENERGY PREDICTED BY IDOCK:    3.60 KCAL/MOL
REMARK 922        TOTAL FREE ENERGY PREDICTED BY IDOCK:    3.17 KCAL/MOL
REMARK 923 INTER-LIGAND FREE ENERGY PREDICTED BY IDOCK:    0.64 KCAL/MOL
REMARK 924 INTRA-LIGAND FREE ENERGY PREDICTED BY IDOCK:    2.53 KCAL/MOL
REMARK 927      BINDING AFFINITY PREDICTED BY RF-SCORE:    0.00 PKD
ROOT
HETATM    1  C   UNL     1     -10.899  10.648  70.489  1.00  0.00     0.143 C  
HETATM    2  C   UNL     1     -10.952  12.170  70.275  1.00  0.00     1.005 C  
HETATM    3  C   UNL     1     -12.346  12.566  70.874  1.00  0.00    -0.349 C  
HETATM    4  C   UNL     1     -13.044  11.248  71.204  1.00  0.00    -0.151 C  
HETATM    5  N   UNL     1     -12.274  10.249  70.482  1.00  0.00    -0.299 N  
HETATM    6  C   UNL     1     -12.575   8.923  70.653  1.00  0.00     0.257 C  
HETATM    7  O   UNL     1     -13.724   8.509  70.524  1.00  0.00     0.633 OA 
HETATM    8  C   UNL     1     -11.348   7.998  70.927  1.00  0.00    -0.276 C  
HETATM    9  N   UNL     1     -10.038   8.785  71.341  1.00  0.00    -0.255 N  
HETATM   10  C   UNL     1      -8.599   5.961  72.577  1.00  0.00    -0.120 C  
HETATM   11  C   UNL     1      -8.736   8.333  71.496  1.00  0.00    -0.163 C  
HETATM   12  C   UNL     1      -8.763   4.736  70.380  1.00  0.00    -0.125 C  
HETATM   13  O   UNL     1      -7.987   8.702  72.390  1.00  0.00    -0.323 OA 
HETATM   14  C   UNL     1      -8.375   7.504  70.286  1.00  0.00    -0.133 C  
HETATM   15  C   UNL     1      -9.737   9.555  70.195  1.00  0.00    -0.246 C  
HETATM   16  O   UNL     1      -8.557  10.373  70.169  1.00  0.00    -0.323 OA 
HETATM   17  H   UNL     1      -7.876   9.734  69.996  1.00  0.00     0.000 HD 
HETATM   18  C   UNL     1      -8.328   6.045  71.038  1.00  0.00    -0.124 C  
HETATM   19  O   UNL     1      -9.441   8.333  69.428  1.00  0.00    -0.158 OA 
ENDROOT
BRANCH   8  20
HETATM   20  C   UNL     1     -11.785   6.829  71.787  1.00  0.00    -0.353 C  
HETATM   21  C   UNL     1     -11.180   5.208  73.570  1.00  0.00    -0.300 C  
HETATM   22  C   UNL     1     -10.862   6.572  72.975  1.00  0.00    -0.291 C  
HETATM   23  C   UNL     1     -11.004   7.640  74.054  1.00  0.00     1.548 C  
ENDBRANCH   8  20
BRANCH  14  24
HETATM   24  N   UNL     1      -7.340   7.424  69.281  1.00  0.00    -0.084 N  
HETATM   25  H   UNL     1      -7.572   7.833  68.375  1.00  0.00     0.000 HD 
HETATM   26  O   UNL     1      -5.634   6.390  70.404  1.00  0.00    -0.017 OA 
HETATM   27  C   UNL     1      -6.089   6.872  69.382  1.00  0.00    -0.033 C  
BRANCH  27  28
HETATM   28  C   UNL     1      -5.346   6.963  68.043  1.00  0.00    -0.015 C  
HETATM   29  C   UNL     1      -5.178   5.560  67.405  1.00  0.00    -0.005 C  
HETATM   30  N   UNL     1      -6.267   5.183  66.487  1.00  0.00    -0.034 NA 
HETATM   31  C   UNL     1      -7.593   5.246  67.123  1.00  0.00    -0.092 C  
HETATM   32  C   UNL     1      -6.172   6.025  65.255  1.00  0.00    -0.037 C  
HETATM   33  C   UNL     1      -7.459   5.978  64.328  1.00  0.00    -0.076 C  
HETATM   34  C   UNL     1      -7.981   7.330  63.976  1.00  0.00    -0.087 A  
HETATM   35  C   UNL     1      -9.206   7.811  63.579  1.00  0.00     1.956 A  
HETATM   36  N   UNL     1      -9.071   9.170  63.348  1.00  0.00    -0.396 NA 
HETATM   37  C   UNL     1      -7.771   9.571  63.581  1.00  0.00    -0.125 A  
HETATM   38  H   UNL     1      -9.826   9.786  63.049  1.00  0.00     0.000 HD 
HETATM   39  C   UNL     1      -7.110  10.800  63.508  1.00  0.00     0.323 A  
HETATM   40  C   UNL     1      -5.755  10.818  63.891  1.00  0.00     0.055 A  
HETATM   41  C   UNL     1      -5.133   9.695  64.439  1.00  0.00    -0.059 A  
HETATM   42  C   UNL     1      -5.865   8.521  64.603  1.00  0.00    -0.063 A  
HETATM   43  C   UNL     1      -7.134   8.446  64.050  1.00  0.00    -0.087 A  
HETATM   44  C   UNL     1      -5.515   7.444  65.577  1.00  0.00    -0.029 C  
HETATM   45  C   UNL     1      -5.944   7.919  67.002  1.00  0.00    -0.052 C  
ENDBRANCH  27  28
ENDBRANCH  14  24
TORSDOF 3
ENDMDL
MODEL      104
REMARK 921   NORMALIZED FREE ENERGY PREDICTED BY IDOCK:    3.64 KCAL/MOL
REMARK 922        TOTAL FREE ENERGY PREDICTED BY IDOCK:    3.21 KCAL/MOL
REMARK 923 INTER-LIGAND FREE ENERGY PREDICTED BY IDOCK:   -0.65 KCAL/MOL
REMARK 924 INTRA-LIGAND FREE ENERGY PREDICTED BY IDOCK:    3.87 KCAL/MOL
REMARK 927      BINDING AFFINITY PREDICTED BY RF-SCORE:    0.00 PKD
ROOT
HETATM    1  C   UNL     1      -8.974   4.049  70.659  1.00  0.00    -0.090 C  
HETATM    2  C   UNL     1      -9.831   2.785  70.474  1.00  0.00     0.076 C  
HETATM    3  C   UNL     1      -8.834   1.624  70.812  1.00  0.00    -0.114 C  
HETATM    4  C   UNL     1      -7.467   2.287  70.975  1.00  0.00    -0.033 C  
HETATM    5  N   UNL     1      -7.640   3.604  70.386  1.00  0.00    -0.041 N  
HETATM    6  C   UNL     1      -6.615   4.510  70.466  1.00  0.00    -0.035 C  
HETATM    7  O   UNL     1      -5.476   4.216  70.116  1.00  0.00    -0.011 OA 
HETATM    8  C   UNL     1      -7.033   5.937  70.942  1.00  0.00    -0.067 C  
HETATM    9  N   UNL     1      -8.466   5.990  71.612  1.00  0.00    -0.127 N  
HETATM   10  C   UNL     1      -7.814   9.014  73.028  1.00  0.00     0.655 C  
HETATM   11  C   UNL     1      -9.232   7.080  71.997  1.00  0.00    -0.138 C  
HETATM   12  C   UNL     1      -7.351  10.120  70.811  1.00  0.00     0.422 C  
HETATM   13  O   UNL     1      -9.896   7.120  73.024  1.00  0.00    -0.167 OA 
HETATM   14  C   UNL     1      -9.254   8.071  70.856  1.00  0.00    -0.149 C  
HETATM   15  C   UNL     1      -9.338   5.626  70.561  1.00  0.00    -0.161 C  
HETATM   16  O   UNL     1     -10.758   5.619  70.775  1.00  0.00    -0.260 OA 
HETATM   17  H   UNL     1     -10.971   6.542  70.717  1.00  0.00     0.000 HD 
HETATM   18  C   UNL     1      -8.336   9.231  71.570  1.00  0.00     0.229 C  
HETATM   19  O   UNL     1      -9.009   6.864  69.834  1.00  0.00    -0.141 OA 
ENDROOT
BRANCH   8  20
HETATM   20  C   UNL     1      -5.872   6.577  71.678  1.00  0.00    -0.036 C  
HETATM   21  C   UNL     1      -5.132   7.972  73.596  1.00  0.00    -0.041 C  
HETATM   22  C   UNL     1      -6.237   7.063  73.078  1.00  0.00    -0.057 C  
HETATM   23  C   UNL     1      -6.439   5.908  74.052  1.00  0.00    -0.071 C  
ENDBRANCH   8  20
BRANCH  14  24
HETATM   24  N   UNL     1     -10.209   8.805  70.060  1.00  0.00    -0.192 N  
HETATM   25  H   UNL     1     -10.744   8.252  69.390  1.00  0.00     0.000 HD 
HETATM   26  O   UNL     1      -9.986  10.939  70.859  1.00  0.00     1.809 OA 
HETATM   27  C   UNL     1     -10.494  10.147  70.086  1.00  0.00    -0.255 C  
BRANCH  27  28
HETATM   28  C   UNL     1     -11.543  10.500  69.023  1.00  0.00    -0.278 C  
HETATM   29  C   UNL     1     -12.641  11.421  69.612  1.00  0.00     0.061 C  
HETATM   30  N   UNL     1     -12.366  12.860  69.456  1.00  0.00    -0.085 NA 
HETATM   31  C   UNL     1     -11.071  13.257  70.033  1.00  0.00     0.377 C  
HETATM   32  C   UNL     1     -12.493  13.221  68.010  1.00  0.00     0.399 C  
HETATM   33  C   UNL     1     -11.902  14.645  67.635  1.00  0.00    -0.366 C  
HETATM   34  C   UNL     1     -10.951  14.603  66.487  1.00  0.00    -0.318 A  
HETATM   35  C   UNL     1      -9.927  15.416  66.061  1.00  0.00    -0.324 A  
HETATM   36  N   UNL     1      -9.424  14.881  64.887  1.00  0.00    -0.049 NA 
HETATM   37  C   UNL     1     -10.119  13.738  64.543  1.00  0.00    -0.022 A  
HETATM   38  H   UNL     1      -8.651  15.275  64.352  1.00  0.00     0.000 HD 
HETATM   39  C   UNL     1     -10.022  12.829  63.486  1.00  0.00     0.450 A  
HETATM   40  C   UNL     1     -10.895  11.724  63.515  1.00  0.00    -0.496 A  
HETATM   41  C   UNL     1     -11.728  11.476  64.607  1.00  0.00    -0.049 A  
HETATM   42  C   UNL     1     -11.707  12.347  65.694  1.00  0.00    -0.468 A  
HETATM   43  C   UNL     1     -10.996  13.532  65.582  1.00  0.00    -0.296 A  
HETATM   44  C   UNL     1     -12.140  11.977  67.074  1.00  0.00     0.123 C  
HETATM   45  C   UNL     1     -11.007  11.122  67.727  1.00  0.00    -0.315 C  
ENDBRANCH  27  28
ENDBRANCH  14  24
TORSDOF 3
ENDMDL
MODEL      105
REMARK 921   NORMALIZED FREE ENERGY PREDICTED BY IDOCK:    3.75 KCAL/MOL
REMARK 922        TOTAL FREE ENERGY PREDICTED BY IDOCK:    3.33 KCAL/MOL
REMARK 923 INTER-LIGAND FREE ENERGY PREDICTED BY IDOCK:    1.87 KCAL/MOL
REMARK 924 INTRA-LIGAND FREE ENERGY PREDICTED BY IDOCK:    1.47 KCAL/MOL
REMARK 927      BINDING AFFINITY PREDICTED BY RF-SCORE:    0.00 PKD
ROOT
HETATM    1  C   UNL     1      -6.464  16.619  68.421  1.00  0.00    -0.135 C  
HETATM    2  C   UNL     1      -5.204  17.400  68.832  1.00  0.00    -0.149 C  
HETATM    3  C   UNL     1      -5.540  18.870  68.405  1.00  0.00    -0.197 C  
HETATM    4  C   UNL     1      -6.853  18.786  67.630  1.00  0.00    -0.205 C  
HETATM    5  N   UNL     1      -6.995  17.372  67.325  1.00  0.00    -0.161 N  
HETATM    6  C   UNL     1      -8.143  16.933  66.719  1.00  0.00    -0.241 C  
HETATM    7  O   UNL     1      -8.567  17.463  65.696  1.00  0.00    -0.456 OA 
HETATM    8  C   UNL     1      -8.793  15.674  67.374  1.00  0.00    -0.191 C  
HETATM    9  N   UNL     1      -8.248  15.360  68.827  1.00  0.00    -0.158 N  
HETATM   10  C   UNL     1     -10.895  13.331  69.501  1.00  0.00     0.107 C  
HETATM   11  C   UNL     1      -8.458  14.256  69.641  1.00  0.00     0.661 C  
HETATM   12  C   UNL     1     -10.414  11.806  67.553  1.00  0.00    -0.228 C  
HETATM   13  O   UNL     1      -8.632  14.322  70.849  1.00  0.00     2.839 OA 
HETATM   14  C   UNL     1      -8.229  13.011  68.817  1.00  0.00     0.111 C  
HETATM   15  C   UNL     1      -6.883  15.065  68.614  1.00  0.00    -0.109 C  
HETATM   16  O   UNL     1      -6.053  14.666  69.716  1.00  0.00    -0.111 OA 
HETATM   17  H   UNL     1      -6.299  13.755  69.829  1.00  0.00     0.000 HD 
HETATM   18  C   UNL     1      -9.791  12.507  68.760  1.00  0.00     0.008 C  
HETATM   19  O   UNL     1      -7.244  13.845  67.871  1.00  0.00    -0.122 OA 
ENDROOT
BRANCH   8  20
HETATM   20  C   UNL     1     -10.294  15.721  67.165  1.00  0.00    -0.291 C  
HETATM   21  C   UNL     1     -12.186  16.585  65.806  1.00  0.00     2.673 C  
HETATM   22  C   UNL     1     -10.698  16.264  65.797  1.00  0.00    -0.264 C  
HETATM   23  C   UNL     1     -10.401  15.274  64.677  1.00  0.00     0.066 C  
ENDBRANCH   8  20
BRANCH  14  24
HETATM   24  N   UNL     1      -7.458  11.790  68.867  1.00  0.00    -0.222 N  
HETATM   25  H   UNL     1      -6.889  11.661  69.704  1.00  0.00     0.000 HD 
HETATM   26  O   UNL     1      -8.044  10.751  66.913  1.00  0.00    -0.123 OA 
HETATM   27  C   UNL     1      -7.390  10.781  67.940  1.00  0.00    -0.088 C  
BRANCH  27  28
HETATM   28  C   UNL     1      -6.397   9.700  68.386  1.00  0.00    -0.051 C  
HETATM   29  C   UNL     1      -6.273   9.664  69.931  1.00  0.00    -0.048 C  
HETATM   30  N   UNL     1      -7.201   8.724  70.586  1.00  0.00    -0.057 NA 
HETATM   31  C   UNL     1      -8.609   8.983  70.240  1.00  0.00    -0.178 C  
HETATM   32  C   UNL     1      -6.773   7.326  70.272  1.00  0.00    -0.051 C  
HETATM   33  C   UNL     1      -7.853   6.216  70.618  1.00  0.00    -0.106 C  
HETATM   34  C   UNL     1      -8.135   5.295  69.479  1.00  0.00    -0.094 A  
HETATM   35  C   UNL     1      -9.196   4.490  69.139  1.00  0.00    -0.134 A  
HETATM   36  N   UNL     1      -8.862   3.823  67.972  1.00  0.00    -0.105 NA 
HETATM   37  C   UNL     1      -7.594   4.180  67.560  1.00  0.00    -0.069 A  
HETATM   38  H   UNL     1      -9.468   3.162  67.486  1.00  0.00     0.000 HD 
HETATM   39  C   UNL     1      -6.792   3.820  66.473  1.00  0.00    -0.057 A  
HETATM   40  C   UNL     1      -5.544   4.463  66.361  1.00  0.00    -0.014 A  
HETATM   41  C   UNL     1      -5.175   5.501  67.218  1.00  0.00    -0.005 A  
HETATM   42  C   UNL     1      -6.057   5.908  68.217  1.00  0.00    -0.021 A  
HETATM   43  C   UNL     1      -7.194   5.151  68.448  1.00  0.00    -0.063 A  
HETATM   44  C   UNL     1      -6.030   7.255  68.861  1.00  0.00    -0.026 C  
HETATM   45  C   UNL     1      -6.667   8.281  67.870  1.00  0.00    -0.065 C  
ENDBRANCH  27  28
ENDBRANCH  14  24
TORSDOF 3
ENDMDL
MODEL      106
REMARK 921   NORMALIZED FREE ENERGY PREDICTED BY IDOCK:    3.97 KCAL/MOL
REMARK 922        TOTAL FREE ENERGY PREDICTED BY IDOCK:    3.59 KCAL/MOL
REMARK 923 INTER-LIGAND FREE ENERGY PREDICTED BY IDOCK:    4.53 KCAL/MOL
REMARK 924 INTRA-LIGAND FREE ENERGY PREDICTED BY IDOCK:   -0.94 KCAL/MOL
REMARK 927      BINDING AFFINITY PREDICTED BY RF-SCORE:    0.00 PKD
ROOT
HETATM    1  C   UNL     1      -9.615   5.256  66.381  1.00  0.00    -0.160 C  
HETATM    2  C   UNL     1     -10.405   4.275  67.264  1.00  0.00     0.277 C  
HETATM    3  C   UNL     1     -10.593   3.028  66.332  1.00  0.00     2.783 C  
HETATM    4  C   UNL     1     -10.076   3.456  64.960  1.00  0.00     0.058 C  
HETATM    5  N   UNL     1      -9.996   4.904  65.047  1.00  0.00     0.073 N  
HETATM    6  C   UNL     1      -9.456   5.606  64.001  1.00  0.00     1.084 C  
HETATM    7  O   UNL     1      -9.846   5.435  62.849  1.00  0.00     0.716 OA 
HETATM    8  C   UNL     1      -8.396   6.678  64.405  1.00  0.00     0.095 C  
HETATM    9  N   UNL     1      -7.849   6.507  65.881  1.00  0.00    -0.101 N  
HETATM   10  C   UNL     1      -5.165   8.496  65.236  1.00  0.00    -0.035 C  
HETATM   11  C   UNL     1      -7.042   7.344  66.637  1.00  0.00    -0.075 C  
HETATM   12  C   UNL     1      -6.594  10.465  64.577  1.00  0.00    -0.023 C  
HETATM   13  O   UNL     1      -6.148   6.949  67.372  1.00  0.00    -0.032 OA 
HETATM   14  C   UNL     1      -7.595   8.747  66.544  1.00  0.00    -0.095 C  
HETATM   15  C   UNL     1      -8.991   6.721  66.686  1.00  0.00    -0.144 C  
HETATM   16  O   UNL     1      -8.875   6.705  68.117  1.00  0.00    -0.121 OA 
HETATM   17  H   UNL     1      -8.510   7.563  68.295  1.00  0.00     0.000 HD 
HETATM   18  C   UNL     1      -6.382   9.391  65.643  1.00  0.00    -0.068 C  
HETATM   19  O   UNL     1      -9.046   8.131  66.265  1.00  0.00    -0.166 OA 
ENDROOT
BRANCH   8  20
HETATM   20  C   UNL     1      -7.391   6.835  63.281  1.00  0.00    -0.076 C  
HETATM   21  C   UNL     1      -5.166   6.211  62.368  1.00  0.00    -0.021 C  
HETATM   22  C   UNL     1      -6.286   5.782  63.304  1.00  0.00    -0.025 C  
HETATM   23  C   UNL     1      -6.796   4.407  62.885  1.00  0.00    -0.035 C  
ENDBRANCH   8  20
BRANCH  14  24
HETATM   24  N   UNL     1      -8.008   9.823  67.415  1.00  0.00    -0.102 N  
HETATM   25  H   UNL     1      -8.655  10.498  67.007  1.00  0.00     0.000 HD 
HETATM   26  O   UNL     1      -6.923   9.325  69.368  1.00  0.00    -0.047 OA 
HETATM   27  C   UNL     1      -7.645  10.058  68.716  1.00  0.00    -0.083 C  
BRANCH  27  28
HETATM   28  C   UNL     1      -8.283  11.354  69.233  1.00  0.00     0.209 C  
HETATM   29  C   UNL     1      -7.198  12.388  69.629  1.00  0.00     0.490 C  
HETATM   30  N   UNL     1      -6.819  13.306  68.540  1.00  0.00    -0.091 NA 
HETATM   31  C   UNL     1      -6.363  12.598  67.332  1.00  0.00    -0.150 C  
HETATM   32  C   UNL     1      -7.958  14.237  68.275  1.00  0.00    -0.140 C  
HETATM   33  C   UNL     1      -7.836  15.053  66.920  1.00  0.00    -0.056 C  
HETATM   34  C   UNL     1      -9.052  14.956  66.061  1.00  0.00    -0.109 A  
HETATM   35  C   UNL     1      -9.291  15.115  64.717  1.00  0.00     1.884 A  
HETATM   36  N   UNL     1     -10.649  14.940  64.507  1.00  0.00    -0.556 NA 
HETATM   37  C   UNL     1     -11.291  14.681  65.701  1.00  0.00    -0.338 A  
HETATM   38  H   UNL     1     -11.108  14.995  63.598  1.00  0.00     0.000 HD 
HETATM   39  C   UNL     1     -12.621  14.427  66.049  1.00  0.00    -0.235 A  
HETATM   40  C   UNL     1     -12.882  14.141  67.403  1.00  0.00     1.087 A  
HETATM   41  C   UNL     1     -11.850  13.991  68.332  1.00  0.00    -0.397 A  
HETATM   42  C   UNL     1     -10.529  14.137  67.915  1.00  0.00    -0.237 A  
HETATM   43  C   UNL     1     -10.284  14.607  66.634  1.00  0.00    -0.275 A  
HETATM   44  C   UNL     1      -9.356  13.550  68.628  1.00  0.00    -0.036 C  
HETATM   45  C   UNL     1      -9.299  12.024  68.298  1.00  0.00    -0.197 C  
ENDBRANCH  27  28
ENDBRANCH  14  24
TORSDOF 3
ENDMDL
MODEL      107
REMARK 921   NORMALIZED FREE ENERGY PREDICTED BY IDOCK:    5.21 KCAL/MOL
REMARK 922        TOTAL FREE ENERGY PREDICTED BY IDOCK:    5.05 KCAL/MOL
REMARK 923 INTER-LIGAND FREE ENERGY PREDICTED BY IDOCK:    4.93 KCAL/MOL
REMARK 924 INTRA-LIGAND FREE ENERGY PREDICTED BY IDOCK:    0.12 KCAL/MOL
REMARK 927      BINDING AFFINITY PREDICTED BY RF-SCORE:    0.00 PKD
ROOT
HETATM    1  C   UNL     1     -10.186   6.266  71.388  1.00  0.00    -0.201 C  
HETATM    2  C   UNL     1     -11.119   6.243  72.611  1.00  0.00    -0.298 C  
HETATM    3  C   UNL     1     -11.724   4.797  72.571  1.00  0.00     0.237 C  
HETATM    4  C   UNL     1     -11.248   4.186  71.254  1.00  0.00     2.057 C  
HETATM    5  N   UNL     1     -10.776   5.325  70.485  1.00  0.00    -0.200 N  
HETATM    6  C   UNL     1     -10.173   5.108  69.274  1.00  0.00    -0.206 C  
HETATM    7  O   UNL     1     -10.706   4.414  68.412  1.00  0.00     0.642 OA 
HETATM    8  C   UNL     1      -8.831   5.875  69.059  1.00  0.00    -0.119 C  
HETATM    9  N   UNL     1      -8.208   6.453  70.395  1.00  0.00    -0.120 N  
HETATM   10  C   UNL     1      -5.167   6.869  68.927  1.00  0.00    -0.013 C  
HETATM   11  C   UNL     1      -7.136   7.313  70.582  1.00  0.00    -0.065 C  
HETATM   12  C   UNL     1      -6.075   8.386  67.131  1.00  0.00    -0.055 C  
HETATM   13  O   UNL     1      -6.312   7.193  71.477  1.00  0.00    -0.037 OA 
HETATM   14  C   UNL     1      -7.301   8.485  69.643  1.00  0.00    -0.060 C  
HETATM   15  C   UNL     1      -9.166   7.396  70.829  1.00  0.00    -0.159 C  
HETATM   16  O   UNL     1      -8.919   8.184  72.003  1.00  0.00    -0.141 OA 
HETATM   17  H   UNL     1      -8.322   8.846  71.676  1.00  0.00     0.000 HD 
HETATM   18  C   UNL     1      -6.054   8.124  68.637  1.00  0.00    -0.044 C  
HETATM   19  O   UNL     1      -8.883   8.247  69.660  1.00  0.00    -0.137 OA 
ENDROOT
BRANCH   8  20
HETATM   20  C   UNL     1      -7.935   5.068  68.140  1.00  0.00    -0.087 C  
HETATM   21  C   UNL     1      -5.956   3.581  67.931  1.00  0.00    -0.027 C  
HETATM   22  C   UNL     1      -7.030   4.088  68.882  1.00  0.00    -0.047 C  
HETATM   23  C   UNL     1      -7.808   2.904  69.446  1.00  0.00    -0.052 C  
ENDBRANCH   8  20
BRANCH  14  24
HETATM   24  N   UNL     1      -7.323   9.929  69.685  1.00  0.00    -0.098 N  
HETATM   25  H   UNL     1      -6.411  10.385  69.688  1.00  0.00     0.000 HD 
HETATM   26  O   UNL     1      -9.566  10.392  69.672  1.00  0.00    -0.200 OA 
HETATM   27  C   UNL     1      -8.408  10.768  69.722  1.00  0.00     0.362 C  
BRANCH  27  28
HETATM   28  C   UNL     1      -7.959  12.232  69.817  1.00  0.00     1.631 C  
HETATM   29  C   UNL     1      -6.679  12.476  68.977  1.00  0.00    -0.098 C  
HETATM   30  N   UNL     1      -6.942  12.910  67.594  1.00  0.00    -0.138 NA 
HETATM   31  C   UNL     1      -7.806  11.972  66.858  1.00  0.00    -0.095 C  
HETATM   32  C   UNL     1      -7.486  14.302  67.621  1.00  0.00    -0.179 C  
HETATM   33  C   UNL     1      -8.130  14.781  66.252  1.00  0.00     0.909 C  
HETATM   34  C   UNL     1      -9.506  15.335  66.411  1.00  0.00    -0.326 A  
HETATM   35  C   UNL     1     -10.580  15.490  65.567  1.00  0.00    -0.396 A  
HETATM   36  N   UNL     1     -11.589  16.117  66.280  1.00  0.00     0.568 NA 
HETATM   37  C   UNL     1     -11.176  16.378  67.571  1.00  0.00    -0.019 A  
HETATM   38  H   UNL     1     -12.507  16.352  65.903  1.00  0.00     0.000 HD 
HETATM   39  C   UNL     1     -11.785  16.971  68.680  1.00  0.00     0.781 A  
HETATM   40  C   UNL     1     -11.040  17.003  69.875  1.00  0.00     0.355 A  
HETATM   41  C   UNL     1      -9.805  16.361  69.986  1.00  0.00     0.425 A  
HETATM   42  C   UNL     1      -9.288  15.680  68.886  1.00  0.00    -0.223 A  
HETATM   43  C   UNL     1      -9.926  15.813  67.662  1.00  0.00    -0.239 A  
HETATM   44  C   UNL     1      -8.279  14.584  68.978  1.00  0.00    -0.076 C  
HETATM   45  C   UNL     1      -9.010  13.286  69.447  1.00  0.00     1.122 C  
ENDBRANCH  27  28
ENDBRANCH  14  24
TORSDOF 3
ENDMDL
MODEL      108
REMARK 921   NORMALIZED FREE ENERGY PREDICTED BY IDOCK:    6.75 KCAL/MOL
REMARK 922        TOTAL FREE ENERGY PREDICTED BY IDOCK:    6.86 KCAL/MOL
REMARK 923 INTER-LIGAND FREE ENERGY PREDICTED BY IDOCK:    7.33 KCAL/MOL
REMARK 924 INTRA-LIGAND FREE ENERGY PREDICTED BY IDOCK:   -0.47 KCAL/MOL
REMARK 927      BINDING AFFINITY PREDICTED BY RF-SCORE:    0.00 PKD
ROOT
HETATM    1  C   UNL     1      -7.162  17.996  66.112  1.00  0.00    -0.290 C  
HETATM    2  C   UNL     1      -6.225  17.937  64.894  1.00  0.00     0.672 C  
HETATM    3  C   UNL     1      -5.881  19.444  64.635  1.00  0.00    -0.304 C  
HETATM    4  C   UNL     1      -6.775  20.242  65.582  1.00  0.00    -0.259 C  
HETATM    5  N   UNL     1      -7.781  19.283  66.010  1.00  0.00    -0.296 N  
HETATM    6  C   UNL     1      -8.691  19.654  66.965  1.00  0.00    -0.316 C  
HETATM    7  O   UNL     1      -9.346  20.687  66.854  1.00  0.00    -0.327 OA 
HETATM    8  C   UNL     1      -8.882  18.629  68.126  1.00  0.00    -0.311 C  
HETATM    9  N   UNL     1      -7.734  17.541  68.210  1.00  0.00    -0.237 N  
HETATM   10  C   UNL     1      -8.605  16.707  71.391  1.00  0.00     7.825 C  
HETATM   11  C   UNL     1      -7.646  16.394  68.984  1.00  0.00    -0.232 C  
HETATM   12  C   UNL     1     -10.962  16.091  70.743  1.00  0.00    -0.232 C  
HETATM   13  O   UNL     1      -6.618  16.012  69.524  1.00  0.00    -0.184 OA 
HETATM   14  C   UNL     1      -8.948  15.636  68.858  1.00  0.00    -0.221 C  
HETATM   15  C   UNL     1      -7.861  16.830  66.995  1.00  0.00    -0.194 C  
HETATM   16  O   UNL     1      -7.011  15.703  66.730  1.00  0.00    -0.205 OA 
HETATM   17  H   UNL     1      -7.421  15.020  67.247  1.00  0.00     0.000 HD 
HETATM   18  C   UNL     1      -9.489  15.896  70.386  1.00  0.00     0.979 C  
HETATM   19  O   UNL     1      -9.170  16.303  67.420  1.00  0.00    -0.209 OA 
ENDROOT
BRANCH   8  20
HETATM   20  C   UNL     1      -9.260  19.372  69.392  1.00  0.00     0.005 C  
HETATM   21  C   UNL     1      -8.646  19.970  71.724  1.00  0.00     2.633 C  
HETATM   22  C   UNL     1      -8.102  19.523  70.375  1.00  0.00     1.445 C  
HETATM   23  C   UNL     1      -7.065  20.530  69.889  1.00  0.00     0.625 C  
ENDBRANCH   8  20
BRANCH  14  24
HETATM   24  N   UNL     1      -9.417  14.310  68.529  1.00  0.00    -0.209 N  
HETATM   25  H   UNL     1      -8.733  13.560  68.638  1.00  0.00     0.000 HD 
HETATM   26  O   UNL     1     -11.602  14.683  67.957  1.00  0.00    -0.311 OA 
HETATM   27  C   UNL     1     -10.658  13.925  68.091  1.00  0.00    -0.252 C  
BRANCH  27  28
HETATM   28  C   UNL     1     -10.691  12.417  67.812  1.00  0.00    -0.247 C  
HETATM   29  C   UNL     1     -11.825  12.062  66.816  1.00  0.00    -0.164 C  
HETATM   30  N   UNL     1     -11.405  12.058  65.403  1.00  0.00    -0.335 NA 
HETATM   31  C   UNL     1     -10.806  13.337  64.986  1.00  0.00    -0.322 C  
HETATM   32  C   UNL     1     -10.501  10.890  65.172  1.00  0.00    -0.246 C  
HETATM   33  C   UNL     1      -9.702  10.940  63.802  1.00  0.00    -0.354 C  
HETATM   34  C   UNL     1      -8.234  10.739  63.969  1.00  0.00     0.112 A  
HETATM   35  C   UNL     1      -7.130  11.075  63.222  1.00  0.00     0.614 A  
HETATM   36  N   UNL     1      -6.013  10.577  63.873  1.00  0.00    -0.327 NA 
HETATM   37  C   UNL     1      -6.383   9.914  65.025  1.00  0.00    -0.104 A  
HETATM   38  H   UNL     1      -5.053  10.686  63.546  1.00  0.00     0.000 HD 
HETATM   39  C   UNL     1      -5.674   9.248  66.029  1.00  0.00    -0.049 A  
HETATM   40  C   UNL     1      -6.423   8.737  67.106  1.00  0.00    -0.061 A  
HETATM   41  C   UNL     1      -7.790   8.991  67.235  1.00  0.00    -0.099 A  
HETATM   42  C   UNL     1      -8.435   9.761  66.269  1.00  0.00    -0.129 A  
HETATM   43  C   UNL     1      -7.743  10.097  65.116  1.00  0.00    -0.141 A  
HETATM   44  C   UNL     1      -9.709  10.503  66.504  1.00  0.00    -0.237 C  
HETATM   45  C   UNL     1      -9.379  11.792  67.322  1.00  0.00    -0.171 C  
ENDBRANCH  27  28
ENDBRANCH  14  24
TORSDOF 3
ENDMDL
MODEL      109
REMARK 921   NORMALIZED FREE ENERGY PREDICTED BY IDOCK:    6.84 KCAL/MOL
REMARK 922        TOTAL FREE ENERGY PREDICTED BY IDOCK:    6.97 KCAL/MOL
REMARK 923 INTER-LIGAND FREE ENERGY PREDICTED BY IDOCK:    1.94 KCAL/MOL
REMARK 924 INTRA-LIGAND FREE ENERGY PREDICTED BY IDOCK:    5.03 KCAL/MOL
REMARK 927      BINDING AFFINITY PREDICTED BY RF-SCORE:    0.00 PKD
ROOT
HETATM    1  C   UNL     1     -10.682  12.775  65.963  1.00  0.00    -0.272 C  
HETATM    2  C   UNL     1      -9.819  12.546  64.711  1.00  0.00    -0.084 C  
HETATM    3  C   UNL     1     -10.023  13.866  63.890  1.00  0.00     2.074 C  
HETATM    4  C   UNL     1     -11.108  14.648  64.627  1.00  0.00    -0.334 C  
HETATM    5  N   UNL     1     -11.709  13.668  65.516  1.00  0.00    -0.325 N  
HETATM    6  C   UNL     1     -12.661  14.077  66.413  1.00  0.00    -0.096 C  
HETATM    7  O   UNL     1     -13.635  14.733  66.053  1.00  0.00     0.925 OA 
HETATM    8  C   UNL     1     -12.452  13.568  67.874  1.00  0.00     0.321 C  
HETATM    9  N   UNL     1     -10.998  13.005  68.150  1.00  0.00    -0.234 N  
HETATM   10  C   UNL     1     -11.431  13.227  71.517  1.00  0.00     2.223 C  
HETATM   11  C   UNL     1     -10.496  12.328  69.251  1.00  0.00     0.191 C  
HETATM   12  C   UNL     1     -13.450  11.718  71.507  1.00  0.00     0.065 C  
HETATM   13  O   UNL     1      -9.383  12.518  69.721  1.00  0.00     1.701 OA 
HETATM   14  C   UNL     1     -11.461  11.220  69.605  1.00  0.00    -0.309 C  
HETATM   15  C   UNL     1     -10.909  11.882  67.297  1.00  0.00    -0.247 C  
HETATM   16  O   UNL     1      -9.731  11.060  67.311  1.00  0.00    -0.164 OA 
HETATM   17  H   UNL     1      -9.864  10.537  68.092  1.00  0.00     0.000 HD 
HETATM   18  C   UNL     1     -12.012  11.864  71.012  1.00  0.00     0.083 C  
HETATM   19  O   UNL     1     -11.942  11.183  68.080  1.00  0.00    -0.625 OA 
ENDROOT
BRANCH   8  20
HETATM   20  C   UNL     1     -13.024  14.584  68.843  1.00  0.00     1.311 C  
HETATM   21  C   UNL     1     -12.763  15.789  71.000  1.00  0.00    -0.453 C  
HETATM   22  C   UNL     1     -12.022  15.048  69.896  1.00  0.00    -0.374 C  
HETATM   23  C   UNL     1     -10.951  15.960  69.306  1.00  0.00    -0.293 C  
ENDBRANCH   8  20
BRANCH  14  24
HETATM   24  N   UNL     1     -11.454   9.795  69.840  1.00  0.00    -0.396 N  
HETATM   25  H   UNL     1     -10.912   9.241  69.176  1.00  0.00     0.000 HD 
HETATM   26  O   UNL     1     -12.722   9.597  71.736  1.00  0.00    -0.361 OA 
HETATM   27  C   UNL     1     -12.080   9.088  70.835  1.00  0.00    -0.198 C  
BRANCH  27  28
HETATM   28  C   UNL     1     -11.843   7.582  70.662  1.00  0.00    -0.205 C  
HETATM   29  C   UNL     1     -11.355   7.259  69.226  1.00  0.00     0.156 C  
HETATM   30  N   UNL     1      -9.888   7.250  69.079  1.00  0.00    -0.162 NA 
HETATM   31  C   UNL     1      -9.267   8.515  69.504  1.00  0.00    -0.150 C  
HETATM   32  C   UNL     1      -9.338   6.060  69.798  1.00  0.00    -0.149 C  
HETATM   33  C   UNL     1      -7.767   6.095  70.018  1.00  0.00    -0.097 C  
HETATM   34  C   UNL     1      -7.365   5.858  71.434  1.00  0.00    -0.084 A  
HETATM   35  C   UNL     1      -6.253   6.169  72.179  1.00  0.00    -0.042 A  
HETATM   36  N   UNL     1      -6.433   5.642  73.447  1.00  0.00    -0.069 NA 
HETATM   37  C   UNL     1      -7.644   4.984  73.527  1.00  0.00    -0.092 A  
HETATM   38  H   UNL     1      -5.766   5.728  74.213  1.00  0.00     0.000 HD 
HETATM   39  C   UNL     1      -8.307   4.297  74.548  1.00  0.00    -0.090 A  
HETATM   40  C   UNL     1      -9.591   3.800  74.252  1.00  0.00    -0.129 A  
HETATM   41  C   UNL     1     -10.228   4.088  73.043  1.00  0.00    -0.225 A  
HETATM   42  C   UNL     1      -9.575   4.877  72.098  1.00  0.00    -0.196 A  
HETATM   43  C   UNL     1      -8.244   5.200  72.308  1.00  0.00    -0.121 A  
HETATM   44  C   UNL     1     -10.272   5.649  71.027  1.00  0.00    -0.281 C  
HETATM   45  C   UNL     1     -10.895   6.927  71.674  1.00  0.00    -0.252 C  
ENDBRANCH  27  28
ENDBRANCH  14  24
TORSDOF 3
ENDMDL
MODEL      110
REMARK 921   NORMALIZED FREE ENERGY PREDICTED BY IDOCK:    7.04 KCAL/MOL
REMARK 922        TOTAL FREE ENERGY PREDICTED BY IDOCK:    7.21 KCAL/MOL
REMARK 923 INTER-LIGAND FREE ENERGY PREDICTED BY IDOCK:    5.43 KCAL/MOL
REMARK 924 INTRA-LIGAND FREE ENERGY PREDICTED BY IDOCK:    1.78 KCAL/MOL
REMARK 927      BINDING AFFINITY PREDICTED BY RF-SCORE:    0.00 PKD
ROOT
HETATM    1  C   UNL     1      -7.375   4.504  72.449  1.00  0.00    -0.081 C  
HETATM    2  C   UNL     1      -6.605   4.123  73.725  1.00  0.00    -0.052 C  
HETATM    3  C   UNL     1      -6.987   2.618  73.938  1.00  0.00    -0.035 C  
HETATM    4  C   UNL     1      -8.068   2.316  72.902  1.00  0.00    -0.054 C  
HETATM    5  N   UNL     1      -8.507   3.627  72.455  1.00  0.00    -0.084 N  
HETATM    6  C   UNL     1      -9.411   3.714  71.428  1.00  0.00    -0.157 C  
HETATM    7  O   UNL     1     -10.463   3.081  71.451  1.00  0.00     0.339 OA 
HETATM    8  C   UNL     1      -9.037   4.730  70.305  1.00  0.00    -0.115 C  
HETATM    9  N   UNL     1      -7.523   5.191  70.342  1.00  0.00    -0.065 N  
HETATM   10  C   UNL     1      -7.686   6.365  67.153  1.00  0.00    -0.100 C  
HETATM   11  C   UNL     1      -6.874   6.188  69.627  1.00  0.00    -0.065 C  
HETATM   12  C   UNL     1      -9.565   7.961  67.678  1.00  0.00    -0.183 C  
HETATM   13  O   UNL     1      -5.746   6.076  69.171  1.00  0.00    -0.017 OA 
HETATM   14  C   UNL     1      -7.709   7.445  69.705  1.00  0.00    -0.103 C  
HETATM   15  C   UNL     1      -7.412   5.870  71.577  1.00  0.00    -0.094 C  
HETATM   16  O   UNL     1      -6.173   6.495  71.945  1.00  0.00    -0.041 OA 
HETATM   17  H   UNL     1      -6.195   7.295  71.434  1.00  0.00     0.000 HD 
HETATM   18  C   UNL     1      -8.191   7.473  68.135  1.00  0.00    -0.125 C  
HETATM   19  O   UNL     1      -8.313   6.931  71.095  1.00  0.00    -0.118 OA 
ENDROOT
BRANCH   8  20
HETATM   20  C   UNL     1      -9.608   4.249  68.985  1.00  0.00    -0.240 C  
HETATM   21  C   UNL     1      -9.151   3.307  66.732  1.00  0.00    -0.186 C  
HETATM   22  C   UNL     1      -8.611   3.453  68.147  1.00  0.00    -0.117 C  
HETATM   23  C   UNL     1      -8.346   2.070  68.732  1.00  0.00    -0.079 C  
ENDBRANCH   8  20
BRANCH  14  24
HETATM   24  N   UNL     1      -7.563   8.837  70.062  1.00  0.00    -0.059 N  
HETATM   25  H   UNL     1      -6.767   9.058  70.661  1.00  0.00     0.000 HD 
HETATM   26  O   UNL     1      -9.309   9.821  68.955  1.00  0.00    -0.148 OA 
HETATM   27  C   UNL     1      -8.352   9.901  69.704  1.00  0.00    -0.172 C  
BRANCH  27  28
HETATM   28  C   UNL     1      -7.852  11.193  70.362  1.00  0.00     2.093 C  
HETATM   29  C   UNL     1      -6.312  11.168  70.534  1.00  0.00     0.070 C  
HETATM   30  N   UNL     1      -5.571  11.756  69.404  1.00  0.00    -0.058 NA 
HETATM   31  C   UNL     1      -5.903  11.122  68.117  1.00  0.00    -0.045 C  
HETATM   32  C   UNL     1      -5.793  13.235  69.399  1.00  0.00    -0.094 C  
HETATM   33  C   UNL     1      -5.346  13.960  68.060  1.00  0.00    -0.106 C  
HETATM   34  C   UNL     1      -6.409  14.828  67.477  1.00  0.00    -0.055 A  
HETATM   35  C   UNL     1      -6.668  15.311  66.217  1.00  0.00     2.990 A  
HETATM   36  N   UNL     1      -7.791  16.117  66.295  1.00  0.00    -0.179 NA 
HETATM   37  C   UNL     1      -8.255  16.170  67.594  1.00  0.00    -0.147 A  
HETATM   38  H   UNL     1      -8.215  16.603  65.506  1.00  0.00     0.000 HD 
HETATM   39  C   UNL     1      -9.332  16.813  68.212  1.00  0.00    -0.230 A  
HETATM   40  C   UNL     1      -9.516  16.568  69.587  1.00  0.00     0.206 A  
HETATM   41  C   UNL     1      -8.744  15.630  70.274  1.00  0.00     0.978 A  
HETATM   42  C   UNL     1      -7.757  14.924  69.590  1.00  0.00    -0.072 A  
HETATM   43  C   UNL     1      -7.448  15.303  68.293  1.00  0.00    -0.112 A  
HETATM   44  C   UNL     1      -7.212  13.605  70.030  1.00  0.00     0.693 C  
HETATM   45  C   UNL     1      -8.260  12.502  69.674  1.00  0.00     1.644 C  
ENDBRANCH  27  28
ENDBRANCH  14  24
TORSDOF 3
ENDMDL
MODEL      111
REMARK 921   NORMALIZED FREE ENERGY PREDICTED BY IDOCK:    7.13 KCAL/MOL
REMARK 922        TOTAL FREE ENERGY PREDICTED BY IDOCK:    7.31 KCAL/MOL
REMARK 923 INTER-LIGAND FREE ENERGY PREDICTED BY IDOCK:    6.57 KCAL/MOL
REMARK 924 INTRA-LIGAND FREE ENERGY PREDICTED BY IDOCK:    0.74 KCAL/MOL
REMARK 927      BINDING AFFINITY PREDICTED BY RF-SCORE:    0.00 PKD
ROOT
HETATM    1  C   UNL     1     -11.722  14.168  65.192  1.00  0.00    -0.361 C  
HETATM    2  C   UNL     1     -12.421  14.530  63.871  1.00  0.00     0.048 C  
HETATM    3  C   UNL     1     -13.539  15.532  64.322  1.00  0.00     2.818 C  
HETATM    4  C   UNL     1     -13.515  15.520  65.850  1.00  0.00     3.215 C  
HETATM    5  N   UNL     1     -12.744  14.333  66.182  1.00  0.00    -0.293 N  
HETATM    6  C   UNL     1     -12.437  14.083  67.493  1.00  0.00     0.124 C  
HETATM    7  O   UNL     1     -13.305  14.081  68.362  1.00  0.00     2.399 OA 
HETATM    8  C   UNL     1     -10.942  13.720  67.762  1.00  0.00    -0.256 C  
HETATM    9  N   UNL     1      -9.975  14.077  66.561  1.00  0.00    -0.276 N  
HETATM   10  C   UNL     1      -7.231  13.860  68.562  1.00  0.00    -0.107 C  
HETATM   11  C   UNL     1      -8.639  13.760  66.366  1.00  0.00     0.377 C  
HETATM   12  C   UNL     1      -7.707  11.470  69.208  1.00  0.00     0.105 C  
HETATM   13  O   UNL     1      -7.816  14.530  65.892  1.00  0.00     1.801 OA 
HETATM   14  C   UNL     1      -8.458  12.285  66.640  1.00  0.00    -0.056 C  
HETATM   15  C   UNL     1     -10.427  13.246  65.512  1.00  0.00    -0.288 C  
HETATM   16  O   UNL     1      -9.741  13.245  64.250  1.00  0.00    -0.661 OA 
HETATM   17  H   UNL     1      -8.983  12.705  64.437  1.00  0.00     0.000 HD 
HETATM   18  C   UNL     1      -7.592  12.435  68.027  1.00  0.00    -0.128 C  
HETATM   19  O   UNL     1      -9.992  12.048  66.249  1.00  0.00    -0.216 OA 
ENDROOT
BRANCH   8  20
HETATM   20  C   UNL     1     -10.559  14.182  69.155  1.00  0.00    -0.176 C  
HETATM   21  C   UNL     1      -9.125  15.663  70.542  1.00  0.00     1.394 C  
HETATM   22  C   UNL     1      -9.736  15.467  69.162  1.00  0.00    -0.252 C  
HETATM   23  C   UNL     1     -10.576  16.688  68.803  1.00  0.00    -0.340 C  
ENDBRANCH   8  20
BRANCH  14  24
HETATM   24  N   UNL     1      -7.913  11.110  66.000  1.00  0.00    -0.325 N  
HETATM   25  H   UNL     1      -7.365  11.281  65.156  1.00  0.00     0.000 HD 
HETATM   26  O   UNL     1      -8.608   9.423  67.383  1.00  0.00    -0.124 OA 
HETATM   27  C   UNL     1      -8.034   9.796  66.375  1.00  0.00    -0.109 C  
BRANCH  27  28
HETATM   28  C   UNL     1      -7.336   8.877  65.365  1.00  0.00    -0.085 C  
HETATM   29  C   UNL     1      -5.903   8.520  65.837  1.00  0.00    -0.047 C  
HETATM   30  N   UNL     1      -5.824   7.284  66.636  1.00  0.00    -0.033 NA 
HETATM   31  C   UNL     1      -6.706   7.312  67.815  1.00  0.00    -0.065 C  
HETATM   32  C   UNL     1      -6.085   6.114  65.741  1.00  0.00    -0.033 C  
HETATM   33  C   UNL     1      -6.368   4.754  66.507  1.00  0.00    -0.040 C  
HETATM   34  C   UNL     1      -7.618   4.074  66.058  1.00  0.00    -0.089 A  
HETATM   35  C   UNL     1      -8.471   3.162  66.630  1.00  0.00    -0.108 A  
HETATM   36  N   UNL     1      -9.452   2.860  65.701  1.00  0.00    -0.347 NA 
HETATM   37  C   UNL     1      -9.237   3.559  64.530  1.00  0.00    -0.136 A  
HETATM   38  H   UNL     1     -10.225   2.213  65.859  1.00  0.00     0.000 HD 
HETATM   39  C   UNL     1      -9.910   3.629  63.307  1.00  0.00    -0.149 A  
HETATM   40  C   UNL     1      -9.401   4.528  62.350  1.00  0.00    -0.119 A  
HETATM   41  C   UNL     1      -8.353   5.401  62.649  1.00  0.00    -0.112 A  
HETATM   42  C   UNL     1      -7.787   5.378  63.922  1.00  0.00    -0.097 A  
HETATM   43  C   UNL     1      -8.156   4.366  64.795  1.00  0.00    -0.099 A  
HETATM   44  C   UNL     1      -7.041   6.521  64.528  1.00  0.00    -0.060 C  
HETATM   45  C   UNL     1      -8.081   7.585  65.001  1.00  0.00    -0.127 C  
ENDBRANCH  27  28
ENDBRANCH  14  24
TORSDOF 3
ENDMDL
MODEL      112
REMARK 921   NORMALIZED FREE ENERGY PREDICTED BY IDOCK:   11.23 KCAL/MOL
REMARK 922        TOTAL FREE ENERGY PREDICTED BY IDOCK:   12.13 KCAL/MOL
REMARK 923 INTER-LIGAND FREE ENERGY PREDICTED BY IDOCK:    2.11 KCAL/MOL
REMARK 924 INTRA-LIGAND FREE ENERGY PREDICTED BY IDOCK:   10.02 KCAL/MOL
REMARK 927      BINDING AFFINITY PREDICTED BY RF-SCORE:    0.00 PKD
ROOT
HETATM    1  C   UNL     1      -9.603   5.582  68.280  1.00  0.00    -0.120 C  
HETATM    2  C   UNL     1      -9.996   5.797  69.751  1.00  0.00    -0.250 C  
HETATM    3  C   UNL     1     -10.357   4.351  70.239  1.00  0.00     0.150 C  
HETATM    4  C   UNL     1     -10.326   3.473  68.989  1.00  0.00     1.439 C  
HETATM    5  N   UNL     1     -10.347   4.423  67.889  1.00  0.00     0.172 N  
HETATM    6  C   UNL     1     -10.217   3.959  66.606  1.00  0.00     0.410 C  
HETATM    7  O   UNL     1     -10.928   3.053  66.181  1.00  0.00     3.046 OA 
HETATM    8  C   UNL     1      -9.179   4.727  65.730  1.00  0.00    -0.149 C  
HETATM    9  N   UNL     1      -8.191   5.639  66.566  1.00  0.00    -0.105 N  
HETATM   10  C   UNL     1      -6.016   5.865  63.960  1.00  0.00    -0.025 C  
HETATM   11  C   UNL     1      -7.263   6.577  66.139  1.00  0.00    -0.072 C  
HETATM   12  C   UNL     1      -7.739   6.861  62.414  1.00  0.00    -0.106 C  
HETATM   13  O   UNL     1      -6.156   6.719  66.638  1.00  0.00    -0.033 OA 
HETATM   14  C   UNL     1      -7.935   7.483  65.134  1.00  0.00    -0.128 C  
HETATM   15  C   UNL     1      -9.042   6.603  67.152  1.00  0.00    -0.128 C  
HETATM   16  O   UNL     1      -8.489   7.659  67.952  1.00  0.00    -0.122 OA 
HETATM   17  H   UNL     1      -8.160   8.257  67.291  1.00  0.00     0.000 HD 
HETATM   18  C   UNL     1      -7.118   6.964  63.807  1.00  0.00    -0.061 C  
HETATM   19  O   UNL     1      -9.344   7.168  65.825  1.00  0.00     0.030 OA 
ENDROOT
BRANCH   8  20
HETATM   20  C   UNL     1      -8.587   3.777  64.708  1.00  0.00    -0.109 C  
HETATM   21  C   UNL     1      -6.929   3.435  62.889  1.00  0.00    -0.036 C  
HETATM   22  C   UNL     1      -7.266   4.266  64.119  1.00  0.00    -0.054 C  
HETATM   23  C   UNL     1      -6.122   4.171  65.122  1.00  0.00    -0.023 C  
ENDBRANCH   8  20
BRANCH  14  24
HETATM   24  N   UNL     1      -8.148   8.892  64.898  1.00  0.00    -0.135 N  
HETATM   25  H   UNL     1      -9.123   9.184  64.817  1.00  0.00     0.000 HD 
HETATM   26  O   UNL     1      -6.015   9.722  64.889  1.00  0.00    -0.075 OA 
HETATM   27  C   UNL     1      -7.215   9.889  64.768  1.00  0.00    -0.136 C  
BRANCH  27  28
HETATM   28  C   UNL     1      -7.894  11.232  64.468  1.00  0.00     0.930 C  
HETATM   29  C   UNL     1      -9.131  11.037  63.555  1.00  0.00    -0.167 C  
HETATM   30  N   UNL     1     -10.395  10.849  64.289  1.00  0.00    -0.363 NA 
HETATM   31  C   UNL     1     -10.339   9.724  65.238  1.00  0.00     0.297 C  
HETATM   32  C   UNL     1     -10.772  12.141  64.939  1.00  0.00    -0.295 C  
HETATM   33  C   UNL     1     -11.916  12.016  66.032  1.00  0.00    -0.110 C  
HETATM   34  C   UNL     1     -11.555  12.643  67.336  1.00  0.00    -0.421 A  
HETATM   35  C   UNL     1     -11.978  12.470  68.632  1.00  0.00    -0.224 A  
HETATM   36  N   UNL     1     -11.301  13.384  69.423  1.00  0.00    -0.381 NA 
HETATM   37  C   UNL     1     -10.455  14.154  68.651  1.00  0.00    -0.250 A  
HETATM   38  H   UNL     1     -11.413  13.475  70.432  1.00  0.00     0.000 HD 
HETATM   39  C   UNL     1      -9.561  15.191  68.934  1.00  0.00    -0.223 A  
HETATM   40  C   UNL     1      -8.811  15.698  67.856  1.00  0.00    -0.171 A  
HETATM   41  C   UNL     1      -8.860  15.113  66.589  1.00  0.00    -0.321 A  
HETATM   42  C   UNL     1      -9.678  14.004  66.380  1.00  0.00    -0.309 A  
HETATM   43  C   UNL     1     -10.557  13.629  67.384  1.00  0.00    -0.260 A  
HETATM   44  C   UNL     1      -9.478  13.010  65.284  1.00  0.00     0.266 C  
HETATM   45  C   UNL     1      -8.297  12.071  65.688  1.00  0.00     0.733 C  
ENDBRANCH  27  28
ENDBRANCH  14  24
TORSDOF 3
ENDMDL
MODEL      113
REMARK 921   NORMALIZED FREE ENERGY PREDICTED BY IDOCK:   11.97 KCAL/MOL
REMARK 922        TOTAL FREE ENERGY PREDICTED BY IDOCK:   13.01 KCAL/MOL
REMARK 923 INTER-LIGAND FREE ENERGY PREDICTED BY IDOCK:    9.49 KCAL/MOL
REMARK 924 INTRA-LIGAND FREE ENERGY PREDICTED BY IDOCK:    3.52 KCAL/MOL
REMARK 927      BINDING AFFINITY PREDICTED BY RF-SCORE:    0.00 PKD
ROOT
HETATM    1  C   UNL     1     -12.035  10.017  71.455  1.00  0.00    -0.353 C  
HETATM    2  C   UNL     1     -12.668   8.848  72.229  1.00  0.00    -0.464 C  
HETATM    3  C   UNL     1     -13.704   9.559  73.166  1.00  0.00     0.805 C  
HETATM    4  C   UNL     1     -13.455  11.057  72.996  1.00  0.00     2.692 C  
HETATM    5  N   UNL     1     -12.156  11.129  72.349  1.00  0.00     1.868 N  
HETATM    6  C   UNL     1     -11.677  12.349  71.950  1.00  0.00     2.885 C  
HETATM    7  O   UNL     1     -11.636  13.302  72.723  1.00  0.00     2.850 OA 
HETATM    8  C   UNL     1     -11.118  12.393  70.493  1.00  0.00     1.514 C  
HETATM    9  N   UNL     1     -11.548  11.152  69.609  1.00  0.00    -0.295 N  
HETATM   10  C   UNL     1     -10.733  12.777  66.733  1.00  0.00    -0.278 C  
HETATM   11  C   UNL     1     -11.122  10.763  68.347  1.00  0.00    -0.266 C  
HETATM   12  C   UNL     1      -8.338  13.131  67.435  1.00  0.00    -0.188 C  
HETATM   13  O   UNL     1     -11.863  10.312  67.486  1.00  0.00     0.078 OA 
HETATM   14  C   UNL     1      -9.612  10.805  68.325  1.00  0.00    -0.166 C  
HETATM   15  C   UNL     1     -10.941  10.054  70.259  1.00  0.00    -0.316 C  
HETATM   16  O   UNL     1     -11.059   8.735  69.704  1.00  0.00    -0.403 OA 
HETATM   17  H   UNL     1     -10.418   8.757  69.004  1.00  0.00     0.000 HD 
HETATM   18  C   UNL     1      -9.453  12.092  67.317  1.00  0.00    -0.184 C  
HETATM   19  O   UNL     1      -9.604  10.562  69.906  1.00  0.00    -0.057 OA 
ENDROOT
BRANCH   8  20
HETATM   20  C   UNL     1     -11.318  13.784  69.923  1.00  0.00    -0.150 C  
HETATM   21  C   UNL     1     -12.797  15.330  68.660  1.00  0.00     1.135 C  
HETATM   22  C   UNL     1     -12.760  14.069  69.512  1.00  0.00     0.218 C  
HETATM   23  C   UNL     1     -13.676  14.247  70.718  1.00  0.00     0.124 C  
ENDBRANCH   8  20
BRANCH  14  24
HETATM   24  N   UNL     1      -8.497   9.949  67.993  1.00  0.00    -0.117 N  
HETATM   25  H   UNL     1      -8.540   9.001  68.369  1.00  0.00     0.000 HD 
HETATM   26  O   UNL     1      -7.203  11.304  66.678  1.00  0.00    -0.138 OA 
HETATM   27  C   UNL     1      -7.387  10.240  67.241  1.00  0.00    -0.090 C  
BRANCH  27  28
HETATM   28  C   UNL     1      -6.430   9.042  67.198  1.00  0.00    -0.061 C  
HETATM   29  C   UNL     1      -5.589   8.957  68.497  1.00  0.00    -0.038 C  
HETATM   30  N   UNL     1      -6.190   8.117  69.548  1.00  0.00    -0.033 NA 
HETATM   31  C   UNL     1      -7.553   8.545  69.907  1.00  0.00    -0.071 C  
HETATM   32  C   UNL     1      -6.124   6.686  69.120  1.00  0.00    -0.026 C  
HETATM   33  C   UNL     1      -7.025   5.702  69.979  1.00  0.00    -0.065 C  
HETATM   34  C   UNL     1      -7.919   4.846  69.147  1.00  0.00    -0.075 A  
HETATM   35  C   UNL     1      -9.096   4.177  69.383  1.00  0.00    -0.126 A  
HETATM   36  N   UNL     1      -9.438   3.502  68.223  1.00  0.00    -0.171 NA 
HETATM   37  C   UNL     1      -8.490   3.717  67.244  1.00  0.00    -0.100 A  
HETATM   38  H   UNL     1     -10.272   2.927  68.109  1.00  0.00     0.000 HD 
HETATM   39  C   UNL     1      -8.352   3.291  65.920  1.00  0.00    -0.103 A  
HETATM   40  C   UNL     1      -7.245   3.786  65.203  1.00  0.00    -0.067 A  
HETATM   41  C   UNL     1      -6.397   4.756  65.742  1.00  0.00    -0.039 A  
HETATM   42  C   UNL     1      -6.642   5.240  67.025  1.00  0.00    -0.053 A  
HETATM   43  C   UNL     1      -7.608   4.615  67.798  1.00  0.00    -0.078 A  
HETATM   44  C   UNL     1      -6.159   6.561  67.528  1.00  0.00    -0.024 C  
HETATM   45  C   UNL     1      -7.072   7.675  66.925  1.00  0.00    -0.084 C  
ENDBRANCH  27  28
ENDBRANCH  14  24
TORSDOF 3
ENDMDL
MODEL      114
REMARK 921   NORMALIZED FREE ENERGY PREDICTED BY IDOCK:   12.98 KCAL/MOL
REMARK 922        TOTAL FREE ENERGY PREDICTED BY IDOCK:   14.19 KCAL/MOL
REMARK 923 INTER-LIGAND FREE ENERGY PREDICTED BY IDOCK:   11.39 KCAL/MOL
REMARK 924 INTRA-LIGAND FREE ENERGY PREDICTED BY IDOCK:    2.79 KCAL/MOL
REMARK 927      BINDING AFFINITY PREDICTED BY RF-SCORE:    0.00 PKD
ROOT
HETATM    1  C   UNL     1      -8.088  18.163  69.896  1.00  0.00     1.488 C  
HETATM    2  C   UNL     1      -7.174  18.476  71.093  1.00  0.00     3.819 C  
HETATM    3  C   UNL     1      -7.276  20.035  71.222  1.00  0.00     0.978 C  
HETATM    4  C   UNL     1      -8.070  20.500  70.003  1.00  0.00     1.682 C  
HETATM    5  N   UNL     1      -8.044  19.357  69.106  1.00  0.00    -0.261 N  
HETATM    6  C   UNL     1      -8.769  19.405  67.945  1.00  0.00    -0.317 C  
HETATM    7  O   UNL     1      -8.664  20.348  67.166  1.00  0.00    -0.340 OA 
HETATM    8  C   UNL     1      -9.646  18.144  67.663  1.00  0.00    -0.278 C  
HETATM    9  N   UNL     1      -9.848  17.214  68.928  1.00  0.00    -0.279 N  
HETATM   10  C   UNL     1     -12.490  15.632  67.482  1.00  0.00     1.417 C  
HETATM   11  C   UNL     1     -10.411  15.950  69.027  1.00  0.00    -0.231 C  
HETATM   12  C   UNL     1     -11.141  14.878  65.491  1.00  0.00    -0.353 C  
HETATM   13  O   UNL     1     -11.133  15.594  69.947  1.00  0.00    -0.262 OA 
HETATM   14  C   UNL     1      -9.814  15.080  67.945  1.00  0.00    -0.217 C  
HETATM   15  C   UNL     1      -8.541  16.761  69.220  1.00  0.00     0.033 C  
HETATM   16  O   UNL     1      -8.326  15.829  70.291  1.00  0.00     0.554 OA 
HETATM   17  H   UNL     1      -8.591  15.008  69.895  1.00  0.00     0.000 HD 
HETATM   18  C   UNL     1     -11.163  14.946  67.018  1.00  0.00    -0.344 C  
HETATM   19  O   UNL     1      -8.504  15.999  67.960  1.00  0.00    -0.161 OA 
ENDROOT
BRANCH   8  20
HETATM   20  C   UNL     1     -10.871  18.554  66.871  1.00  0.00    -0.208 C  
HETATM   21  C   UNL     1     -11.774  19.447  64.735  1.00  0.00     3.806 C  
HETATM   22  C   UNL     1     -10.600  18.724  65.379  1.00  0.00     0.196 C  
HETATM   23  C   UNL     1     -10.385  17.386  64.679  1.00  0.00     2.084 C  
ENDBRANCH   8  20
BRANCH  14  24
HETATM   24  N   UNL     1      -9.152  13.804  67.805  1.00  0.00    -0.184 N  
HETATM   25  H   UNL     1      -8.600  13.502  68.608  1.00  0.00     0.000 HD 
HETATM   26  O   UNL     1      -9.814  13.126  65.721  1.00  0.00    -0.269 OA 
HETATM   27  C   UNL     1      -9.166  12.944  66.736  1.00  0.00    -0.230 C  
BRANCH  27  28
HETATM   28  C   UNL     1      -8.273  11.727  67.006  1.00  0.00    -0.172 C  
HETATM   29  C   UNL     1      -7.849  11.670  68.497  1.00  0.00    -0.140 C  
HETATM   30  N   UNL     1      -8.754  10.877  69.348  1.00  0.00     0.030 NA 
HETATM   31  C   UNL     1     -10.150  11.343  69.281  1.00  0.00     0.070 C  
HETATM   32  C   UNL     1      -8.606   9.432  68.995  1.00  0.00    -0.135 C  
HETATM   33  C   UNL     1      -9.745   8.494  69.579  1.00  0.00    -0.176 C  
HETATM   34  C   UNL     1     -10.381   7.627  68.545  1.00  0.00    -0.225 A  
HETATM   35  C   UNL     1     -11.594   6.989  68.444  1.00  0.00     0.669 A  
HETATM   36  N   UNL     1     -11.601   6.282  67.253  1.00  0.00    -0.523 NA 
HETATM   37  C   UNL     1     -10.403   6.447  66.588  1.00  0.00    -0.155 A  
HETATM   38  H   UNL     1     -12.382   5.719  66.915  1.00  0.00     0.000 HD 
HETATM   39  C   UNL     1      -9.896   5.974  65.375  1.00  0.00     0.702 A  
HETATM   40  C   UNL     1      -8.615   6.424  65.000  1.00  0.00     0.030 A  
HETATM   41  C   UNL     1      -7.935   7.395  65.738  1.00  0.00    -0.118 A  
HETATM   42  C   UNL     1      -8.530   7.927  66.880  1.00  0.00    -0.128 A  
HETATM   43  C   UNL     1      -9.696   7.346  67.353  1.00  0.00    -0.196 A  
HETATM   44  C   UNL     1      -8.179   9.254  67.467  1.00  0.00    -0.114 C  
HETATM   45  C   UNL     1      -8.845  10.365  66.594  1.00  0.00    -0.144 C  
ENDBRANCH  27  28
ENDBRANCH  14  24
TORSDOF 3
ENDMDL
MODEL      115
REMARK 921   NORMALIZED FREE ENERGY PREDICTED BY IDOCK:   13.39 KCAL/MOL
REMARK 922        TOTAL FREE ENERGY PREDICTED BY IDOCK:   14.67 KCAL/MOL
REMARK 923 INTER-LIGAND FREE ENERGY PREDICTED BY IDOCK:   10.29 KCAL/MOL
REMARK 924 INTRA-LIGAND FREE ENERGY PREDICTED BY IDOCK:    4.38 KCAL/MOL
REMARK 927      BINDING AFFINITY PREDICTED BY RF-SCORE:    0.00 PKD
ROOT
HETATM    1  C   UNL     1     -11.328  12.600  70.978  1.00  0.00     2.084 C  
HETATM    2  C   UNL     1     -10.792  14.041  70.928  1.00  0.00     1.458 C  
HETATM    3  C   UNL     1     -11.330  14.669  72.260  1.00  0.00     0.456 C  
HETATM    4  C   UNL     1     -12.266  13.623  72.862  1.00  0.00     0.931 C  
HETATM    5  N   UNL     1     -12.519  12.702  71.766  1.00  0.00     0.029 N  
HETATM    6  C   UNL     1     -13.250  11.567  72.005  1.00  0.00    -0.337 C  
HETATM    7  O   UNL     1     -14.344  11.618  72.559  1.00  0.00     0.698 OA 
HETATM    8  C   UNL     1     -12.626  10.252  71.440  1.00  0.00    -0.434 C  
HETATM    9  N   UNL     1     -11.101  10.391  71.040  1.00  0.00    -0.068 N  
HETATM   10  C   UNL     1     -10.686   7.014  71.010  1.00  0.00    -0.256 C  
HETATM   11  C   UNL     1     -10.270   9.509  70.365  1.00  0.00    -0.279 C  
HETATM   12  C   UNL     1     -12.479   6.659  69.274  1.00  0.00     2.308 C  
HETATM   13  O   UNL     1      -9.100   9.312  70.659  1.00  0.00    -0.226 OA 
HETATM   14  C   UNL     1     -10.996   9.027  69.130  1.00  0.00    -0.001 C  
HETATM   15  C   UNL     1     -11.118  11.334  69.988  1.00  0.00    -0.037 C  
HETATM   16  O   UNL     1      -9.898  11.680  69.313  1.00  0.00    -0.405 OA 
HETATM   17  H   UNL     1      -9.775  10.939  68.733  1.00  0.00     0.000 HD 
HETATM   18  C   UNL     1     -11.235   7.477  69.620  1.00  0.00    -0.023 C  
HETATM   19  O   UNL     1     -11.842  10.385  69.125  1.00  0.00    -0.186 OA 
ENDROOT
BRANCH   8  20
HETATM   20  C   UNL     1     -13.034   9.088  72.322  1.00  0.00    -0.490 C  
HETATM   21  C   UNL     1     -12.509   6.798  73.131  1.00  0.00     1.489 C  
HETATM   22  C   UNL     1     -11.919   8.067  72.531  1.00  0.00    -0.384 C  
HETATM   23  C   UNL     1     -10.821   8.596  73.446  1.00  0.00     1.737 C  
ENDBRANCH   8  20
BRANCH  14  24
HETATM   24  N   UNL     1     -10.786   8.926  67.705  1.00  0.00    -0.487 N  
HETATM   25  H   UNL     1     -10.317   8.077  67.387  1.00  0.00     0.000 HD 
HETATM   26  O   UNL     1     -11.744  10.853  66.923  1.00  0.00    -0.255 OA 
HETATM   27  C   UNL     1     -11.134   9.818  66.722  1.00  0.00     0.298 C  
BRANCH  27  28
HETATM   28  C   UNL     1     -10.663   9.323  65.349  1.00  0.00     2.038 C  
HETATM   29  C   UNL     1      -9.969  10.462  64.557  1.00  0.00    -0.331 C  
HETATM   30  N   UNL     1      -8.510  10.527  64.753  1.00  0.00    -0.170 NA 
HETATM   31  C   UNL     1      -8.132  10.653  66.171  1.00  0.00    -0.154 C  
HETATM   32  C   UNL     1      -7.881   9.346  64.086  1.00  0.00    -0.124 C  
HETATM   33  C   UNL     1      -6.367   9.094  64.491  1.00  0.00    -0.075 C  
HETATM   34  C   UNL     1      -6.102   7.695  64.935  1.00  0.00    -0.038 A  
HETATM   35  C   UNL     1      -5.141   7.105  65.721  1.00  0.00    -0.024 A  
HETATM   36  N   UNL     1      -5.389   5.742  65.739  1.00  0.00    -0.009 NA 
HETATM   37  C   UNL     1      -6.492   5.444  64.966  1.00  0.00    -0.039 A  
HETATM   38  H   UNL     1      -4.834   5.057  66.252  1.00  0.00     0.000 HD 
HETATM   39  C   UNL     1      -7.163   4.258  64.653  1.00  0.00    -0.070 A  
HETATM   40  C   UNL     1      -8.318   4.370  63.856  1.00  0.00    -0.108 A  
HETATM   41  C   UNL     1      -8.845   5.613  63.500  1.00  0.00     0.311 A  
HETATM   42  C   UNL     1      -8.209   6.774  63.933  1.00  0.00     0.081 A  
HETATM   43  C   UNL     1      -6.972   6.663  64.549  1.00  0.00    -0.054 A  
HETATM   44  C   UNL     1      -8.881   8.102  64.056  1.00  0.00     0.544 C  
HETATM   45  C   UNL     1      -9.753   8.087  65.352  1.00  0.00     0.888 C  
ENDBRANCH  27  28
ENDBRANCH  14  24
TORSDOF 3
ENDMDL
MODEL      116
REMARK 921   NORMALIZED FREE ENERGY PREDICTED BY IDOCK:   13.50 KCAL/MOL
REMARK 922        TOTAL FREE ENERGY PREDICTED BY IDOCK:   14.80 KCAL/MOL
REMARK 923 INTER-LIGAND FREE ENERGY PREDICTED BY IDOCK:   15.40 KCAL/MOL
REMARK 924 INTRA-LIGAND FREE ENERGY PREDICTED BY IDOCK:   -0.60 KCAL/MOL
REMARK 927      BINDING AFFINITY PREDICTED BY RF-SCORE:    0.00 PKD
ROOT
HETATM    1  C   UNL     1     -11.391  10.406  70.940  1.00  0.00    -0.223 C  
HETATM    2  C   UNL     1     -11.928  10.980  72.261  1.00  0.00     2.142 C  
HETATM    3  C   UNL     1     -13.143  10.045  72.589  1.00  0.00     0.196 C  
HETATM    4  C   UNL     1     -13.318   9.150  71.364  1.00  0.00    -0.302 C  
HETATM    5  N   UNL     1     -12.540   9.810  70.329  1.00  0.00     0.078 N  
HETATM    6  C   UNL     1     -12.397   9.198  69.111  1.00  0.00     2.382 C  
HETATM    7  O   UNL     1     -13.370   8.789  68.484  1.00  0.00     8.394 OA 
HETATM    8  C   UNL     1     -10.935   9.153  68.566  1.00  0.00     0.052 C  
HETATM    9  N   UNL     1      -9.836   9.463  69.663  1.00  0.00    -0.182 N  
HETATM   10  C   UNL     1      -7.372   8.132  67.731  1.00  0.00    -0.093 C  
HETATM   11  C   UNL     1      -8.472   9.675  69.526  1.00  0.00    -0.159 C  
HETATM   12  C   UNL     1      -7.811   9.713  65.818  1.00  0.00    -0.106 C  
HETATM   13  O   UNL     1      -7.633   9.243  70.303  1.00  0.00    -0.089 OA 
HETATM   14  C   UNL     1      -8.257  10.669  68.408  1.00  0.00    -0.125 C  
HETATM   15  C   UNL     1     -10.105  10.800  70.033  1.00  0.00     0.380 C  
HETATM   16  O   UNL     1      -9.261  11.466  70.985  1.00  0.00     4.425 OA 
HETATM   17  H   UNL     1      -8.508  11.697  70.454  1.00  0.00     0.000 HD 
HETATM   18  C   UNL     1      -7.590   9.628  67.328  1.00  0.00    -0.091 C  
HETATM   19  O   UNL     1      -9.713  11.270  68.693  1.00  0.00    -0.196 OA 
ENDROOT
BRANCH   8  20
HETATM   20  C   UNL     1     -10.761   7.916  67.706  1.00  0.00    -0.189 C  
HETATM   21  C   UNL     1      -9.670   5.701  67.431  1.00  0.00    -0.138 C  
HETATM   22  C   UNL     1     -10.102   6.753  68.442  1.00  0.00    -0.168 C  
HETATM   23  C   UNL     1     -11.037   6.119  69.465  1.00  0.00    -0.490 C  
ENDBRANCH   8  20
BRANCH  14  24
HETATM   24  N   UNL     1      -7.576  11.920  68.171  1.00  0.00    -0.113 N  
HETATM   25  H   UNL     1      -7.507  12.207  67.194  1.00  0.00     0.000 HD 
HETATM   26  O   UNL     1      -7.049  12.610  70.290  1.00  0.00     0.719 OA 
HETATM   27  C   UNL     1      -7.010  12.774  69.083  1.00  0.00    -0.015 C  
BRANCH  27  28
HETATM   28  C   UNL     1      -6.343  13.961  68.375  1.00  0.00    -0.104 C  
HETATM   29  C   UNL     1      -6.681  13.965  66.862  1.00  0.00     1.252 C  
HETATM   30  N   UNL     1      -7.876  14.755  66.516  1.00  0.00     0.414 NA 
HETATM   31  C   UNL     1      -9.074  14.326  67.256  1.00  0.00    -0.215 C  
HETATM   32  C   UNL     1      -7.565  16.206  66.702  1.00  0.00    -0.203 C  
HETATM   33  C   UNL     1      -8.837  17.155  66.697  1.00  0.00    -0.279 C  
HETATM   34  C   UNL     1      -8.897  18.066  67.876  1.00  0.00    -0.269 A  
HETATM   35  C   UNL     1      -9.910  18.736  68.519  1.00  0.00    -0.396 A  
HETATM   36  N   UNL     1      -9.343  19.477  69.543  1.00  0.00    -0.007 NA 
HETATM   37  C   UNL     1      -7.974  19.302  69.562  1.00  0.00     0.170 A  
HETATM   38  H   UNL     1      -9.863  20.068  70.190  1.00  0.00     0.000 HD 
HETATM   39  C   UNL     1      -6.946  19.796  70.370  1.00  0.00     0.202 A  
HETATM   40  C   UNL     1      -5.645  19.325  70.106  1.00  0.00    -0.259 A  
HETATM   41  C   UNL     1      -5.407  18.317  69.170  1.00  0.00    -0.194 A  
HETATM   42  C   UNL     1      -6.478  17.768  68.470  1.00  0.00    -0.209 A  
HETATM   43  C   UNL     1      -7.724  18.364  68.588  1.00  0.00    -0.321 A  
HETATM   44  C   UNL     1      -6.460  16.417  67.835  1.00  0.00    -0.150 C  
HETATM   45  C   UNL     1      -6.639  15.348  68.960  1.00  0.00    -0.123 C  
ENDBRANCH  27  28
ENDBRANCH  14  24
TORSDOF 3
ENDMDL
MODEL      117
REMARK 921   NORMALIZED FREE ENERGY PREDICTED BY IDOCK:   14.24 KCAL/MOL
REMARK 922        TOTAL FREE ENERGY PREDICTED BY IDOCK:   15.67 KCAL/MOL
REMARK 923 INTER-LIGAND FREE ENERGY PREDICTED BY IDOCK:   15.24 KCAL/MOL
REMARK 924 INTRA-LIGAND FREE ENERGY PREDICTED BY IDOCK:    0.44 KCAL/MOL
REMARK 927      BINDING AFFINITY PREDICTED BY RF-SCORE:    0.00 PKD
ROOT
HETATM    1  C   UNL     1     -10.914   7.432  66.591  1.00  0.00     0.415 C  
HETATM    2  C   UNL     1     -11.490   6.813  65.307  1.00  0.00     6.817 C  
HETATM    3  C   UNL     1     -11.324   5.273  65.547  1.00  0.00     0.920 C  
HETATM    4  C   UNL     1     -10.512   5.141  66.835  1.00  0.00    -0.223 C  
HETATM    5  N   UNL     1      -9.956   6.468  67.041  1.00  0.00    -0.154 N  
HETATM    6  C   UNL     1      -9.252   6.724  68.188  1.00  0.00    -0.121 C  
HETATM    7  O   UNL     1      -8.329   5.997  68.546  1.00  0.00    -0.112 OA 
HETATM    8  C   UNL     1      -9.655   8.038  68.928  1.00  0.00    -0.152 C  
HETATM    9  N   UNL     1     -11.043   8.636  68.454  1.00  0.00     0.213 N  
HETATM   10  C   UNL     1     -11.274  10.591  71.229  1.00  0.00     0.400 C  
HETATM   11  C   UNL     1     -11.640   9.851  68.753  1.00  0.00     0.209 C  
HETATM   12  C   UNL     1      -9.099  11.774  70.760  1.00  0.00     7.203 C  
HETATM   13  O   UNL     1     -12.836   9.990  68.966  1.00  0.00     0.951 OA 
HETATM   14  C   UNL     1     -10.614  10.943  68.561  1.00  0.00    -0.190 C  
HETATM   15  C   UNL     1     -10.816   8.969  67.100  1.00  0.00    -0.009 C  
HETATM   16  O   UNL     1     -11.850   9.605  66.333  1.00  0.00     2.004 OA 
HETATM   17  H   UNL     1     -11.792  10.505  66.631  1.00  0.00     0.000 HD 
HETATM   18  C   UNL     1     -10.427  11.335  70.145  1.00  0.00     0.794 C  
HETATM   19  O   UNL     1      -9.858  10.015  67.499  1.00  0.00    -0.164 OA 
ENDROOT
BRANCH   8  20
HETATM   20  C   UNL     1      -9.419   7.866  70.416  1.00  0.00    -0.163 C  
HETATM   21  C   UNL     1     -10.424   7.623  72.675  1.00  0.00    -0.343 C  
HETATM   22  C   UNL     1     -10.669   7.445  71.184  1.00  0.00    -0.246 C  
HETATM   23  C   UNL     1     -11.054   5.997  70.904  1.00  0.00    -0.352 C  
ENDBRANCH   8  20
BRANCH  14  24
HETATM   24  N   UNL     1     -10.465  12.197  67.859  1.00  0.00    -0.203 N  
HETATM   25  H   UNL     1      -9.958  12.151  66.975  1.00  0.00     0.000 HD 
HETATM   26  O   UNL     1     -11.580  13.663  69.220  1.00  0.00    -0.272 OA 
HETATM   27  C   UNL     1     -10.915  13.441  68.224  1.00  0.00    -0.259 C  
BRANCH  27  28
HETATM   28  C   UNL     1     -10.480  14.497  67.200  1.00  0.00    -0.267 C  
HETATM   29  C   UNL     1     -11.605  15.537  66.963  1.00  0.00     0.066 C  
HETATM   30  N   UNL     1     -11.525  16.719  67.840  1.00  0.00     0.053 NA 
HETATM   31  C   UNL     1     -11.516  16.366  69.269  1.00  0.00    -0.165 C  
HETATM   32  C   UNL     1     -10.343  17.540  67.436  1.00  0.00    -0.351 C  
HETATM   33  C   UNL     1      -9.928  18.654  68.487  1.00  0.00    -0.430 C  
HETATM   34  C   UNL     1      -8.483  18.609  68.853  1.00  0.00    -0.209 A  
HETATM   35  C   UNL     1      -7.755  19.040  69.936  1.00  0.00     0.698 A  
HETATM   36  N   UNL     1      -6.423  18.755  69.690  1.00  0.00    -0.233 NA 
HETATM   37  C   UNL     1      -6.279  18.154  68.455  1.00  0.00    -0.199 A  
HETATM   38  H   UNL     1      -5.656  18.961  70.330  1.00  0.00     0.000 HD 
HETATM   39  C   UNL     1      -5.183  17.669  67.737  1.00  0.00    -0.133 A  
HETATM   40  C   UNL     1      -5.455  17.052  66.500  1.00  0.00    -0.124 A  
HETATM   41  C   UNL     1      -6.762  16.819  66.068  1.00  0.00     0.520 A  
HETATM   42  C   UNL     1      -7.828  17.215  66.874  1.00  0.00    -0.250 A  
HETATM   43  C   UNL     1      -7.564  17.992  67.991  1.00  0.00    -0.244 A  
HETATM   44  C   UNL     1      -9.199  16.627  66.799  1.00  0.00    -0.259 C  
HETATM   45  C   UNL     1      -9.170  15.235  67.508  1.00  0.00    -0.202 C  
ENDBRANCH  27  28
ENDBRANCH  14  24
TORSDOF 3
ENDMDL
MODEL      118
REMARK 921   NORMALIZED FREE ENERGY PREDICTED BY IDOCK:   15.62 KCAL/MOL
REMARK 922        TOTAL FREE ENERGY PREDICTED BY IDOCK:   17.29 KCAL/MOL
REMARK 923 INTER-LIGAND FREE ENERGY PREDICTED BY IDOCK:   12.15 KCAL/MOL
REMARK 924 INTRA-LIGAND FREE ENERGY PREDICTED BY IDOCK:    5.14 KCAL/MOL
REMARK 927      BINDING AFFINITY PREDICTED BY RF-SCORE:    0.00 PKD
ROOT
HETATM    1  C   UNL     1      -8.459  16.339  67.880  1.00  0.00    -0.164 C  
HETATM    2  C   UNL     1      -7.048  16.726  67.407  1.00  0.00    -0.185 C  
HETATM    3  C   UNL     1      -7.179  18.260  67.113  1.00  0.00    -0.215 C  
HETATM    4  C   UNL     1      -8.665  18.584  67.257  1.00  0.00    -0.266 C  
HETATM    5  N   UNL     1      -9.315  17.284  67.229  1.00  0.00    -0.234 N  
HETATM    6  C   UNL     1     -10.666  17.210  67.447  1.00  0.00    -0.242 C  
HETATM    7  O   UNL     1     -11.453  17.908  66.815  1.00  0.00     0.749 OA 
HETATM    8  C   UNL     1     -11.107  16.122  68.476  1.00  0.00    -0.357 C  
HETATM    9  N   UNL     1      -9.921  15.568  69.366  1.00  0.00    -0.260 N  
HETATM   10  C   UNL     1     -12.088  14.266  71.643  1.00  0.00    -0.278 C  
HETATM   11  C   UNL     1      -9.891  14.502  70.253  1.00  0.00     1.009 C  
HETATM   12  C   UNL     1     -13.244  12.817  69.935  1.00  0.00     1.443 C  
HETATM   13  O   UNL     1      -9.303  14.521  71.324  1.00  0.00     2.885 OA 
HETATM   14  C   UNL     1     -10.514  13.305  69.573  1.00  0.00     0.472 C  
HETATM   15  C   UNL     1      -9.069  14.940  68.430  1.00  0.00    -0.185 C  
HETATM   16  O   UNL     1      -7.889  14.255  68.878  1.00  0.00    -0.153 OA 
HETATM   17  H   UNL     1      -8.245  13.436  69.200  1.00  0.00     0.000 HD 
HETATM   18  C   UNL     1     -11.881  13.237  70.483  1.00  0.00    -0.215 C  
HETATM   19  O   UNL     1     -10.093  13.917  68.157  1.00  0.00    -0.235 OA 
ENDROOT
BRANCH   8  20
HETATM   20  C   UNL     1     -12.374  16.579  69.173  1.00  0.00     1.216 C  
HETATM   21  C   UNL     1     -13.785  16.479  71.216  1.00  0.00     3.685 C  
HETATM   22  C   UNL     1     -12.374  16.301  70.674  1.00  0.00     0.382 C  
HETATM   23  C   UNL     1     -11.422  17.224  71.428  1.00  0.00     1.502 C  
ENDBRANCH   8  20
BRANCH  14  24
HETATM   24  N   UNL     1     -10.205  11.924  69.285  1.00  0.00    -0.411 N  
HETATM   25  H   UNL     1      -9.397  11.769  68.681  1.00  0.00     0.000 HD 
HETATM   26  O   UNL     1     -11.798  10.796  70.482  1.00  0.00    -0.304 OA 
HETATM   27  C   UNL     1     -10.851  10.793  69.716  1.00  0.00    -0.226 C  
BRANCH  27  28
HETATM   28  C   UNL     1     -10.207   9.537  69.114  1.00  0.00    -0.209 C  
HETATM   29  C   UNL     1     -11.258   8.682  68.360  1.00  0.00     0.548 C  
HETATM   30  N   UNL     1     -11.376   9.002  66.926  1.00  0.00     1.004 NA 
HETATM   31  C   UNL     1     -11.676  10.423  66.684  1.00  0.00     1.661 C  
HETATM   32  C   UNL     1     -10.137   8.542  66.226  1.00  0.00    -0.104 C  
HETATM   33  C   UNL     1      -9.965   9.112  64.755  1.00  0.00     1.024 C  
HETATM   34  C   UNL     1      -8.635   9.742  64.520  1.00  0.00    -0.199 A  
HETATM   35  C   UNL     1      -8.161  10.677  63.631  1.00  0.00     0.031 A  
HETATM   36  N   UNL     1      -6.805  10.835  63.867  1.00  0.00    -0.320 NA 
HETATM   37  C   UNL     1      -6.395  10.005  64.890  1.00  0.00    -0.118 A  
HETATM   38  H   UNL     1      -6.197  11.475  63.357  1.00  0.00     0.000 HD 
HETATM   39  C   UNL     1      -5.167   9.776  65.517  1.00  0.00    -0.044 A  
HETATM   40  C   UNL     1      -5.161   8.868  66.594  1.00  0.00    -0.034 A  
HETATM   41  C   UNL     1      -6.342   8.319  67.097  1.00  0.00    -0.057 A  
HETATM   42  C   UNL     1      -7.559   8.668  66.515  1.00  0.00    -0.088 A  
HETATM   43  C   UNL     1      -7.547   9.403  65.340  1.00  0.00    -0.100 A  
HETATM   44  C   UNL     1      -8.878   8.569  67.208  1.00  0.00    -0.137 C  
HETATM   45  C   UNL     1      -8.999   9.771  68.198  1.00  0.00    -0.119 C  
ENDBRANCH  27  28
ENDBRANCH  14  24
TORSDOF 3
ENDMDL
MODEL      119
REMARK 921   NORMALIZED FREE ENERGY PREDICTED BY IDOCK:   16.62 KCAL/MOL
REMARK 922        TOTAL FREE ENERGY PREDICTED BY IDOCK:   18.47 KCAL/MOL
REMARK 923 INTER-LIGAND FREE ENERGY PREDICTED BY IDOCK:   16.58 KCAL/MOL
REMARK 924 INTRA-LIGAND FREE ENERGY PREDICTED BY IDOCK:    1.89 KCAL/MOL
REMARK 927      BINDING AFFINITY PREDICTED BY RF-SCORE:    0.00 PKD
ROOT
HETATM    1  C   UNL     1     -11.892  14.824  65.448  1.00  0.00    -0.249 C  
HETATM    2  C   UNL     1     -12.945  14.797  64.328  1.00  0.00     0.719 C  
HETATM    3  C   UNL     1     -13.850  16.034  64.659  1.00  0.00     4.202 C  
HETATM    4  C   UNL     1     -13.369  16.547  66.014  1.00  0.00     7.200 C  
HETATM    5  N   UNL     1     -12.565  15.457  66.542  1.00  0.00     1.184 N  
HETATM    6  C   UNL     1     -11.886  15.638  67.718  1.00  0.00     0.104 C  
HETATM    7  O   UNL     1     -12.453  16.053  68.724  1.00  0.00     0.201 OA 
HETATM    8  C   UNL     1     -10.390  15.194  67.689  1.00  0.00    -0.248 C  
HETATM    9  N   UNL     1      -9.817  14.979  66.229  1.00  0.00    -0.268 N  
HETATM   10  C   UNL     1      -6.607  15.101  67.350  1.00  0.00    -0.090 C  
HETATM   11  C   UNL     1      -8.610  14.437  65.813  1.00  0.00     1.464 C  
HETATM   12  C   UNL     1      -6.930  13.170  68.937  1.00  0.00    -0.093 C  
HETATM   13  O   UNL     1      -7.948  14.877  64.885  1.00  0.00     5.745 OA 
HETATM   14  C   UNL     1      -8.395  13.138  66.554  1.00  0.00     0.372 C  
HETATM   15  C   UNL     1     -10.585  13.905  65.725  1.00  0.00    -0.297 C  
HETATM   16  O   UNL     1     -10.310  13.375  64.419  1.00  0.00    -0.488 OA 
HETATM   17  H   UNL     1      -9.544  12.836  64.582  1.00  0.00     0.000 HD 
HETATM   18  C   UNL     1      -7.149  13.641  67.500  1.00  0.00    -0.166 C  
HETATM   19  O   UNL     1      -9.981  12.989  66.708  1.00  0.00    -0.234 OA 
ENDROOT
BRANCH   8  20
HETATM   20  C   UNL     1      -9.595  16.053  68.653  1.00  0.00    -0.222 C  
HETATM   21  C   UNL     1      -7.667  17.586  68.980  1.00  0.00    -0.139 C  
HETATM   22  C   UNL     1      -8.642  17.021  67.957  1.00  0.00    -0.217 C  
HETATM   23  C   UNL     1      -9.384  18.167  67.279  1.00  0.00    -0.252 C  
ENDBRANCH   8  20
BRANCH  14  24
HETATM   24  N   UNL     1      -8.098  11.752  66.274  1.00  0.00    -0.382 N  
HETATM   25  H   UNL     1      -8.046  11.503  65.286  1.00  0.00     0.000 HD 
HETATM   26  O   UNL     1      -7.851  10.863  68.369  1.00  0.00    -0.110 OA 
HETATM   27  C   UNL     1      -7.876  10.728  67.159  1.00  0.00    -0.124 C  
BRANCH  27  28
HETATM   28  C   UNL     1      -7.653   9.406  66.414  1.00  0.00    -0.097 C  
HETATM   29  C   UNL     1      -6.144   9.168  66.146  1.00  0.00    -0.059 C  
HETATM   30  N   UNL     1      -5.461   8.398  67.200  1.00  0.00    -0.037 NA 
HETATM   31  C   UNL     1      -5.603   9.009  68.532  1.00  0.00    -0.038 C  
HETATM   32  C   UNL     1      -5.943   6.984  67.154  1.00  0.00    -0.025 C  
HETATM   33  C   UNL     1      -5.561   6.118  68.427  1.00  0.00    -0.012 C  
HETATM   34  C   UNL     1      -6.728   5.420  69.038  1.00  0.00    -0.053 A  
HETATM   35  C   UNL     1      -7.000   4.922  70.290  1.00  0.00    -0.048 A  
HETATM   36  N   UNL     1      -8.252   4.332  70.246  1.00  0.00    -0.061 NA 
HETATM   37  C   UNL     1      -8.789   4.433  68.979  1.00  0.00    -0.094 A  
HETATM   38  H   UNL     1      -8.713   3.886  71.039  1.00  0.00     0.000 HD 
HETATM   39  C   UNL     1      -9.995   4.024  68.402  1.00  0.00     0.068 A  
HETATM   40  C   UNL     1     -10.207   4.373  67.054  1.00  0.00    -0.047 A  
HETATM   41  C   UNL     1      -9.318   5.197  66.361  1.00  0.00    -0.149 A  
HETATM   42  C   UNL     1      -8.185   5.680  67.013  1.00  0.00    -0.101 A  
HETATM   43  C   UNL     1      -7.878   5.181  68.269  1.00  0.00    -0.087 A  
HETATM   44  C   UNL     1      -7.438   6.904  66.598  1.00  0.00    -0.082 C  
HETATM   45  C   UNL     1      -8.250   8.153  67.068  1.00  0.00    -0.115 C  
ENDBRANCH  27  28
ENDBRANCH  14  24
TORSDOF 3
ENDMDL
MODEL      120
REMARK 921   NORMALIZED FREE ENERGY PREDICTED BY IDOCK:   17.86 KCAL/MOL
REMARK 922        TOTAL FREE ENERGY PREDICTED BY IDOCK:   19.92 KCAL/MOL
REMARK 923 INTER-LIGAND FREE ENERGY PREDICTED BY IDOCK:   10.71 KCAL/MOL
REMARK 924 INTRA-LIGAND FREE ENERGY PREDICTED BY IDOCK:    9.21 KCAL/MOL
REMARK 927      BINDING AFFINITY PREDICTED BY RF-SCORE:    0.00 PKD
ROOT
HETATM    1  C   UNL     1      -8.799  15.864  69.506  1.00  0.00    -0.115 C  
HETATM    2  C   UNL     1      -8.975  16.898  70.630  1.00  0.00     4.012 C  
HETATM    3  C   UNL     1      -8.169  18.136  70.106  1.00  0.00     2.385 C  
HETATM    4  C   UNL     1      -7.454  17.660  68.843  1.00  0.00    -0.227 C  
HETATM    5  N   UNL     1      -7.543  16.211  68.910  1.00  0.00    -0.188 N  
HETATM    6  C   UNL     1      -7.086  15.465  67.856  1.00  0.00    -0.140 C  
HETATM    7  O   UNL     1      -5.961  15.635  67.395  1.00  0.00    -0.270 OA 
HETATM    8  C   UNL     1      -8.062  14.349  67.367  1.00  0.00    -0.199 C  
HETATM    9  N   UNL     1      -9.542  14.517  67.903  1.00  0.00    -0.213 N  
HETATM   10  C   UNL     1     -10.756  12.386  65.545  1.00  0.00    -0.315 C  
HETATM   11  C   UNL     1     -10.625  13.654  67.823  1.00  0.00    -0.242 C  
HETATM   12  C   UNL     1      -9.290  10.479  66.298  1.00  0.00    -0.202 C  
HETATM   13  O   UNL     1     -11.772  14.016  67.602  1.00  0.00    -0.335 OA 
HETATM   14  C   UNL     1     -10.167  12.279  68.251  1.00  0.00    -0.220 C  
HETATM   15  C   UNL     1      -9.407  14.375  69.302  1.00  0.00     0.170 C  
HETATM   16  O   UNL     1     -10.570  14.409  70.143  1.00  0.00    -0.443 OA 
HETATM   17  H   UNL     1     -10.927  13.537  70.024  1.00  0.00     0.000 HD 
HETATM   18  C   UNL     1     -10.258  11.560  66.777  1.00  0.00    -0.254 C  
HETATM   19  O   UNL     1      -9.024  12.962  69.139  1.00  0.00     0.419 OA 
ENDROOT
BRANCH   8  20
HETATM   20  C   UNL     1      -7.858  14.122  65.882  1.00  0.00     3.334 C  
HETATM   21  C   UNL     1      -8.661  13.011  63.809  1.00  0.00     5.214 C  
HETATM   22  C   UNL     1      -9.069  13.502  65.191  1.00  0.00     1.294 C  
HETATM   23  C   UNL     1     -10.221  14.493  65.055  1.00  0.00    -0.398 C  
ENDBRANCH   8  20
BRANCH  14  24
HETATM   24  N   UNL     1     -10.540  11.241  69.182  1.00  0.00    -0.312 N  
HETATM   25  H   UNL     1      -9.956  10.404  69.168  1.00  0.00     0.000 HD 
HETATM   26  O   UNL     1     -12.334  12.164  70.265  1.00  0.00    -0.271 OA 
HETATM   27  C   UNL     1     -11.575  11.229  70.083  1.00  0.00    -0.305 C  
BRANCH  27  28
HETATM   28  C   UNL     1     -11.628   9.890  70.830  1.00  0.00    -0.456 C  
HETATM   29  C   UNL     1     -12.207   8.772  69.926  1.00  0.00     1.008 C  
HETATM   30  N   UNL     1     -11.187   8.022  69.172  1.00  0.00     0.216 NA 
HETATM   31  C   UNL     1     -10.337   8.894  68.343  1.00  0.00    -0.200 C  
HETATM   32  C   UNL     1     -10.402   7.182  70.128  1.00  0.00    -0.206 C  
HETATM   33  C   UNL     1      -9.062   6.582  69.525  1.00  0.00    -0.140 C  
HETATM   34  C   UNL     1      -7.863   6.852  70.371  1.00  0.00    -0.109 A  
HETATM   35  C   UNL     1      -6.512   6.911  70.127  1.00  0.00    -0.040 A  
HETATM   36  N   UNL     1      -5.876   7.161  71.332  1.00  0.00    -0.036 NA 
HETATM   37  C   UNL     1      -6.800   7.253  72.353  1.00  0.00    -0.063 A  
HETATM   38  H   UNL     1      -4.868   7.263  71.447  1.00  0.00     0.000 HD 
HETATM   39  C   UNL     1      -6.703   7.493  73.727  1.00  0.00    -0.085 A  
HETATM   40  C   UNL     1      -7.911   7.573  74.446  1.00  0.00    -0.216 A  
HETATM   41  C   UNL     1      -9.150   7.544  73.804  1.00  0.00    -0.311 A  
HETATM   42  C   UNL     1      -9.198   7.421  72.417  1.00  0.00    -0.173 A  
HETATM   43  C   UNL     1      -8.023   7.148  71.733  1.00  0.00    -0.097 A  
HETATM   44  C   UNL     1     -10.354   7.851  71.576  1.00  0.00    -0.243 C  
HETATM   45  C   UNL     1     -10.308   9.407  71.445  1.00  0.00    -0.326 C  
ENDBRANCH  27  28
ENDBRANCH  14  24
TORSDOF 3
ENDMDL
MODEL      121
REMARK 921   NORMALIZED FREE ENERGY PREDICTED BY IDOCK:   19.75 KCAL/MOL
REMARK 922        TOTAL FREE ENERGY PREDICTED BY IDOCK:   22.14 KCAL/MOL
REMARK 923 INTER-LIGAND FREE ENERGY PREDICTED BY IDOCK:   21.89 KCAL/MOL
REMARK 924 INTRA-LIGAND FREE ENERGY PREDICTED BY IDOCK:    0.25 KCAL/MOL
REMARK 927      BINDING AFFINITY PREDICTED BY RF-SCORE:    0.00 PKD
ROOT
HETATM    1  C   UNL     1     -10.487  16.855  69.521  1.00  0.00    -0.228 C  
HETATM    2  C   UNL     1     -11.038  17.470  70.819  1.00  0.00     1.706 C  
HETATM    3  C   UNL     1     -11.344  18.952  70.410  1.00  0.00     4.913 C  
HETATM    4  C   UNL     1     -10.781  19.117  69.000  1.00  0.00     0.739 C  
HETATM    5  N   UNL     1      -9.907  17.968  68.831  1.00  0.00    -0.343 N  
HETATM    6  C   UNL     1      -9.317  17.752  67.613  1.00  0.00    -0.250 C  
HETATM    7  O   UNL     1      -8.692  18.641  67.041  1.00  0.00    -0.268 OA 
HETATM    8  C   UNL     1      -9.430  16.291  67.076  1.00  0.00    -0.226 C  
HETATM    9  N   UNL     1     -10.519  15.419  67.827  1.00  0.00    -0.260 N  
HETATM   10  C   UNL     1     -10.558  13.114  65.325  1.00  0.00    -0.325 C  
HETATM   11  C   UNL     1     -10.785  14.060  67.747  1.00  0.00    -0.243 C  
HETATM   12  C   UNL     1      -8.096  12.620  65.538  1.00  0.00     2.358 C  
HETATM   13  O   UNL     1     -11.912  13.585  67.747  1.00  0.00    -0.354 OA 
HETATM   14  C   UNL     1      -9.477  13.313  67.869  1.00  0.00    -0.214 C  
HETATM   15  C   UNL     1     -10.030  15.344  69.150  1.00  0.00    -0.241 C  
HETATM   16  O   UNL     1     -10.733  14.569  70.134  1.00  0.00    -0.463 OA 
HETATM   17  H   UNL     1     -10.465  13.684  69.916  1.00  0.00     0.000 HD 
HETATM   18  C   UNL     1      -9.400  12.773  66.320  1.00  0.00    -0.156 C  
HETATM   19  O   UNL     1      -8.879  14.543  68.699  1.00  0.00    -0.181 OA 
ENDROOT
BRANCH   8  20
HETATM   20  C   UNL     1      -9.451  16.315  65.560  1.00  0.00     0.076 C  
HETATM   21  C   UNL     1     -10.734  15.856  63.482  1.00  0.00     4.025 C  
HETATM   22  C   UNL     1     -10.849  16.153  64.971  1.00  0.00    -0.380 C  
HETATM   23  C   UNL     1     -11.705  17.399  65.173  1.00  0.00     2.115 C  
ENDBRANCH   8  20
BRANCH  14  24
HETATM   24  N   UNL     1      -8.892  12.250  68.651  1.00  0.00    -0.373 N  
HETATM   25  H   UNL     1      -8.294  11.602  68.138  1.00  0.00     0.000 HD 
HETATM   26  O   UNL     1      -9.667  12.698  70.759  1.00  0.00     5.701 OA 
HETATM   27  C   UNL     1      -9.033  11.995  69.992  1.00  0.00     3.195 C  
BRANCH  27  28
HETATM   28  C   UNL     1      -8.272  10.723  70.386  1.00  0.00     1.631 C  
HETATM   29  C   UNL     1      -9.070   9.901  71.431  1.00  0.00     1.671 C  
HETATM   30  N   UNL     1      -9.960   8.884  70.843  1.00  0.00    -0.221 NA 
HETATM   31  C   UNL     1     -10.915   9.455  69.878  1.00  0.00    -0.229 C  
HETATM   32  C   UNL     1      -9.124   7.791  70.258  1.00  0.00    -0.152 C  
HETATM   33  C   UNL     1      -9.914   6.803  69.301  1.00  0.00    -0.168 C  
HETATM   34  C   UNL     1      -9.260   6.621  67.973  1.00  0.00    -0.112 A  
HETATM   35  C   UNL     1      -9.703   6.234  66.731  1.00  0.00    -0.156 A  
HETATM   36  N   UNL     1      -8.609   6.207  65.882  1.00  0.00    -0.144 NA 
HETATM   37  C   UNL     1      -7.462   6.560  66.563  1.00  0.00    -0.086 A  
HETATM   38  H   UNL     1      -8.647   5.961  64.893  1.00  0.00     0.000 HD 
HETATM   39  C   UNL     1      -6.121   6.697  66.195  1.00  0.00    -0.033 A  
HETATM   40  C   UNL     1      -5.230   7.148  67.188  1.00  0.00    -0.013 A  
HETATM   41  C   UNL     1      -5.680   7.561  68.444  1.00  0.00    -0.027 A  
HETATM   42  C   UNL     1      -7.043   7.518  68.729  1.00  0.00    -0.080 A  
HETATM   43  C   UNL     1      -7.891   6.896  67.826  1.00  0.00    -0.113 A  
HETATM   44  C   UNL     1      -7.705   8.346  69.781  1.00  0.00    -0.093 C  
HETATM   45  C   UNL     1      -7.857   9.800  69.232  1.00  0.00    -0.105 C  
ENDBRANCH  27  28
ENDBRANCH  14  24
TORSDOF 3
ENDMDL
MODEL      122
REMARK 921   NORMALIZED FREE ENERGY PREDICTED BY IDOCK:   22.88 KCAL/MOL
REMARK 922        TOTAL FREE ENERGY PREDICTED BY IDOCK:   25.82 KCAL/MOL
REMARK 923 INTER-LIGAND FREE ENERGY PREDICTED BY IDOCK:   25.19 KCAL/MOL
REMARK 924 INTRA-LIGAND FREE ENERGY PREDICTED BY IDOCK:    0.62 KCAL/MOL
REMARK 927      BINDING AFFINITY PREDICTED BY RF-SCORE:    0.00 PKD
ROOT
HETATM    1  C   UNL     1     -11.909  10.648  70.998  1.00  0.00    -0.296 C  
HETATM    2  C   UNL     1     -12.126  10.459  72.508  1.00  0.00     1.723 C  
HETATM    3  C   UNL     1     -13.084   9.221  72.579  1.00  0.00    -0.416 C  
HETATM    4  C   UNL     1     -13.482   8.922  71.135  1.00  0.00    -0.064 C  
HETATM    5  N   UNL     1     -13.103  10.122  70.408  1.00  0.00    -0.134 N  
HETATM    6  C   UNL     1     -13.228  10.142  69.044  1.00  0.00     3.519 C  
HETATM    7  O   UNL     1     -14.280   9.827  68.495  1.00  0.00     7.805 OA 
HETATM    8  C   UNL     1     -11.978  10.675  68.276  1.00  0.00     0.275 C  
HETATM    9  N   UNL     1     -10.665  10.733  69.159  1.00  0.00    -0.213 N  
HETATM   10  C   UNL     1      -8.687  10.968  66.401  1.00  0.00    -0.174 C  
HETATM   11  C   UNL     1      -9.426  11.293  68.883  1.00  0.00    -0.089 C  
HETATM   12  C   UNL     1      -9.820  13.066  65.583  1.00  0.00    -0.181 C  
HETATM   13  O   UNL     1      -8.361  10.778  69.190  1.00  0.00    -0.150 OA 
HETATM   14  C   UNL     1      -9.647  12.689  68.349  1.00  0.00    -0.173 C  
HETATM   15  C   UNL     1     -10.979  11.679  70.160  1.00  0.00     0.499 C  
HETATM   16  O   UNL     1      -9.991  12.050  71.134  1.00  0.00     5.667 OA 
HETATM   17  H   UNL     1      -9.446  12.653  70.643  1.00  0.00     0.000 HD 
HETATM   18  C   UNL     1      -9.183  12.397  66.801  1.00  0.00    -0.212 C  
HETATM   19  O   UNL     1     -11.029  12.754  69.154  1.00  0.00    -0.216 OA 
ENDROOT
BRANCH   8  20
HETATM   20  C   UNL     1     -11.901  10.003  66.919  1.00  0.00     2.677 C  
HETATM   21  C   UNL     1     -10.820   8.269  65.506  1.00  0.00     4.114 C  
HETATM   22  C   UNL     1     -11.128   8.687  66.937  1.00  0.00     0.605 C  
HETATM   23  C   UNL     1     -11.906   7.576  67.633  1.00  0.00     2.228 C  
ENDBRANCH   8  20
BRANCH  14  24
HETATM   24  N   UNL     1      -9.212  14.042  68.606  1.00  0.00    -0.326 N  
HETATM   25  H   UNL     1      -8.215  14.158  68.791  1.00  0.00     0.000 HD 
HETATM   26  O   UNL     1     -11.151  15.239  68.387  1.00  0.00    -0.261 OA 
HETATM   27  C   UNL     1      -9.959  15.192  68.636  1.00  0.00    -0.220 C  
BRANCH  27  28
HETATM   28  C   UNL     1      -9.087  16.398  69.006  1.00  0.00    -0.252 C  
HETATM   29  C   UNL     1      -7.815  15.949  69.771  1.00  0.00     0.184 C  
HETATM   30  N   UNL     1      -6.652  15.693  68.903  1.00  0.00    -0.111 NA 
HETATM   31  C   UNL     1      -6.934  14.701  67.852  1.00  0.00    -0.159 C  
HETATM   32  C   UNL     1      -6.162  16.996  68.357  1.00  0.00    -0.145 C  
HETATM   33  C   UNL     1      -5.139  16.859  67.152  1.00  0.00    -0.169 C  
HETATM   34  C   UNL     1      -5.519  17.671  65.961  1.00  0.00    -0.221 A  
HETATM   35  C   UNL     1      -5.232  17.598  64.619  1.00  0.00     0.853 A  
HETATM   36  N   UNL     1      -5.844  18.673  63.997  1.00  0.00    -0.193 NA 
HETATM   37  C   UNL     1      -6.515  19.447  64.922  1.00  0.00    -0.183 A  
HETATM   38  H   UNL     1      -5.805  18.866  62.996  1.00  0.00     0.000 HD 
HETATM   39  C   UNL     1      -7.284  20.611  64.835  1.00  0.00     0.191 A  
HETATM   40  C   UNL     1      -7.869  21.079  66.028  1.00  0.00     0.728 A  
HETATM   41  C   UNL     1      -7.794  20.349  67.216  1.00  0.00    -0.373 A  
HETATM   42  C   UNL     1      -7.115  19.133  67.229  1.00  0.00    -0.225 A  
HETATM   43  C   UNL     1      -6.379  18.770  66.112  1.00  0.00    -0.227 A  
HETATM   44  C   UNL     1      -7.354  18.051  68.231  1.00  0.00    -0.259 C  
HETATM   45  C   UNL     1      -8.678  17.316  67.847  1.00  0.00    -0.231 C  
ENDBRANCH  27  28
ENDBRANCH  14  24
TORSDOF 3
ENDMDL
MODEL      123
REMARK 921   NORMALIZED FREE ENERGY PREDICTED BY IDOCK:   25.85 KCAL/MOL
REMARK 922        TOTAL FREE ENERGY PREDICTED BY IDOCK:   29.31 KCAL/MOL
REMARK 923 INTER-LIGAND FREE ENERGY PREDICTED BY IDOCK:   24.28 KCAL/MOL
REMARK 924 INTRA-LIGAND FREE ENERGY PREDICTED BY IDOCK:    5.03 KCAL/MOL
REMARK 927      BINDING AFFINITY PREDICTED BY RF-SCORE:    0.00 PKD
ROOT
HETATM    1  C   UNL     1     -11.443  12.189  67.104  1.00  0.00    -0.346 C  
HETATM    2  C   UNL     1     -12.082  12.182  65.706  1.00  0.00    -0.155 C  
HETATM    3  C   UNL     1     -13.287  13.173  65.859  1.00  0.00     1.464 C  
HETATM    4  C   UNL     1     -13.355  13.515  67.346  1.00  0.00     4.344 C  
HETATM    5  N   UNL     1     -12.531  12.499  67.981  1.00  0.00     0.501 N  
HETATM    6  C   UNL     1     -12.290  12.583  69.327  1.00  0.00     0.132 C  
HETATM    7  O   UNL     1     -13.207  12.715  70.133  1.00  0.00     0.674 OA 
HETATM    8  C   UNL     1     -10.795  12.406  69.740  1.00  0.00     0.463 C  
HETATM    9  N   UNL     1      -9.780  12.549  68.533  1.00  0.00    -0.175 N  
HETATM   10  C   UNL     1      -7.156  13.007  70.649  1.00  0.00     2.356 C  
HETATM   11  C   UNL     1      -8.417  12.297  68.477  1.00  0.00    -0.077 C  
HETATM   12  C   UNL     1      -7.517  10.802  71.815  1.00  0.00     5.162 C  
HETATM   13  O   UNL     1      -7.618  12.998  67.873  1.00  0.00    -0.115 OA 
HETATM   14  C   UNL     1      -8.160  10.943  69.097  1.00  0.00    -0.100 C  
HETATM   15  C   UNL     1     -10.114  11.466  67.688  1.00  0.00    -0.180 C  
HETATM   16  O   UNL     1      -9.354  11.226  66.493  1.00  0.00    -0.175 OA 
HETATM   17  H   UNL     1      -8.576  10.803  66.835  1.00  0.00     0.000 HD 
HETATM   18  C   UNL     1      -7.392  11.474  70.448  1.00  0.00     1.846 C  
HETATM   19  O   UNL     1      -9.649  10.507  68.705  1.00  0.00    -0.156 OA 
ENDROOT
BRANCH   8  20
HETATM   20  C   UNL     1     -10.527  13.204  71.001  1.00  0.00     5.107 C  
HETATM   21  C   UNL     1     -11.260  15.043  72.502  1.00  0.00     0.116 C  
HETATM   22  C   UNL     1     -11.720  14.042  71.452  1.00  0.00     0.253 C  
HETATM   23  C   UNL     1     -12.839  13.182  72.029  1.00  0.00    -0.304 C  
ENDBRANCH   8  20
BRANCH  14  24
HETATM   24  N   UNL     1      -7.504   9.697  68.775  1.00  0.00    -0.074 N  
HETATM   25  H   UNL     1      -8.003   9.091  68.123  1.00  0.00     0.000 HD 
HETATM   26  O   UNL     1      -5.555   9.839  69.968  1.00  0.00    -0.038 OA 
HETATM   27  C   UNL     1      -6.300   9.221  69.228  1.00  0.00    -0.041 C  
BRANCH  27  28
HETATM   28  C   UNL     1      -6.022   7.822  68.664  1.00  0.00    -0.035 C  
HETATM   29  C   UNL     1      -6.509   6.723  69.643  1.00  0.00    -0.044 C  
HETATM   30  N   UNL     1      -7.890   6.271  69.400  1.00  0.00    -0.103 NA 
HETATM   31  C   UNL     1      -8.862   7.376  69.426  1.00  0.00    -0.137 C  
HETATM   32  C   UNL     1      -7.926   5.495  68.122  1.00  0.00    -0.096 C  
HETATM   33  C   UNL     1      -9.384   5.233  67.554  1.00  0.00    -0.125 C  
HETATM   34  C   UNL     1      -9.540   5.631  66.125  1.00  0.00    -0.142 A  
HETATM   35  C   UNL     1     -10.612   5.975  65.337  1.00  0.00     1.804 A  
HETATM   36  N   UNL     1     -10.138   6.205  64.057  1.00  0.00     2.818 NA 
HETATM   37  C   UNL     1      -8.774   6.003  64.005  1.00  0.00     0.345 A  
HETATM   38  H   UNL     1     -10.716   6.484  63.264  1.00  0.00     0.000 HD 
HETATM   39  C   UNL     1      -7.819   6.101  62.989  1.00  0.00    -0.100 A  
HETATM   40  C   UNL     1      -6.478   5.868  63.351  1.00  0.00    -0.029 A  
HETATM   41  C   UNL     1      -6.100   5.674  64.681  1.00  0.00    -0.025 A  
HETATM   42  C   UNL     1      -7.073   5.701  65.677  1.00  0.00    -0.067 A  
HETATM   43  C   UNL     1      -8.407   5.736  65.303  1.00  0.00    -0.146 A  
HETATM   44  C   UNL     1      -6.792   5.994  67.115  1.00  0.00    -0.063 C  
HETATM   45  C   UNL     1      -6.584   7.534  67.266  1.00  0.00    -0.062 C  
ENDBRANCH  27  28
ENDBRANCH  14  24
TORSDOF 3
ENDMDL
MODEL      124
REMARK 921   NORMALIZED FREE ENERGY PREDICTED BY IDOCK:   26.28 KCAL/MOL
REMARK 922        TOTAL FREE ENERGY PREDICTED BY IDOCK:   29.82 KCAL/MOL
REMARK 923 INTER-LIGAND FREE ENERGY PREDICTED BY IDOCK:   25.29 KCAL/MOL
REMARK 924 INTRA-LIGAND FREE ENERGY PREDICTED BY IDOCK:    4.54 KCAL/MOL
REMARK 927      BINDING AFFINITY PREDICTED BY RF-SCORE:    0.00 PKD
ROOT
HETATM    1  C   UNL     1     -11.443  12.189  67.104  1.00  0.00    -0.346 C  
HETATM    2  C   UNL     1     -12.082  12.182  65.706  1.00  0.00    -0.155 C  
HETATM    3  C   UNL     1     -13.287  13.173  65.859  1.00  0.00     1.464 C  
HETATM    4  C   UNL     1     -13.355  13.515  67.346  1.00  0.00     4.344 C  
HETATM    5  N   UNL     1     -12.531  12.499  67.981  1.00  0.00     0.501 N  
HETATM    6  C   UNL     1     -12.290  12.583  69.327  1.00  0.00     0.132 C  
HETATM    7  O   UNL     1     -13.207  12.715  70.133  1.00  0.00     0.674 OA 
HETATM    8  C   UNL     1     -10.795  12.406  69.740  1.00  0.00     0.463 C  
HETATM    9  N   UNL     1      -9.780  12.549  68.533  1.00  0.00    -0.175 N  
HETATM   10  C   UNL     1      -7.156  13.007  70.649  1.00  0.00     2.356 C  
HETATM   11  C   UNL     1      -8.417  12.297  68.477  1.00  0.00    -0.077 C  
HETATM   12  C   UNL     1      -7.517  10.802  71.815  1.00  0.00     5.162 C  
HETATM   13  O   UNL     1      -7.618  12.998  67.873  1.00  0.00    -0.115 OA 
HETATM   14  C   UNL     1      -8.160  10.943  69.097  1.00  0.00    -0.100 C  
HETATM   15  C   UNL     1     -10.114  11.466  67.688  1.00  0.00    -0.180 C  
HETATM   16  O   UNL     1      -9.354  11.226  66.493  1.00  0.00    -0.175 OA 
HETATM   17  H   UNL     1      -8.576  10.803  66.835  1.00  0.00     0.000 HD 
HETATM   18  C   UNL     1      -7.392  11.474  70.448  1.00  0.00     1.846 C  
HETATM   19  O   UNL     1      -9.649  10.507  68.705  1.00  0.00    -0.156 OA 
ENDROOT
BRANCH   8  20
HETATM   20  C   UNL     1     -10.527  13.204  71.001  1.00  0.00     5.107 C  
HETATM   21  C   UNL     1     -11.260  15.043  72.502  1.00  0.00     0.116 C  
HETATM   22  C   UNL     1     -11.720  14.042  71.452  1.00  0.00     0.253 C  
HETATM   23  C   UNL     1     -12.839  13.182  72.029  1.00  0.00    -0.304 C  
ENDBRANCH   8  20
BRANCH  14  24
HETATM   24  N   UNL     1      -7.504   9.697  68.775  1.00  0.00    -0.074 N  
HETATM   25  H   UNL     1      -8.003   9.091  68.123  1.00  0.00     0.000 HD 
HETATM   26  O   UNL     1      -5.555   9.839  69.968  1.00  0.00    -0.038 OA 
HETATM   27  C   UNL     1      -6.300   9.221  69.228  1.00  0.00    -0.041 C  
BRANCH  27  28
HETATM   28  C   UNL     1      -6.022   7.822  68.664  1.00  0.00    -0.035 C  
HETATM   29  C   UNL     1      -5.128   7.002  69.629  1.00  0.00    -0.015 C  
HETATM   30  N   UNL     1      -5.880   6.187  70.599  1.00  0.00    -0.018 NA 
HETATM   31  C   UNL     1      -6.819   6.985  71.405  1.00  0.00    -0.060 C  
HETATM   32  C   UNL     1      -6.547   5.064  69.870  1.00  0.00    -0.036 C  
HETATM   33  C   UNL     1      -7.657   4.304  70.711  1.00  0.00    -0.052 C  
HETATM   34  C   UNL     1      -8.960   4.186  69.995  1.00  0.00    -0.158 A  
HETATM   35  C   UNL     1     -10.261   4.005  70.397  1.00  0.00     0.309 A  
HETATM   36  N   UNL     1     -11.048   3.927  69.260  1.00  0.00     4.003 NA 
HETATM   37  C   UNL     1     -10.269   4.044  68.127  1.00  0.00     0.474 A  
HETATM   38  H   UNL     1     -12.060   3.800  69.260  1.00  0.00     0.000 HD 
HETATM   39  C   UNL     1     -10.546   4.041  66.757  1.00  0.00     1.072 A  
HETATM   40  C   UNL     1      -9.459   4.254  65.887  1.00  0.00    -0.176 A  
HETATM   41  C   UNL     1      -8.189   4.580  66.366  1.00  0.00    -0.106 A  
HETATM   42  C   UNL     1      -7.985   4.689  67.740  1.00  0.00    -0.092 A  
HETATM   43  C   UNL     1      -8.999   4.291  68.596  1.00  0.00    -0.156 A  
HETATM   44  C   UNL     1      -6.878   5.474  68.363  1.00  0.00    -0.059 C  
HETATM   45  C   UNL     1      -7.255   6.988  68.291  1.00  0.00    -0.091 C  
ENDBRANCH  27  28
ENDBRANCH  14  24
TORSDOF 3
ENDMDL
MODEL      125
REMARK 921   NORMALIZED FREE ENERGY PREDICTED BY IDOCK:   26.52 KCAL/MOL
REMARK 922        TOTAL FREE ENERGY PREDICTED BY IDOCK:   30.11 KCAL/MOL
REMARK 923 INTER-LIGAND FREE ENERGY PREDICTED BY IDOCK:   26.25 KCAL/MOL
REMARK 924 INTRA-LIGAND FREE ENERGY PREDICTED BY IDOCK:    3.86 KCAL/MOL
REMARK 927      BINDING AFFINITY PREDICTED BY RF-SCORE:    0.00 PKD
ROOT
HETATM    1  C   UNL     1      -9.833  14.057  65.544  1.00  0.00    -0.200 C  
HETATM    2  C   UNL     1      -9.170  13.523  64.263  1.00  0.00     2.624 C  
HETATM    3  C   UNL     1      -9.081  14.793  63.350  1.00  0.00    12.662 C  
HETATM    4  C   UNL     1      -9.853  15.887  64.086  1.00  0.00     4.056 C  
HETATM    5  N   UNL     1     -10.617  15.166  65.090  1.00  0.00    -0.401 N  
HETATM    6  C   UNL     1     -11.348  15.875  66.008  1.00  0.00     0.212 C  
HETATM    7  O   UNL     1     -12.137  16.748  65.657  1.00  0.00     1.879 OA 
HETATM    8  C   UNL     1     -11.161  15.423  67.490  1.00  0.00    -0.315 C  
HETATM    9  N   UNL     1      -9.893  14.503  67.719  1.00  0.00    -0.218 N  
HETATM   10  C   UNL     1      -9.968  15.046  71.077  1.00  0.00     1.252 C  
HETATM   11  C   UNL     1      -9.500  13.786  68.840  1.00  0.00     0.089 C  
HETATM   12  C   UNL     1     -12.311  14.149  71.321  1.00  0.00    -0.447 C  
HETATM   13  O   UNL     1      -8.342  13.694  69.221  1.00  0.00     0.314 OA 
HETATM   14  C   UNL     1     -10.693  13.008  69.346  1.00  0.00     0.188 C  
HETATM   15  C   UNL     1     -10.179  13.346  66.960  1.00  0.00    -0.249 C  
HETATM   16  O   UNL     1      -9.267  12.237  66.968  1.00  0.00    -0.192 OA 
HETATM   17  H   UNL     1      -9.469  11.820  67.797  1.00  0.00     0.000 HD 
HETATM   18  C   UNL     1     -10.932  13.865  70.726  1.00  0.00     1.157 C  
HETATM   19  O   UNL     1     -11.292  13.007  67.862  1.00  0.00    -0.255 OA 
ENDROOT
BRANCH   8  20
HETATM   20  C   UNL     1     -11.357  16.615  68.405  1.00  0.00    -0.142 C  
HETATM   21  C   UNL     1     -10.330  18.199  70.020  1.00  0.00     1.072 C  
HETATM   22  C   UNL     1     -10.047  17.248  68.866  1.00  0.00    -0.331 C  
HETATM   23  C   UNL     1      -9.352  18.009  67.742  1.00  0.00    -0.263 C  
ENDBRANCH   8  20
BRANCH  14  24
HETATM   24  N   UNL     1     -11.048  11.652  69.697  1.00  0.00    -0.457 N  
HETATM   25  H   UNL     1     -10.994  10.971  68.940  1.00  0.00     0.000 HD 
HETATM   26  O   UNL     1     -11.517  11.825  71.932  1.00  0.00     2.582 OA 
HETATM   27  C   UNL     1     -11.449  11.160  70.913  1.00  0.00     0.389 C  
BRANCH  27  28
HETATM   28  C   UNL     1     -11.779   9.666  70.812  1.00  0.00    -0.390 C  
HETATM   29  C   UNL     1     -12.659   9.375  69.569  1.00  0.00     1.767 C  
HETATM   30  N   UNL     1     -11.893   9.030  68.358  1.00  0.00     1.585 NA 
HETATM   31  C   UNL     1     -10.908  10.062  67.996  1.00  0.00    -0.260 C  
HETATM   32  C   UNL     1     -11.279   7.680  68.544  1.00  0.00     0.453 C  
HETATM   33  C   UNL     1     -10.158   7.316  67.481  1.00  0.00    -0.250 C  
HETATM   34  C   UNL     1      -8.884   6.854  68.103  1.00  0.00    -0.125 A  
HETATM   35  C   UNL     1      -7.574   6.816  67.690  1.00  0.00    -0.106 A  
HETATM   36  N   UNL     1      -6.830   6.227  68.698  1.00  0.00    -0.071 NA 
HETATM   37  C   UNL     1      -7.645   5.873  69.754  1.00  0.00    -0.081 A  
HETATM   38  H   UNL     1      -5.822   6.076  68.665  1.00  0.00     0.000 HD 
HETATM   39  C   UNL     1      -7.416   5.270  70.994  1.00  0.00    -0.087 A  
HETATM   40  C   UNL     1      -8.527   5.126  71.848  1.00  0.00    -0.125 A  
HETATM   41  C   UNL     1      -9.771   5.673  71.530  1.00  0.00    -0.200 A  
HETATM   42  C   UNL     1      -9.925   6.370  70.334  1.00  0.00    -0.213 A  
HETATM   43  C   UNL     1      -8.891   6.344  69.411  1.00  0.00    -0.132 A  
HETATM   44  C   UNL     1     -10.991   7.387  70.088  1.00  0.00    -0.272 C  
HETATM   45  C   UNL     1     -10.581   8.708  70.814  1.00  0.00    -0.254 C  
ENDBRANCH  27  28
ENDBRANCH  14  24
TORSDOF 3
ENDMDL
MODEL      126
REMARK 921   NORMALIZED FREE ENERGY PREDICTED BY IDOCK:   26.53 KCAL/MOL
REMARK 922        TOTAL FREE ENERGY PREDICTED BY IDOCK:   30.11 KCAL/MOL
REMARK 923 INTER-LIGAND FREE ENERGY PREDICTED BY IDOCK:   28.96 KCAL/MOL
REMARK 924 INTRA-LIGAND FREE ENERGY PREDICTED BY IDOCK:    1.16 KCAL/MOL
REMARK 927      BINDING AFFINITY PREDICTED BY RF-SCORE:    0.00 PKD
ROOT
HETATM    1  C   UNL     1     -12.702  11.258  70.491  1.00  0.00    -0.174 C  
HETATM    2  C   UNL     1     -13.157  12.691  70.169  1.00  0.00     0.819 C  
HETATM    3  C   UNL     1     -13.639  13.233  71.559  1.00  0.00    -0.154 C  
HETATM    4  C   UNL     1     -13.601  12.035  72.506  1.00  0.00     0.351 C  
HETATM    5  N   UNL     1     -13.500  10.887  71.620  1.00  0.00    -0.211 N  
HETATM    6  C   UNL     1     -13.334   9.639  72.163  1.00  0.00    -0.454 C  
HETATM    7  O   UNL     1     -14.080   9.223  73.044  1.00  0.00    -0.370 OA 
HETATM    8  C   UNL     1     -12.201   8.785  71.513  1.00  0.00    -0.327 C  
HETATM    9  N   UNL     1     -11.199   9.627  70.621  1.00  0.00    -0.294 N  
HETATM   10  C   UNL     1      -8.879   7.139  70.682  1.00  0.00    -0.149 C  
HETATM   11  C   UNL     1     -10.190   9.204  69.769  1.00  0.00    -0.207 C  
HETATM   12  C   UNL     1     -10.447   5.448  69.665  1.00  0.00    -0.361 C  
HETATM   13  O   UNL     1      -9.104   9.757  69.671  1.00  0.00    -0.189 OA 
HETATM   14  C   UNL     1     -10.745   8.116  68.880  1.00  0.00    -0.064 C  
HETATM   15  C   UNL     1     -12.014  10.111  69.573  1.00  0.00     0.070 C  
HETATM   16  O   UNL     1     -11.435  10.885  68.511  1.00  0.00    -0.273 OA 
HETATM   17  H   UNL     1     -11.032  10.214  67.974  1.00  0.00     0.000 HD 
HETATM   18  C   UNL     1      -9.896   6.866  69.524  1.00  0.00    -0.163 C  
HETATM   19  O   UNL     1     -12.206   8.742  69.065  1.00  0.00     1.960 OA 
ENDROOT
BRANCH   8  20
HETATM   20  C   UNL     1     -11.621   7.849  72.555  1.00  0.00    -0.443 C  
HETATM   21  C   UNL     1     -11.893   5.754  73.863  1.00  0.00     2.184 C  
HETATM   22  C   UNL     1     -12.304   6.485  72.593  1.00  0.00     0.256 C  
HETATM   23  C   UNL     1     -11.948   5.631  71.381  1.00  0.00     0.635 C  
ENDBRANCH   8  20
BRANCH  14  24
HETATM   24  N   UNL     1     -10.850   7.795  67.476  1.00  0.00    -0.519 N  
HETATM   25  H   UNL     1     -11.000   6.809  67.258  1.00  0.00     0.000 HD 
HETATM   26  O   UNL     1     -10.651   9.847  66.481  1.00  0.00    -0.176 OA 
HETATM   27  C   UNL     1     -10.775   8.638  66.397  1.00  0.00     0.524 C  
BRANCH  27  28
HETATM   28  C   UNL     1     -10.884   7.851  65.085  1.00  0.00     6.460 C  
HETATM   29  C   UNL     1      -9.766   8.266  64.094  1.00  0.00     2.993 C  
HETATM   30  N   UNL     1      -8.544   7.447  64.190  1.00  0.00     0.299 NA 
HETATM   31  C   UNL     1      -7.976   7.431  65.548  1.00  0.00    -0.122 C  
HETATM   32  C   UNL     1      -8.839   6.078  63.666  1.00  0.00     0.549 C  
HETATM   33  C   UNL     1      -7.735   4.992  64.012  1.00  0.00    -0.079 C  
HETATM   34  C   UNL     1      -8.296   3.761  64.639  1.00  0.00    -0.097 A  
HETATM   35  C   UNL     1      -7.779   2.774  65.443  1.00  0.00    -0.077 A  
HETATM   36  N   UNL     1      -8.783   1.849  65.676  1.00  0.00    -0.115 NA 
HETATM   37  C   UNL     1      -9.941   2.221  65.023  1.00  0.00     0.417 A  
HETATM   38  H   UNL     1      -8.681   1.011  66.249  1.00  0.00     0.000 HD 
HETATM   39  C   UNL     1     -11.220   1.665  64.928  1.00  0.00     2.693 A  
HETATM   40  C   UNL     1     -12.177   2.392  64.194  1.00  0.00     5.521 A  
HETATM   41  C   UNL     1     -11.904   3.666  63.693  1.00  0.00     2.077 A  
HETATM   42  C   UNL     1     -10.650   4.232  63.912  1.00  0.00     0.047 A  
HETATM   43  C   UNL     1      -9.652   3.443  64.462  1.00  0.00    -0.160 A  
HETATM   44  C   UNL     1     -10.376   5.699  63.880  1.00  0.00     3.032 C  
HETATM   45  C   UNL     1     -10.899   6.322  65.214  1.00  0.00     3.249 C  
ENDBRANCH  27  28
ENDBRANCH  14  24
TORSDOF 3
ENDMDL
MODEL      127
REMARK 921   NORMALIZED FREE ENERGY PREDICTED BY IDOCK:   27.47 KCAL/MOL
REMARK 922        TOTAL FREE ENERGY PREDICTED BY IDOCK:   31.22 KCAL/MOL
REMARK 923 INTER-LIGAND FREE ENERGY PREDICTED BY IDOCK:   27.35 KCAL/MOL
REMARK 924 INTRA-LIGAND FREE ENERGY PREDICTED BY IDOCK:    3.87 KCAL/MOL
REMARK 927      BINDING AFFINITY PREDICTED BY RF-SCORE:    0.00 PKD
ROOT
HETATM    1  C   UNL     1      -9.925   4.650  64.429  1.00  0.00     0.199 C  
HETATM    2  C   UNL     1     -10.507   4.053  63.136  1.00  0.00    -0.133 C  
HETATM    3  C   UNL     1     -10.421   2.508  63.385  1.00  0.00    -0.194 C  
HETATM    4  C   UNL     1      -9.643   2.342  64.689  1.00  0.00    -0.066 C  
HETATM    5  N   UNL     1      -9.026   3.641  64.901  1.00  0.00    -0.121 N  
HETATM    6  C   UNL     1      -8.332   3.868  66.061  1.00  0.00    -0.109 C  
HETATM    7  O   UNL     1      -7.454   3.098  66.439  1.00  0.00    -0.074 OA 
HETATM    8  C   UNL     1      -8.684   5.204  66.788  1.00  0.00    -0.108 C  
HETATM    9  N   UNL     1     -10.030   5.867  66.284  1.00  0.00    -0.106 N  
HETATM   10  C   UNL     1     -10.219   7.845  69.046  1.00  0.00    -0.216 C  
HETATM   11  C   UNL     1     -10.573   7.112  66.566  1.00  0.00     0.093 C  
HETATM   12  C   UNL     1      -7.979   8.916  68.615  1.00  0.00    -0.103 C  
HETATM   13  O   UNL     1     -11.764   7.311  66.755  1.00  0.00     1.030 OA 
HETATM   14  C   UNL     1      -9.490   8.151  66.390  1.00  0.00    -0.218 C  
HETATM   15  C   UNL     1      -9.761   6.182  64.933  1.00  0.00     1.448 C  
HETATM   16  O   UNL     1     -10.747   6.865  64.144  1.00  0.00     7.263 OA 
HETATM   17  H   UNL     1     -10.651   7.762  64.439  1.00  0.00     0.000 HD 
HETATM   18  C   UNL     1      -9.315   8.541  67.976  1.00  0.00    -0.147 C  
HETATM   19  O   UNL     1      -8.760   7.181  65.347  1.00  0.00    -0.087 OA 
ENDROOT
BRANCH   8  20
HETATM   20  C   UNL     1      -8.485   5.027  68.281  1.00  0.00    -0.098 C  
HETATM   21  C   UNL     1      -8.631   3.508  70.241  1.00  0.00    -0.104 C  
HETATM   22  C   UNL     1      -8.500   3.567  68.726  1.00  0.00    -0.103 C  
HETATM   23  C   UNL     1      -7.240   2.824  68.297  1.00  0.00    -0.049 C  
ENDBRANCH   8  20
BRANCH  14  24
HETATM   24  N   UNL     1      -9.266   9.393  65.687  1.00  0.00    -0.209 N  
HETATM   25  H   UNL     1      -8.662   9.333  64.866  1.00  0.00     0.000 HD 
HETATM   26  O   UNL     1     -10.531  10.878  66.885  1.00  0.00    -0.228 OA 
HETATM   27  C   UNL     1      -9.757  10.641  65.975  1.00  0.00    -0.208 C  
BRANCH  27  28
HETATM   28  C   UNL     1      -9.210  11.680  64.988  1.00  0.00     0.031 C  
HETATM   29  C   UNL     1      -9.915  11.563  63.612  1.00  0.00    -0.376 C  
HETATM   30  N   UNL     1     -11.103  12.424  63.471  1.00  0.00    -0.461 NA 
HETATM   31  C   UNL     1     -12.104  12.189  64.525  1.00  0.00    -0.334 C  
HETATM   32  C   UNL     1     -10.659  13.850  63.398  1.00  0.00     2.532 C  
HETATM   33  C   UNL     1     -11.825  14.910  63.585  1.00  0.00     0.655 C  
HETATM   34  C   UNL     1     -11.525  15.938  64.623  1.00  0.00    -0.265 A  
HETATM   35  C   UNL     1     -12.297  16.764  65.405  1.00  0.00     3.543 A  
HETATM   36  N   UNL     1     -11.443  17.547  66.163  1.00  0.00     1.195 NA 
HETATM   37  C   UNL     1     -10.128  17.245  65.873  1.00  0.00    -0.211 A  
HETATM   38  H   UNL     1     -11.743  18.248  66.840  1.00  0.00     0.000 HD 
HETATM   39  C   UNL     1      -8.899  17.719  66.342  1.00  0.00    -0.256 A  
HETATM   40  C   UNL     1      -7.741  17.101  65.831  1.00  0.00    -0.011 A  
HETATM   41  C   UNL     1      -7.813  15.986  64.995  1.00  0.00     5.902 A  
HETATM   42  C   UNL     1      -9.061  15.473  64.647  1.00  0.00     3.789 A  
HETATM   43  C   UNL     1     -10.194  16.193  64.989  1.00  0.00     0.054 A  
HETATM   44  C   UNL     1      -9.293  14.068  64.196  1.00  0.00     3.634 C  
HETATM   45  C   UNL     1      -9.255  13.142  65.453  1.00  0.00     0.576 C  
ENDBRANCH  27  28
ENDBRANCH  14  24
TORSDOF 3
ENDMDL
MODEL      128
REMARK 921   NORMALIZED FREE ENERGY PREDICTED BY IDOCK:   28.77 KCAL/MOL
REMARK 922        TOTAL FREE ENERGY PREDICTED BY IDOCK:   32.75 KCAL/MOL
REMARK 923 INTER-LIGAND FREE ENERGY PREDICTED BY IDOCK:   31.23 KCAL/MOL
REMARK 924 INTRA-LIGAND FREE ENERGY PREDICTED BY IDOCK:    1.53 KCAL/MOL
REMARK 927      BINDING AFFINITY PREDICTED BY RF-SCORE:    0.00 PKD
ROOT
HETATM    1  C   UNL     1     -11.743   8.558  71.707  1.00  0.00    -0.327 C  
HETATM    2  C   UNL     1     -13.265   8.349  71.653  1.00  0.00    -0.360 C  
HETATM    3  C   UNL     1     -13.813   9.461  72.611  1.00  0.00    -0.305 C  
HETATM    4  C   UNL     1     -12.582  10.082  73.270  1.00  0.00     4.049 C  
HETATM    5  N   UNL     1     -11.518   9.130  73.000  1.00  0.00     1.343 N  
HETATM    6  C   UNL     1     -10.235   9.443  73.368  1.00  0.00     4.843 C  
HETATM    7  O   UNL     1      -9.971   9.811  74.509  1.00  0.00     9.090 OA 
HETATM    8  C   UNL     1      -9.157   9.205  72.264  1.00  0.00     0.639 C  
HETATM    9  N   UNL     1      -9.762   9.020  70.813  1.00  0.00    -0.224 N  
HETATM   10  C   UNL     1      -6.745   9.617  69.359  1.00  0.00    -0.053 C  
HETATM   11  C   UNL     1      -9.147   8.634  69.631  1.00  0.00    -0.149 C  
HETATM   12  C   UNL     1      -5.617   7.716  70.570  1.00  0.00    -0.023 C  
HETATM   13  O   UNL     1      -9.393   9.128  68.540  1.00  0.00    -0.136 OA 
HETATM   14  C   UNL     1      -8.317   7.402  69.911  1.00  0.00    -0.134 C  
HETATM   15  C   UNL     1     -10.524   7.835  70.918  1.00  0.00    -0.206 C  
HETATM   16  O   UNL     1     -11.189   7.302  69.763  1.00  0.00    -0.396 OA 
HETATM   17  H   UNL     1     -10.475   6.879  69.301  1.00  0.00     0.000 HD 
HETATM   18  C   UNL     1      -6.841   8.103  69.740  1.00  0.00    -0.040 C  
HETATM   19  O   UNL     1      -9.298   7.044  71.123  1.00  0.00    -0.158 OA 
ENDROOT
BRANCH   8  20
HETATM   20  C   UNL     1      -8.026  10.198  72.449  1.00  0.00     5.013 C  
HETATM   21  C   UNL     1      -6.078  10.912  73.817  1.00  0.00     2.272 C  
HETATM   22  C   UNL     1      -6.972   9.735  73.452  1.00  0.00     1.948 C  
HETATM   23  C   UNL     1      -6.115   8.601  72.901  1.00  0.00    -0.083 C  
ENDBRANCH   8  20
BRANCH  14  24
HETATM   24  N   UNL     1      -8.140   6.062  69.404  1.00  0.00    -0.109 N  
HETATM   25  H   UNL     1      -7.260   5.885  68.917  1.00  0.00     0.000 HD 
HETATM   26  O   UNL     1     -10.063   5.017  70.079  1.00  0.00    -0.235 OA 
HETATM   27  C   UNL     1      -8.997   4.994  69.489  1.00  0.00    -0.096 C  
BRANCH  27  28
HETATM   28  C   UNL     1      -8.420   3.775  68.757  1.00  0.00    -0.104 C  
HETATM   29  C   UNL     1      -9.449   2.616  68.713  1.00  0.00    -0.113 C  
HETATM   30  N   UNL     1     -10.303   2.616  67.513  1.00  0.00     1.980 NA 
HETATM   31  C   UNL     1     -11.028   3.885  67.331  1.00  0.00     3.439 C  
HETATM   32  C   UNL     1      -9.469   2.248  66.328  1.00  0.00     0.213 C  
HETATM   33  C   UNL     1     -10.158   2.533  64.927  1.00  0.00     0.402 C  
HETATM   34  C   UNL     1      -9.301   3.326  63.999  1.00  0.00    -0.128 A  
HETATM   35  C   UNL     1      -9.553   4.132  62.915  1.00  0.00    -0.137 A  
HETATM   36  N   UNL     1      -8.335   4.568  62.421  1.00  0.00    -0.076 NA 
HETATM   37  C   UNL     1      -7.298   4.045  63.166  1.00  0.00    -0.050 A  
HETATM   38  H   UNL     1      -8.221   5.189  61.620  1.00  0.00     0.000 HD 
HETATM   39  C   UNL     1      -5.907   4.164  63.107  1.00  0.00    -0.017 A  
HETATM   40  C   UNL     1      -5.167   3.506  64.109  1.00  0.00    -0.009 A  
HETATM   41  C   UNL     1      -5.793   2.872  65.184  1.00  0.00    -0.018 A  
HETATM   42  C   UNL     1      -7.183   2.878  65.266  1.00  0.00    -0.066 A  
HETATM   43  C   UNL     1      -7.910   3.354  64.186  1.00  0.00    -0.081 A  
HETATM   44  C   UNL     1      -7.949   2.692  66.534  1.00  0.00    -0.081 C  
HETATM   45  C   UNL     1      -7.888   4.028  67.341  1.00  0.00    -0.091 C  
ENDBRANCH  27  28
ENDBRANCH  14  24
TORSDOF 3
ENDMDL
MODEL      129
REMARK 921   NORMALIZED FREE ENERGY PREDICTED BY IDOCK:   31.06 KCAL/MOL
REMARK 922        TOTAL FREE ENERGY PREDICTED BY IDOCK:   35.44 KCAL/MOL
REMARK 923 INTER-LIGAND FREE ENERGY PREDICTED BY IDOCK:   34.20 KCAL/MOL
REMARK 924 INTRA-LIGAND FREE ENERGY PREDICTED BY IDOCK:    1.24 KCAL/MOL
REMARK 927      BINDING AFFINITY PREDICTED BY RF-SCORE:    0.00 PKD
ROOT
HETATM    1  C   UNL     1     -12.351  10.970  69.849  1.00  0.00    -0.288 C  
HETATM    2  C   UNL     1     -13.623  11.722  69.425  1.00  0.00     4.117 C  
HETATM    3  C   UNL     1     -13.813  12.775  70.571  1.00  0.00     2.464 C  
HETATM    4  C   UNL     1     -12.770  12.427  71.631  1.00  0.00    -0.194 C  
HETATM    5  N   UNL     1     -12.340  11.084  71.277  1.00  0.00    -0.346 N  
HETATM    6  C   UNL     1     -11.313  10.507  71.976  1.00  0.00     2.226 C  
HETATM    7  O   UNL     1     -11.324  10.461  73.203  1.00  0.00     5.308 OA 
HETATM    8  C   UNL     1     -10.205   9.849  71.096  1.00  0.00     0.284 C  
HETATM    9  N   UNL     1     -10.253  10.291  69.576  1.00  0.00    -0.228 N  
HETATM   10  C   UNL     1      -7.080   9.186  69.039  1.00  0.00    -0.067 C  
HETATM   11  C   UNL     1      -9.554   9.804  68.481  1.00  0.00    -0.149 C  
HETATM   12  C   UNL     1      -7.622   6.828  69.745  1.00  0.00    -0.104 C  
HETATM   13  O   UNL     1      -9.099  10.510  67.593  1.00  0.00    -0.141 OA 
HETATM   14  C   UNL     1      -9.647   8.296  68.493  1.00  0.00    -0.149 C  
HETATM   15  C   UNL     1     -11.497   9.796  69.125  1.00  0.00     0.099 C  
HETATM   16  O   UNL     1     -11.878   9.955  67.750  1.00  0.00    -0.176 OA 
HETATM   17  H   UNL     1     -11.378   9.268  67.325  1.00  0.00     0.000 HD 
HETATM   18  C   UNL     1      -8.076   7.993  68.866  1.00  0.00    -0.124 C  
HETATM   19  O   UNL     1     -11.028   8.410  69.294  1.00  0.00    -0.112 OA 
ENDROOT
BRANCH   8  20
HETATM   20  C   UNL     1      -8.877   9.926  71.824  1.00  0.00     2.666 C  
HETATM   21  C   UNL     1      -7.464   9.079  73.684  1.00  0.00     0.503 C  
HETATM   22  C   UNL     1      -8.635   8.751  72.768  1.00  0.00     0.157 C  
HETATM   23  C   UNL     1      -8.341   7.460  72.013  1.00  0.00    -0.117 C  
ENDBRANCH   8  20
BRANCH  14  24
HETATM   24  N   UNL     1     -10.024   7.214  67.614  1.00  0.00    -0.149 N  
HETATM   25  H   UNL     1      -9.446   6.376  67.671  1.00  0.00     0.000 HD 
HETATM   26  O   UNL     1     -11.872   8.056  66.555  1.00  0.00     3.332 OA 
HETATM   27  C   UNL     1     -11.057   7.164  66.712  1.00  0.00     0.198 C  
BRANCH  27  28
HETATM   28  C   UNL     1     -11.047   5.833  65.949  1.00  0.00     0.813 C  
HETATM   29  C   UNL     1     -11.479   6.035  64.474  1.00  0.00     6.666 C  
HETATM   30  N   UNL     1     -10.359   6.283  63.549  1.00  0.00     5.118 NA 
HETATM   31  C   UNL     1      -9.534   7.434  63.952  1.00  0.00     3.007 C  
HETATM   32  C   UNL     1      -9.567   5.023  63.402  1.00  0.00     0.488 C  
HETATM   33  C   UNL     1      -8.150   5.216  62.715  1.00  0.00    -0.094 C  
HETATM   34  C   UNL     1      -7.030   4.620  63.498  1.00  0.00    -0.044 A  
HETATM   35  C   UNL     1      -5.676   4.846  63.558  1.00  0.00    -0.017 A  
HETATM   36  N   UNL     1      -5.135   3.938  64.453  1.00  0.00    -0.008 NA 
HETATM   37  C   UNL     1      -6.122   3.120  64.964  1.00  0.00    -0.023 A  
HETATM   38  H   UNL     1      -4.147   3.882  64.699  1.00  0.00     0.000 HD 
HETATM   39  C   UNL     1      -6.127   2.067  65.883  1.00  0.00    -0.023 A  
HETATM   40  C   UNL     1      -7.378   1.504  66.201  1.00  0.00    -0.056 A  
HETATM   41  C   UNL     1      -8.570   2.051  65.722  1.00  0.00    -0.111 A  
HETATM   42  C   UNL     1      -8.525   3.175  64.901  1.00  0.00    -0.096 A  
HETATM   43  C   UNL     1      -7.294   3.608  64.434  1.00  0.00    -0.067 A  
HETATM   44  C   UNL     1      -9.661   4.128  64.721  1.00  0.00    -0.176 C  
HETATM   45  C   UNL     1      -9.732   5.044  65.984  1.00  0.00    -0.194 C  
ENDBRANCH  27  28
ENDBRANCH  14  24
TORSDOF 3
ENDMDL
MODEL      130
REMARK 921   NORMALIZED FREE ENERGY PREDICTED BY IDOCK:   31.43 KCAL/MOL
REMARK 922        TOTAL FREE ENERGY PREDICTED BY IDOCK:   35.88 KCAL/MOL
REMARK 923 INTER-LIGAND FREE ENERGY PREDICTED BY IDOCK:   31.75 KCAL/MOL
REMARK 924 INTRA-LIGAND FREE ENERGY PREDICTED BY IDOCK:    4.13 KCAL/MOL
REMARK 927      BINDING AFFINITY PREDICTED BY RF-SCORE:    0.00 PKD
ROOT
HETATM    1  C   UNL     1      -9.291  12.758  65.024  1.00  0.00     0.519 C  
HETATM    2  C   UNL     1     -10.047  13.101  63.730  1.00  0.00     0.545 C  
HETATM    3  C   UNL     1     -10.122  11.724  62.985  1.00  0.00    -0.263 C  
HETATM    4  C   UNL     1      -9.259  10.764  63.802  1.00  0.00    -0.244 C  
HETATM    5  N   UNL     1      -8.478  11.635  64.664  1.00  0.00     0.733 N  
HETATM    6  C   UNL     1      -7.666  11.078  65.616  1.00  0.00     0.090 C  
HETATM    7  O   UNL     1      -6.854  10.202  65.328  1.00  0.00    -0.125 OA 
HETATM    8  C   UNL     1      -7.795  11.702  67.040  1.00  0.00    -0.164 C  
HETATM    9  N   UNL     1      -9.093  12.589  67.231  1.00  0.00    -0.182 N  
HETATM   10  C   UNL     1      -8.811  12.470  70.619  1.00  0.00     7.766 C  
HETATM   11  C   UNL     1      -9.460  13.422  68.277  1.00  0.00    -0.209 C  
HETATM   12  C   UNL     1      -6.506  13.490  70.613  1.00  0.00     0.353 C  
HETATM   13  O   UNL     1     -10.600  13.511  68.712  1.00  0.00    -0.246 OA 
HETATM   14  C   UNL     1      -8.282  14.307  68.613  1.00  0.00    -0.139 C  
HETATM   15  C   UNL     1      -8.906  13.653  66.320  1.00  0.00     0.261 C  
HETATM   16  O   UNL     1      -9.869  14.715  66.247  1.00  0.00    -0.271 OA 
HETATM   17  H   UNL     1      -9.644  15.240  67.006  1.00  0.00     0.000 HD 
HETATM   18  C   UNL     1      -7.927  13.638  70.070  1.00  0.00     1.774 C  
HETATM   19  O   UNL     1      -7.764  14.149  67.107  1.00  0.00    -0.147 OA 
ENDROOT
BRANCH   8  20
HETATM   20  C   UNL     1      -7.491  10.642  68.080  1.00  0.00    -0.090 C  
HETATM   21  C   UNL     1      -8.155   8.485  69.118  1.00  0.00    -0.117 C  
HETATM   22  C   UNL     1      -8.265   9.344  67.867  1.00  0.00    -0.115 C  
HETATM   23  C   UNL     1      -7.747   8.559  66.667  1.00  0.00    -0.090 C  
ENDBRANCH   8  20
BRANCH  14  24
HETATM   24  N   UNL     1      -7.976  15.709  68.775  1.00  0.00    -0.159 N  
HETATM   25  H   UNL     1      -8.462  16.344  68.141  1.00  0.00     0.000 HD 
HETATM   26  O   UNL     1      -6.501  15.696  70.527  1.00  0.00     0.073 OA 
HETATM   27  C   UNL     1      -7.119  16.301  69.668  1.00  0.00    -0.040 C  
BRANCH  27  28
HETATM   28  C   UNL     1      -7.063  17.817  69.444  1.00  0.00    -0.020 C  
HETATM   29  C   UNL     1      -5.616  18.281  69.141  1.00  0.00    -0.206 C  
HETATM   30  N   UNL     1      -5.283  18.311  67.705  1.00  0.00    -0.154 NA 
HETATM   31  C   UNL     1      -5.501  17.013  67.044  1.00  0.00    -0.165 C  
HETATM   32  C   UNL     1      -6.038  19.427  67.059  1.00  0.00    -0.181 C  
HETATM   33  C   UNL     1      -6.051  19.379  65.473  1.00  0.00    -0.245 C  
HETATM   34  C   UNL     1      -7.420  19.479  64.891  1.00  0.00     0.919 A  
HETATM   35  C   UNL     1      -7.984  19.102  63.695  1.00  0.00     9.032 A  
HETATM   36  N   UNL     1      -9.309  19.504  63.708  1.00  0.00     8.498 NA 
HETATM   37  C   UNL     1      -9.606  20.145  64.894  1.00  0.00     1.836 A  
HETATM   38  H   UNL     1      -9.972  19.347  62.949  1.00  0.00     0.000 HD 
HETATM   39  C   UNL     1     -10.765  20.727  65.416  1.00  0.00     1.071 A  
HETATM   40  C   UNL     1     -10.685  21.244  66.724  1.00  0.00     2.932 A  
HETATM   41  C   UNL     1      -9.546  21.072  67.511  1.00  0.00    -0.243 A  
HETATM   42  C   UNL     1      -8.453  20.381  66.991  1.00  0.00    -0.355 A  
HETATM   43  C   UNL     1      -8.459  20.045  65.646  1.00  0.00     0.151 A  
HETATM   44  C   UNL     1      -7.410  19.713  67.824  1.00  0.00    -0.306 C  
HETATM   45  C   UNL     1      -8.005  18.376  68.370  1.00  0.00    -0.325 C  
ENDBRANCH  27  28
ENDBRANCH  14  24
TORSDOF 3
ENDMDL
MODEL      131
REMARK 921   NORMALIZED FREE ENERGY PREDICTED BY IDOCK:   31.60 KCAL/MOL
REMARK 922        TOTAL FREE ENERGY PREDICTED BY IDOCK:   36.08 KCAL/MOL
REMARK 923 INTER-LIGAND FREE ENERGY PREDICTED BY IDOCK:   18.66 KCAL/MOL
REMARK 924 INTRA-LIGAND FREE ENERGY PREDICTED BY IDOCK:   17.42 KCAL/MOL
REMARK 927      BINDING AFFINITY PREDICTED BY RF-SCORE:    0.00 PKD
ROOT
HETATM    1  C   UNL     1     -11.205  15.493  67.149  1.00  0.00    -0.204 C  
HETATM    2  C   UNL     1     -10.499  15.732  65.804  1.00  0.00    -0.384 C  
HETATM    3  C   UNL     1     -10.935  17.190  65.426  1.00  0.00     0.034 C  
HETATM    4  C   UNL     1     -11.981  17.591  66.464  1.00  0.00     3.192 C  
HETATM    5  N   UNL     1     -12.362  16.335  67.087  1.00  0.00     1.773 N  
HETATM    6  C   UNL     1     -13.221  16.353  68.155  1.00  0.00     4.521 C  
HETATM    7  O   UNL     1     -14.292  16.953  68.101  1.00  0.00     6.560 OA 
HETATM    8  C   UNL     1     -12.772  15.493  69.377  1.00  0.00     0.298 C  
HETATM    9  N   UNL     1     -11.247  15.067  69.329  1.00  0.00    -0.269 N  
HETATM   10  C   UNL     1     -11.246  14.292  72.642  1.00  0.00     1.963 C  
HETATM   11  C   UNL     1     -10.541  14.183  70.131  1.00  0.00     0.581 C  
HETATM   12  C   UNL     1     -13.097  12.598  72.399  1.00  0.00    -0.241 C  
HETATM   13  O   UNL     1      -9.399  14.377  70.521  1.00  0.00     1.532 OA 
HETATM   14  C   UNL     1     -11.341  12.905  70.244  1.00  0.00     0.402 C  
HETATM   15  C   UNL     1     -11.167  14.245  68.183  1.00  0.00    -0.275 C  
HETATM   16  O   UNL     1      -9.926  13.610  67.840  1.00  0.00    -0.231 OA 
HETATM   17  H   UNL     1      -9.903  12.878  68.445  1.00  0.00     0.000 HD 
HETATM   18  C   UNL     1     -11.757  13.059  71.826  1.00  0.00     2.077 C  
HETATM   19  O   UNL     1     -12.016  13.229  68.830  1.00  0.00    -0.317 OA 
ENDROOT
BRANCH   8  20
HETATM   20  C   UNL     1     -13.303  16.119  70.651  1.00  0.00     1.580 C  
HETATM   21  C   UNL     1     -14.202  15.754  72.938  1.00  0.00    -0.113 C  
HETATM   22  C   UNL     1     -13.361  15.146  71.826  1.00  0.00    -0.506 C  
HETATM   23  C   UNL     1     -11.974  14.814  72.365  1.00  0.00    -0.306 C  
ENDBRANCH   8  20
BRANCH  14  24
HETATM   24  N   UNL     1     -11.168  11.484  70.054  1.00  0.00    -0.489 N  
HETATM   25  H   UNL     1     -10.928  10.952  70.891  1.00  0.00     0.000 HD 
HETATM   26  O   UNL     1     -11.614  11.224  67.823  1.00  0.00    -0.463 OA 
HETATM   27  C   UNL     1     -11.284  10.754  68.898  1.00  0.00    -0.268 C  
BRANCH  27  28
HETATM   28  C   UNL     1     -10.958   9.277  69.153  1.00  0.00    -0.083 C  
HETATM   29  C   UNL     1     -10.514   8.573  67.845  1.00  0.00    -0.201 C  
HETATM   30  N   UNL     1      -9.058   8.594  67.616  1.00  0.00    -0.134 NA 
HETATM   31  C   UNL     1      -8.502   9.958  67.618  1.00  0.00    -0.114 C  
HETATM   32  C   UNL     1      -8.400   7.696  68.613  1.00  0.00    -0.129 C  
HETATM   33  C   UNL     1      -6.826   7.871  68.716  1.00  0.00    -0.062 C  
HETATM   34  C   UNL     1      -6.346   8.078  70.112  1.00  0.00    -0.033 A  
HETATM   35  C   UNL     1      -5.225   8.649  70.666  1.00  0.00    -0.021 A  
HETATM   36  N   UNL     1      -5.313   8.506  72.041  1.00  0.00    -0.037 NA 
HETATM   37  C   UNL     1      -6.474   7.841  72.382  1.00  0.00    -0.058 A  
HETATM   38  H   UNL     1      -4.619   8.845  72.706  1.00  0.00     0.000 HD 
HETATM   39  C   UNL     1      -7.044   7.451  73.597  1.00  0.00    -0.095 A  
HETATM   40  C   UNL     1      -8.305   6.826  73.537  1.00  0.00    -0.130 A  
HETATM   41  C   UNL     1      -9.012   6.716  72.339  1.00  0.00    -0.138 A  
HETATM   42  C   UNL     1      -8.456   7.226  71.168  1.00  0.00    -0.116 A  
HETATM   43  C   UNL     1      -7.140   7.662  71.192  1.00  0.00    -0.054 A  
HETATM   44  C   UNL     1      -9.248   7.616  69.964  1.00  0.00    -0.151 C  
HETATM   45  C   UNL     1      -9.924   8.995  70.252  1.00  0.00    -0.229 C  
ENDBRANCH  27  28
ENDBRANCH  14  24
TORSDOF 3
ENDMDL
MODEL      132
REMARK 921   NORMALIZED FREE ENERGY PREDICTED BY IDOCK:   32.06 KCAL/MOL
REMARK 922        TOTAL FREE ENERGY PREDICTED BY IDOCK:   36.62 KCAL/MOL
REMARK 923 INTER-LIGAND FREE ENERGY PREDICTED BY IDOCK:   37.12 KCAL/MOL
REMARK 924 INTRA-LIGAND FREE ENERGY PREDICTED BY IDOCK:   -0.50 KCAL/MOL
REMARK 927      BINDING AFFINITY PREDICTED BY RF-SCORE:    0.00 PKD
ROOT
HETATM    1  C   UNL     1     -10.502   8.489  66.589  1.00  0.00    -0.165 C  
HETATM    2  C   UNL     1     -11.513   7.593  67.324  1.00  0.00     1.107 C  
HETATM    3  C   UNL     1     -12.059   6.664  66.186  1.00  0.00     4.719 C  
HETATM    4  C   UNL     1     -11.473   7.212  64.886  1.00  0.00    10.985 C  
HETATM    5  N   UNL     1     -10.994   8.537  65.246  1.00  0.00     4.729 N  
HETATM    6  C   UNL     1     -10.304   9.270  64.317  1.00  0.00     3.063 C  
HETATM    7  O   UNL     1     -10.751   9.453  63.188  1.00  0.00     3.853 OA 
HETATM    8  C   UNL     1      -8.980   9.912  64.837  1.00  0.00    -0.207 C  
HETATM    9  N   UNL     1      -8.469   9.300  66.205  1.00  0.00    -0.125 N  
HETATM   10  C   UNL     1      -5.355  10.590  65.749  1.00  0.00    -0.095 C  
HETATM   11  C   UNL     1      -7.446   9.715  67.043  1.00  0.00    -0.091 C  
HETATM   12  C   UNL     1      -6.196  12.961  65.598  1.00  0.00     6.019 C  
HETATM   13  O   UNL     1      -6.680   8.953  67.616  1.00  0.00    -0.064 OA 
HETATM   14  C   UNL     1      -7.591  11.203  67.267  1.00  0.00    -0.126 C  
HETATM   15  C   UNL     1      -9.490   9.638  67.122  1.00  0.00    -0.148 C  
HETATM   16  O   UNL     1      -9.352   9.296  68.510  1.00  0.00    -0.141 OA 
HETATM   17  H   UNL     1      -8.759   9.969  68.822  1.00  0.00     0.000 HD 
HETATM   18  C   UNL     1      -6.267  11.672  66.416  1.00  0.00     0.081 C  
HETATM   19  O   UNL     1      -9.161  11.068  66.987  1.00  0.00    -0.152 OA 
ENDROOT
BRANCH   8  20
HETATM   20  C   UNL     1      -7.995  10.026  63.690  1.00  0.00    -0.155 C  
HETATM   21  C   UNL     1      -5.831   9.291  62.716  1.00  0.00    -0.089 C  
HETATM   22  C   UNL     1      -6.950   8.914  63.676  1.00  0.00    -0.088 C  
HETATM   23  C   UNL     1      -7.545   7.573  63.258  1.00  0.00    -0.118 C  
ENDBRANCH   8  20
BRANCH  14  24
HETATM   24  N   UNL     1      -7.671  12.144  68.359  1.00  0.00    -0.130 N  
HETATM   25  H   UNL     1      -8.541  12.674  68.424  1.00  0.00     0.000 HD 
HETATM   26  O   UNL     1      -5.663  11.846  69.419  1.00  0.00    -0.062 OA 
HETATM   27  C   UNL     1      -6.732  12.422  69.320  1.00  0.00    -0.067 C  
BRANCH  27  28
HETATM   28  C   UNL     1      -7.223  13.538  70.252  1.00  0.00     1.188 C  
HETATM   29  C   UNL     1      -6.253  14.747  70.229  1.00  0.00    -0.167 C  
HETATM   30  N   UNL     1      -6.597  15.774  69.230  1.00  0.00    -0.149 NA 
HETATM   31  C   UNL     1      -6.691  15.231  67.865  1.00  0.00    -0.151 C  
HETATM   32  C   UNL     1      -7.846  16.471  69.666  1.00  0.00     0.373 C  
HETATM   33  C   UNL     1      -8.527  17.361  68.543  1.00  0.00    -0.274 C  
HETATM   34  C   UNL     1      -9.976  17.065  68.355  1.00  0.00    -0.289 A  
HETATM   35  C   UNL     1     -10.864  17.239  67.320  1.00  0.00    -0.124 A  
HETATM   36  N   UNL     1     -12.107  16.808  67.753  1.00  0.00     1.005 NA 
HETATM   37  C   UNL     1     -12.036  16.368  69.060  1.00  0.00     0.214 A  
HETATM   38  H   UNL     1     -12.955  16.815  67.187  1.00  0.00     0.000 HD 
HETATM   39  C   UNL     1     -12.969  15.838  69.955  1.00  0.00     0.457 A  
HETATM   40  C   UNL     1     -12.487  15.440  71.217  1.00  0.00    -0.460 A  
HETATM   41  C   UNL     1     -11.124  15.453  71.518  1.00  0.00    -0.295 A  
HETATM   42  C   UNL     1     -10.215  15.879  70.552  1.00  0.00     0.287 A  
HETATM   43  C   UNL     1     -10.702  16.451  69.387  1.00  0.00    -0.324 A  
HETATM   44  C   UNL     1      -8.770  15.503  70.538  1.00  0.00     1.517 C  
HETATM   45  C   UNL     1      -8.653  14.037  70.011  1.00  0.00     1.776 C  
ENDBRANCH  27  28
ENDBRANCH  14  24
TORSDOF 3
ENDMDL
MODEL      133
REMARK 921   NORMALIZED FREE ENERGY PREDICTED BY IDOCK:   36.53 KCAL/MOL
REMARK 922        TOTAL FREE ENERGY PREDICTED BY IDOCK:   41.87 KCAL/MOL
REMARK 923 INTER-LIGAND FREE ENERGY PREDICTED BY IDOCK:   42.78 KCAL/MOL
REMARK 924 INTRA-LIGAND FREE ENERGY PREDICTED BY IDOCK:   -0.90 KCAL/MOL
REMARK 927      BINDING AFFINITY PREDICTED BY RF-SCORE:    0.00 PKD
ROOT
HETATM    1  C   UNL     1     -10.766   4.137  67.617  1.00  0.00     1.642 C  
HETATM    2  C   UNL     1     -11.975   4.101  66.668  1.00  0.00     8.310 C  
HETATM    3  C   UNL     1     -12.026   2.602  66.211  1.00  0.00    13.512 C  
HETATM    4  C   UNL     1     -10.760   1.956  66.771  1.00  0.00     4.620 C  
HETATM    5  N   UNL     1      -9.921   3.083  67.142  1.00  0.00     0.507 N  
HETATM    6  C   UNL     1      -8.735   2.847  67.787  1.00  0.00    -0.114 C  
HETATM    7  O   UNL     1      -7.916   2.047  67.343  1.00  0.00    -0.064 OA 
HETATM    8  C   UNL     1      -8.486   3.729  69.050  1.00  0.00    -0.073 C  
HETATM    9  N   UNL     1      -9.787   4.455  69.587  1.00  0.00    -0.219 N  
HETATM   10  C   UNL     1      -8.333   5.076  72.599  1.00  0.00    -0.116 C  
HETATM   11  C   UNL     1      -9.928   5.429  70.563  1.00  0.00    -0.221 C  
HETATM   12  C   UNL     1      -6.426   6.371  71.579  1.00  0.00    -0.050 C  
HETATM   13  O   UNL     1     -10.840   5.453  71.377  1.00  0.00    -0.222 OA 
HETATM   14  C   UNL     1      -8.909   6.514  70.301  1.00  0.00    -0.151 C  
HETATM   15  C   UNL     1     -10.143   5.323  68.531  1.00  0.00    -0.165 C  
HETATM   16  O   UNL     1     -11.264   6.209  68.675  1.00  0.00    -0.370 OA 
HETATM   17  H   UNL     1     -10.900   6.904  69.210  1.00  0.00     0.000 HD 
HETATM   18  C   UNL     1      -7.946   6.213  71.597  1.00  0.00    -0.103 C  
HETATM   19  O   UNL     1      -8.923   6.119  68.750  1.00  0.00    -0.124 OA 
ENDROOT
BRANCH   8  20
HETATM   20  C   UNL     1      -7.635   2.957  70.039  1.00  0.00    -0.043 C  
HETATM   21  C   UNL     1      -5.509   1.744  70.463  1.00  0.00    -0.012 C  
HETATM   22  C   UNL     1      -6.184   2.796  69.594  1.00  0.00    -0.028 C  
HETATM   23  C   UNL     1      -5.407   4.104  69.687  1.00  0.00    -0.008 C  
ENDBRANCH   8  20
BRANCH  14  24
HETATM   24  N   UNL     1      -8.853   7.947  70.134  1.00  0.00    -0.143 N  
HETATM   25  H   UNL     1      -8.124   8.291  69.507  1.00  0.00     0.000 HD 
HETATM   26  O   UNL     1     -10.593   8.668  71.435  1.00  0.00    -0.225 OA 
HETATM   27  C   UNL     1      -9.647   8.908  70.706  1.00  0.00    -0.229 C  
BRANCH  27  28
HETATM   28  C   UNL     1      -9.189  10.311  70.287  1.00  0.00     0.370 C  
HETATM   29  C   UNL     1      -8.560  10.289  68.870  1.00  0.00    -0.150 C  
HETATM   30  N   UNL     1      -9.519  10.553  67.783  1.00  0.00    -0.148 NA 
HETATM   31  C   UNL     1     -10.661   9.623  67.796  1.00  0.00    -0.257 C  
HETATM   32  C   UNL     1      -9.936  11.987  67.844  1.00  0.00    -0.197 C  
HETATM   33  C   UNL     1     -11.207  12.339  66.963  1.00  0.00    -0.367 C  
HETATM   34  C   UNL     1     -12.269  13.060  67.722  1.00  0.00    -0.079 A  
HETATM   35  C   UNL     1     -13.625  13.216  67.560  1.00  0.00     7.197 A  
HETATM   36  N   UNL     1     -14.079  14.045  68.572  1.00  0.00     7.362 NA 
HETATM   37  C   UNL     1     -13.030  14.436  69.380  1.00  0.00     0.798 A  
HETATM   38  H   UNL     1     -15.050  14.327  68.702  1.00  0.00     0.000 HD 
HETATM   39  C   UNL     1     -12.933  15.243  70.517  1.00  0.00    -0.380 A  
HETATM   40  C   UNL     1     -11.661  15.358  71.110  1.00  0.00    -0.425 A  
HETATM   41  C   UNL     1     -10.574  14.604  70.665  1.00  0.00     0.420 A  
HETATM   42  C   UNL     1     -10.745  13.722  69.600  1.00  0.00     0.171 A  
HETATM   43  C   UNL     1     -11.939  13.753  68.897  1.00  0.00    -0.394 A  
HETATM   44  C   UNL     1      -9.866  12.543  69.339  1.00  0.00     0.872 C  
HETATM   45  C   UNL     1     -10.254  11.414  70.347  1.00  0.00     2.073 C  
ENDBRANCH  27  28
ENDBRANCH  14  24
TORSDOF 3
ENDMDL
MODEL      134
REMARK 921   NORMALIZED FREE ENERGY PREDICTED BY IDOCK:   38.32 KCAL/MOL
REMARK 922        TOTAL FREE ENERGY PREDICTED BY IDOCK:   43.97 KCAL/MOL
REMARK 923 INTER-LIGAND FREE ENERGY PREDICTED BY IDOCK:   43.10 KCAL/MOL
REMARK 924 INTRA-LIGAND FREE ENERGY PREDICTED BY IDOCK:    0.87 KCAL/MOL
REMARK 927      BINDING AFFINITY PREDICTED BY RF-SCORE:    0.00 PKD
ROOT
HETATM    1  C   UNL     1     -12.428  14.503  64.891  1.00  0.00    -0.311 C  
HETATM    2  C   UNL     1     -13.347  15.685  64.542  1.00  0.00     2.062 C  
HETATM    3  C   UNL     1     -13.837  15.340  63.093  1.00  0.00     6.014 C  
HETATM    4  C   UNL     1     -13.032  14.115  62.664  1.00  0.00     3.189 C  
HETATM    5  N   UNL     1     -11.939  14.057  63.621  1.00  0.00    -0.215 N  
HETATM    6  C   UNL     1     -11.077  12.993  63.584  1.00  0.00    -0.238 C  
HETATM    7  O   UNL     1     -10.527  12.654  62.539  1.00  0.00     1.225 OA 
HETATM    8  C   UNL     1     -10.793  12.327  64.966  1.00  0.00    -0.298 C  
HETATM    9  N   UNL     1     -11.827  12.734  66.094  1.00  0.00    -0.409 N  
HETATM   10  C   UNL     1     -10.899  10.109  68.049  1.00  0.00    -0.320 C  
HETATM   11  C   UNL     1     -11.807  12.484  67.458  1.00  0.00    -0.323 C  
HETATM   12  C   UNL     1      -8.488  10.840  68.144  1.00  0.00    -0.125 C  
HETATM   13  O   UNL     1     -12.796  12.187  68.113  1.00  0.00     0.978 OA 
HETATM   14  C   UNL     1     -10.435  12.841  67.983  1.00  0.00    -0.226 C  
HETATM   15  C   UNL     1     -11.623  14.124  66.247  1.00  0.00    -0.370 C  
HETATM   16  O   UNL     1     -12.355  14.853  67.243  1.00  0.00    -0.412 OA 
HETATM   17  H   UNL     1     -11.884  14.631  68.037  1.00  0.00     0.000 HD 
HETATM   18  C   UNL     1      -9.932  11.311  68.310  1.00  0.00    -0.201 C  
HETATM   19  O   UNL     1     -10.271  13.884  66.781  1.00  0.00    -0.260 OA 
ENDROOT
BRANCH   8  20
HETATM   20  C   UNL     1     -10.499  10.854  64.760  1.00  0.00    -0.373 C  
HETATM   21  C   UNL     1      -8.988   9.144  63.776  1.00  0.00     0.006 C  
HETATM   22  C   UNL     1      -9.080  10.582  64.266  1.00  0.00    -0.256 C  
HETATM   23  C   UNL     1      -8.040  10.813  65.357  1.00  0.00    -0.050 C  
ENDBRANCH   8  20
BRANCH  14  24
HETATM   24  N   UNL     1      -9.835  13.646  69.021  1.00  0.00    -0.423 N  
HETATM   25  H   UNL     1      -9.377  13.130  69.773  1.00  0.00     0.000 HD 
HETATM   26  O   UNL     1     -10.250  15.779  68.297  1.00  0.00    -0.220 OA 
HETATM   27  C   UNL     1      -9.798  15.013  69.130  1.00  0.00    -0.223 C  
BRANCH  27  28
HETATM   28  C   UNL     1      -9.102  15.435  70.430  1.00  0.00     0.956 C  
HETATM   29  C   UNL     1      -7.837  14.576  70.686  1.00  0.00     1.774 C  
HETATM   30  N   UNL     1      -6.598  15.151  70.131  1.00  0.00    -0.138 NA 
HETATM   31  C   UNL     1      -6.692  15.417  68.686  1.00  0.00    -0.102 C  
HETATM   32  C   UNL     1      -6.233  16.365  70.924  1.00  0.00     0.971 C  
HETATM   33  C   UNL     1      -5.127  17.281  70.249  1.00  0.00    -0.219 C  
HETATM   34  C   UNL     1      -5.525  18.715  70.156  1.00  0.00    -0.232 A  
HETATM   35  C   UNL     1      -5.146  19.765  69.355  1.00  0.00    -0.180 A  
HETATM   36  N   UNL     1      -5.841  20.887  69.772  1.00  0.00    -0.398 NA 
HETATM   37  C   UNL     1      -6.657  20.578  70.842  1.00  0.00     0.484 A  
HETATM   38  H   UNL     1      -5.761  21.812  69.349  1.00  0.00     0.000 HD 
HETATM   39  C   UNL     1      -7.552  21.316  71.621  1.00  0.00     4.718 A  
HETATM   40  C   UNL     1      -8.264  20.612  72.613  1.00  0.00     3.324 A  
HETATM   41  C   UNL     1      -8.178  19.223  72.730  1.00  0.00     5.943 A  
HETATM   42  C   UNL     1      -7.361  18.513  71.853  1.00  0.00     6.332 A  
HETATM   43  C   UNL     1      -6.517  19.220  71.010  1.00  0.00     0.569 A  
HETATM   44  C   UNL     1      -7.532  17.064  71.536  1.00  0.00     7.408 C  
HETATM   45  C   UNL     1      -8.732  16.920  70.547  1.00  0.00     3.673 C  
ENDBRANCH  27  28
ENDBRANCH  14  24
TORSDOF 3
ENDMDL
MODEL      135
REMARK 921   NORMALIZED FREE ENERGY PREDICTED BY IDOCK:   38.35 KCAL/MOL
REMARK 922        TOTAL FREE ENERGY PREDICTED BY IDOCK:   44.00 KCAL/MOL
REMARK 923 INTER-LIGAND FREE ENERGY PREDICTED BY IDOCK:   42.61 KCAL/MOL
REMARK 924 INTRA-LIGAND FREE ENERGY PREDICTED BY IDOCK:    1.40 KCAL/MOL
REMARK 927      BINDING AFFINITY PREDICTED BY RF-SCORE:    0.00 PKD
ROOT
HETATM    1  C   UNL     1      -7.569  16.716  65.608  1.00  0.00     1.259 C  
HETATM    2  C   UNL     1      -6.311  17.230  64.888  1.00  0.00     2.749 C  
HETATM    3  C   UNL     1      -6.560  18.775  64.794  1.00  0.00     0.277 C  
HETATM    4  C   UNL     1      -7.990  18.994  65.285  1.00  0.00     1.105 C  
HETATM    5  N   UNL     1      -8.581  17.666  65.258  1.00  0.00     1.531 N  
HETATM    6  C   UNL     1      -9.848  17.491  65.751  1.00  0.00     0.024 C  
HETATM    7  O   UNL     1     -10.780  18.198  65.378  1.00  0.00    -0.620 OA 
HETATM    8  C   UNL     1     -10.013  16.286  66.729  1.00  0.00    -0.261 C  
HETATM    9  N   UNL     1      -8.641  15.722  67.281  1.00  0.00    -0.177 N  
HETATM   10  C   UNL     1     -10.208  14.082  69.817  1.00  0.00     0.570 C  
HETATM   11  C   UNL     1      -8.378  14.580  68.023  1.00  0.00    -0.153 C  
HETATM   12  C   UNL     1     -11.655  12.735  68.252  1.00  0.00    -0.375 C  
HETATM   13  O   UNL     1      -7.572  14.532  68.941  1.00  0.00    -0.129 OA 
HETATM   14  C   UNL     1      -9.090  13.417  67.370  1.00  0.00    -0.216 C  
HETATM   15  C   UNL     1      -7.991  15.237  66.124  1.00  0.00     1.061 C  
HETATM   16  O   UNL     1      -6.717  14.585  66.235  1.00  0.00     1.641 OA 
HETATM   17  H   UNL     1      -6.963  13.719  66.538  1.00  0.00     0.000 HD 
HETATM   18  C   UNL     1     -10.221  13.182  68.537  1.00  0.00    -0.218 C  
HETATM   19  O   UNL     1      -9.011  14.186  65.969  1.00  0.00     0.038 OA 
ENDROOT
BRANCH   8  20
HETATM   20  C   UNL     1     -11.113  16.598  67.724  1.00  0.00    -0.157 C  
HETATM   21  C   UNL     1     -13.521  17.094  68.088  1.00  0.00     7.164 C  
HETATM   22  C   UNL     1     -12.517  16.449  67.143  1.00  0.00     2.733 C  
HETATM   23  C   UNL     1     -12.894  14.988  66.925  1.00  0.00     1.653 C  
ENDBRANCH   8  20
BRANCH  14  24
HETATM   24  N   UNL     1      -8.798  12.091  66.878  1.00  0.00    -0.192 N  
HETATM   25  H   UNL     1      -7.810  11.837  66.850  1.00  0.00     0.000 HD 
HETATM   26  O   UNL     1     -10.885  11.246  66.459  1.00  0.00    -0.271 OA 
HETATM   27  C   UNL     1      -9.672  11.127  66.443  1.00  0.00    -0.204 C  
BRANCH  27  28
HETATM   28  C   UNL     1      -8.914   9.886  65.955  1.00  0.00    -0.178 C  
HETATM   29  C   UNL     1      -8.013   9.310  67.077  1.00  0.00    -0.102 C  
HETATM   30  N   UNL     1      -8.665   8.277  67.901  1.00  0.00    -0.134 NA 
HETATM   31  C   UNL     1      -9.920   8.746  68.511  1.00  0.00    -0.182 C  
HETATM   32  C   UNL     1      -8.845   7.044  67.074  1.00  0.00    -0.124 C  
HETATM   33  C   UNL     1      -9.828   5.969  67.704  1.00  0.00    -0.134 C  
HETATM   34  C   UNL     1     -10.894   5.522  66.762  1.00  0.00    -0.252 A  
HETATM   35  C   UNL     1     -12.141   4.967  66.920  1.00  0.00     6.777 A  
HETATM   36  N   UNL     1     -12.656   4.719  65.658  1.00  0.00     3.500 NA 
HETATM   37  C   UNL     1     -11.751   5.098  64.687  1.00  0.00     2.783 A  
HETATM   38  H   UNL     1     -13.574   4.315  65.474  1.00  0.00     0.000 HD 
HETATM   39  C   UNL     1     -11.766   5.074  63.289  1.00  0.00     3.134 A  
HETATM   40  C   UNL     1     -10.645   5.619  62.631  1.00  0.00     2.807 A  
HETATM   41  C   UNL     1      -9.627   6.267  63.333  1.00  0.00     2.522 A  
HETATM   42  C   UNL     1      -9.712   6.371  64.719  1.00  0.00     1.924 A  
HETATM   43  C   UNL     1     -10.709   5.669  65.379  1.00  0.00     1.119 A  
HETATM   44  C   UNL     1      -9.002   7.407  65.527  1.00  0.00     0.075 C  
HETATM   45  C   UNL     1      -9.773   8.757  65.371  1.00  0.00     0.242 C  
ENDBRANCH  27  28
ENDBRANCH  14  24
TORSDOF 3
ENDMDL
MODEL      136
REMARK 921   NORMALIZED FREE ENERGY PREDICTED BY IDOCK:   39.29 KCAL/MOL
REMARK 922        TOTAL FREE ENERGY PREDICTED BY IDOCK:   45.11 KCAL/MOL
REMARK 923 INTER-LIGAND FREE ENERGY PREDICTED BY IDOCK:   46.17 KCAL/MOL
REMARK 924 INTRA-LIGAND FREE ENERGY PREDICTED BY IDOCK:   -1.06 KCAL/MOL
REMARK 927      BINDING AFFINITY PREDICTED BY RF-SCORE:    0.00 PKD
ROOT
HETATM    1  C   UNL     1      -9.608   8.928  65.832  1.00  0.00    -0.223 C  
HETATM    2  C   UNL     1     -10.374   7.721  66.400  1.00  0.00     0.066 C  
HETATM    3  C   UNL     1     -10.630   6.832  65.135  1.00  0.00     4.223 C  
HETATM    4  C   UNL     1     -10.169   7.668  63.942  1.00  0.00     7.638 C  
HETATM    5  N   UNL     1     -10.059   9.015  64.475  1.00  0.00     1.704 N  
HETATM    6  C   UNL     1      -9.555  10.008  63.677  1.00  0.00    -0.096 C  
HETATM    7  O   UNL     1     -10.002  10.210  62.551  1.00  0.00    -0.026 OA 
HETATM    8  C   UNL     1      -8.456  10.895  64.343  1.00  0.00     0.101 C  
HETATM    9  N   UNL     1      -7.844  10.267  65.661  1.00  0.00    -0.146 N  
HETATM   10  C   UNL     1      -5.156  12.349  65.537  1.00  0.00     3.267 C  
HETATM   11  C   UNL     1      -6.986  10.821  66.600  1.00  0.00    -0.129 C  
HETATM   12  C   UNL     1      -6.576  14.430  65.604  1.00  0.00     9.299 C  
HETATM   13  O   UNL     1      -6.066  10.212  67.127  1.00  0.00    -0.051 OA 
HETATM   14  C   UNL     1      -7.517  12.184  66.979  1.00  0.00    -0.086 C  
HETATM   15  C   UNL     1      -8.942  10.221  66.549  1.00  0.00    -0.144 C  
HETATM   16  O   UNL     1      -8.760   9.755  67.895  1.00  0.00    -0.125 OA 
HETATM   17  H   UNL     1      -8.370  10.512  68.315  1.00  0.00     0.000 HD 
HETATM   18  C   UNL     1      -6.335  13.074  66.267  1.00  0.00     3.132 C  
HETATM   19  O   UNL     1      -8.990  11.692  66.595  1.00  0.00    -0.179 OA 
ENDROOT
BRANCH   8  20
HETATM   20  C   UNL     1      -7.502  11.394  63.276  1.00  0.00     1.240 C  
HETATM   21  C   UNL     1      -5.190  11.374  62.368  1.00  0.00    -0.061 C  
HETATM   22  C   UNL     1      -6.196  10.608  63.214  1.00  0.00     0.011 C  
HETATM   23  C   UNL     1      -6.393   9.214  62.628  1.00  0.00    -0.094 C  
ENDBRANCH   8  20
BRANCH  14  24
HETATM   24  N   UNL     1      -7.867  12.933  68.164  1.00  0.00    -0.137 N  
HETATM   25  H   UNL     1      -8.148  13.901  68.008  1.00  0.00     0.000 HD 
HETATM   26  O   UNL     1      -7.614  11.379  69.827  1.00  0.00     0.194 OA 
HETATM   27  C   UNL     1      -7.872  12.515  69.471  1.00  0.00     0.968 C  
BRANCH  27  28
HETATM   28  C   UNL     1      -8.259  13.667  70.407  1.00  0.00     3.340 C  
HETATM   29  C   UNL     1      -7.190  13.869  71.511  1.00  0.00     3.584 C  
HETATM   30  N   UNL     1      -6.141  14.843  71.159  1.00  0.00     0.094 NA 
HETATM   31  C   UNL     1      -5.451  14.506  69.902  1.00  0.00    -0.098 C  
HETATM   32  C   UNL     1      -6.740  16.213  71.145  1.00  0.00     2.300 C  
HETATM   33  C   UNL     1      -5.831  17.319  70.460  1.00  0.00     0.090 C  
HETATM   34  C   UNL     1      -6.547  18.106  69.416  1.00  0.00    -0.206 A  
HETATM   35  C   UNL     1      -6.146  18.838  68.324  1.00  0.00    -0.211 A  
HETATM   36  N   UNL     1      -7.277  19.389  67.746  1.00  0.00    -0.246 NA 
HETATM   37  C   UNL     1      -8.404  19.031  68.458  1.00  0.00    -0.352 A  
HETATM   38  H   UNL     1      -7.277  19.976  66.912  1.00  0.00     0.000 HD 
HETATM   39  C   UNL     1      -9.768  19.300  68.310  1.00  0.00    -0.459 A  
HETATM   40  C   UNL     1     -10.641  18.688  69.231  1.00  0.00     0.609 A  
HETATM   41  C   UNL     1     -10.185  17.757  70.166  1.00  0.00     1.068 A  
HETATM   42  C   UNL     1      -8.831  17.429  70.200  1.00  0.00     2.493 A  
HETATM   43  C   UNL     1      -7.949  18.171  69.430  1.00  0.00     0.339 A  
HETATM   44  C   UNL     1      -8.290  16.158  70.767  1.00  0.00     3.367 C  
HETATM   45  C   UNL     1      -8.548  15.015  69.734  1.00  0.00     0.116 C  
ENDBRANCH  27  28
ENDBRANCH  14  24
TORSDOF 3
ENDMDL
MODEL      137
REMARK 921   NORMALIZED FREE ENERGY PREDICTED BY IDOCK:   40.84 KCAL/MOL
REMARK 922        TOTAL FREE ENERGY PREDICTED BY IDOCK:   46.93 KCAL/MOL
REMARK 923 INTER-LIGAND FREE ENERGY PREDICTED BY IDOCK:   40.95 KCAL/MOL
REMARK 924 INTRA-LIGAND FREE ENERGY PREDICTED BY IDOCK:    5.98 KCAL/MOL
REMARK 927      BINDING AFFINITY PREDICTED BY RF-SCORE:    0.00 PKD
ROOT
HETATM    1  C   UNL     1      -8.358   5.503  71.191  1.00  0.00    -0.125 C  
HETATM    2  C   UNL     1      -7.817   5.581  72.628  1.00  0.00    -0.102 C  
HETATM    3  C   UNL     1      -7.947   4.106  73.140  1.00  0.00    -0.089 C  
HETATM    4  C   UNL     1      -8.709   3.355  72.049  1.00  0.00    -0.089 C  
HETATM    5  N   UNL     1      -9.281   4.410  71.228  1.00  0.00    -0.130 N  
HETATM    6  C   UNL     1      -9.949   4.072  70.080  1.00  0.00    -0.014 C  
HETATM    7  O   UNL     1     -10.845   3.233  70.087  1.00  0.00     2.472 OA 
HETATM    8  C   UNL     1      -9.543   4.894  68.817  1.00  0.00    -0.156 C  
HETATM    9  N   UNL     1      -8.185   5.690  68.984  1.00  0.00    -0.100 N  
HETATM   10  C   UNL     1      -7.889   6.112  65.621  1.00  0.00    -0.104 C  
HETATM   11  C   UNL     1      -7.598   6.640  68.161  1.00  0.00    -0.104 C  
HETATM   12  C   UNL     1     -10.101   7.305  65.426  1.00  0.00     2.077 C  
HETATM   13  O   UNL     1      -6.398   6.700  67.935  1.00  0.00    -0.043 OA 
HETATM   14  C   UNL     1      -8.651   7.659  67.791  1.00  0.00    -0.121 C  
HETATM   15  C   UNL     1      -8.466   6.614  70.015  1.00  0.00    -0.139 C  
HETATM   16  O   UNL     1      -7.471   7.570  70.414  1.00  0.00    -0.078 OA 
HETATM   17  H   UNL     1      -7.534   8.221  69.725  1.00  0.00     0.000 HD 
HETATM   18  C   UNL     1      -8.788   7.252  66.206  1.00  0.00    -0.179 C  
HETATM   19  O   UNL     1      -9.427   7.317  69.148  1.00  0.00    -0.149 OA 
ENDROOT
BRANCH   8  20
HETATM   20  C   UNL     1      -9.724   4.033  67.582  1.00  0.00    -0.164 C  
HETATM   21  C   UNL     1      -9.432   1.800  66.533  1.00  0.00     0.237 C  
HETATM   22  C   UNL     1      -9.569   2.540  67.856  1.00  0.00    -0.061 C  
HETATM   23  C   UNL     1     -10.753   1.974  68.632  1.00  0.00     3.778 C  
ENDBRANCH   8  20
BRANCH  14  24
HETATM   24  N   UNL     1      -8.846   9.090  67.814  1.00  0.00    -0.125 N  
HETATM   25  H   UNL     1      -8.350   9.592  68.551  1.00  0.00     0.000 HD 
HETATM   26  O   UNL     1     -10.223   9.433  66.017  1.00  0.00    -0.269 OA 
HETATM   27  C   UNL     1      -9.610   9.864  66.977  1.00  0.00    -0.175 C  
BRANCH  27  28
HETATM   28  C   UNL     1      -9.568  11.335  67.409  1.00  0.00    -0.182 C  
HETATM   29  C   UNL     1      -8.113  11.870  67.415  1.00  0.00    -0.165 C  
HETATM   30  N   UNL     1      -7.697  12.493  66.146  1.00  0.00     0.977 NA 
HETATM   31  C   UNL     1      -7.853  11.591  64.992  1.00  0.00     1.149 C  
HETATM   32  C   UNL     1      -8.432  13.784  65.978  1.00  0.00     1.254 C  
HETATM   33  C   UNL     1      -8.350  14.401  64.519  1.00  0.00     8.594 C  
HETATM   34  C   UNL     1      -9.684  14.747  63.949  1.00  0.00     4.746 A  
HETATM   35  C   UNL     1     -10.169  14.908  62.674  1.00  0.00    12.446 A  
HETATM   36  N   UNL     1     -11.500  15.279  62.772  1.00  0.00     2.773 NA 
HETATM   37  C   UNL     1     -11.878  15.370  64.096  1.00  0.00    -0.104 A  
HETATM   38  H   UNL     1     -12.114  15.458  61.977  1.00  0.00     0.000 HD 
HETATM   39  C   UNL     1     -13.076  15.691  64.741  1.00  0.00     1.487 A  
HETATM   40  C   UNL     1     -13.083  15.615  66.147  1.00  0.00     3.026 A  
HETATM   41  C   UNL     1     -11.989  15.120  66.860  1.00  0.00     0.109 A  
HETATM   42  C   UNL     1     -10.856  14.700  66.167  1.00  0.00    -0.321 A  
HETATM   43  C   UNL     1     -10.776  14.956  64.807  1.00  0.00    -0.365 A  
HETATM   44  C   UNL     1      -9.852  13.736  66.708  1.00  0.00    -0.275 C  
HETATM   45  C   UNL     1     -10.454  12.299  66.609  1.00  0.00    -0.247 C  
ENDBRANCH  27  28
ENDBRANCH  14  24
TORSDOF 3
ENDMDL
MODEL      138
REMARK 921   NORMALIZED FREE ENERGY PREDICTED BY IDOCK:   40.90 KCAL/MOL
REMARK 922        TOTAL FREE ENERGY PREDICTED BY IDOCK:   47.01 KCAL/MOL
REMARK 923 INTER-LIGAND FREE ENERGY PREDICTED BY IDOCK:   47.55 KCAL/MOL
REMARK 924 INTRA-LIGAND FREE ENERGY PREDICTED BY IDOCK:   -0.54 KCAL/MOL
REMARK 927      BINDING AFFINITY PREDICTED BY RF-SCORE:    0.00 PKD
ROOT
HETATM    1  C   UNL     1     -11.032  12.600  71.290  1.00  0.00     4.451 C  
HETATM    2  C   UNL     1     -10.516  14.048  71.229  1.00  0.00     3.342 C  
HETATM    3  C   UNL     1     -10.871  14.614  72.647  1.00  0.00     1.990 C  
HETATM    4  C   UNL     1     -11.711  13.534  73.325  1.00  0.00     3.639 C  
HETATM    5  N   UNL     1     -12.106  12.656  72.236  1.00  0.00     1.467 N  
HETATM    6  C   UNL     1     -12.790  11.504  72.523  1.00  0.00     1.208 C  
HETATM    7  O   UNL     1     -13.800  11.520  73.222  1.00  0.00     1.992 OA 
HETATM    8  C   UNL     1     -12.242  10.220  71.824  1.00  0.00    -0.192 C  
HETATM    9  N   UNL     1     -10.786  10.393  71.227  1.00  0.00     0.689 N  
HETATM   10  C   UNL     1     -10.360   7.026  70.999  1.00  0.00    -0.216 C  
HETATM   11  C   UNL     1     -10.050   9.549  70.409  1.00  0.00    -0.271 C  
HETATM   12  C   UNL     1     -12.369   6.722  69.508  1.00  0.00     1.162 C  
HETATM   13  O   UNL     1      -8.849   9.354  70.533  1.00  0.00    -0.223 OA 
HETATM   14  C   UNL     1     -10.934   9.110  69.265  1.00  0.00    -0.061 C  
HETATM   15  C   UNL     1     -10.951  11.378  70.228  1.00  0.00     0.483 C  
HETATM   16  O   UNL     1      -9.836  11.766  69.410  1.00  0.00    -0.334 OA 
HETATM   17  H   UNL     1      -9.789  11.050  68.787  1.00  0.00     0.000 HD 
HETATM   18  C   UNL     1     -11.095   7.539  69.717  1.00  0.00    -0.143 C  
HETATM   19  O   UNL     1     -11.781  10.457  69.432  1.00  0.00    -0.229 OA 
ENDROOT
BRANCH   8  20
HETATM   20  C   UNL     1     -12.520   9.016  72.703  1.00  0.00    -0.207 C  
HETATM   21  C   UNL     1     -14.224   7.604  73.832  1.00  0.00     4.567 C  
HETATM   22  C   UNL     1     -13.982   8.581  72.690  1.00  0.00    -0.223 C  
HETATM   23  C   UNL     1     -14.373   7.923  71.371  1.00  0.00    -0.502 C  
ENDBRANCH   8  20
BRANCH  14  24
HETATM   24  N   UNL     1     -10.919   9.070  67.821  1.00  0.00    -0.496 N  
HETATM   25  H   UNL     1     -10.043   8.763  67.397  1.00  0.00     0.000 HD 
HETATM   26  O   UNL     1     -13.046   9.722  67.283  1.00  0.00     9.169 OA 
HETATM   27  C   UNL     1     -11.925   9.389  66.945  1.00  0.00     4.920 C  
BRANCH  27  28
HETATM   28  C   UNL     1     -11.445   9.253  65.494  1.00  0.00     5.191 C  
HETATM   29  C   UNL     1     -11.812  10.511  64.668  1.00  0.00     3.049 C  
HETATM   30  N   UNL     1     -10.764  11.547  64.652  1.00  0.00    -0.309 NA 
HETATM   31  C   UNL     1     -10.372  11.980  66.003  1.00  0.00    -0.238 C  
HETATM   32  C   UNL     1      -9.609  11.051  63.842  1.00  0.00    -0.272 C  
HETATM   33  C   UNL     1      -8.279  11.900  64.009  1.00  0.00     1.998 C  
HETATM   34  C   UNL     1      -7.086  11.067  64.339  1.00  0.00     0.791 A  
HETATM   35  C   UNL     1      -5.879  11.320  64.946  1.00  0.00     0.935 A  
HETATM   36  N   UNL     1      -5.146  10.145  64.932  1.00  0.00    -0.065 NA 
HETATM   37  C   UNL     1      -5.860   9.139  64.314  1.00  0.00    -0.070 A  
HETATM   38  H   UNL     1      -4.210  10.039  65.323  1.00  0.00     0.000 HD 
HETATM   39  C   UNL     1      -5.600   7.792  64.044  1.00  0.00    -0.045 A  
HETATM   40  C   UNL     1      -6.631   7.055  63.430  1.00  0.00    -0.044 A  
HETATM   41  C   UNL     1      -7.897   7.603  63.217  1.00  0.00    -0.134 A  
HETATM   42  C   UNL     1      -8.149   8.915  63.611  1.00  0.00    -0.167 A  
HETATM   43  C   UNL     1      -7.085   9.698  64.033  1.00  0.00    -0.116 A  
HETATM   44  C   UNL     1      -9.510   9.458  63.897  1.00  0.00     0.368 C  
HETATM   45  C   UNL     1      -9.954   8.944  65.303  1.00  0.00     0.700 C  
ENDBRANCH  27  28
ENDBRANCH  14  24
TORSDOF 3
ENDMDL
MODEL      139
REMARK 921   NORMALIZED FREE ENERGY PREDICTED BY IDOCK:   44.82 KCAL/MOL
REMARK 922        TOTAL FREE ENERGY PREDICTED BY IDOCK:   51.61 KCAL/MOL
REMARK 923 INTER-LIGAND FREE ENERGY PREDICTED BY IDOCK:   46.39 KCAL/MOL
REMARK 924 INTRA-LIGAND FREE ENERGY PREDICTED BY IDOCK:    5.22 KCAL/MOL
REMARK 927      BINDING AFFINITY PREDICTED BY RF-SCORE:    0.00 PKD
ROOT
HETATM    1  C   UNL     1     -10.167  16.902  69.683  1.00  0.00    -0.050 C  
HETATM    2  C   UNL     1     -11.043  17.919  68.932  1.00  0.00     0.828 C  
HETATM    3  C   UNL     1     -11.784  18.675  70.088  1.00  0.00     7.067 C  
HETATM    4  C   UNL     1     -11.427  17.923  71.370  1.00  0.00     3.554 C  
HETATM    5  N   UNL     1     -10.884  16.660  70.899  1.00  0.00     0.259 N  
HETATM    6  C   UNL     1     -10.358  15.781  71.809  1.00  0.00     1.798 C  
HETATM    7  O   UNL     1     -10.992  15.438  72.804  1.00  0.00     0.077 OA 
HETATM    8  C   UNL     1      -8.960  15.200  71.432  1.00  0.00     3.748 C  
HETATM    9  N   UNL     1      -8.226  16.003  70.282  1.00  0.00     1.149 N  
HETATM   10  C   UNL     1      -5.227  14.599  71.062  1.00  0.00    -0.135 C  
HETATM   11  C   UNL     1      -7.070  15.700  69.577  1.00  0.00    -0.195 C  
HETATM   12  C   UNL     1      -6.065  12.249  70.702  1.00  0.00     0.193 C  
HETATM   13  O   UNL     1      -6.223  16.526  69.268  1.00  0.00    -0.158 OA 
HETATM   14  C   UNL     1      -7.164  14.267  69.108  1.00  0.00    -0.104 C  
HETATM   15  C   UNL     1      -9.070  15.828  69.162  1.00  0.00    -0.262 C  
HETATM   16  O   UNL     1      -8.698  16.374  67.888  1.00  0.00    -0.177 OA 
HETATM   17  H   UNL     1      -8.055  15.745  67.583  1.00  0.00     0.000 HD 
HETATM   18  C   UNL     1      -6.003  13.648  70.091  1.00  0.00    -0.146 C  
HETATM   19  O   UNL     1      -8.759  14.388  69.131  1.00  0.00    -0.054 OA 
ENDROOT
BRANCH   8  20
HETATM   20  C   UNL     1      -8.186  14.894  72.700  1.00  0.00     7.541 C  
HETATM   21  C   UNL     1      -5.969  14.495  73.748  1.00  0.00     0.297 C  
HETATM   22  C   UNL     1      -6.685  15.135  72.567  1.00  0.00     2.624 C  
HETATM   23  C   UNL     1      -6.345  16.621  72.514  1.00  0.00     4.290 C  
ENDBRANCH   8  20
BRANCH  14  24
HETATM   24  N   UNL     1      -7.047  13.504  67.887  1.00  0.00    -0.121 N  
HETATM   25  H   UNL     1      -7.784  12.818  67.723  1.00  0.00     0.000 HD 
HETATM   26  O   UNL     1      -5.157  14.376  66.934  1.00  0.00     0.457 OA 
HETATM   27  C   UNL     1      -6.077  13.578  66.920  1.00  0.00     1.376 C  
BRANCH  27  28
HETATM   28  C   UNL     1      -6.324  12.536  65.822  1.00  0.00     3.836 C  
HETATM   29  C   UNL     1      -5.434  11.285  66.035  1.00  0.00    -0.065 C  
HETATM   30  N   UNL     1      -6.071  10.223  66.835  1.00  0.00    -0.058 NA 
HETATM   31  C   UNL     1      -6.523  10.699  68.153  1.00  0.00    -0.062 C  
HETATM   32  C   UNL     1      -7.171   9.608  66.030  1.00  0.00    -0.098 C  
HETATM   33  C   UNL     1      -8.162   8.693  66.866  1.00  0.00    -0.105 C  
HETATM   34  C   UNL     1      -9.597   9.044  66.667  1.00  0.00    -0.274 A  
HETATM   35  C   UNL     1     -10.741   8.858  67.406  1.00  0.00    -0.155 A  
HETATM   36  N   UNL     1     -11.802   9.367  66.676  1.00  0.00     2.530 NA 
HETATM   37  C   UNL     1     -11.360   9.870  65.470  1.00  0.00     2.513 A  
HETATM   38  H   UNL     1     -12.774   9.369  66.987  1.00  0.00     0.000 HD 
HETATM   39  C   UNL     1     -11.993  10.487  64.388  1.00  0.00     3.456 A  
HETATM   40  C   UNL     1     -11.170  10.928  63.333  1.00  0.00     0.576 A  
HETATM   41  C   UNL     1      -9.777  10.868  63.417  1.00  0.00    -0.392 A  
HETATM   42  C   UNL     1      -9.184  10.352  64.567  1.00  0.00    -0.287 A  
HETATM   43  C   UNL     1      -9.991   9.744  65.516  1.00  0.00    -0.329 A  
HETATM   44  C   UNL     1      -7.789  10.660  65.001  1.00  0.00     0.017 C  
HETATM   45  C   UNL     1      -7.779  12.090  65.629  1.00  0.00     1.433 C  
ENDBRANCH  27  28
ENDBRANCH  14  24
TORSDOF 3
ENDMDL
MODEL      140
REMARK 921   NORMALIZED FREE ENERGY PREDICTED BY IDOCK:   45.08 KCAL/MOL
REMARK 922        TOTAL FREE ENERGY PREDICTED BY IDOCK:   51.92 KCAL/MOL
REMARK 923 INTER-LIGAND FREE ENERGY PREDICTED BY IDOCK:   51.99 KCAL/MOL
REMARK 924 INTRA-LIGAND FREE ENERGY PREDICTED BY IDOCK:   -0.07 KCAL/MOL
REMARK 927      BINDING AFFINITY PREDICTED BY RF-SCORE:    0.00 PKD
ROOT
HETATM    1  C   UNL     1      -8.568  10.996  65.584  1.00  0.00    -0.130 C  
HETATM    2  C   UNL     1      -7.125  11.234  65.109  1.00  0.00     0.869 C  
HETATM    3  C   UNL     1      -7.236  12.558  64.277  1.00  0.00     7.966 C  
HETATM    4  C   UNL     1      -8.730  12.865  64.185  1.00  0.00     3.454 C  
HETATM    5  N   UNL     1      -9.371  11.620  64.575  1.00  0.00    -0.027 N  
HETATM    6  C   UNL     1     -10.735  11.586  64.705  1.00  0.00    -0.319 C  
HETATM    7  O   UNL     1     -11.471  11.987  63.807  1.00  0.00    -0.392 OA 
HETATM    8  C   UNL     1     -11.255  10.923  66.019  1.00  0.00     0.214 C  
HETATM    9  N   UNL     1     -10.143  10.760  67.133  1.00  0.00    -0.197 N  
HETATM   10  C   UNL     1     -12.483  10.287  69.557  1.00  0.00     0.245 C  
HETATM   11  C   UNL     1     -10.182  10.081  68.342  1.00  0.00    -0.172 C  
HETATM   12  C   UNL     1     -13.494   8.289  68.400  1.00  0.00    15.448 C  
HETATM   13  O   UNL     1      -9.682  10.500  69.377  1.00  0.00    -0.215 OA 
HETATM   14  C   UNL     1     -10.745   8.702  68.092  1.00  0.00    -0.058 C  
HETATM   15  C   UNL     1      -9.216   9.867  66.550  1.00  0.00    -0.155 C  
HETATM   16  O   UNL     1      -8.074   9.425  67.300  1.00  0.00    -0.109 OA 
HETATM   17  H   UNL     1      -8.453   8.763  67.866  1.00  0.00     0.000 HD 
HETATM   18  C   UNL     1     -12.180   8.919  68.861  1.00  0.00     2.764 C  
HETATM   19  O   UNL     1     -10.212   8.782  66.585  1.00  0.00    -0.277 OA 
ENDROOT
BRANCH   8  20
HETATM   20  C   UNL     1     -12.575  11.558  66.410  1.00  0.00     3.032 C  
HETATM   21  C   UNL     1     -13.752  13.220  67.833  1.00  0.00     8.248 C  
HETATM   22  C   UNL     1     -12.414  12.847  67.210  1.00  0.00     0.433 C  
HETATM   23  C   UNL     1     -11.920  14.001  66.346  1.00  0.00    -0.462 C  
ENDBRANCH   8  20
BRANCH  14  24
HETATM   24  N   UNL     1     -10.408   7.319  68.341  1.00  0.00    -0.181 N  
HETATM   25  H   UNL     1      -9.954   6.829  67.570  1.00  0.00     0.000 HD 
HETATM   26  O   UNL     1     -11.100   7.021  70.503  1.00  0.00    -0.256 OA 
HETATM   27  C   UNL     1     -10.618   6.577  69.476  1.00  0.00    -0.246 C  
BRANCH  27  28
HETATM   28  C   UNL     1     -10.151   5.131  69.273  1.00  0.00    -0.283 C  
HETATM   29  C   UNL     1     -11.319   4.232  68.793  1.00  0.00     5.549 C  
HETATM   30  N   UNL     1     -11.437   4.132  67.328  1.00  0.00     4.919 NA 
HETATM   31  C   UNL     1     -11.569   5.447  66.678  1.00  0.00     1.722 C  
HETATM   32  C   UNL     1     -10.285   3.337  66.803  1.00  0.00     1.262 C  
HETATM   33  C   UNL     1     -10.087   3.427  65.232  1.00  0.00     0.154 C  
HETATM   34  C   UNL     1      -8.696   3.790  64.834  1.00  0.00    -0.115 A  
HETATM   35  C   UNL     1      -8.137   4.359  63.714  1.00  0.00    -0.095 A  
HETATM   36  N   UNL     1      -6.766   4.408  63.906  1.00  0.00    -0.042 NA 
HETATM   37  C   UNL     1      -6.431   3.867  65.130  1.00  0.00    -0.039 A  
HETATM   38  H   UNL     1      -6.099   4.789  63.236  1.00  0.00     0.000 HD 
HETATM   39  C   UNL     1      -5.223   3.678  65.808  1.00  0.00    -0.009 A  
HETATM   40  C   UNL     1      -5.298   3.130  67.103  1.00  0.00    -0.016 A  
HETATM   41  C   UNL     1      -6.522   2.904  67.734  1.00  0.00    -0.036 A  
HETATM   42  C   UNL     1      -7.703   3.217  67.065  1.00  0.00    -0.079 A  
HETATM   43  C   UNL     1      -7.635   3.571  65.726  1.00  0.00    -0.078 A  
HETATM   44  C   UNL     1      -9.005   3.491  67.745  1.00  0.00    -0.171 C  
HETATM   45  C   UNL     1      -8.949   4.934  68.339  1.00  0.00    -0.129 C  
ENDBRANCH  27  28
ENDBRANCH  14  24
TORSDOF 3
ENDMDL
MODEL      141
REMARK 921   NORMALIZED FREE ENERGY PREDICTED BY IDOCK:   50.68 KCAL/MOL
REMARK 922        TOTAL FREE ENERGY PREDICTED BY IDOCK:   58.49 KCAL/MOL
REMARK 923 INTER-LIGAND FREE ENERGY PREDICTED BY IDOCK:   57.83 KCAL/MOL
REMARK 924 INTRA-LIGAND FREE ENERGY PREDICTED BY IDOCK:    0.66 KCAL/MOL
REMARK 927      BINDING AFFINITY PREDICTED BY RF-SCORE:    0.00 PKD
ROOT
HETATM    1  C   UNL     1     -11.218  15.061  67.618  1.00  0.00    -0.326 C  
HETATM    2  C   UNL     1     -12.651  15.581  67.826  1.00  0.00     1.443 C  
HETATM    3  C   UNL     1     -12.614  17.002  67.167  1.00  0.00     4.446 C  
HETATM    4  C   UNL     1     -11.150  17.256  66.811  1.00  0.00     0.352 C  
HETATM    5  N   UNL     1     -10.423  16.250  67.568  1.00  0.00    -0.297 N  
HETATM    6  C   UNL     1      -9.069  16.130  67.388  1.00  0.00    -0.195 C  
HETATM    7  O   UNL     1      -8.327  17.104  67.468  1.00  0.00    -0.188 OA 
HETATM    8  C   UNL     1      -8.561  14.670  67.169  1.00  0.00    -0.223 C  
HETATM    9  N   UNL     1      -9.711  13.643  66.809  1.00  0.00    -0.267 N  
HETATM   10  C   UNL     1      -7.466  11.368  65.643  1.00  0.00     0.509 C  
HETATM   11  C   UNL     1      -9.675  12.260  66.710  1.00  0.00    -0.213 C  
HETATM   12  C   UNL     1      -6.226  11.246  67.834  1.00  0.00    -0.050 C  
HETATM   13  O   UNL     1     -10.261  11.622  65.848  1.00  0.00    -0.222 OA 
HETATM   14  C   UNL     1      -8.981  11.716  67.937  1.00  0.00    -0.170 C  
HETATM   15  C   UNL     1     -10.525  13.637  67.964  1.00  0.00    -0.248 C  
HETATM   16  O   UNL     1     -11.660  12.761  68.039  1.00  0.00    -0.297 OA 
HETATM   17  H   UNL     1     -11.254  11.927  68.242  1.00  0.00     0.000 HD 
HETATM   18  C   UNL     1      -7.612  11.200  67.191  1.00  0.00    -0.125 C  
HETATM   19  O   UNL     1      -9.440  13.018  68.746  1.00  0.00    -0.053 OA 
ENDROOT
BRANCH   8  20
HETATM   20  C   UNL     1      -7.324  14.698  66.293  1.00  0.00     2.647 C  
HETATM   21  C   UNL     1      -6.397  14.703  63.988  1.00  0.00    25.926 C  
HETATM   22  C   UNL     1      -7.622  15.024  64.833  1.00  0.00    10.720 C  
HETATM   23  C   UNL     1      -8.001  16.488  64.638  1.00  0.00     7.409 C  
ENDBRANCH   8  20
BRANCH  14  24
HETATM   24  N   UNL     1      -9.207  10.748  68.986  1.00  0.00    -0.279 N  
HETATM   25  H   UNL     1      -9.259   9.775  68.684  1.00  0.00     0.000 HD 
HETATM   26  O   UNL     1      -9.276  12.056  70.863  1.00  0.00     6.535 OA 
HETATM   27  C   UNL     1      -9.361  10.964  70.331  1.00  0.00     2.051 C  
BRANCH  27  28
HETATM   28  C   UNL     1      -9.638   9.645  71.064  1.00  0.00     0.005 C  
HETATM   29  C   UNL     1     -11.159   9.436  71.275  1.00  0.00    -0.376 C  
HETATM   30  N   UNL     1     -11.817   8.681  70.194  1.00  0.00     0.163 NA 
HETATM   31  C   UNL     1     -11.613   9.291  68.869  1.00  0.00     0.695 C  
HETATM   32  C   UNL     1     -11.363   7.257  70.254  1.00  0.00    -0.238 C  
HETATM   33  C   UNL     1     -11.714   6.402  68.965  1.00  0.00     0.237 C  
HETATM   34  C   UNL     1     -10.537   5.683  68.397  1.00  0.00    -0.249 A  
HETATM   35  C   UNL     1     -10.228   5.182  67.156  1.00  0.00    -0.208 A  
HETATM   36  N   UNL     1      -8.989   4.568  67.244  1.00  0.00    -0.113 NA 
HETATM   37  C   UNL     1      -8.500   4.657  68.532  1.00  0.00    -0.089 A  
HETATM   38  H   UNL     1      -8.508   4.115  66.468  1.00  0.00     0.000 HD 
HETATM   39  C   UNL     1      -7.324   4.224  69.152  1.00  0.00    -0.055 A  
HETATM   40  C   UNL     1      -7.156   4.566  70.508  1.00  0.00    -0.041 A  
HETATM   41  C   UNL     1      -8.055   5.405  71.169  1.00  0.00    -0.111 A  
HETATM   42  C   UNL     1      -9.153   5.911  70.477  1.00  0.00    -0.158 A  
HETATM   43  C   UNL     1      -9.422   5.420  69.208  1.00  0.00    -0.179 A  
HETATM   44  C   UNL     1      -9.893   7.148  70.866  1.00  0.00    -0.182 C  
HETATM   45  C   UNL     1      -9.040   8.382  70.430  1.00  0.00    -0.155 C  
ENDBRANCH  27  28
ENDBRANCH  14  24
TORSDOF 3
ENDMDL
MODEL      142
REMARK 921   NORMALIZED FREE ENERGY PREDICTED BY IDOCK:   60.04 KCAL/MOL
REMARK 922        TOTAL FREE ENERGY PREDICTED BY IDOCK:   69.50 KCAL/MOL
REMARK 923 INTER-LIGAND FREE ENERGY PREDICTED BY IDOCK:   49.64 KCAL/MOL
REMARK 924 INTRA-LIGAND FREE ENERGY PREDICTED BY IDOCK:   19.86 KCAL/MOL
REMARK 927      BINDING AFFINITY PREDICTED BY RF-SCORE:    0.00 PKD
ROOT
HETATM    1  C   UNL     1     -11.618   9.745  71.746  1.00  0.00    -0.142 C  
HETATM    2  C   UNL     1     -11.739   9.493  73.258  1.00  0.00     3.885 C  
HETATM    3  C   UNL     1     -12.600   8.185  73.334  1.00  0.00     1.833 C  
HETATM    4  C   UNL     1     -13.053   7.904  71.902  1.00  0.00    -0.289 C  
HETATM    5  N   UNL     1     -12.801   9.152  71.200  1.00  0.00    -0.249 N  
HETATM    6  C   UNL     1     -13.000   9.206  69.845  1.00  0.00     1.829 C  
HETATM    7  O   UNL     1     -14.055   8.832  69.340  1.00  0.00     4.412 OA 
HETATM    8  C   UNL     1     -11.835   9.854  69.034  1.00  0.00     0.407 C  
HETATM    9  N   UNL     1     -10.484   9.979  69.849  1.00  0.00    -0.257 N  
HETATM   10  C   UNL     1      -8.679  10.448  67.004  1.00  0.00    -0.132 C  
HETATM   11  C   UNL     1      -9.305  10.638  69.531  1.00  0.00     0.019 C  
HETATM   12  C   UNL     1     -10.003  12.482  66.321  1.00  0.00    -0.263 C  
HETATM   13  O   UNL     1      -8.191  10.193  69.764  1.00  0.00    -0.172 OA 
HETATM   14  C   UNL     1      -9.654  12.030  69.059  1.00  0.00     0.251 C  
HETATM   15  C   UNL     1     -10.810  10.868  70.899  1.00  0.00     1.191 C  
HETATM   16  O   UNL     1      -9.801  11.279  71.833  1.00  0.00     7.560 OA 
HETATM   17  H   UNL     1      -9.328  11.936  71.337  1.00  0.00     0.000 HD 
HETATM   18  C   UNL     1      -9.255  11.823  67.480  1.00  0.00    -0.175 C  
HETATM   19  O   UNL     1     -10.992  11.967  69.935  1.00  0.00     0.064 OA 
ENDROOT
BRANCH   8  20
HETATM   20  C   UNL     1     -11.783   9.233  67.651  1.00  0.00     2.188 C  
HETATM   21  C   UNL     1     -11.375   9.574  65.224  1.00  0.00     4.419 C  
HETATM   22  C   UNL     1     -11.085  10.113  66.618  1.00  0.00     0.139 C  
HETATM   23  C   UNL     1      -9.577  10.168  66.836  1.00  0.00    -0.219 C  
ENDBRANCH   8  20
BRANCH  14  24
HETATM   24  N   UNL     1      -9.304  13.403  69.342  1.00  0.00     0.211 N  
HETATM   25  H   UNL     1      -8.740  13.870  68.631  1.00  0.00     0.000 HD 
HETATM   26  O   UNL     1     -10.334  13.775  71.353  1.00  0.00     3.879 OA 
HETATM   27  C   UNL     1      -9.627  14.161  70.439  1.00  0.00     2.339 C  
BRANCH  27  28
HETATM   28  C   UNL     1      -8.991  15.554  70.342  1.00  0.00     1.082 C  
HETATM   29  C   UNL     1      -7.769  15.541  69.389  1.00  0.00    -0.227 C  
HETATM   30  N   UNL     1      -8.094  15.870  67.990  1.00  0.00    -0.139 NA 
HETATM   31  C   UNL     1      -9.130  14.988  67.426  1.00  0.00    -0.186 C  
HETATM   32  C   UNL     1      -8.455  17.318  67.906  1.00  0.00    -0.218 C  
HETATM   33  C   UNL     1      -9.151  17.743  66.545  1.00  0.00    -0.281 C  
HETATM   34  C   UNL     1     -10.427  18.488  66.744  1.00  0.00    -0.432 A  
HETATM   35  C   UNL     1     -11.542  18.703  65.969  1.00  0.00     2.134 A  
HETATM   36  N   UNL     1     -12.399  19.526  66.682  1.00  0.00     3.270 NA 
HETATM   37  C   UNL     1     -11.846  19.854  67.903  1.00  0.00     2.268 A  
HETATM   38  H   UNL     1     -13.309  19.844  66.351  1.00  0.00     0.000 HD 
HETATM   39  C   UNL     1     -12.277  20.628  68.984  1.00  0.00     5.103 A  
HETATM   40  C   UNL     1     -11.433  20.677  70.110  1.00  0.00     4.028 A  
HETATM   41  C   UNL     1     -10.283  19.890  70.199  1.00  0.00     0.609 A  
HETATM   42  C   UNL     1      -9.954  19.041  69.144  1.00  0.00    -0.306 A  
HETATM   43  C   UNL     1     -10.673  19.138  67.963  1.00  0.00    -0.318 A  
HETATM   44  C   UNL     1      -9.085  17.834  69.280  1.00  0.00     0.244 C  
HETATM   45  C   UNL     1      -9.930  16.698  69.939  1.00  0.00     0.275 C  
ENDBRANCH  27  28
ENDBRANCH  14  24
TORSDOF 3
ENDMDL
MODEL      143
REMARK 921   NORMALIZED FREE ENERGY PREDICTED BY IDOCK:   60.15 KCAL/MOL
REMARK 922        TOTAL FREE ENERGY PREDICTED BY IDOCK:   69.64 KCAL/MOL
REMARK 923 INTER-LIGAND FREE ENERGY PREDICTED BY IDOCK:   52.32 KCAL/MOL
REMARK 924 INTRA-LIGAND FREE ENERGY PREDICTED BY IDOCK:   17.31 KCAL/MOL
REMARK 927      BINDING AFFINITY PREDICTED BY RF-SCORE:    0.00 PKD
ROOT
HETATM    1  C   UNL     1     -11.398  15.661  67.227  1.00  0.00    -0.122 C  
HETATM    2  C   UNL     1     -11.044  15.571  65.733  1.00  0.00    -0.217 C  
HETATM    3  C   UNL     1     -11.115  17.063  65.258  1.00  0.00     0.097 C  
HETATM    4  C   UNL     1     -11.675  17.848  66.443  1.00  0.00     2.457 C  
HETATM    5  N   UNL     1     -12.227  16.825  67.316  1.00  0.00     1.923 N  
HETATM    6  C   UNL     1     -12.720  17.190  68.542  1.00  0.00     4.188 C  
HETATM    7  O   UNL     1     -13.539  18.098  68.655  1.00  0.00     9.051 OA 
HETATM    8  C   UNL     1     -12.232  16.311  69.736  1.00  0.00     0.391 C  
HETATM    9  N   UNL     1     -10.973  15.414  69.393  1.00  0.00    -0.257 N  
HETATM   10  C   UNL     1     -10.305  14.897  72.689  1.00  0.00     3.278 C  
HETATM   11  C   UNL     1     -10.370  14.403  70.127  1.00  0.00     0.571 C  
HETATM   12  C   UNL     1     -12.567  13.880  73.141  1.00  0.00     0.188 C  
HETATM   13  O   UNL     1      -9.160  14.243  70.203  1.00  0.00     1.146 OA 
HETATM   14  C   UNL     1     -11.449  13.462  70.612  1.00  0.00     0.505 C  
HETATM   15  C   UNL     1     -11.452  14.537  68.394  1.00  0.00    -0.302 C  
HETATM   16  O   UNL     1     -10.594  13.514  67.864  1.00  0.00    -0.240 OA 
HETATM   17  H   UNL     1     -10.626  12.856  68.548  1.00  0.00     0.000 HD 
HETATM   18  C   UNL     1     -11.358  13.845  72.206  1.00  0.00     2.515 C  
HETATM   19  O   UNL     1     -12.354  13.895  69.365  1.00  0.00    -0.329 OA 
ENDROOT
BRANCH   8  20
HETATM   20  C   UNL     1     -12.189  17.157  70.994  1.00  0.00     3.536 C  
HETATM   21  C   UNL     1     -12.487  17.248  73.459  1.00  0.00     0.938 C  
HETATM   22  C   UNL     1     -12.195  16.333  72.278  1.00  0.00    -0.503 C  
HETATM   23  C   UNL     1     -10.866  15.620  72.508  1.00  0.00     0.972 C  
ENDBRANCH   8  20
BRANCH  14  24
HETATM   24  N   UNL     1     -11.762  12.052  70.597  1.00  0.00    -0.410 N  
HETATM   25  H   UNL     1     -11.168  11.462  71.180  1.00  0.00     0.000 HD 
HETATM   26  O   UNL     1     -13.576  11.960  69.204  1.00  0.00     2.947 OA 
HETATM   27  C   UNL     1     -12.750  11.401  69.903  1.00  0.00     0.088 C  
BRANCH  27  28
HETATM   28  C   UNL     1     -12.676   9.888  70.145  1.00  0.00     0.189 C  
HETATM   29  C   UNL     1     -13.533   9.119  69.107  1.00  0.00     6.352 C  
HETATM   30  N   UNL     1     -12.792   8.708  67.902  1.00  0.00     8.696 NA 
HETATM   31  C   UNL     1     -12.146   9.841  67.219  1.00  0.00     4.275 C  
HETATM   32  C   UNL     1     -11.828   7.627  68.274  1.00  0.00     2.094 C  
HETATM   33  C   UNL     1     -10.730   7.319  67.171  1.00  0.00    -0.413 C  
HETATM   34  C   UNL     1      -9.338   7.335  67.705  1.00  0.00    -0.139 A  
HETATM   35  C   UNL     1      -8.098   7.527  67.143  1.00  0.00    -0.118 A  
HETATM   36  N   UNL     1      -7.153   7.381  68.145  1.00  0.00    -0.082 NA 
HETATM   37  C   UNL     1      -7.767   7.086  69.346  1.00  0.00    -0.108 A  
HETATM   38  H   UNL     1      -6.147   7.478  68.015  1.00  0.00     0.000 HD 
HETATM   39  C   UNL     1      -7.297   6.853  70.642  1.00  0.00    -0.074 A  
HETATM   40  C   UNL     1      -8.266   6.638  71.642  1.00  0.00    -0.111 A  
HETATM   41  C   UNL     1      -9.631   6.777  71.382  1.00  0.00    -0.170 A  
HETATM   42  C   UNL     1     -10.050   7.127  70.101  1.00  0.00    -0.195 A  
HETATM   43  C   UNL     1      -9.115   7.147  69.078  1.00  0.00    -0.132 A  
HETATM   44  C   UNL     1     -11.363   7.769  69.795  1.00  0.00     0.079 C  
HETATM   45  C   UNL     1     -11.269   9.279  70.185  1.00  0.00    -0.237 C  
ENDBRANCH  27  28
ENDBRANCH  14  24
TORSDOF 3
ENDMDL
MODEL      144
REMARK 921   NORMALIZED FREE ENERGY PREDICTED BY IDOCK:   60.51 KCAL/MOL
REMARK 922        TOTAL FREE ENERGY PREDICTED BY IDOCK:   70.06 KCAL/MOL
REMARK 923 INTER-LIGAND FREE ENERGY PREDICTED BY IDOCK:   65.82 KCAL/MOL
REMARK 924 INTRA-LIGAND FREE ENERGY PREDICTED BY IDOCK:    4.24 KCAL/MOL
REMARK 927      BINDING AFFINITY PREDICTED BY RF-SCORE:    0.00 PKD
ROOT
HETATM    1  C   UNL     1      -9.345  13.725  65.015  1.00  0.00     0.916 C  
HETATM    2  C   UNL     1     -10.066  14.096  63.708  1.00  0.00     2.771 C  
HETATM    3  C   UNL     1      -9.726  12.895  62.760  1.00  0.00     3.685 C  
HETATM    4  C   UNL     1      -8.706  12.046  63.517  1.00  0.00     1.177 C  
HETATM    5  N   UNL     1      -8.245  12.917  64.586  1.00  0.00     4.176 N  
HETATM    6  C   UNL     1      -7.388  12.415  65.531  1.00  0.00     3.339 C  
HETATM    7  O   UNL     1      -6.358  11.828  65.210  1.00  0.00     1.114 OA 
HETATM    8  C   UNL     1      -7.781  12.729  67.008  1.00  0.00     0.012 C  
HETATM    9  N   UNL     1      -9.274  13.225  67.179  1.00  0.00    -0.227 N  
HETATM   10  C   UNL     1      -9.223  12.585  70.520  1.00  0.00     6.641 C  
HETATM   11  C   UNL     1      -9.922  13.746  68.289  1.00  0.00    -0.243 C  
HETATM   12  C   UNL     1      -7.268  14.120  70.936  1.00  0.00     1.594 C  
HETATM   13  O   UNL     1     -11.074  13.477  68.596  1.00  0.00    -0.247 OA 
HETATM   14  C   UNL     1      -9.042  14.818  68.889  1.00  0.00    -0.168 C  
HETATM   15  C   UNL     1      -9.303  14.446  66.468  1.00  0.00    -0.278 C  
HETATM   16  O   UNL     1     -10.501  15.237  66.444  1.00  0.00    -0.286 OA 
HETATM   17  H   UNL     1     -10.476  15.658  67.295  1.00  0.00     0.000 HD 
HETATM   18  C   UNL     1      -8.635  14.011  70.260  1.00  0.00     2.469 C  
HETATM   19  O   UNL     1      -8.390  15.059  67.448  1.00  0.00    -0.163 OA 
ENDROOT
BRANCH   8  20
HETATM   20  C   UNL     1      -7.290  11.609  67.904  1.00  0.00    -0.096 C  
HETATM   21  C   UNL     1      -7.425   9.201  68.501  1.00  0.00    -0.081 C  
HETATM   22  C   UNL     1      -7.657  10.219  67.393  1.00  0.00    -0.094 C  
HETATM   23  C   UNL     1      -6.841   9.825  66.167  1.00  0.00    -0.090 C  
ENDBRANCH   8  20
BRANCH  14  24
HETATM   24  N   UNL     1      -9.123  16.202  69.297  1.00  0.00    -0.243 N  
HETATM   25  H   UNL     1      -9.794  16.775  68.783  1.00  0.00     0.000 HD 
HETATM   26  O   UNL     1      -7.619  16.302  71.020  1.00  0.00     3.067 OA 
HETATM   27  C   UNL     1      -8.419  16.848  70.281  1.00  0.00     2.695 C  
BRANCH  27  28
HETATM   28  C   UNL     1      -8.791  18.335  70.327  1.00  0.00     2.827 C  
HETATM   29  C   UNL     1      -7.580  19.222  69.937  1.00  0.00     0.459 C  
HETATM   30  N   UNL     1      -7.510  19.544  68.501  1.00  0.00    -0.322 NA 
HETATM   31  C   UNL     1      -7.496  18.342  67.650  1.00  0.00    -0.224 C  
HETATM   32  C   UNL     1      -8.621  20.484  68.162  1.00  0.00     0.201 C  
HETATM   33  C   UNL     1      -8.884  20.656  66.606  1.00  0.00    -0.086 C  
HETATM   34  C   UNL     1     -10.310  20.450  66.224  1.00  0.00    -0.245 A  
HETATM   35  C   UNL     1     -10.949  20.102  65.058  1.00  0.00     0.672 A  
HETATM   36  N   UNL     1     -12.312  20.111  65.304  1.00  0.00     3.726 NA 
HETATM   37  C   UNL     1     -12.562  20.472  66.612  1.00  0.00     5.381 A  
HETATM   38  H   UNL     1     -13.029  19.884  64.616  1.00  0.00     0.000 HD 
HETATM   39  C   UNL     1     -13.728  20.628  67.367  1.00  0.00     5.682 A  
HETATM   40  C   UNL     1     -13.567  20.959  68.727  1.00  0.00     6.935 A  
HETATM   41  C   UNL     1     -12.307  21.004  69.326  1.00  0.00     5.276 A  
HETATM   42  C   UNL     1     -11.177  20.726  68.561  1.00  0.00     1.720 A  
HETATM   43  C   UNL     1     -11.319  20.592  67.189  1.00  0.00     2.191 A  
HETATM   44  C   UNL     1      -9.874  20.266  69.128  1.00  0.00     0.027 C  
HETATM   45  C   UNL     1     -10.009  18.753  69.493  1.00  0.00     0.160 C  
ENDBRANCH  27  28
ENDBRANCH  14  24
TORSDOF 3
ENDMDL
MODEL      145
REMARK 921   NORMALIZED FREE ENERGY PREDICTED BY IDOCK:   65.26 KCAL/MOL
REMARK 922        TOTAL FREE ENERGY PREDICTED BY IDOCK:   75.64 KCAL/MOL
REMARK 923 INTER-LIGAND FREE ENERGY PREDICTED BY IDOCK:   74.61 KCAL/MOL
REMARK 924 INTRA-LIGAND FREE ENERGY PREDICTED BY IDOCK:    1.03 KCAL/MOL
REMARK 927      BINDING AFFINITY PREDICTED BY RF-SCORE:    0.00 PKD
ROOT
HETATM    1  C   UNL     1      -6.847  18.598  72.474  1.00  0.00     4.434 C  
HETATM    2  C   UNL     1      -6.566  18.735  73.979  1.00  0.00     9.991 C  
HETATM    3  C   UNL     1      -6.617  20.284  74.213  1.00  0.00    15.535 C  
HETATM    4  C   UNL     1      -6.732  20.908  72.823  1.00  0.00     4.087 C  
HETATM    5  N   UNL     1      -6.370  19.829  71.919  1.00  0.00     0.077 N  
HETATM    6  C   UNL     1      -6.477  20.028  70.568  1.00  0.00    -0.185 C  
HETATM    7  O   UNL     1      -5.967  21.004  70.025  1.00  0.00    -0.352 OA 
HETATM    8  C   UNL     1      -7.204  18.887  69.790  1.00  0.00     0.265 C  
HETATM    9  N   UNL     1      -8.022  17.902  70.721  1.00  0.00     4.556 N  
HETATM   10  C   UNL     1      -9.800  16.703  68.080  1.00  0.00    -0.250 C  
HETATM   11  C   UNL     1      -8.646  16.700  70.422  1.00  0.00     2.840 C  
HETATM   12  C   UNL     1      -7.738  15.942  66.846  1.00  0.00    -0.268 C  
HETATM   13  O   UNL     1      -9.731  16.363  70.873  1.00  0.00     1.850 OA 
HETATM   14  C   UNL     1      -7.676  15.845  69.640  1.00  0.00     0.001 C  
HETATM   15  C   UNL     1      -7.027  17.298  71.522  1.00  0.00     5.415 C  
HETATM   16  O   UNL     1      -7.386  16.280  72.470  1.00  0.00     8.154 OA 
HETATM   17  H   UNL     1      -7.491  15.519  71.912  1.00  0.00     0.000 HD 
HETATM   18  C   UNL     1      -8.454  15.913  68.196  1.00  0.00    -0.167 C  
HETATM   19  O   UNL     1      -6.464  16.619  70.342  1.00  0.00     0.231 OA 
ENDROOT
BRANCH   8  20
HETATM   20  C   UNL     1      -7.901  19.473  68.578  1.00  0.00    -0.382 C  
HETATM   21  C   UNL     1     -10.021  19.725  67.308  1.00  0.00    -0.530 C  
HETATM   22  C   UNL     1      -9.423  19.435  68.677  1.00  0.00    -0.466 C  
HETATM   23  C   UNL     1      -9.958  20.445  69.686  1.00  0.00     0.327 C  
ENDBRANCH   8  20
BRANCH  14  24
HETATM   24  N   UNL     1      -7.105  14.519  69.680  1.00  0.00    -0.295 N  
HETATM   25  H   UNL     1      -7.413  13.883  68.943  1.00  0.00     0.000 HD 
HETATM   26  O   UNL     1      -5.700  14.636  71.484  1.00  0.00    -0.106 OA 
HETATM   27  C   UNL     1      -6.206  14.000  70.576  1.00  0.00    -0.114 C  
BRANCH  27  28
HETATM   28  C   UNL     1      -5.920  12.525  70.267  1.00  0.00    -0.126 C  
HETATM   29  C   UNL     1      -6.166  11.638  71.514  1.00  0.00     1.803 C  
HETATM   30  N   UNL     1      -7.532  11.093  71.605  1.00  0.00     4.970 NA 
HETATM   31  C   UNL     1      -8.565  12.142  71.572  1.00  0.00    14.874 C  
HETATM   32  C   UNL     1      -7.713  10.065  70.534  1.00  0.00     0.173 C  
HETATM   33  C   UNL     1      -9.220   9.635  70.286  1.00  0.00    -0.285 C  
HETATM   34  C   UNL     1      -9.627   9.717  68.854  1.00  0.00    -0.161 A  
HETATM   35  C   UNL     1     -10.832   9.846  68.206  1.00  0.00    -0.230 A  
HETATM   36  N   UNL     1     -10.584   9.820  66.843  1.00  0.00    -0.206 NA 
HETATM   37  C   UNL     1      -9.234   9.663  66.603  1.00  0.00    -0.151 A  
HETATM   38  H   UNL     1     -11.298   9.904  66.121  1.00  0.00     0.000 HD 
HETATM   39  C   UNL     1      -8.461   9.582  65.442  1.00  0.00    -0.157 A  
HETATM   40  C   UNL     1      -7.066   9.481  65.610  1.00  0.00    -0.093 A  
HETATM   41  C   UNL     1      -6.471   9.585  66.869  1.00  0.00    -0.067 A  
HETATM   42  C   UNL     1      -7.273   9.785  67.990  1.00  0.00    -0.080 A  
HETATM   43  C   UNL     1      -8.649   9.689  67.847  1.00  0.00    -0.122 A  
HETATM   44  C   UNL     1      -6.791  10.384  69.270  1.00  0.00    -0.073 C  
HETATM   45  C   UNL     1      -6.674  11.928  69.071  1.00  0.00    -0.099 C  
ENDBRANCH  27  28
ENDBRANCH  14  24
TORSDOF 3
ENDMDL
MODEL      146
REMARK 921   NORMALIZED FREE ENERGY PREDICTED BY IDOCK:   73.36 KCAL/MOL
REMARK 922        TOTAL FREE ENERGY PREDICTED BY IDOCK:   85.16 KCAL/MOL
REMARK 923 INTER-LIGAND FREE ENERGY PREDICTED BY IDOCK:   83.97 KCAL/MOL
REMARK 924 INTRA-LIGAND FREE ENERGY PREDICTED BY IDOCK:    1.18 KCAL/MOL
REMARK 927      BINDING AFFINITY PREDICTED BY RF-SCORE:    0.00 PKD
ROOT
HETATM    1  C   UNL     1     -10.273   8.486  71.633  1.00  0.00    -0.266 C  
HETATM    2  C   UNL     1      -9.342   9.648  72.018  1.00  0.00     1.924 C  
HETATM    3  C   UNL     1      -9.863  10.069  73.435  1.00  0.00     9.142 C  
HETATM    4  C   UNL     1     -11.140   9.261  73.663  1.00  0.00     5.915 C  
HETATM    5  N   UNL     1     -11.485   8.765  72.342  1.00  0.00    -0.308 N  
HETATM    6  C   UNL     1     -12.539   7.899  72.209  1.00  0.00    -0.194 C  
HETATM    7  O   UNL     1     -13.641   8.158  72.687  1.00  0.00    -0.017 OA 
HETATM    8  C   UNL     1     -12.247   6.634  71.343  1.00  0.00    -0.324 C  
HETATM    9  N   UNL     1     -10.705   6.375  71.094  1.00  0.00    -0.235 N  
HETATM   10  C   UNL     1     -11.285   3.156  70.156  1.00  0.00     6.231 C  
HETATM   11  C   UNL     1     -10.076   5.468  70.255  1.00  0.00    -0.237 C  
HETATM   12  C   UNL     1     -12.830   3.824  68.280  1.00  0.00    26.698 C  
HETATM   13  O   UNL     1      -9.068   4.844  70.556  1.00  0.00    -0.122 OA 
HETATM   14  C   UNL     1     -10.722   5.557  68.892  1.00  0.00    -0.137 C  
HETATM   15  C   UNL     1     -10.295   7.501  70.346  1.00  0.00    -0.214 C  
HETATM   16  O   UNL     1      -8.943   7.596  69.872  1.00  0.00    -0.143 OA 
HETATM   17  H   UNL     1      -8.956   7.019  69.118  1.00  0.00     0.000 HD 
HETATM   18  C   UNL     1     -11.467   4.094  68.917  1.00  0.00     7.136 C  
HETATM   19  O   UNL     1     -11.130   7.072  69.210  1.00  0.00    -0.204 OA 
ENDROOT
BRANCH   8  20
HETATM   20  C   UNL     1     -13.098   5.481  71.840  1.00  0.00     1.785 C  
HETATM   21  C   UNL     1     -13.161   3.263  72.957  1.00  0.00     1.785 C  
HETATM   22  C   UNL     1     -12.354   4.542  72.784  1.00  0.00     0.732 C  
HETATM   23  C   UNL     1     -12.111   5.175  74.150  1.00  0.00     3.468 C  
ENDBRANCH   8  20
BRANCH  14  24
HETATM   24  N   UNL     1     -10.345   5.746  67.510  1.00  0.00    -0.196 N  
HETATM   25  H   UNL     1     -10.699   6.595  67.068  1.00  0.00     0.000 HD 
HETATM   26  O   UNL     1      -9.032   3.915  67.099  1.00  0.00    -0.119 OA 
HETATM   27  C   UNL     1      -9.574   4.937  66.715  1.00  0.00    -0.161 C  
BRANCH  27  28
HETATM   28  C   UNL     1      -9.481   5.504  65.292  1.00  0.00     0.179 C  
HETATM   29  C   UNL     1     -10.880   5.916  64.766  1.00  0.00     3.762 C  
HETATM   30  N   UNL     1     -11.231   7.322  65.033  1.00  0.00     8.037 NA 
HETATM   31  C   UNL     1     -11.155   7.665  66.463  1.00  0.00     1.207 C  
HETATM   32  C   UNL     1     -10.379   8.203  64.177  1.00  0.00     7.141 C  
HETATM   33  C   UNL     1     -10.397   9.735  64.589  1.00  0.00     0.884 C  
HETATM   34  C   UNL     1      -9.034  10.314  64.764  1.00  0.00    -0.232 A  
HETATM   35  C   UNL     1      -8.532  11.387  65.460  1.00  0.00     0.163 A  
HETATM   36  N   UNL     1      -7.172  11.458  65.204  1.00  0.00     0.298 NA 
HETATM   37  C   UNL     1      -6.793  10.449  64.341  1.00  0.00     0.004 A  
HETATM   38  H   UNL     1      -6.542  12.156  65.596  1.00  0.00     0.000 HD 
HETATM   39  C   UNL     1      -5.573  10.067  63.776  1.00  0.00    -0.116 A  
HETATM   40  C   UNL     1      -5.579   8.914  62.967  1.00  0.00    -0.070 A  
HETATM   41  C   UNL     1      -6.717   8.115  62.837  1.00  0.00    -0.086 A  
HETATM   42  C   UNL     1      -7.881   8.471  63.514  1.00  0.00    -0.151 A  
HETATM   43  C   UNL     1      -7.932   9.702  64.149  1.00  0.00    -0.143 A  
HETATM   44  C   UNL     1      -8.972   7.513  63.864  1.00  0.00     1.196 C  
HETATM   45  C   UNL     1      -8.506   6.671  65.094  1.00  0.00    -0.041 C  
ENDBRANCH  27  28
ENDBRANCH  14  24
TORSDOF 3
ENDMDL
MODEL      147
REMARK 921   NORMALIZED FREE ENERGY PREDICTED BY IDOCK:   75.61 KCAL/MOL
REMARK 922        TOTAL FREE ENERGY PREDICTED BY IDOCK:   87.80 KCAL/MOL
REMARK 923 INTER-LIGAND FREE ENERGY PREDICTED BY IDOCK:   84.07 KCAL/MOL
REMARK 924 INTRA-LIGAND FREE ENERGY PREDICTED BY IDOCK:    3.72 KCAL/MOL
REMARK 927      BINDING AFFINITY PREDICTED BY RF-SCORE:    0.00 PKD
ROOT
HETATM    1  C   UNL     1     -12.256  11.670  64.932  1.00  0.00     0.395 C  
HETATM    2  C   UNL     1     -13.579  11.450  64.180  1.00  0.00     2.282 C  
HETATM    3  C   UNL     1     -13.154  10.554  62.966  1.00  0.00     5.446 C  
HETATM    4  C   UNL     1     -11.629  10.491  63.011  1.00  0.00     2.765 C  
HETATM    5  N   UNL     1     -11.257  11.570  63.911  1.00  0.00    -0.388 N  
HETATM    6  C   UNL     1      -9.940  11.722  64.261  1.00  0.00    -0.257 C  
HETATM    7  O   UNL     1      -9.057  11.777  63.410  1.00  0.00    -0.016 OA 
HETATM    8  C   UNL     1      -9.682  11.908  65.789  1.00  0.00    -0.237 C  
HETATM    9  N   UNL     1     -10.916  11.506  66.696  1.00  0.00    -0.288 N  
HETATM   10  C   UNL     1      -8.957  11.330  69.473  1.00  0.00     0.617 C  
HETATM   11  C   UNL     1     -11.121  11.686  68.056  1.00  0.00    -0.242 C  
HETATM   12  C   UNL     1      -8.194  13.723  69.269  1.00  0.00     0.465 C  
HETATM   13  O   UNL     1     -11.644  10.855  68.784  1.00  0.00    -0.279 OA 
HETATM   14  C   UNL     1     -10.782  13.118  68.400  1.00  0.00    -0.253 C  
HETATM   15  C   UNL     1     -11.918  12.430  66.324  1.00  0.00    -0.298 C  
HETATM   16  O   UNL     1     -13.190  12.417  66.989  1.00  0.00     2.632 OA 
HETATM   17  H   UNL     1     -12.992  12.862  67.804  1.00  0.00     0.000 HD 
HETATM   18  C   UNL     1      -9.419  12.810  69.263  1.00  0.00     0.848 C  
HETATM   19  O   UNL     1     -11.134  13.538  66.897  1.00  0.00    -0.288 OA 
ENDROOT
BRANCH   8  20
HETATM   20  C   UNL     1      -8.320  11.341  66.138  1.00  0.00    -0.111 C  
HETATM   21  C   UNL     1      -6.267  10.195  65.334  1.00  0.00    -0.115 C  
HETATM   22  C   UNL     1      -7.452  11.055  64.916  1.00  0.00     0.520 C  
HETATM   23  C   UNL     1      -6.942  12.334  64.262  1.00  0.00     6.605 C  
ENDBRANCH   8  20
BRANCH  14  24
HETATM   24  N   UNL     1     -11.377  14.256  69.062  1.00  0.00    -0.256 N  
HETATM   25  H   UNL     1     -12.079  14.763  68.522  1.00  0.00     0.000 HD 
HETATM   26  O   UNL     1     -10.356  14.231  71.110  1.00  0.00     1.682 OA 
HETATM   27  C   UNL     1     -11.124  14.746  70.318  1.00  0.00    -0.145 C  
BRANCH  27  28
HETATM   28  C   UNL     1     -11.950  16.011  70.584  1.00  0.00    -0.300 C  
HETATM   29  C   UNL     1     -11.570  16.645  71.947  1.00  0.00     0.011 C  
HETATM   30  N   UNL     1     -10.507  17.662  71.860  1.00  0.00     3.429 NA 
HETATM   31  C   UNL     1      -9.279  17.148  71.231  1.00  0.00     7.134 C  
HETATM   32  C   UNL     1     -11.052  18.871  71.171  1.00  0.00     4.396 C  
HETATM   33  C   UNL     1      -9.949  19.912  70.703  1.00  0.00     1.274 C  
HETATM   34  C   UNL     1     -10.073  20.296  69.268  1.00  0.00    -0.024 A  
HETATM   35  C   UNL     1      -9.202  20.798  68.331  1.00  0.00     0.628 A  
HETATM   36  N   UNL     1      -9.912  21.001  67.159  1.00  0.00    -0.389 NA 
HETATM   37  C   UNL     1     -11.235  20.648  67.331  1.00  0.00     1.924 A  
HETATM   38  H   UNL     1      -9.514  21.362  66.292  1.00  0.00     0.000 HD 
HETATM   39  C   UNL     1     -12.354  20.647  66.493  1.00  0.00     4.974 A  
HETATM   40  C   UNL     1     -13.554  20.142  67.032  1.00  0.00     6.240 A  
HETATM   41  C   UNL     1     -13.598  19.552  68.296  1.00  0.00     9.503 A  
HETATM   42  C   UNL     1     -12.431  19.467  69.052  1.00  0.00     9.134 A  
HETATM   43  C   UNL     1     -11.300  20.134  68.605  1.00  0.00     1.816 A  
HETATM   44  C   UNL     1     -12.212  18.476  70.147  1.00  0.00    11.669 C  
HETATM   45  C   UNL     1     -11.900  17.091  69.496  1.00  0.00     1.569 C  
ENDBRANCH  27  28
ENDBRANCH  14  24
TORSDOF 3
ENDMDL
MODEL      148
REMARK 921   NORMALIZED FREE ENERGY PREDICTED BY IDOCK:   83.93 KCAL/MOL
REMARK 922        TOTAL FREE ENERGY PREDICTED BY IDOCK:   97.59 KCAL/MOL
REMARK 923 INTER-LIGAND FREE ENERGY PREDICTED BY IDOCK:   95.30 KCAL/MOL
REMARK 924 INTRA-LIGAND FREE ENERGY PREDICTED BY IDOCK:    2.29 KCAL/MOL
REMARK 927      BINDING AFFINITY PREDICTED BY RF-SCORE:    0.00 PKD
ROOT
HETATM    1  C   UNL     1      -7.621  16.315  64.398  1.00  0.00    11.365 C  
HETATM    2  C   UNL     1      -6.520  16.625  63.370  1.00  0.00    15.255 C  
HETATM    3  C   UNL     1      -7.119  17.821  62.554  1.00  0.00    15.754 C  
HETATM    4  C   UNL     1      -8.558  17.975  63.042  1.00  0.00    24.100 C  
HETATM    5  N   UNL     1      -8.827  16.734  63.749  1.00  0.00    11.832 N  
HETATM    6  C   UNL     1     -10.017  16.590  64.414  1.00  0.00     2.929 C  
HETATM    7  O   UNL     1     -11.089  16.810  63.857  1.00  0.00    -0.624 OA 
HETATM    8  C   UNL     1      -9.895  16.048  65.872  1.00  0.00    -0.348 C  
HETATM    9  N   UNL     1      -8.426  16.125  66.460  1.00  0.00    -0.282 N  
HETATM   10  C   UNL     1      -9.560  15.738  69.644  1.00  0.00    -0.233 C  
HETATM   11  C   UNL     1      -7.904  15.598  67.631  1.00  0.00    -0.154 C  
HETATM   12  C   UNL     1     -10.665  13.528  69.141  1.00  0.00    -0.118 C  
HETATM   13  O   UNL     1      -7.103  16.184  68.346  1.00  0.00    -0.124 OA 
HETATM   14  C   UNL     1      -8.331  14.152  67.732  1.00  0.00    -0.174 C  
HETATM   15  C   UNL     1      -7.688  15.257  65.625  1.00  0.00     4.042 C  
HETATM   16  O   UNL     1      -6.297  15.016  65.888  1.00  0.00     3.699 OA 
HETATM   17  H   UNL     1      -6.336  14.397  66.607  1.00  0.00     0.000 HD 
HETATM   18  C   UNL     1      -9.371  14.329  68.990  1.00  0.00     0.025 C  
HETATM   19  O   UNL     1      -8.439  14.097  66.136  1.00  0.00     0.466 OA 
ENDROOT
BRANCH   8  20
HETATM   20  C   UNL     1     -11.032  16.601  66.708  1.00  0.00     0.078 C  
HETATM   21  C   UNL     1     -13.488  16.763  67.045  1.00  0.00     8.190 C  
HETATM   22  C   UNL     1     -12.374  15.933  66.423  1.00  0.00     1.841 C  
HETATM   23  C   UNL     1     -12.435  14.512  66.972  1.00  0.00     0.146 C  
ENDBRANCH   8  20
BRANCH  14  24
HETATM   24  N   UNL     1      -7.744  12.848  67.930  1.00  0.00    -0.128 N  
HETATM   25  H   UNL     1      -6.729  12.800  67.833  1.00  0.00     0.000 HD 
HETATM   26  O   UNL     1      -9.565  11.554  68.430  1.00  0.00    -0.186 OA 
HETATM   27  C   UNL     1      -8.369  11.664  68.230  1.00  0.00    -0.159 C  
BRANCH  27  28
HETATM   28  C   UNL     1      -7.354  10.515  68.293  1.00  0.00    -0.088 C  
HETATM   29  C   UNL     1      -7.169  10.017  69.750  1.00  0.00    -0.127 C  
HETATM   30  N   UNL     1      -8.067   8.910  70.124  1.00  0.00    -0.110 NA 
HETATM   31  C   UNL     1      -9.488   9.238  69.924  1.00  0.00    -0.197 C  
HETATM   32  C   UNL     1      -7.645   7.678  69.389  1.00  0.00    -0.095 C  
HETATM   33  C   UNL     1      -8.706   6.498  69.423  1.00  0.00    -0.134 C  
HETATM   34  C   UNL     1      -9.029   5.958  68.071  1.00  0.00    -0.118 A  
HETATM   35  C   UNL     1     -10.099   5.276  67.543  1.00  0.00    -0.179 A  
HETATM   36  N   UNL     1      -9.808   4.996  66.217  1.00  0.00    -0.181 NA 
HETATM   37  C   UNL     1      -8.559   5.480  65.886  1.00  0.00    -0.141 A  
HETATM   38  H   UNL     1     -10.430   4.503  65.577  1.00  0.00     0.000 HD 
HETATM   39  C   UNL     1      -7.800   5.477  64.713  1.00  0.00    -0.106 A  
HETATM   40  C   UNL     1      -6.559   6.144  64.755  1.00  0.00    -0.038 A  
HETATM   41  C   UNL     1      -6.161   6.882  65.871  1.00  0.00    -0.039 A  
HETATM   42  C   UNL     1      -7.005   6.955  66.977  1.00  0.00    -0.070 A  
HETATM   43  C   UNL     1      -8.129   6.146  67.011  1.00  0.00    -0.106 A  
HETATM   44  C   UNL     1      -6.958   8.047  67.995  1.00  0.00    -0.074 C  
HETATM   45  C   UNL     1      -7.638   9.313  67.383  1.00  0.00    -0.088 C  
ENDBRANCH  27  28
ENDBRANCH  14  24
TORSDOF 3
ENDMDL
MODEL      149
REMARK 921   NORMALIZED FREE ENERGY PREDICTED BY IDOCK:  101.67 KCAL/MOL
REMARK 922        TOTAL FREE ENERGY PREDICTED BY IDOCK:  118.44 KCAL/MOL
REMARK 923 INTER-LIGAND FREE ENERGY PREDICTED BY IDOCK:  114.02 KCAL/MOL
REMARK 924 INTRA-LIGAND FREE ENERGY PREDICTED BY IDOCK:    4.42 KCAL/MOL
REMARK 927      BINDING AFFINITY PREDICTED BY RF-SCORE:    0.00 PKD
ROOT
HETATM    1  C   UNL     1      -9.004   8.176  70.490  1.00  0.00    -0.145 C  
HETATM    2  C   UNL     1      -7.913   8.262  69.409  1.00  0.00    -0.113 C  
HETATM    3  C   UNL     1      -7.454   6.772  69.246  1.00  0.00    -0.095 C  
HETATM    4  C   UNL     1      -8.164   5.996  70.354  1.00  0.00    -0.116 C  
HETATM    5  N   UNL     1      -8.635   7.028  71.263  1.00  0.00    -0.119 N  
HETATM    6  C   UNL     1      -9.421   6.671  72.327  1.00  0.00    -0.145 C  
HETATM    7  O   UNL     1      -9.080   5.779  73.099  1.00  0.00    -0.128 OA 
HETATM    8  C   UNL     1     -10.705   7.537  72.518  1.00  0.00    -0.285 C  
HETATM    9  N   UNL     1     -11.078   8.410  71.251  1.00  0.00    -0.246 N  
HETATM   10  C   UNL     1     -14.246   8.907  72.388  1.00  0.00    -0.452 C  
HETATM   11  C   UNL     1     -12.030   9.408  71.102  1.00  0.00    -0.337 C  
HETATM   12  C   UNL     1     -13.467   9.968  74.538  1.00  0.00    12.120 C  
HETATM   13  O   UNL     1     -12.726   9.544  70.106  1.00  0.00     0.300 OA 
HETATM   14  C   UNL     1     -11.894  10.368  72.261  1.00  0.00     1.554 C  
HETATM   15  C   UNL     1      -9.986   9.299  71.126  1.00  0.00    -0.286 C  
HETATM   16  O   UNL     1      -9.992  10.305  70.102  1.00  0.00    -0.418 OA 
HETATM   17  H   UNL     1     -10.567  10.963  70.474  1.00  0.00     0.000 HD 
HETATM   18  C   UNL     1     -13.298   9.981  73.019  1.00  0.00     1.277 C  
HETATM   19  O   UNL     1     -10.353   9.956  72.392  1.00  0.00     1.770 OA 
ENDROOT
BRANCH   8  20
HETATM   20  C   UNL     1     -11.791   6.689  73.150  1.00  0.00     0.564 C  
HETATM   21  C   UNL     1     -13.738   5.186  72.795  1.00  0.00     2.013 C  
HETATM   22  C   UNL     1     -12.466   5.738  72.166  1.00  0.00     0.329 C  
HETATM   23  C   UNL     1     -11.556   4.581  71.769  1.00  0.00     1.520 C  
ENDBRANCH   8  20
BRANCH  14  24
HETATM   24  N   UNL     1     -11.735  11.784  72.498  1.00  0.00     4.093 N  
HETATM   25  H   UNL     1     -11.012  12.246  71.945  1.00  0.00     0.000 HD 
HETATM   26  O   UNL     1     -13.353  12.211  74.060  1.00  0.00     7.108 OA 
HETATM   27  C   UNL     1     -12.426  12.590  73.366  1.00  0.00     5.795 C  
BRANCH  27  28
HETATM   28  C   UNL     1     -11.882  14.024  73.327  1.00  0.00     1.147 C  
HETATM   29  C   UNL     1     -10.336  14.033  73.438  1.00  0.00     7.244 C  
HETATM   30  N   UNL     1      -9.640  14.002  72.140  1.00  0.00     7.348 NA 
HETATM   31  C   UNL     1     -10.036  12.852  71.310  1.00  0.00     8.980 C  
HETATM   32  C   UNL     1      -9.844  15.314  71.452  1.00  0.00     2.100 C  
HETATM   33  C   UNL     1      -9.447  15.317  69.915  1.00  0.00    -0.020 C  
HETATM   34  C   UNL     1     -10.525  15.846  69.030  1.00  0.00    -0.234 A  
HETATM   35  C   UNL     1     -10.834  15.693  67.700  1.00  0.00    -0.307 A  
HETATM   36  N   UNL     1     -11.943  16.477  67.430  1.00  0.00     0.881 NA 
HETATM   37  C   UNL     1     -12.347  17.145  68.569  1.00  0.00     2.741 A  
HETATM   38  H   UNL     1     -12.396  16.552  66.520  1.00  0.00     0.000 HD 
HETATM   39  C   UNL     1     -13.387  18.036  68.850  1.00  0.00    12.339 A  
HETATM   40  C   UNL     1     -13.513  18.466  70.186  1.00  0.00    23.460 A  
HETATM   41  C   UNL     1     -12.723  17.933  71.205  1.00  0.00    12.091 A  
HETATM   42  C   UNL     1     -11.776  16.958  70.897  1.00  0.00     0.999 A  
HETATM   43  C   UNL     1     -11.520  16.679  69.564  1.00  0.00     0.168 A  
HETATM   44  C   UNL     1     -11.228  15.981  71.884  1.00  0.00    -0.049 C  
HETATM   45  C   UNL     1     -12.304  14.873  72.120  1.00  0.00    -0.430 C  
ENDBRANCH  27  28
ENDBRANCH  14  24
TORSDOF 3
ENDMDL
MODEL      150
REMARK 921   NORMALIZED FREE ENERGY PREDICTED BY IDOCK:  117.51 KCAL/MOL
REMARK 922        TOTAL FREE ENERGY PREDICTED BY IDOCK:  137.05 KCAL/MOL
REMARK 923 INTER-LIGAND FREE ENERGY PREDICTED BY IDOCK:  125.74 KCAL/MOL
REMARK 924 INTRA-LIGAND FREE ENERGY PREDICTED BY IDOCK:   11.31 KCAL/MOL
REMARK 927      BINDING AFFINITY PREDICTED BY RF-SCORE:    0.00 PKD
ROOT
HETATM    1  C   UNL     1      -9.164  16.083  71.124  1.00  0.00     3.753 C  
HETATM    2  C   UNL     1      -9.473  17.535  70.723  1.00  0.00     4.310 C  
HETATM    3  C   UNL     1      -9.972  18.177  72.064  1.00  0.00     6.522 C  
HETATM    4  C   UNL     1     -10.086  17.023  73.058  1.00  0.00     8.449 C  
HETATM    5  N   UNL     1     -10.045  15.832  72.224  1.00  0.00     3.108 N  
HETATM    6  C   UNL     1     -10.017  14.600  72.824  1.00  0.00     5.657 C  
HETATM    7  O   UNL     1     -10.839  14.289  73.681  1.00  0.00     2.293 OA 
HETATM    8  C   UNL     1      -8.934  13.622  72.267  1.00  0.00    13.381 C  
HETATM    9  N   UNL     1      -7.821  14.334  71.396  1.00  0.00     3.638 N  
HETATM   10  C   UNL     1      -5.736  11.660  71.674  1.00  0.00     0.642 C  
HETATM   11  C   UNL     1      -6.813  13.789  70.615  1.00  0.00     0.806 C  
HETATM   12  C   UNL     1      -7.399  10.068  70.646  1.00  0.00     0.107 C  
HETATM   13  O   UNL     1      -5.678  14.240  70.551  1.00  0.00    -0.128 OA 
HETATM   14  C   UNL     1      -7.420  12.715  69.742  1.00  0.00     1.043 C  
HETATM   15  C   UNL     1      -8.538  14.841  70.289  1.00  0.00     1.119 C  
HETATM   16  O   UNL     1      -7.842  15.515  69.229  1.00  0.00    -0.196 OA 
HETATM   17  H   UNL     1      -7.475  14.788  68.740  1.00  0.00     0.000 HD 
HETATM   18  C   UNL     1      -6.717  11.426  70.478  1.00  0.00     0.750 C  
HETATM   19  O   UNL     1      -8.826  13.473  69.826  1.00  0.00     1.379 OA 
ENDROOT
BRANCH   8  20
HETATM   20  C   UNL     1      -8.491  12.686  73.374  1.00  0.00    19.887 C  
HETATM   21  C   UNL     1      -7.158  10.688  74.010  1.00  0.00     4.999 C  
HETATM   22  C   UNL     1      -7.310  11.802  72.983  1.00  0.00    13.195 C  
HETATM   23  C   UNL     1      -6.008  12.589  72.894  1.00  0.00     2.430 C  
ENDBRANCH   8  20
BRANCH  14  24
HETATM   24  N   UNL     1      -7.486  12.343  68.348  1.00  0.00    -0.117 N  
HETATM   25  H   UNL     1      -8.180  11.632  68.112  1.00  0.00     0.000 HD 
HETATM   26  O   UNL     1      -5.906  13.700  67.396  1.00  0.00    -0.352 OA 
HETATM   27  C   UNL     1      -6.739  12.816  67.299  1.00  0.00    -0.082 C  
BRANCH  27  28
HETATM   28  C   UNL     1      -7.111  12.094  65.998  1.00  0.00     1.406 C  
HETATM   29  C   UNL     1      -5.932  11.227  65.488  1.00  0.00     0.404 C  
HETATM   30  N   UNL     1      -5.957   9.835  65.972  1.00  0.00    -0.062 NA 
HETATM   31  C   UNL     1      -5.996   9.745  67.441  1.00  0.00    -0.055 C  
HETATM   32  C   UNL     1      -7.091   9.116  65.315  1.00  0.00    -0.088 C  
HETATM   33  C   UNL     1      -7.456   7.722  65.978  1.00  0.00    -0.078 C  
HETATM   34  C   UNL     1      -8.904   7.587  66.308  1.00  0.00    -0.184 A  
HETATM   35  C   UNL     1      -9.618   6.818  67.196  1.00  0.00    -0.144 A  
HETATM   36  N   UNL     1     -10.961   7.101  67.015  1.00  0.00    -0.588 NA 
HETATM   37  C   UNL     1     -11.126   8.035  66.012  1.00  0.00     3.134 A  
HETATM   38  H   UNL     1     -11.722   6.678  67.547  1.00  0.00     0.000 HD 
HETATM   39  C   UNL     1     -12.240   8.660  65.445  1.00  0.00    13.748 A  
HETATM   40  C   UNL     1     -11.991   9.630  64.454  1.00  0.00     9.684 A  
HETATM   41  C   UNL     1     -10.694  10.042  64.142  1.00  0.00     1.893 A  
HETATM   42  C   UNL     1      -9.615   9.475  64.817  1.00  0.00    -0.093 A  
HETATM   43  C   UNL     1      -9.848   8.389  65.647  1.00  0.00     0.392 A  
HETATM   44  C   UNL     1      -8.277  10.123  64.952  1.00  0.00    -0.157 C  
HETATM   45  C   UNL     1      -8.383  11.236  66.042  1.00  0.00    -0.071 C  
ENDBRANCH  27  28
ENDBRANCH  14  24
TORSDOF 3
ENDMDL
MODEL      151
REMARK 921   NORMALIZED FREE ENERGY PREDICTED BY IDOCK:  127.60 KCAL/MOL
REMARK 922        TOTAL FREE ENERGY PREDICTED BY IDOCK:  148.91 KCAL/MOL
REMARK 923 INTER-LIGAND FREE ENERGY PREDICTED BY IDOCK:  142.46 KCAL/MOL
REMARK 924 INTRA-LIGAND FREE ENERGY PREDICTED BY IDOCK:    6.45 KCAL/MOL
REMARK 927      BINDING AFFINITY PREDICTED BY RF-SCORE:    0.00 PKD
ROOT
HETATM    1  C   UNL     1     -12.075  11.862  66.293  1.00  0.00     0.365 C  
HETATM    2  C   UNL     1     -13.344  11.904  65.425  1.00  0.00     3.675 C  
HETATM    3  C   UNL     1     -12.822  11.486  64.008  1.00  0.00     0.271 C  
HETATM    4  C   UNL     1     -11.300  11.422  64.130  1.00  0.00    -0.183 C  
HETATM    5  N   UNL     1     -11.015  12.127  65.368  1.00  0.00    -0.293 N  
HETATM    6  C   UNL     1      -9.727  12.159  65.835  1.00  0.00    -0.239 C  
HETATM    7  O   UNL     1      -8.796  12.510  65.115  1.00  0.00     0.723 OA 
HETATM    8  C   UNL     1      -9.566  11.808  67.347  1.00  0.00    -0.168 C  
HETATM    9  N   UNL     1     -10.839  11.109  67.978  1.00  0.00    -0.207 N  
HETATM   10  C   UNL     1      -9.045  10.000  70.648  1.00  0.00     0.480 C  
HETATM   11  C   UNL     1     -11.130  10.808  69.300  1.00  0.00    -0.256 C  
HETATM   12  C   UNL     1      -8.342  12.323  71.330  1.00  0.00    11.812 C  
HETATM   13  O   UNL     1     -11.671   9.773  69.661  1.00  0.00    -0.067 OA 
HETATM   14  C   UNL     1     -10.855  12.036  70.137  1.00  0.00     0.994 C  
HETATM   15  C   UNL     1     -11.843  12.098  67.880  1.00  0.00    -0.269 C  
HETATM   16  O   UNL     1     -13.153  11.847  68.414  1.00  0.00     1.876 OA 
HETATM   17  H   UNL     1     -13.017  11.985  69.344  1.00  0.00     0.000 HD 
HETATM   18  C   UNL     1      -9.537  11.459  70.928  1.00  0.00     5.826 C  
HETATM   19  O   UNL     1     -11.128  12.946  68.849  1.00  0.00    -0.246 OA 
ENDROOT
BRANCH   8  20
HETATM   20  C   UNL     1      -8.210  11.166  67.570  1.00  0.00    -0.119 C  
HETATM   21  C   UNL     1      -6.206  10.113  66.546  1.00  0.00    -0.069 C  
HETATM   22  C   UNL     1      -7.377  11.052  66.296  1.00  0.00    -0.097 C  
HETATM   23  C   UNL     1      -6.850  12.406  65.833  1.00  0.00     2.637 C  
ENDBRANCH   8  20
BRANCH  14  24
HETATM   24  N   UNL     1     -11.522  12.872  71.108  1.00  0.00     0.847 N  
HETATM   25  H   UNL     1     -10.919  13.294  71.814  1.00  0.00     0.000 HD 
HETATM   26  O   UNL     1     -13.703  12.794  70.417  1.00  0.00     1.401 OA 
HETATM   27  C   UNL     1     -12.856  13.172  71.207  1.00  0.00    -0.296 C  
BRANCH  27  28
HETATM   28  C   UNL     1     -13.124  14.056  72.431  1.00  0.00    -0.536 C  
HETATM   29  C   UNL     1     -12.383  13.513  73.680  1.00  0.00     2.910 C  
HETATM   30  N   UNL     1     -11.039  14.085  73.877  1.00  0.00     2.858 NA 
HETATM   31  C   UNL     1     -10.167  13.901  72.705  1.00  0.00     8.071 C  
HETATM   32  C   UNL     1     -11.179  15.518  74.279  1.00  0.00     2.188 C  
HETATM   33  C   UNL     1      -9.834  16.356  74.197  1.00  0.00    12.742 C  
HETATM   34  C   UNL     1      -9.974  17.622  73.422  1.00  0.00     8.803 A  
HETATM   35  C   UNL     1      -9.094  18.438  72.752  1.00  0.00    11.683 A  
HETATM   36  N   UNL     1      -9.811  19.513  72.254  1.00  0.00     2.548 NA 
HETATM   37  C   UNL     1     -11.142  19.407  72.603  1.00  0.00     5.573 A  
HETATM   38  H   UNL     1      -9.412  20.275  71.707  1.00  0.00     0.000 HD 
HETATM   39  C   UNL     1     -12.272  20.194  72.361  1.00  0.00    18.097 A  
HETATM   40  C   UNL     1     -13.502  19.708  72.846  1.00  0.00    25.638 A  
HETATM   41  C   UNL     1     -13.613  18.444  73.429  1.00  0.00    10.589 A  
HETATM   42  C   UNL     1     -12.479  17.644  73.544  1.00  0.00     2.071 A  
HETATM   43  C   UNL     1     -11.243  18.196  73.246  1.00  0.00     2.001 A  
HETATM   44  C   UNL     1     -12.513  16.157  73.677  1.00  0.00    -0.684 C  
HETATM   45  C   UNL     1     -12.808  15.549  72.269  1.00  0.00    -0.493 C  
ENDBRANCH  27  28
ENDBRANCH  14  24
TORSDOF 3
ENDMDL
