MODEL        1
REMARK 921   NORMALIZED FREE ENERGY PREDICTED BY IDOCK:   -8.65 KCAL/MOL
REMARK 922        TOTAL FREE ENERGY PREDICTED BY IDOCK:  -11.91 KCAL/MOL
REMARK 923 INTER-LIGAND FREE ENERGY PREDICTED BY IDOCK:  -10.67 KCAL/MOL
REMARK 924 INTRA-LIGAND FREE ENERGY PREDICTED BY IDOCK:   -1.24 KCAL/MOL
REMARK 927      BINDING AFFINITY PREDICTED BY RF-SCORE:    0.00 PKD
ROOT
HETATM    1  C   UNL     1     -10.294  16.849  68.383  1.00  0.00    -0.338 C  
HETATM    2  C   UNL     1      -9.814  18.051  69.198  1.00  0.00    -0.159 C  
HETATM    3  C   UNL     1     -10.144  19.252  68.266  1.00  0.00    -0.516 C  
HETATM    4  C   UNL     1     -10.513  18.648  66.906  1.00  0.00    -0.402 C  
HETATM    5  N   UNL     1     -10.167  17.244  67.010  1.00  0.00    -0.312 N  
HETATM    6  C   UNL     1     -10.655  16.392  66.039  1.00  0.00    -0.269 C  
HETATM    7  O   UNL     1     -10.556  16.635  64.839  1.00  0.00    -0.694 OA 
HETATM    8  C   UNL     1     -11.211  15.033  66.583  1.00  0.00    -0.311 C  
HETATM    9  O   UNL     1      -9.594  14.039  68.472  1.00  0.00    -0.216 OA 
HETATM   10  N   UNL     1     -11.473  14.967  68.107  1.00  0.00    -0.329 N  
HETATM   11  C   UNL     1     -11.578  13.755  68.736  1.00  0.00    -0.328 C  
HETATM   12  H   UNL     1     -10.343  14.443  70.437  1.00  0.00     0.000 HD 
HETATM   13  C   UNL     1     -10.565  12.859  67.983  1.00  0.00    -0.227 C  
HETATM   14  O   UNL     1     -12.207  13.619  69.783  1.00  0.00    -0.321 OA 
HETATM   15  O   UNL     1     -10.348  15.363  70.204  1.00  0.00    -0.295 OA 
HETATM   16  C   UNL     1     -11.741  11.805  68.345  1.00  0.00    -0.389 C  
HETATM   17  C   UNL     1     -10.286  15.300  68.777  1.00  0.00    -0.232 C  
ENDROOT
BRANCH   8  18
HETATM   18  C   UNL     1     -12.395  14.514  65.753  1.00  0.00    -0.249 C  
BRANCH  18  19
HETATM   19  C   UNL     1     -11.869  13.579  64.706  1.00  0.00    -0.412 A  
HETATM   20  C   UNL     1     -12.250  11.546  63.463  1.00  0.00    -0.151 A  
HETATM   21  C   UNL     1     -10.875  11.372  63.340  1.00  0.00    -0.375 A  
HETATM   22  C   UNL     1     -10.491  13.444  64.517  1.00  0.00    -0.431 A  
HETATM   23  C   UNL     1      -9.997  12.336  63.840  1.00  0.00    -0.303 A  
HETATM   24  C   UNL     1     -12.749  12.663  64.116  1.00  0.00    -0.373 A  
ENDBRANCH  18  19
ENDBRANCH   8  18
BRANCH  13  25
HETATM   25  N   UNL     1      -9.729  11.868  67.279  1.00  0.00    -0.183 N  
HETATM   26  O   UNL     1      -8.444  10.747  68.813  1.00  0.00    -0.135 OA 
HETATM   27  C   UNL     1      -8.975  10.783  67.711  1.00  0.00    -0.137 C  
HETATM   28  H   UNL     1      -9.698  12.008  66.269  1.00  0.00     0.000 HD 
BRANCH  27  29
HETATM   29  C   UNL     1      -8.816   9.637  66.610  1.00  0.00    -0.153 C  
HETATM   30  C   UNL     1      -7.567   8.715  66.717  1.00  0.00    -0.086 C  
HETATM   31  N   UNL     1      -7.760   7.300  66.293  1.00  0.00    -0.094 NA 
HETATM   32  C   UNL     1      -7.927   7.068  64.861  1.00  0.00    -0.127 C  
HETATM   33  C   UNL     1      -8.777   6.602  67.118  1.00  0.00    -0.111 C  
HETATM   34  C   UNL     1      -8.037   5.955  68.347  1.00  0.00    -0.109 C  
HETATM   35  C   UNL     1      -7.996   6.889  69.493  1.00  0.00    -0.125 A  
HETATM   36  C   UNL     1      -7.091   7.183  70.496  1.00  0.00    -0.063 A  
HETATM   37  N   UNL     1      -7.622   8.182  71.261  1.00  0.00    -0.076 NA 
HETATM   38  H   UNL     1      -7.137   8.650  72.027  1.00  0.00     0.000 HD 
HETATM   39  C   UNL     1      -8.905   8.467  70.851  1.00  0.00    -0.171 A  
HETATM   40  C   UNL     1      -9.887   9.333  71.322  1.00  0.00    -0.318 A  
HETATM   41  C   UNL     1     -11.094   9.355  70.600  1.00  0.00    -0.351 A  
HETATM   42  C   UNL     1     -11.243   8.679  69.380  1.00  0.00     0.187 A  
HETATM   43  C   UNL     1     -10.186   7.935  68.858  1.00  0.00    -0.215 A  
HETATM   44  C   UNL     1      -9.089   7.738  69.697  1.00  0.00    -0.146 A  
HETATM   45  C   UNL     1     -10.067   7.493  67.417  1.00  0.00    -0.282 C  
HETATM   46  C   UNL     1     -10.087   8.752  66.493  1.00  0.00    -0.349 C  
ENDBRANCH  27  29
ENDBRANCH  13  25
TORSDOF 4
ENDMDL
MODEL        2
REMARK 921   NORMALIZED FREE ENERGY PREDICTED BY IDOCK:   -8.56 KCAL/MOL
REMARK 922        TOTAL FREE ENERGY PREDICTED BY IDOCK:  -11.80 KCAL/MOL
REMARK 923 INTER-LIGAND FREE ENERGY PREDICTED BY IDOCK:  -10.64 KCAL/MOL
REMARK 924 INTRA-LIGAND FREE ENERGY PREDICTED BY IDOCK:   -1.16 KCAL/MOL
REMARK 927      BINDING AFFINITY PREDICTED BY RF-SCORE:    0.00 PKD
ROOT
HETATM    1  C   UNL     1     -10.289  17.031  68.239  1.00  0.00    -0.347 C  
HETATM    2  C   UNL     1      -9.785  18.290  68.947  1.00  0.00    -0.302 C  
HETATM    3  C   UNL     1     -10.050  19.404  67.893  1.00  0.00    -0.503 C  
HETATM    4  C   UNL     1     -10.408  18.683  66.589  1.00  0.00    -0.415 C  
HETATM    5  N   UNL     1     -10.115  17.285  66.838  1.00  0.00    -0.294 N  
HETATM    6  C   UNL     1     -10.610  16.358  65.942  1.00  0.00    -0.285 C  
HETATM    7  O   UNL     1     -10.474  16.478  64.727  1.00  0.00    -0.617 OA 
HETATM    8  C   UNL     1     -11.226  15.079  66.600  1.00  0.00    -0.311 C  
HETATM    9  O   UNL     1      -9.691  14.221  68.620  1.00  0.00    -0.225 OA 
HETATM   10  N   UNL     1     -11.527  15.171  68.115  1.00  0.00    -0.333 N  
HETATM   11  C   UNL     1     -11.690  14.031  68.856  1.00  0.00    -0.340 C  
HETATM   12  H   UNL     1     -10.473  14.840  70.515  1.00  0.00     0.000 HD 
HETATM   13  C   UNL     1     -10.692  13.032  68.221  1.00  0.00    -0.245 C  
HETATM   14  O   UNL     1     -12.348  14.019  69.894  1.00  0.00    -0.330 OA 
HETATM   15  O   UNL     1     -10.439  15.733  70.193  1.00  0.00    -0.306 OA 
HETATM   16  C   UNL     1     -11.913  12.058  68.652  1.00  0.00    -0.290 C  
HETATM   17  C   UNL     1     -10.346  15.528  68.782  1.00  0.00    -0.217 C  
ENDROOT
BRANCH   8  18
HETATM   18  C   UNL     1     -12.408  14.520  65.792  1.00  0.00    -0.249 C  
BRANCH  18  19
HETATM   19  C   UNL     1     -11.929  13.342  64.999  1.00  0.00    -0.407 A  
HETATM   20  C   UNL     1     -10.201  12.465  63.561  1.00  0.00    -0.339 A  
HETATM   21  C   UNL     1     -11.137  11.629  62.958  1.00  0.00    -0.040 A  
HETATM   22  C   UNL     1     -12.850  12.449  64.446  1.00  0.00    -0.344 A  
HETATM   23  C   UNL     1     -12.454  11.599  63.422  1.00  0.00    -0.326 A  
HETATM   24  C   UNL     1     -10.587  13.298  64.601  1.00  0.00    -0.421 A  
ENDBRANCH  18  19
ENDBRANCH   8  18
BRANCH  13  25
HETATM   25  N   UNL     1      -9.875  11.950  67.640  1.00  0.00    -0.184 N  
HETATM   26  O   UNL     1     -11.253  10.230  67.005  1.00  0.00    -0.171 OA 
HETATM   27  C   UNL     1     -10.188  10.821  66.891  1.00  0.00    -0.227 C  
HETATM   28  H   UNL     1      -8.878  12.050  67.825  1.00  0.00     0.000 HD 
BRANCH  27  29
HETATM   29  C   UNL     1      -9.004  10.342  65.933  1.00  0.00    -0.181 C  
HETATM   30  C   UNL     1      -7.564  10.813  66.290  1.00  0.00    -0.142 C  
HETATM   31  N   UNL     1      -6.466   9.856  65.979  1.00  0.00    -0.079 NA 
HETATM   32  C   UNL     1      -6.155   9.662  64.565  1.00  0.00    -0.088 C  
HETATM   33  C   UNL     1      -6.608   8.580  66.724  1.00  0.00    -0.057 C  
HETATM   34  C   UNL     1      -5.852   8.738  68.095  1.00  0.00    -0.042 C  
HETATM   35  C   UNL     1      -6.759   9.253  69.144  1.00  0.00    -0.050 A  
HETATM   36  C   UNL     1      -6.634  10.104  70.226  1.00  0.00    -0.137 A  
HETATM   37  N   UNL     1      -7.861  10.214  70.817  1.00  0.00    -0.300 NA 
HETATM   38  H   UNL     1      -8.080  10.839  71.593  1.00  0.00     0.000 HD 
HETATM   39  C   UNL     1      -8.758   9.361  70.216  1.00  0.00    -0.230 A  
HETATM   40  C   UNL     1     -10.089   9.043  70.470  1.00  0.00    -0.263 A  
HETATM   41  C   UNL     1     -10.684   8.116  69.594  1.00  0.00    -0.196 A  
HETATM   42  C   UNL     1     -10.035   7.667  68.435  1.00  0.00    -0.192 A  
HETATM   43  C   UNL     1      -8.753   8.119  68.130  1.00  0.00    -0.136 A  
HETATM   44  C   UNL     1      -8.098   8.849  69.121  1.00  0.00    -0.117 A  
HETATM   45  C   UNL     1      -8.107   8.036  66.764  1.00  0.00    -0.107 C  
HETATM   46  C   UNL     1      -8.994   8.802  65.732  1.00  0.00    -0.253 C  
ENDBRANCH  27  29
ENDBRANCH  13  25
TORSDOF 4
ENDMDL
MODEL        3
REMARK 921   NORMALIZED FREE ENERGY PREDICTED BY IDOCK:   -8.35 KCAL/MOL
REMARK 922        TOTAL FREE ENERGY PREDICTED BY IDOCK:  -11.55 KCAL/MOL
REMARK 923 INTER-LIGAND FREE ENERGY PREDICTED BY IDOCK:  -10.73 KCAL/MOL
REMARK 924 INTRA-LIGAND FREE ENERGY PREDICTED BY IDOCK:   -0.82 KCAL/MOL
REMARK 927      BINDING AFFINITY PREDICTED BY RF-SCORE:    0.00 PKD
ROOT
HETATM    1  C   UNL     1     -10.369  16.901  68.516  1.00  0.00    -0.336 C  
HETATM    2  C   UNL     1      -9.931  18.135  69.306  1.00  0.00    -0.088 C  
HETATM    3  C   UNL     1     -10.236  19.300  68.321  1.00  0.00    -0.513 C  
HETATM    4  C   UNL     1     -10.549  18.645  66.970  1.00  0.00    -0.397 C  
HETATM    5  N   UNL     1     -10.194  17.250  67.136  1.00  0.00    -0.311 N  
HETATM    6  C   UNL     1     -10.637  16.359  66.178  1.00  0.00    -0.255 C  
HETATM    7  O   UNL     1     -10.495  16.561  64.974  1.00  0.00    -0.652 OA 
HETATM    8  C   UNL     1     -11.200  15.014  66.748  1.00  0.00    -0.322 C  
HETATM    9  O   UNL     1      -9.646  14.103  68.729  1.00  0.00    -0.199 OA 
HETATM   10  N   UNL     1     -11.518  14.998  68.262  1.00  0.00    -0.320 N  
HETATM   11  C   UNL     1     -11.636  13.808  68.929  1.00  0.00    -0.319 C  
HETATM   12  H   UNL     1     -10.473  14.567  70.650  1.00  0.00     0.000 HD 
HETATM   13  C   UNL     1     -10.587  12.897  68.246  1.00  0.00    -0.246 C  
HETATM   14  O   UNL     1     -12.303  13.701  69.956  1.00  0.00    -0.322 OA 
HETATM   15  O   UNL     1     -10.477  15.479  70.384  1.00  0.00    -0.313 OA 
HETATM   16  C   UNL     1     -11.766  11.844  68.601  1.00  0.00    -0.380 C  
HETATM   17  C   UNL     1     -10.361  15.367  68.964  1.00  0.00    -0.243 C  
ENDROOT
BRANCH   8  18
HETATM   18  C   UNL     1     -12.347  14.454  65.893  1.00  0.00    -0.342 C  
BRANCH  18  19
HETATM   19  C   UNL     1     -11.828  13.291  65.102  1.00  0.00    -0.377 A  
HETATM   20  C   UNL     1      -9.955  12.369  63.891  1.00  0.00    -0.262 A  
HETATM   21  C   UNL     1     -10.837  11.646  63.093  1.00  0.00    -0.281 A  
HETATM   22  C   UNL     1     -12.707  12.507  64.352  1.00  0.00    -0.447 A  
HETATM   23  C   UNL     1     -12.211  11.691  63.343  1.00  0.00    -0.319 A  
HETATM   24  C   UNL     1     -10.445  13.166  64.915  1.00  0.00    -0.369 A  
ENDBRANCH  18  19
ENDBRANCH   8  18
BRANCH  13  25
HETATM   25  N   UNL     1      -9.716  11.891  67.609  1.00  0.00    -0.181 N  
HETATM   26  O   UNL     1      -8.670  10.665  69.241  1.00  0.00    -0.149 OA 
HETATM   27  C   UNL     1      -9.064  10.760  68.087  1.00  0.00    -0.151 C  
HETATM   28  H   UNL     1      -9.559  12.061  66.616  1.00  0.00     0.000 HD 
BRANCH  27  29
HETATM   29  C   UNL     1      -8.825   9.642  66.971  1.00  0.00    -0.142 C  
HETATM   30  C   UNL     1      -7.562   8.745  67.120  1.00  0.00    -0.088 C  
HETATM   31  N   UNL     1      -7.701   7.336  66.657  1.00  0.00    -0.099 NA 
HETATM   32  C   UNL     1      -7.791   7.134  65.214  1.00  0.00    -0.121 C  
HETATM   33  C   UNL     1      -8.743   6.599  67.415  1.00  0.00    -0.118 C  
HETATM   34  C   UNL     1      -8.051   5.940  68.665  1.00  0.00    -0.103 C  
HETATM   35  C   UNL     1      -8.089   6.848  69.832  1.00  0.00    -0.125 A  
HETATM   36  C   UNL     1      -7.243   7.138  70.885  1.00  0.00    -0.070 A  
HETATM   37  N   UNL     1      -7.833   8.109  71.644  1.00  0.00    -0.102 NA 
HETATM   38  H   UNL     1      -7.398   8.570  72.443  1.00  0.00     0.000 HD 
HETATM   39  C   UNL     1      -9.100   8.375  71.176  1.00  0.00    -0.174 A  
HETATM   40  C   UNL     1     -10.124   9.209  71.615  1.00  0.00    -0.346 A  
HETATM   41  C   UNL     1     -11.293   9.222  70.832  1.00  0.00    -0.373 A  
HETATM   42  C   UNL     1     -11.365   8.570  69.592  1.00  0.00     0.196 A  
HETATM   43  C   UNL     1     -10.267   7.861  69.109  1.00  0.00    -0.219 A  
HETATM   44  C   UNL     1      -9.210   7.669  69.998  1.00  0.00    -0.151 A  
HETATM   45  C   UNL     1     -10.066   7.454  67.667  1.00  0.00    -0.240 C  
HETATM   46  C   UNL     1     -10.068   8.733  66.770  1.00  0.00    -0.359 C  
ENDBRANCH  27  29
ENDBRANCH  13  25
TORSDOF 4
ENDMDL
MODEL        4
REMARK 921   NORMALIZED FREE ENERGY PREDICTED BY IDOCK:   -8.11 KCAL/MOL
REMARK 922        TOTAL FREE ENERGY PREDICTED BY IDOCK:  -11.25 KCAL/MOL
REMARK 923 INTER-LIGAND FREE ENERGY PREDICTED BY IDOCK:   -9.41 KCAL/MOL
REMARK 924 INTRA-LIGAND FREE ENERGY PREDICTED BY IDOCK:   -1.83 KCAL/MOL
REMARK 927      BINDING AFFINITY PREDICTED BY RF-SCORE:    0.00 PKD
ROOT
HETATM    1  C   UNL     1     -10.643  12.073  65.159  1.00  0.00    -0.288 C  
HETATM    2  C   UNL     1     -11.121  11.692  63.757  1.00  0.00    -0.499 C  
HETATM    3  C   UNL     1     -11.997  12.912  63.350  1.00  0.00    -0.612 C  
HETATM    4  C   UNL     1     -12.185  13.746  64.623  1.00  0.00    -0.406 C  
HETATM    5  N   UNL     1     -11.670  12.919  65.696  1.00  0.00    -0.365 N  
HETATM    6  C   UNL     1     -11.444  13.523  66.918  1.00  0.00    -0.344 C  
HETATM    7  O   UNL     1     -12.283  14.234  67.466  1.00  0.00    -0.354 OA 
HETATM    8  C   UNL     1     -10.100  13.115  67.608  1.00  0.00    -0.221 C  
HETATM    9  O   UNL     1      -9.682  10.480  67.381  1.00  0.00    -0.160 OA 
HETATM   10  N   UNL     1      -9.063  12.401  66.709  1.00  0.00    -0.210 N  
HETATM   11  C   UNL     1      -8.051  11.669  67.272  1.00  0.00    -0.160 C  
HETATM   12  H   UNL     1      -8.306  10.038  65.800  1.00  0.00     0.000 HD 
HETATM   13  C   UNL     1      -8.704  11.037  68.524  1.00  0.00    -0.159 C  
HETATM   14  O   UNL     1      -6.988  11.472  66.686  1.00  0.00    -0.131 OA 
HETATM   15  O   UNL     1      -8.884  10.515  65.216  1.00  0.00    -0.175 OA 
HETATM   16  C   UNL     1      -7.188  11.299  69.032  1.00  0.00    -0.119 C  
HETATM   17  C   UNL     1      -9.669  11.271  66.141  1.00  0.00    -0.220 C  
ENDROOT
BRANCH   8  18
HETATM   18  C   UNL     1      -9.490  14.267  68.421  1.00  0.00    -0.213 C  
BRANCH  18  19
HETATM   19  C   UNL     1      -8.753  15.175  67.483  1.00  0.00    -0.188 A  
HETATM   20  C   UNL     1      -6.710  16.388  67.061  1.00  0.00    -0.239 A  
HETATM   21  C   UNL     1      -7.428  17.326  66.324  1.00  0.00    -0.354 A  
HETATM   22  C   UNL     1      -9.460  16.074  66.680  1.00  0.00    -0.259 A  
HETATM   23  C   UNL     1      -8.797  17.152  66.108  1.00  0.00    -0.220 A  
HETATM   24  C   UNL     1      -7.364  15.297  67.614  1.00  0.00    -0.201 A  
ENDBRANCH  18  19
ENDBRANCH   8  18
BRANCH  13  25
HETATM   25  N   UNL     1      -9.164  10.471  69.807  1.00  0.00    -0.399 N  
HETATM   26  O   UNL     1     -10.752   8.869  69.391  1.00  0.00    -0.228 OA 
HETATM   27  C   UNL     1      -9.902   9.340  70.135  1.00  0.00    -0.215 C  
HETATM   28  H   UNL     1      -8.883  11.022  70.617  1.00  0.00     0.000 HD 
BRANCH  27  29
HETATM   29  C   UNL     1      -9.581   8.769  71.592  1.00  0.00    -0.363 C  
HETATM   30  C   UNL     1     -10.346   7.489  72.040  1.00  0.00    -0.199 C  
HETATM   31  N   UNL     1      -9.593   6.551  72.919  1.00  0.00    -0.149 NA 
HETATM   32  C   UNL     1      -9.348   7.000  74.287  1.00  0.00    -0.227 C  
HETATM   33  C   UNL     1      -8.380   6.015  72.255  1.00  0.00    -0.113 C  
HETATM   34  C   UNL     1      -8.790   4.702  71.492  1.00  0.00    -0.149 C  
HETATM   35  C   UNL     1      -9.206   5.002  70.105  1.00  0.00    -0.186 A  
HETATM   36  C   UNL     1     -10.152   4.504  69.228  1.00  0.00    -0.032 A  
HETATM   37  N   UNL     1     -10.074   5.227  68.071  1.00  0.00    -0.162 NA 
HETATM   38  H   UNL     1     -10.707   5.128  67.277  1.00  0.00     0.000 HD 
HETATM   39  C   UNL     1      -9.019   6.110  68.131  1.00  0.00    -0.114 A  
HETATM   40  C   UNL     1      -8.474   7.009  67.219  1.00  0.00    -0.121 A  
HETATM   41  C   UNL     1      -7.382   7.770  67.674  1.00  0.00    -0.092 A  
HETATM   42  C   UNL     1      -6.972   7.754  69.015  1.00  0.00    -0.069 A  
HETATM   43  C   UNL     1      -7.634   6.949  69.940  1.00  0.00    -0.099 A  
HETATM   44  C   UNL     1      -8.555   6.037  69.426  1.00  0.00    -0.122 A  
HETATM   45  C   UNL     1      -7.564   7.119  71.441  1.00  0.00    -0.088 C  
HETATM   46  C   UNL     1      -8.060   8.551  71.818  1.00  0.00    -0.191 C  
ENDBRANCH  27  29
ENDBRANCH  13  25
TORSDOF 4
ENDMDL
MODEL        5
REMARK 921   NORMALIZED FREE ENERGY PREDICTED BY IDOCK:   -8.10 KCAL/MOL
REMARK 922        TOTAL FREE ENERGY PREDICTED BY IDOCK:  -11.23 KCAL/MOL
REMARK 923 INTER-LIGAND FREE ENERGY PREDICTED BY IDOCK:   -9.32 KCAL/MOL
REMARK 924 INTRA-LIGAND FREE ENERGY PREDICTED BY IDOCK:   -1.92 KCAL/MOL
REMARK 927      BINDING AFFINITY PREDICTED BY RF-SCORE:    0.00 PKD
ROOT
HETATM    1  C   UNL     1     -10.807  11.525  64.555  1.00  0.00    -0.327 C  
HETATM    2  C   UNL     1     -11.488  11.849  63.224  1.00  0.00    -0.376 C  
HETATM    3  C   UNL     1     -12.364  13.085  63.579  1.00  0.00    -0.500 C  
HETATM    4  C   UNL     1     -12.344  13.199  65.107  1.00  0.00    -0.473 C  
HETATM    5  N   UNL     1     -11.717  11.976  65.569  1.00  0.00    -0.316 N  
HETATM    6  C   UNL     1     -11.303  11.926  66.885  1.00  0.00    -0.330 C  
HETATM    7  O   UNL     1     -12.030  12.258  67.818  1.00  0.00    -0.474 OA 
HETATM    8  C   UNL     1      -9.893  11.282  67.102  1.00  0.00    -0.190 C  
HETATM    9  O   UNL     1      -9.610   9.094  65.582  1.00  0.00    -0.262 OA 
HETATM   10  N   UNL     1      -9.017  11.121  65.836  1.00  0.00    -0.198 N  
HETATM   11  C   UNL     1      -7.966  10.243  65.832  1.00  0.00    -0.137 C  
HETATM   12  H   UNL     1      -8.483   9.512  63.810  1.00  0.00     0.000 HD 
HETATM   13  C   UNL     1      -8.464   9.066  66.705  1.00  0.00    -0.122 C  
HETATM   14  O   UNL     1      -7.002  10.387  65.082  1.00  0.00    -0.133 OA 
HETATM   15  O   UNL     1      -9.118  10.190  63.613  1.00  0.00    -0.217 OA 
HETATM   16  C   UNL     1      -6.884   9.102  67.060  1.00  0.00    -0.080 C  
HETATM   17  C   UNL     1      -9.738  10.384  64.886  1.00  0.00    -0.309 C  
ENDROOT
BRANCH   8  18
HETATM   18  C   UNL     1      -9.133  11.922  68.273  1.00  0.00    -0.183 C  
BRANCH  18  19
HETATM   19  C   UNL     1      -8.374  13.107  67.759  1.00  0.00    -0.171 A  
HETATM   20  C   UNL     1      -6.303  14.343  67.829  1.00  0.00    -0.168 A  
HETATM   21  C   UNL     1      -6.997  15.510  67.523  1.00  0.00    -0.223 A  
HETATM   22  C   UNL     1      -9.058  14.264  67.378  1.00  0.00    -0.199 A  
HETATM   23  C   UNL     1      -8.369  15.465  67.268  1.00  0.00    -0.224 A  
HETATM   24  C   UNL     1      -6.983  13.137  67.916  1.00  0.00    -0.132 A  
ENDBRANCH  18  19
ENDBRANCH   8  18
BRANCH  13  25
HETATM   25  N   UNL     1      -8.765   7.940  67.608  1.00  0.00    -0.126 N  
HETATM   26  O   UNL     1     -10.981   7.387  67.405  1.00  0.00    -0.243 OA 
HETATM   27  C   UNL     1      -9.841   7.066  67.712  1.00  0.00    -0.139 C  
HETATM   28  H   UNL     1      -8.033   7.766  68.297  1.00  0.00     0.000 HD 
BRANCH  27  29
HETATM   29  C   UNL     1      -9.454   5.646  68.330  1.00  0.00    -0.132 C  
HETATM   30  C   UNL     1      -8.041   5.508  68.969  1.00  0.00    -0.095 C  
HETATM   31  N   UNL     1      -7.940   4.599  70.145  1.00  0.00    -0.063 NA 
HETATM   32  C   UNL     1      -8.060   3.169  69.871  1.00  0.00    -0.044 C  
HETATM   33  C   UNL     1      -8.789   5.049  71.275  1.00  0.00    -0.134 C  
HETATM   34  C   UNL     1      -7.929   6.019  72.166  1.00  0.00    -0.106 C  
HETATM   35  C   UNL     1      -8.078   7.422  71.719  1.00  0.00    -0.105 A  
HETATM   36  C   UNL     1      -7.249   8.525  71.638  1.00  0.00    -0.097 A  
HETATM   37  N   UNL     1      -7.972   9.555  71.105  1.00  0.00    -0.292 NA 
HETATM   38  H   UNL     1      -7.591  10.469  70.860  1.00  0.00     0.000 HD 
HETATM   39  C   UNL     1      -9.287   9.181  70.944  1.00  0.00    -0.269 A  
HETATM   40  C   UNL     1     -10.425   9.856  70.514  1.00  0.00    -0.330 A  
HETATM   41  C   UNL     1     -11.613   9.104  70.465  1.00  0.00    -0.238 A  
HETATM   42  C   UNL     1     -11.623   7.717  70.671  1.00  0.00    -0.251 A  
HETATM   43  C   UNL     1     -10.438   7.043  70.959  1.00  0.00    -0.231 A  
HETATM   44  C   UNL     1      -9.321   7.834  71.229  1.00  0.00    -0.171 A  
HETATM   45  C   UNL     1     -10.234   5.551  70.819  1.00  0.00    -0.302 C  
HETATM   46  C   UNL     1     -10.515   5.132  69.341  1.00  0.00    -0.203 C  
ENDBRANCH  27  29
ENDBRANCH  13  25
TORSDOF 4
ENDMDL
MODEL        6
REMARK 921   NORMALIZED FREE ENERGY PREDICTED BY IDOCK:   -8.00 KCAL/MOL
REMARK 922        TOTAL FREE ENERGY PREDICTED BY IDOCK:  -11.11 KCAL/MOL
REMARK 923 INTER-LIGAND FREE ENERGY PREDICTED BY IDOCK:   -9.73 KCAL/MOL
REMARK 924 INTRA-LIGAND FREE ENERGY PREDICTED BY IDOCK:   -1.37 KCAL/MOL
REMARK 927      BINDING AFFINITY PREDICTED BY RF-SCORE:    0.00 PKD
ROOT
HETATM    1  C   UNL     1     -10.686  12.200  65.065  1.00  0.00    -0.297 C  
HETATM    2  C   UNL     1     -11.077  11.824  63.635  1.00  0.00    -0.518 C  
HETATM    3  C   UNL     1     -11.987  13.011  63.206  1.00  0.00    -0.493 C  
HETATM    4  C   UNL     1     -12.275  13.811  64.481  1.00  0.00    -0.403 C  
HETATM    5  N   UNL     1     -11.775  12.989  65.564  1.00  0.00    -0.348 N  
HETATM    6  C   UNL     1     -11.637  13.579  66.805  1.00  0.00    -0.363 C  
HETATM    7  O   UNL     1     -12.532  14.241  67.324  1.00  0.00    -0.235 OA 
HETATM    8  C   UNL     1     -10.311  13.219  67.555  1.00  0.00    -0.229 C  
HETATM    9  O   UNL     1      -9.761  10.610  67.304  1.00  0.00    -0.164 OA 
HETATM   10  N   UNL     1      -9.199  12.570  66.696  1.00  0.00    -0.227 N  
HETATM   11  C   UNL     1      -8.183  11.873  67.295  1.00  0.00    -0.170 C  
HETATM   12  H   UNL     1      -8.291  10.261  65.786  1.00  0.00     0.000 HD 
HETATM   13  C   UNL     1      -8.867  11.189  68.504  1.00  0.00    -0.161 C  
HETATM   14  O   UNL     1      -7.085  11.736  66.760  1.00  0.00    -0.126 OA 
HETATM   15  O   UNL     1      -8.862  10.721  65.182  1.00  0.00    -0.195 OA 
HETATM   16  C   UNL     1      -7.391  11.509  69.090  1.00  0.00    -0.057 C  
HETATM   17  C   UNL     1      -9.725  11.424  66.080  1.00  0.00    -0.223 C  
ENDROOT
BRANCH   8  18
HETATM   18  C   UNL     1      -9.794  14.382  68.416  1.00  0.00    -0.234 C  
BRANCH  18  19
HETATM   19  C   UNL     1     -10.646  14.481  69.644  1.00  0.00    -0.075 A  
HETATM   20  C   UNL     1     -12.524  13.572  70.857  1.00  0.00    -0.448 A  
HETATM   21  C   UNL     1     -12.756  14.824  71.420  1.00  0.00    -0.401 A  
HETATM   22  C   UNL     1     -10.833  15.717  70.268  1.00  0.00    -0.366 A  
HETATM   23  C   UNL     1     -11.893  15.888  71.150  1.00  0.00    -0.483 A  
HETATM   24  C   UNL     1     -11.453  13.391  69.995  1.00  0.00    -0.126 A  
ENDBRANCH  18  19
ENDBRANCH   8  18
BRANCH  13  25
HETATM   25  N   UNL     1      -9.362  10.579  69.752  1.00  0.00    -0.412 N  
HETATM   26  O   UNL     1     -10.920   8.977  69.236  1.00  0.00    -0.161 OA 
HETATM   27  C   UNL     1     -10.099   9.431  70.021  1.00  0.00    -0.226 C  
HETATM   28  H   UNL     1      -9.113  11.107  70.588  1.00  0.00     0.000 HD 
BRANCH  27  29
HETATM   29  C   UNL     1      -9.819   8.818  71.469  1.00  0.00    -0.371 C  
HETATM   30  C   UNL     1     -10.586   7.519  71.853  1.00  0.00    -0.211 C  
HETATM   31  N   UNL     1      -9.854   6.559  72.725  1.00  0.00    -0.168 NA 
HETATM   32  C   UNL     1      -9.656   6.967  74.114  1.00  0.00    -0.274 C  
HETATM   33  C   UNL     1      -8.615   6.054  72.085  1.00  0.00    -0.128 C  
HETATM   34  C   UNL     1      -8.988   4.762  71.269  1.00  0.00    -0.162 C  
HETATM   35  C   UNL     1      -9.363   5.103  69.879  1.00  0.00    -0.196 A  
HETATM   36  C   UNL     1     -10.276   4.625  68.957  1.00  0.00     0.038 A  
HETATM   37  N   UNL     1     -10.168   5.384  67.826  1.00  0.00    -0.184 NA 
HETATM   38  H   UNL     1     -10.774   5.304  67.010  1.00  0.00     0.000 HD 
HETATM   39  C   UNL     1      -9.123   6.273  67.947  1.00  0.00    -0.111 A  
HETATM   40  C   UNL     1      -8.558   7.204  67.081  1.00  0.00    -0.121 A  
HETATM   41  C   UNL     1      -7.488   7.960  67.594  1.00  0.00    -0.097 A  
HETATM   42  C   UNL     1      -7.120   7.905  68.947  1.00  0.00    -0.074 A  
HETATM   43  C   UNL     1      -7.804   7.067  69.825  1.00  0.00    -0.115 A  
HETATM   44  C   UNL     1      -8.700   6.163  69.253  1.00  0.00    -0.122 A  
HETATM   45  C   UNL     1      -7.784   7.190  71.332  1.00  0.00    -0.093 C  
HETATM   46  C   UNL     1      -8.304   8.605  71.737  1.00  0.00    -0.203 C  
ENDBRANCH  27  29
ENDBRANCH  13  25
TORSDOF 4
ENDMDL
MODEL        7
REMARK 921   NORMALIZED FREE ENERGY PREDICTED BY IDOCK:   -7.98 KCAL/MOL
REMARK 922        TOTAL FREE ENERGY PREDICTED BY IDOCK:  -11.09 KCAL/MOL
REMARK 923 INTER-LIGAND FREE ENERGY PREDICTED BY IDOCK:   -8.72 KCAL/MOL
REMARK 924 INTRA-LIGAND FREE ENERGY PREDICTED BY IDOCK:   -2.37 KCAL/MOL
REMARK 927      BINDING AFFINITY PREDICTED BY RF-SCORE:    0.00 PKD
ROOT
HETATM    1  C   UNL     1     -10.068  11.231  64.958  1.00  0.00    -0.279 C  
HETATM    2  C   UNL     1     -10.687  11.022  63.576  1.00  0.00    -0.230 C  
HETATM    3  C   UNL     1     -11.807  12.101  63.535  1.00  0.00    -0.597 C  
HETATM    4  C   UNL     1     -11.932  12.641  64.964  1.00  0.00    -0.419 C  
HETATM    5  N   UNL     1     -11.125  11.752  65.776  1.00  0.00    -0.313 N  
HETATM    6  C   UNL     1     -10.816  12.159  67.059  1.00  0.00    -0.247 C  
HETATM    7  O   UNL     1     -11.666  12.584  67.838  1.00  0.00    -0.332 OA 
HETATM    8  C   UNL     1      -9.332  11.904  67.485  1.00  0.00    -0.177 C  
HETATM    9  O   UNL     1      -8.519   9.484  66.675  1.00  0.00    -0.130 OA 
HETATM   10  N   UNL     1      -8.342  11.578  66.341  1.00  0.00    -0.154 N  
HETATM   11  C   UNL     1      -7.147  10.968  66.616  1.00  0.00    -0.139 C  
HETATM   12  H   UNL     1      -7.352   9.609  64.884  1.00  0.00     0.000 HD 
HETATM   13  C   UNL     1      -7.483  10.007  67.783  1.00  0.00    -0.089 C  
HETATM   14  O   UNL     1      -6.171  11.090  65.879  1.00  0.00    -0.119 OA 
HETATM   15  O   UNL     1      -8.086  10.060  64.484  1.00  0.00    -0.144 OA 
HETATM   16  C   UNL     1      -5.971  10.463  68.147  1.00  0.00    -0.044 C  
HETATM   17  C   UNL     1      -8.832  10.472  65.631  1.00  0.00    -0.182 C  
ENDROOT
BRANCH   8  18
HETATM   18  C   UNL     1      -8.804  12.988  68.437  1.00  0.00    -0.123 C  
BRANCH  18  19
HETATM   19  C   UNL     1      -8.294  14.135  67.617  1.00  0.00    -0.187 A  
HETATM   20  C   UNL     1      -6.559  15.790  67.351  1.00  0.00    -0.215 A  
HETATM   21  C   UNL     1      -7.473  16.638  66.731  1.00  0.00    -0.289 A  
HETATM   22  C   UNL     1      -9.191  14.955  66.928  1.00  0.00    -0.265 A  
HETATM   23  C   UNL     1      -8.780  16.208  66.493  1.00  0.00    -0.337 A  
HETATM   24  C   UNL     1      -6.958  14.528  67.765  1.00  0.00    -0.194 A  
ENDBRANCH  18  19
ENDBRANCH   8  18
BRANCH  13  25
HETATM   25  N   UNL     1      -7.636   9.142  68.968  1.00  0.00    -0.074 N  
HETATM   26  O   UNL     1      -6.840   7.049  68.475  1.00  0.00    -0.067 OA 
HETATM   27  C   UNL     1      -7.117   7.899  69.310  1.00  0.00    -0.071 C  
HETATM   28  H   UNL     1      -8.248   9.537  69.682  1.00  0.00     0.000 HD 
BRANCH  27  29
HETATM   29  C   UNL     1      -6.987   7.673  70.886  1.00  0.00    -0.053 C  
HETATM   30  C   UNL     1      -7.550   8.789  71.814  1.00  0.00    -0.038 C  
HETATM   31  N   UNL     1      -8.140   8.332  73.103  1.00  0.00    -0.281 NA 
HETATM   32  C   UNL     1      -7.202   7.837  74.107  1.00  0.00    -0.135 C  
HETATM   33  C   UNL     1      -9.303   7.433  72.898  1.00  0.00    -0.164 C  
HETATM   34  C   UNL     1     -10.594   8.328  72.820  1.00  0.00    -0.321 C  
HETATM   35  C   UNL     1     -10.877   8.730  71.424  1.00  0.00    -0.359 A  
HETATM   36  C   UNL     1     -11.383   9.857  70.805  1.00  0.00    -0.353 A  
HETATM   37  N   UNL     1     -11.380   9.632  69.457  1.00  0.00    -0.434 NA 
HETATM   38  H   UNL     1     -11.629  10.324  68.750  1.00  0.00     0.000 HD 
HETATM   39  C   UNL     1     -10.993   8.339  69.190  1.00  0.00     0.088 A  
HETATM   40  C   UNL     1     -10.887   7.597  68.017  1.00  0.00    -0.068 A  
HETATM   41  C   UNL     1     -10.420   6.277  68.157  1.00  0.00    -0.278 A  
HETATM   42  C   UNL     1      -9.926   5.788  69.375  1.00  0.00    -0.244 A  
HETATM   43  C   UNL     1      -9.910   6.606  70.503  1.00  0.00    -0.190 A  
HETATM   44  C   UNL     1     -10.586   7.822  70.400  1.00  0.00    -0.227 A  
HETATM   45  C   UNL     1      -9.075   6.360  71.739  1.00  0.00    -0.143 C  
HETATM   46  C   UNL     1      -7.567   6.305  71.336  1.00  0.00    -0.098 C  
ENDBRANCH  27  29
ENDBRANCH  13  25
TORSDOF 4
ENDMDL
MODEL        8
REMARK 921   NORMALIZED FREE ENERGY PREDICTED BY IDOCK:   -7.90 KCAL/MOL
REMARK 922        TOTAL FREE ENERGY PREDICTED BY IDOCK:  -10.99 KCAL/MOL
REMARK 923 INTER-LIGAND FREE ENERGY PREDICTED BY IDOCK:   -9.30 KCAL/MOL
REMARK 924 INTRA-LIGAND FREE ENERGY PREDICTED BY IDOCK:   -1.69 KCAL/MOL
REMARK 927      BINDING AFFINITY PREDICTED BY RF-SCORE:    0.00 PKD
ROOT
HETATM    1  C   UNL     1      -9.098   7.913  72.280  1.00  0.00    -0.161 C  
HETATM    2  C   UNL     1      -8.331   8.081  73.592  1.00  0.00    -0.302 C  
HETATM    3  C   UNL     1      -9.036   7.064  74.535  1.00  0.00    -0.219 C  
HETATM    4  C   UNL     1     -10.303   6.609  73.801  1.00  0.00    -0.349 C  
HETATM    5  N   UNL     1     -10.417   7.495  72.659  1.00  0.00    -0.244 N  
HETATM    6  C   UNL     1     -11.301   7.140  71.659  1.00  0.00    -0.251 C  
HETATM    7  O   UNL     1     -12.460   6.804  71.892  1.00  0.00    -0.346 OA 
HETATM    8  C   UNL     1     -10.755   7.336  70.206  1.00  0.00    -0.236 C  
HETATM    9  O   UNL     1      -9.443   9.662  69.995  1.00  0.00    -0.212 OA 
HETATM   10  N   UNL     1      -9.227   7.547  70.076  1.00  0.00    -0.151 N  
HETATM   11  C   UNL     1      -8.702   8.104  68.940  1.00  0.00    -0.137 C  
HETATM   12  H   UNL     1      -7.323   9.378  70.108  1.00  0.00     0.000 HD 
HETATM   13  C   UNL     1      -9.768   9.142  68.512  1.00  0.00    -0.155 C  
HETATM   14  O   UNL     1      -7.544   7.890  68.587  1.00  0.00    -0.097 OA 
HETATM   15  O   UNL     1      -7.465   8.947  70.943  1.00  0.00    -0.079 OA 
HETATM   16  C   UNL     1      -9.210   8.625  67.082  1.00  0.00    -0.175 C  
HETATM   17  C   UNL     1      -8.859   8.638  70.876  1.00  0.00    -0.183 C  
ENDROOT
BRANCH   8  18
HETATM   18  C   UNL     1     -11.294   6.277  69.232  1.00  0.00    -0.411 C  
BRANCH  18  19
HETATM   19  C   UNL     1     -10.273   5.188  69.099  1.00  0.00    -0.259 A  
HETATM   20  C   UNL     1      -9.173   3.646  67.604  1.00  0.00    -0.225 A  
HETATM   21  C   UNL     1      -8.981   2.766  68.665  1.00  0.00    -0.188 A  
HETATM   22  C   UNL     1     -10.013   4.338  70.177  1.00  0.00    -0.206 A  
HETATM   23  C   UNL     1      -9.373   3.125  69.956  1.00  0.00    -0.226 A  
HETATM   24  C   UNL     1      -9.789   4.869  67.824  1.00  0.00    -0.196 A  
ENDBRANCH  18  19
ENDBRANCH   8  18
BRANCH  13  25
HETATM   25  N   UNL     1     -10.749  10.076  67.927  1.00  0.00    -0.255 N  
HETATM   26  O   UNL     1     -10.901  11.935  69.262  1.00  0.00    -0.200 OA 
HETATM   27  C   UNL     1     -11.046  11.413  68.164  1.00  0.00    -0.248 C  
HETATM   28  H   UNL     1     -11.326   9.654  67.200  1.00  0.00     0.000 HD 
BRANCH  27  29
HETATM   29  C   UNL     1     -11.653  12.167  66.894  1.00  0.00    -0.408 C  
HETATM   30  C   UNL     1     -11.974  13.682  67.051  1.00  0.00    -0.406 C  
HETATM   31  N   UNL     1     -11.780  14.522  65.837  1.00  0.00    -0.361 NA 
HETATM   32  C   UNL     1     -12.743  14.332  64.756  1.00  0.00    -0.170 C  
HETATM   33  C   UNL     1     -10.371  14.513  65.370  1.00  0.00    -0.382 C  
HETATM   34  C   UNL     1      -9.617  15.688  66.095  1.00  0.00    -0.362 C  
HETATM   35  C   UNL     1      -9.019  15.228  67.368  1.00  0.00    -0.194 A  
HETATM   36  C   UNL     1      -8.813  15.780  68.618  1.00  0.00    -0.199 A  
HETATM   37  N   UNL     1      -8.222  14.832  69.404  1.00  0.00    -0.374 NA 
HETATM   38  H   UNL     1      -8.025  14.939  70.399  1.00  0.00     0.000 HD 
HETATM   39  C   UNL     1      -7.930  13.711  68.661  1.00  0.00    -0.083 A  
HETATM   40  C   UNL     1      -7.285  12.513  68.953  1.00  0.00    -0.050 A  
HETATM   41  C   UNL     1      -7.202  11.580  67.904  1.00  0.00    -0.085 A  
HETATM   42  C   UNL     1      -7.876  11.766  66.688  1.00  0.00    -0.043 A  
HETATM   43  C   UNL     1      -8.637  12.914  66.478  1.00  0.00     0.107 A  
HETATM   44  C   UNL     1      -8.518  13.924  67.433  1.00  0.00    -0.208 A  
HETATM   45  C   UNL     1      -9.701  13.065  65.414  1.00  0.00    -0.035 C  
HETATM   46  C   UNL     1     -10.790  11.965  65.619  1.00  0.00    -0.333 C  
ENDBRANCH  27  29
ENDBRANCH  13  25
TORSDOF 4
ENDMDL
MODEL        9
REMARK 921   NORMALIZED FREE ENERGY PREDICTED BY IDOCK:   -7.82 KCAL/MOL
REMARK 922        TOTAL FREE ENERGY PREDICTED BY IDOCK:  -10.88 KCAL/MOL
REMARK 923 INTER-LIGAND FREE ENERGY PREDICTED BY IDOCK:  -10.54 KCAL/MOL
REMARK 924 INTRA-LIGAND FREE ENERGY PREDICTED BY IDOCK:   -0.35 KCAL/MOL
REMARK 927      BINDING AFFINITY PREDICTED BY RF-SCORE:    0.00 PKD
ROOT
HETATM    1  C   UNL     1     -10.083  17.650  67.683  1.00  0.00    -0.339 C  
HETATM    2  C   UNL     1      -9.581  18.995  68.210  1.00  0.00    -0.411 C  
HETATM    3  C   UNL     1     -10.211  20.010  67.214  1.00  0.00    -0.565 C  
HETATM    4  C   UNL     1     -10.775  19.179  66.056  1.00  0.00    -0.364 C  
HETATM    5  N   UNL     1     -10.270  17.838  66.273  1.00  0.00    -0.366 N  
HETATM    6  C   UNL     1     -10.847  16.812  65.550  1.00  0.00    -0.129 C  
HETATM    7  O   UNL     1     -11.011  16.875  64.334  1.00  0.00    -1.016 OA 
HETATM    8  C   UNL     1     -11.139  15.515  66.376  1.00  0.00    -0.174 C  
HETATM    9  O   UNL     1      -9.087  14.947  68.001  1.00  0.00    -0.174 OA 
HETATM   10  N   UNL     1     -11.089  15.664  67.916  1.00  0.00    -0.322 N  
HETATM   11  C   UNL     1     -10.940  14.559  68.711  1.00  0.00    -0.250 C  
HETATM   12  H   UNL     1      -9.475  15.590  70.007  1.00  0.00     0.000 HD 
HETATM   13  C   UNL     1     -10.006  13.637  67.890  1.00  0.00    -0.244 C  
HETATM   14  O   UNL     1     -11.334  14.538  69.875  1.00  0.00    -0.255 OA 
HETATM   15  O   UNL     1      -9.622  16.461  69.658  1.00  0.00    -0.131 OA 
HETATM   16  C   UNL     1     -10.971  12.565  68.629  1.00  0.00    -0.291 C  
HETATM   17  C   UNL     1      -9.835  16.184  68.272  1.00  0.00    -0.224 C  
ENDROOT
BRANCH   8  18
HETATM   18  C   UNL     1     -12.401  14.787  65.890  1.00  0.00     0.014 C  
BRANCH  18  19
HETATM   19  C   UNL     1     -11.984  13.565  65.130  1.00  0.00    -0.391 A  
HETATM   20  C   UNL     1     -10.331  12.581  63.672  1.00  0.00    -0.382 A  
HETATM   21  C   UNL     1     -11.310  11.752  63.134  1.00  0.00    -0.198 A  
HETATM   22  C   UNL     1     -12.949  12.681  64.642  1.00  0.00    -0.225 A  
HETATM   23  C   UNL     1     -12.612  11.781  63.639  1.00  0.00    -0.458 A  
HETATM   24  C   UNL     1     -10.657  13.465  64.691  1.00  0.00    -0.431 A  
ENDBRANCH  18  19
ENDBRANCH   8  18
BRANCH  13  25
HETATM   25  N   UNL     1      -9.225  12.615  67.167  1.00  0.00    -0.206 N  
HETATM   26  O   UNL     1      -8.274  11.185  68.687  1.00  0.00    -0.141 OA 
HETATM   27  C   UNL     1      -8.667  11.401  67.548  1.00  0.00    -0.140 C  
HETATM   28  H   UNL     1      -9.062  12.848  66.188  1.00  0.00     0.000 HD 
BRANCH  27  29
HETATM   29  C   UNL     1      -8.528  10.357  66.347  1.00  0.00    -0.138 C  
HETATM   30  C   UNL     1      -7.385   9.306  66.446  1.00  0.00    -0.092 C  
HETATM   31  N   UNL     1      -7.675   7.966  65.863  1.00  0.00    -0.089 NA 
HETATM   32  C   UNL     1      -7.745   7.894  64.405  1.00  0.00    -0.123 C  
HETATM   33  C   UNL     1      -8.818   7.300  66.534  1.00  0.00    -0.141 C  
HETATM   34  C   UNL     1      -8.246   6.463  67.738  1.00  0.00    -0.118 C  
HETATM   35  C   UNL     1      -8.212   7.271  68.976  1.00  0.00    -0.125 A  
HETATM   36  C   UNL     1      -7.369   7.371  70.067  1.00  0.00    -0.082 A  
HETATM   37  N   UNL     1      -7.863   8.340  70.893  1.00  0.00    -0.085 NA 
HETATM   38  H   UNL     1      -7.401   8.679  71.737  1.00  0.00     0.000 HD 
HETATM   39  C   UNL     1      -9.075   8.794  70.424  1.00  0.00    -0.176 A  
HETATM   40  C   UNL     1     -10.006   9.706  70.911  1.00  0.00    -0.211 A  
HETATM   41  C   UNL     1     -11.142   9.923  70.109  1.00  0.00    -0.353 A  
HETATM   42  C   UNL     1     -11.253   9.387  68.818  1.00  0.00     0.112 A  
HETATM   43  C   UNL     1     -10.233   8.593  68.298  1.00  0.00    -0.237 A  
HETATM   44  C   UNL     1      -9.232   8.204  69.189  1.00  0.00    -0.151 A  
HETATM   45  C   UNL     1     -10.038   8.284  66.831  1.00  0.00    -0.366 C  
HETATM   46  C   UNL     1      -9.862   9.623  66.045  1.00  0.00    -0.345 C  
ENDBRANCH  27  29
ENDBRANCH  13  25
TORSDOF 4
ENDMDL
MODEL       10
REMARK 921   NORMALIZED FREE ENERGY PREDICTED BY IDOCK:   -7.70 KCAL/MOL
REMARK 922        TOTAL FREE ENERGY PREDICTED BY IDOCK:  -10.74 KCAL/MOL
REMARK 923 INTER-LIGAND FREE ENERGY PREDICTED BY IDOCK:   -9.04 KCAL/MOL
REMARK 924 INTRA-LIGAND FREE ENERGY PREDICTED BY IDOCK:   -1.70 KCAL/MOL
REMARK 927      BINDING AFFINITY PREDICTED BY RF-SCORE:    0.00 PKD
ROOT
HETATM    1  C   UNL     1      -9.148   9.426  70.487  1.00  0.00    -0.256 C  
HETATM    2  C   UNL     1      -9.055   8.626  71.786  1.00  0.00    -0.317 C  
HETATM    3  C   UNL     1     -10.417   7.875  71.825  1.00  0.00    -0.272 C  
HETATM    4  C   UNL     1     -11.282   8.502  70.725  1.00  0.00    -0.257 C  
HETATM    5  N   UNL     1     -10.547   9.673  70.289  1.00  0.00    -0.256 N  
HETATM    6  C   UNL     1     -10.943  10.274  69.110  1.00  0.00    -0.238 C  
HETATM    7  O   UNL     1     -12.116  10.554  68.874  1.00  0.00    -0.286 OA 
HETATM    8  C   UNL     1      -9.768  10.698  68.168  1.00  0.00    -0.156 C  
HETATM    9  O   UNL     1      -7.781  11.814  69.576  1.00  0.00     0.225 OA 
HETATM   10  N   UNL     1      -8.383  10.086  68.490  1.00  0.00    -0.110 N  
HETATM   11  C   UNL     1      -7.243  10.667  68.001  1.00  0.00    -0.087 C  
HETATM   12  H   UNL     1      -6.195  10.420  69.933  1.00  0.00     0.000 HD 
HETATM   13  C   UNL     1      -7.557  12.182  68.031  1.00  0.00    -0.123 C  
HETATM   14  O   UNL     1      -6.208  10.024  67.830  1.00  0.00    -0.056 OA 
HETATM   15  O   UNL     1      -6.841   9.846  70.329  1.00  0.00    -0.106 OA 
HETATM   16  C   UNL     1      -6.633  12.057  66.706  1.00  0.00     0.037 C  
HETATM   17  C   UNL     1      -8.061  10.390  69.821  1.00  0.00    -0.044 C  
ENDROOT
BRANCH   8  18
HETATM   18  C   UNL     1     -10.140  10.578  66.682  1.00  0.00    -0.275 C  
BRANCH  18  19
HETATM   19  C   UNL     1      -9.799   9.195  66.216  1.00  0.00    -0.359 A  
HETATM   20  C   UNL     1      -9.827   6.840  66.743  1.00  0.00    -0.236 A  
HETATM   21  C   UNL     1      -8.707   6.655  65.938  1.00  0.00    -0.147 A  
HETATM   22  C   UNL     1      -8.722   8.994  65.348  1.00  0.00    -0.221 A  
HETATM   23  C   UNL     1      -8.174   7.725  65.217  1.00  0.00    -0.142 A  
HETATM   24  C   UNL     1     -10.393   8.102  66.859  1.00  0.00    -0.401 A  
ENDBRANCH  18  19
ENDBRANCH   8  18
BRANCH  13  25
HETATM   25  N   UNL     1      -7.768  13.635  67.892  1.00  0.00    -0.140 N  
HETATM   26  O   UNL     1      -7.743  14.597  69.974  1.00  0.00     0.093 OA 
HETATM   27  C   UNL     1      -7.604  14.706  68.764  1.00  0.00    -0.138 C  
HETATM   28  H   UNL     1      -8.103  13.911  66.969  1.00  0.00     0.000 HD 
BRANCH  27  29
HETATM   29  C   UNL     1      -7.290  16.087  68.026  1.00  0.00    -0.139 C  
HETATM   30  C   UNL     1      -7.521  16.142  66.488  1.00  0.00    -0.074 C  
HETATM   31  N   UNL     1      -7.989  17.447  65.942  1.00  0.00    -0.542 NA 
HETATM   32  C   UNL     1      -7.012  18.532  65.930  1.00  0.00    -0.273 C  
HETATM   33  C   UNL     1      -9.301  17.850  66.504  1.00  0.00    -0.280 C  
HETATM   34  C   UNL     1     -10.424  17.254  65.578  1.00  0.00    -0.135 C  
HETATM   35  C   UNL     1     -10.833  15.909  66.040  1.00  0.00    -0.226 A  
HETATM   36  C   UNL     1     -11.229  14.734  65.429  1.00  0.00    -0.347 A  
HETATM   37  N   UNL     1     -11.456  13.807  66.407  1.00  0.00    -0.325 NA 
HETATM   38  H   UNL     1     -11.685  12.827  66.240  1.00  0.00     0.000 HD 
HETATM   39  C   UNL     1     -11.330  14.386  67.650  1.00  0.00    -0.329 A  
HETATM   40  C   UNL     1     -11.518  13.914  68.945  1.00  0.00    -0.340 A  
HETATM   41  C   UNL     1     -11.260  14.829  69.983  1.00  0.00    -0.274 A  
HETATM   42  C   UNL     1     -10.686  16.085  69.741  1.00  0.00    -0.331 A  
HETATM   43  C   UNL     1     -10.373  16.473  68.440  1.00  0.00    -0.294 A  
HETATM   44  C   UNL     1     -10.846  15.654  67.415  1.00  0.00    -0.315 A  
HETATM   45  C   UNL     1      -9.422  17.591  68.075  1.00  0.00    -0.280 C  
HETATM   46  C   UNL     1      -8.018  17.289  68.687  1.00  0.00    -0.267 C  
ENDBRANCH  27  29
ENDBRANCH  13  25
TORSDOF 4
ENDMDL
MODEL       11
REMARK 921   NORMALIZED FREE ENERGY PREDICTED BY IDOCK:   -7.66 KCAL/MOL
REMARK 922        TOTAL FREE ENERGY PREDICTED BY IDOCK:  -10.69 KCAL/MOL
REMARK 923 INTER-LIGAND FREE ENERGY PREDICTED BY IDOCK:   -8.20 KCAL/MOL
REMARK 924 INTRA-LIGAND FREE ENERGY PREDICTED BY IDOCK:   -2.49 KCAL/MOL
REMARK 927      BINDING AFFINITY PREDICTED BY RF-SCORE:    0.00 PKD
ROOT
HETATM    1  C   UNL     1      -9.936  11.074  64.709  1.00  0.00    -0.294 C  
HETATM    2  C   UNL     1     -10.443  11.272  63.280  1.00  0.00    -0.370 C  
HETATM    3  C   UNL     1     -11.667  12.213  63.478  1.00  0.00    -0.579 C  
HETATM    4  C   UNL     1     -11.935  12.252  64.986  1.00  0.00    -0.354 C  
HETATM    5  N   UNL     1     -11.090  11.217  65.548  1.00  0.00    -0.136 N  
HETATM    6  C   UNL     1     -10.906  11.214  66.917  1.00  0.00    -0.279 C  
HETATM    7  O   UNL     1     -11.842  11.295  67.708  1.00  0.00    -0.610 OA 
HETATM    8  C   UNL     1      -9.432  10.955  67.376  1.00  0.00    -0.155 C  
HETATM    9  O   UNL     1      -8.320   8.998  65.924  1.00  0.00    -0.115 OA 
HETATM   10  N   UNL     1      -8.345  11.095  66.283  1.00  0.00    -0.170 N  
HETATM   11  C   UNL     1      -7.111  10.527  66.461  1.00  0.00    -0.120 C  
HETATM   12  H   UNL     1      -7.064   9.786  64.378  1.00  0.00     0.000 HD 
HETATM   13  C   UNL     1      -7.415   9.219  67.231  1.00  0.00    -0.091 C  
HETATM   14  O   UNL     1      -6.110  10.958  65.893  1.00  0.00    -0.133 OA 
HETATM   15  O   UNL     1      -7.816  10.281  64.075  1.00  0.00    -0.156 OA 
HETATM   16  C   UNL     1      -5.985   9.653  67.857  1.00  0.00    -0.051 C  
HETATM   17  C   UNL     1      -8.671  10.240  65.219  1.00  0.00    -0.172 C  
ENDROOT
BRANCH   8  18
HETATM   18  C   UNL     1      -9.081  11.714  68.664  1.00  0.00    -0.103 C  
BRANCH  18  19
HETATM   19  C   UNL     1      -8.707  13.120  68.303  1.00  0.00    -0.165 A  
HETATM   20  C   UNL     1      -7.065  14.874  68.521  1.00  0.00    -0.108 A  
HETATM   21  C   UNL     1      -8.071  15.824  68.371  1.00  0.00    -0.143 A  
HETATM   22  C   UNL     1      -9.704  14.073  68.076  1.00  0.00    -0.221 A  
HETATM   23  C   UNL     1      -9.385  15.423  68.118  1.00  0.00    -0.197 A  
HETATM   24  C   UNL     1      -7.375  13.524  68.456  1.00  0.00    -0.114 A  
ENDBRANCH  18  19
ENDBRANCH   8  18
BRANCH  13  25
HETATM   25  N   UNL     1      -7.549   8.009  68.064  1.00  0.00    -0.110 N  
HETATM   26  O   UNL     1      -7.037   6.166  66.798  1.00  0.00    -0.069 OA 
HETATM   27  C   UNL     1      -7.138   6.691  67.899  1.00  0.00    -0.085 C  
HETATM   28  H   UNL     1      -8.043   8.173  68.941  1.00  0.00     0.000 HD 
BRANCH  27  29
HETATM   29  C   UNL     1      -6.885   5.924  69.277  1.00  0.00    -0.062 C  
HETATM   30  C   UNL     1      -7.287   6.661  70.587  1.00  0.00    -0.075 C  
HETATM   31  N   UNL     1      -7.791   5.801  71.694  1.00  0.00    -0.107 NA 
HETATM   32  C   UNL     1      -6.803   4.955  72.360  1.00  0.00    -0.061 C  
HETATM   33  C   UNL     1      -9.024   5.068  71.316  1.00  0.00    -0.138 C  
HETATM   34  C   UNL     1     -10.255   5.975  71.689  1.00  0.00    -0.245 C  
HETATM   35  C   UNL     1     -10.632   6.849  70.557  1.00  0.00    -0.247 A  
HETATM   36  C   UNL     1     -11.114   8.137  70.422  1.00  0.00    -0.239 A  
HETATM   37  N   UNL     1     -11.246   8.399  69.088  1.00  0.00    -0.359 NA 
HETATM   38  H   UNL     1     -11.509   9.302  68.694  1.00  0.00     0.000 HD 
HETATM   39  C   UNL     1     -10.971   7.269  68.351  1.00  0.00     0.029 A  
HETATM   40  C   UNL     1     -11.020   6.982  66.990  1.00  0.00    -0.357 A  
HETATM   41  C   UNL     1     -10.632   5.683  66.615  1.00  0.00    -0.361 A  
HETATM   42  C   UNL     1     -10.067   4.782  67.530  1.00  0.00    -0.161 A  
HETATM   43  C   UNL     1      -9.896   5.153  68.862  1.00  0.00    -0.241 A  
HETATM   44  C   UNL     1     -10.495   6.348  69.258  1.00  0.00    -0.277 A  
HETATM   45  C   UNL     1      -8.972   4.462  69.841  1.00  0.00    -0.147 C  
HETATM   46  C   UNL     1      -7.514   4.504  69.285  1.00  0.00    -0.055 C  
ENDBRANCH  27  29
ENDBRANCH  13  25
TORSDOF 4
ENDMDL
MODEL       12
REMARK 921   NORMALIZED FREE ENERGY PREDICTED BY IDOCK:   -7.66 KCAL/MOL
REMARK 922        TOTAL FREE ENERGY PREDICTED BY IDOCK:  -10.69 KCAL/MOL
REMARK 923 INTER-LIGAND FREE ENERGY PREDICTED BY IDOCK:   -9.23 KCAL/MOL
REMARK 924 INTRA-LIGAND FREE ENERGY PREDICTED BY IDOCK:   -1.46 KCAL/MOL
REMARK 927      BINDING AFFINITY PREDICTED BY RF-SCORE:    0.00 PKD
ROOT
HETATM    1  C   UNL     1     -10.576  14.319  69.165  1.00  0.00    -0.186 C  
HETATM    2  C   UNL     1     -11.116  15.482  69.999  1.00  0.00    -0.326 C  
HETATM    3  C   UNL     1     -10.584  16.728  69.233  1.00  0.00    -0.336 C  
HETATM    4  C   UNL     1      -9.569  16.201  68.213  1.00  0.00    -0.216 C  
HETATM    5  N   UNL     1      -9.370  14.808  68.562  1.00  0.00    -0.194 N  
HETATM    6  C   UNL     1      -8.728  14.003  67.642  1.00  0.00    -0.189 C  
HETATM    7  O   UNL     1      -7.672  14.328  67.104  1.00  0.00    -0.164 OA 
HETATM    8  C   UNL     1      -9.374  12.591  67.448  1.00  0.00    -0.187 C  
HETATM    9  O   UNL     1     -10.072  11.539  69.810  1.00  0.00     0.427 OA 
HETATM   10  N   UNL     1     -10.804  12.413  68.014  1.00  0.00    -0.212 N  
HETATM   11  C   UNL     1     -11.301  11.159  68.250  1.00  0.00    -0.297 C  
HETATM   12  H   UNL     1     -12.167  11.782  70.188  1.00  0.00     0.000 HD 
HETATM   13  C   UNL     1     -10.066  10.356  68.727  1.00  0.00    -0.187 C  
HETATM   14  O   UNL     1     -12.509  10.929  68.255  1.00  0.00    -0.165 OA 
HETATM   15  O   UNL     1     -12.041  12.715  70.063  1.00  0.00    -0.316 OA 
HETATM   16  C   UNL     1     -10.901   9.234  67.908  1.00  0.00    -0.181 C  
HETATM   17  C   UNL     1     -10.788  12.749  69.376  1.00  0.00     0.110 C  
ENDROOT
BRANCH   8  18
HETATM   18  C   UNL     1      -9.238  12.080  66.006  1.00  0.00    -0.152 C  
BRANCH  18  19
HETATM   19  C   UNL     1     -10.471  12.464  65.246  1.00  0.00    -0.316 A  
HETATM   20  C   UNL     1     -12.009  11.859  63.487  1.00  0.00    -0.567 A  
HETATM   21  C   UNL     1     -12.276  13.207  63.267  1.00  0.00    -0.438 A  
HETATM   22  C   UNL     1     -10.797  13.812  65.075  1.00  0.00    -0.377 A  
HETATM   23  C   UNL     1     -11.693  14.181  64.081  1.00  0.00    -0.306 A  
HETATM   24  C   UNL     1     -11.133  11.484  64.495  1.00  0.00    -0.340 A  
ENDBRANCH  18  19
ENDBRANCH   8  18
BRANCH  13  25
HETATM   25  N   UNL     1      -8.957   9.448  69.077  1.00  0.00    -0.138 N  
HETATM   26  O   UNL     1      -8.874   9.212  71.356  1.00  0.00    -0.298 OA 
HETATM   27  C   UNL     1      -8.613   8.776  70.244  1.00  0.00    -0.152 C  
HETATM   28  H   UNL     1      -8.312   9.279  68.305  1.00  0.00     0.000 HD 
BRANCH  27  29
HETATM   29  C   UNL     1      -7.789   7.432  69.987  1.00  0.00    -0.104 C  
HETATM   30  C   UNL     1      -7.129   6.754  71.222  1.00  0.00    -0.075 C  
HETATM   31  N   UNL     1      -7.067   5.266  71.198  1.00  0.00    -0.059 NA 
HETATM   32  C   UNL     1      -6.129   4.671  70.249  1.00  0.00    -0.021 C  
HETATM   33  C   UNL     1      -8.416   4.651  71.145  1.00  0.00    -0.107 C  
HETATM   34  C   UNL     1      -8.904   4.436  72.625  1.00  0.00    -0.117 C  
HETATM   35  C   UNL     1      -9.649   5.617  73.115  1.00  0.00    -0.156 A  
HETATM   36  C   UNL     1      -9.774   6.273  74.324  1.00  0.00    -0.256 A  
HETATM   37  N   UNL     1     -10.606   7.342  74.139  1.00  0.00    -0.547 NA 
HETATM   38  H   UNL     1     -10.815   8.047  74.845  1.00  0.00     0.000 HD 
HETATM   39  C   UNL     1     -11.119   7.329  72.862  1.00  0.00    -0.325 A  
HETATM   40  C   UNL     1     -12.041   8.132  72.196  1.00  0.00    -0.408 A  
HETATM   41  C   UNL     1     -12.294   7.804  70.852  1.00  0.00    -0.124 A  
HETATM   42  C   UNL     1     -11.543   6.836  70.169  1.00  0.00    -0.397 A  
HETATM   43  C   UNL     1     -10.524   6.148  70.825  1.00  0.00    -0.285 A  
HETATM   44  C   UNL     1     -10.445   6.323  72.206  1.00  0.00    -0.227 A  
HETATM   45  C   UNL     1      -9.409   5.391  70.139  1.00  0.00    -0.193 C  
HETATM   46  C   UNL     1      -8.619   6.370  69.214  1.00  0.00    -0.125 C  
ENDBRANCH  27  29
ENDBRANCH  13  25
TORSDOF 4
ENDMDL
MODEL       13
REMARK 921   NORMALIZED FREE ENERGY PREDICTED BY IDOCK:   -7.55 KCAL/MOL
REMARK 922        TOTAL FREE ENERGY PREDICTED BY IDOCK:  -10.55 KCAL/MOL
REMARK 923 INTER-LIGAND FREE ENERGY PREDICTED BY IDOCK:   -8.47 KCAL/MOL
REMARK 924 INTRA-LIGAND FREE ENERGY PREDICTED BY IDOCK:   -2.08 KCAL/MOL
REMARK 927      BINDING AFFINITY PREDICTED BY RF-SCORE:    0.00 PKD
ROOT
HETATM    1  C   UNL     1      -9.812  16.026  68.230  1.00  0.00    -0.219 C  
HETATM    2  C   UNL     1      -9.013  17.253  68.674  1.00  0.00    -0.265 C  
HETATM    3  C   UNL     1      -8.970  18.120  67.383  1.00  0.00    -0.256 C  
HETATM    4  C   UNL     1      -9.483  17.224  66.250  1.00  0.00    -0.234 C  
HETATM    5  N   UNL     1      -9.560  15.895  66.824  1.00  0.00    -0.227 N  
HETATM    6  C   UNL     1     -10.263  14.935  66.123  1.00  0.00    -0.300 C  
HETATM    7  O   UNL     1     -10.084  14.731  64.924  1.00  0.00    -0.352 OA 
HETATM    8  C   UNL     1     -11.195  14.036  67.002  1.00  0.00    -0.313 C  
HETATM    9  O   UNL     1      -9.957  13.325  69.268  1.00  0.00     0.245 OA 
HETATM   10  N   UNL     1     -11.482  14.551  68.433  1.00  0.00    -0.286 N  
HETATM   11  C   UNL     1     -11.941  13.691  69.396  1.00  0.00    -0.342 C  
HETATM   12  H   UNL     1     -10.580  14.542  70.917  1.00  0.00     0.000 HD 
HETATM   13  C   UNL     1     -11.223  12.358  69.073  1.00  0.00    -0.266 C  
HETATM   14  O   UNL     1     -12.595  14.084  70.360  1.00  0.00    -0.336 OA 
HETATM   15  O   UNL     1     -10.315  15.299  70.408  1.00  0.00    -0.228 OA 
HETATM   16  C   UNL     1     -12.658  11.842  69.620  1.00  0.00     0.197 C  
HETATM   17  C   UNL     1     -10.258  14.753  69.088  1.00  0.00    -0.220 C  
ENDROOT
BRANCH   8  18
HETATM   18  C   UNL     1     -12.469  13.612  66.256  1.00  0.00    -0.420 C  
BRANCH  18  19
HETATM   19  C   UNL     1     -12.109  12.544  65.268  1.00  0.00    -0.500 A  
HETATM   20  C   UNL     1     -10.476  10.895  64.608  1.00  0.00    -0.384 A  
HETATM   21  C   UNL     1     -10.881  11.034  63.284  1.00  0.00     0.018 A  
HETATM   22  C   UNL     1     -12.567  12.627  63.950  1.00  0.00    -0.432 A  
HETATM   23  C   UNL     1     -11.947  11.877  62.960  1.00  0.00    -0.082 A  
HETATM   24  C   UNL     1     -11.108  11.624  65.604  1.00  0.00    -0.308 A  
ENDBRANCH  18  19
ENDBRANCH   8  18
BRANCH  13  25
HETATM   25  N   UNL     1     -10.702  11.004  68.808  1.00  0.00    -0.190 N  
HETATM   26  O   UNL     1     -10.106  10.028  70.796  1.00  0.00    -0.125 OA 
HETATM   27  C   UNL     1     -10.440   9.910  69.625  1.00  0.00    -0.249 C  
HETATM   28  H   UNL     1     -10.491  10.836  67.825  1.00  0.00     0.000 HD 
BRANCH  27  29
HETATM   29  C   UNL     1     -10.549   8.508  68.869  1.00  0.00    -0.166 C  
HETATM   30  C   UNL     1     -10.564   8.536  67.313  1.00  0.00    -0.245 C  
HETATM   31  N   UNL     1      -9.909   7.386  66.630  1.00  0.00    -0.209 NA 
HETATM   32  C   UNL     1     -10.603   6.104  66.709  1.00  0.00    -0.283 C  
HETATM   33  C   UNL     1      -8.466   7.288  66.961  1.00  0.00    -0.118 C  
HETATM   34  C   UNL     1      -7.672   8.145  65.908  1.00  0.00    -0.091 C  
HETATM   35  C   UNL     1      -7.508   9.540  66.375  1.00  0.00    -0.097 A  
HETATM   36  C   UNL     1      -7.492  10.786  65.777  1.00  0.00    -0.067 A  
HETATM   37  N   UNL     1      -7.325  11.721  66.758  1.00  0.00    -0.319 NA 
HETATM   38  H   UNL     1      -7.353  12.730  66.613  1.00  0.00     0.000 HD 
HETATM   39  C   UNL     1      -7.113  11.106  67.972  1.00  0.00    -0.073 A  
HETATM   40  C   UNL     1      -6.830  11.585  69.247  1.00  0.00    -0.114 A  
HETATM   41  C   UNL     1      -6.702  10.616  70.260  1.00  0.00    -0.099 A  
HETATM   42  C   UNL     1      -7.010   9.266  70.040  1.00  0.00    -0.060 A  
HETATM   43  C   UNL     1      -7.433   8.840  68.783  1.00  0.00    -0.084 A  
HETATM   44  C   UNL     1      -7.330   9.765  67.744  1.00  0.00    -0.089 A  
HETATM   45  C   UNL     1      -8.153   7.539  68.506  1.00  0.00    -0.125 C  
HETATM   46  C   UNL     1      -9.471   7.496  69.343  1.00  0.00    -0.155 C  
ENDBRANCH  27  29
ENDBRANCH  13  25
TORSDOF 4
ENDMDL
MODEL       14
REMARK 921   NORMALIZED FREE ENERGY PREDICTED BY IDOCK:   -7.53 KCAL/MOL
REMARK 922        TOTAL FREE ENERGY PREDICTED BY IDOCK:  -10.53 KCAL/MOL
REMARK 923 INTER-LIGAND FREE ENERGY PREDICTED BY IDOCK:   -8.14 KCAL/MOL
REMARK 924 INTRA-LIGAND FREE ENERGY PREDICTED BY IDOCK:   -2.39 KCAL/MOL
REMARK 927      BINDING AFFINITY PREDICTED BY RF-SCORE:    0.00 PKD
ROOT
HETATM    1  C   UNL     1      -9.268   9.000  68.465  1.00  0.00    -0.136 C  
HETATM    2  C   UNL     1      -9.753   7.904  69.415  1.00  0.00    -0.170 C  
HETATM    3  C   UNL     1     -10.512   6.936  68.462  1.00  0.00    -0.229 C  
HETATM    4  C   UNL     1     -10.650   7.673  67.126  1.00  0.00    -0.340 C  
HETATM    5  N   UNL     1     -10.226   9.032  67.398  1.00  0.00    -0.226 N  
HETATM    6  C   UNL     1      -9.970   9.852  66.316  1.00  0.00    -0.256 C  
HETATM    7  O   UNL     1     -10.753   9.967  65.376  1.00  0.00     0.099 OA 
HETATM    8  C   UNL     1      -8.679  10.726  66.451  1.00  0.00    -0.158 C  
HETATM    9  O   UNL     1      -8.487  11.754  68.917  1.00  0.00    -0.049 OA 
HETATM   10  N   UNL     1      -7.692  10.312  67.569  1.00  0.00    -0.094 N  
HETATM   11  C   UNL     1      -6.757  11.202  68.027  1.00  0.00    -0.062 C  
HETATM   12  H   UNL     1      -7.127  10.629  70.131  1.00  0.00     0.000 HD 
HETATM   13  C   UNL     1      -7.485  12.567  67.964  1.00  0.00    -0.117 C  
HETATM   14  O   UNL     1      -5.705  10.831  68.545  1.00  0.00    -0.041 OA 
HETATM   15  O   UNL     1      -7.652   9.861  69.939  1.00  0.00    -0.127 OA 
HETATM   16  C   UNL     1      -5.960  12.982  67.603  1.00  0.00    -0.145 C  
HETATM   17  C   UNL     1      -8.384  10.292  68.789  1.00  0.00    -0.125 C  
ENDROOT
BRANCH   8  18
HETATM   18  C   UNL     1      -7.985  10.953  65.100  1.00  0.00     0.138 C  
BRANCH  18  19
HETATM   19  C   UNL     1      -7.376   9.659  64.653  1.00  0.00    -0.123 A  
HETATM   20  C   UNL     1      -5.331   8.449  64.229  1.00  0.00    -0.044 A  
HETATM   21  C   UNL     1      -5.991   7.687  63.268  1.00  0.00    -0.054 A  
HETATM   22  C   UNL     1      -8.054   8.843  63.743  1.00  0.00    -0.163 A  
HETATM   23  C   UNL     1      -7.358   7.864  63.047  1.00  0.00    -0.104 A  
HETATM   24  C   UNL     1      -6.028   9.412  64.944  1.00  0.00    -0.066 A  
ENDBRANCH  18  19
ENDBRANCH   8  18
BRANCH  13  25
HETATM   25  N   UNL     1      -8.014  13.939  67.842  1.00  0.00    -0.144 N  
HETATM   26  O   UNL     1      -8.479  14.751  69.936  1.00  0.00     0.149 OA 
HETATM   27  C   UNL     1      -8.218  14.963  68.759  1.00  0.00    -0.161 C  
HETATM   28  H   UNL     1      -8.285  14.186  66.890  1.00  0.00     0.000 HD 
BRANCH  27  29
HETATM   29  C   UNL     1      -8.149  16.422  68.113  1.00  0.00    -0.165 C  
HETATM   30  C   UNL     1      -8.010  16.510  66.565  1.00  0.00    -0.310 C  
HETATM   31  N   UNL     1      -8.689  17.663  65.911  1.00  0.00    -0.520 NA 
HETATM   32  C   UNL     1      -8.095  18.978  66.135  1.00  0.00    -0.244 C  
HETATM   33  C   UNL     1     -10.157  17.642  66.126  1.00  0.00    -0.301 C  
HETATM   34  C   UNL     1     -10.803  16.816  64.954  1.00  0.00    -0.088 C  
HETATM   35  C   UNL     1     -10.904  15.383  65.309  1.00  0.00    -0.423 A  
HETATM   36  C   UNL     1     -10.785  14.187  64.627  1.00  0.00    -0.389 A  
HETATM   37  N   UNL     1     -10.962  13.172  65.525  1.00  0.00    -0.276 NA 
HETATM   38  H   UNL     1     -10.851  12.180  65.313  1.00  0.00     0.000 HD 
HETATM   39  C   UNL     1     -11.311  13.680  66.755  1.00  0.00    -0.328 A  
HETATM   40  C   UNL     1     -11.659  13.091  67.967  1.00  0.00    -0.383 A  
HETATM   41  C   UNL     1     -11.935  13.971  69.030  1.00  0.00    -0.392 A  
HETATM   42  C   UNL     1     -11.707  15.351  68.929  1.00  0.00    -0.377 A  
HETATM   43  C   UNL     1     -11.217  15.896  67.744  1.00  0.00    -0.258 A  
HETATM   44  C   UNL     1     -11.172  15.045  66.640  1.00  0.00    -0.311 A  
HETATM   45  C   UNL     1     -10.571  17.258  67.619  1.00  0.00    -0.350 C  
HETATM   46  C   UNL     1      -9.330  17.324  68.564  1.00  0.00    -0.276 C  
ENDBRANCH  27  29
ENDBRANCH  13  25
TORSDOF 4
ENDMDL
MODEL       15
REMARK 921   NORMALIZED FREE ENERGY PREDICTED BY IDOCK:   -7.51 KCAL/MOL
REMARK 922        TOTAL FREE ENERGY PREDICTED BY IDOCK:  -10.51 KCAL/MOL
REMARK 923 INTER-LIGAND FREE ENERGY PREDICTED BY IDOCK:   -7.79 KCAL/MOL
REMARK 924 INTRA-LIGAND FREE ENERGY PREDICTED BY IDOCK:   -2.72 KCAL/MOL
REMARK 927      BINDING AFFINITY PREDICTED BY RF-SCORE:    0.00 PKD
ROOT
HETATM    1  C   UNL     1      -9.964  10.928  65.570  1.00  0.00    -0.260 C  
HETATM    2  C   UNL     1     -10.805  11.338  64.361  1.00  0.00    -0.373 C  
HETATM    3  C   UNL     1     -11.753  12.421  64.953  1.00  0.00    -0.418 C  
HETATM    4  C   UNL     1     -11.586  12.349  66.475  1.00  0.00    -0.387 C  
HETATM    5  N   UNL     1     -10.803  11.152  66.713  1.00  0.00    -0.274 N  
HETATM    6  C   UNL     1     -10.252  10.986  67.968  1.00  0.00    -0.179 C  
HETATM    7  O   UNL     1     -10.908  11.123  68.998  1.00  0.00    -0.206 OA 
HETATM    8  C   UNL     1      -8.774  10.474  67.969  1.00  0.00    -0.128 C  
HETATM    9  O   UNL     1      -8.445   8.531  66.155  1.00  0.00    -0.118 OA 
HETATM   10  N   UNL     1      -8.022  10.563  66.620  1.00  0.00    -0.120 N  
HETATM   11  C   UNL     1      -6.899   9.809  66.405  1.00  0.00    -0.088 C  
HETATM   12  H   UNL     1      -7.550   9.279  64.359  1.00  0.00     0.000 HD 
HETATM   13  C   UNL     1      -7.192   8.488  67.156  1.00  0.00    -0.080 C  
HETATM   14  O   UNL     1      -6.035  10.145  65.597  1.00  0.00    -0.074 OA 
HETATM   15  O   UNL     1      -8.263   9.906  64.312  1.00  0.00    -0.143 OA 
HETATM   16  C   UNL     1      -5.594   8.647  67.369  1.00  0.00    -0.039 C  
HETATM   17  C   UNL     1      -8.765   9.875  65.650  1.00  0.00    -0.151 C  
ENDROOT
BRANCH   8  18
HETATM   18  C   UNL     1      -7.961  11.042  69.142  1.00  0.00    -0.081 C  
BRANCH  18  19
HETATM   19  C   UNL     1      -7.680   9.933  70.111  1.00  0.00    -0.188 A  
HETATM   20  C   UNL     1      -8.573   8.525  71.855  1.00  0.00    -0.254 A  
HETATM   21  C   UNL     1      -7.299   8.414  72.406  1.00  0.00    -0.126 A  
HETATM   22  C   UNL     1      -6.391   9.759  70.621  1.00  0.00    -0.105 A  
HETATM   23  C   UNL     1      -6.205   9.005  71.772  1.00  0.00    -0.065 A  
HETATM   24  C   UNL     1      -8.760   9.257  70.692  1.00  0.00    -0.282 A  
ENDBRANCH  18  19
ENDBRANCH   8  18
BRANCH  13  25
HETATM   25  N   UNL     1      -7.291   7.234  67.926  1.00  0.00    -0.094 N  
HETATM   26  O   UNL     1      -6.768   5.471  66.556  1.00  0.00    -0.054 OA 
HETATM   27  C   UNL     1      -6.860   5.934  67.684  1.00  0.00    -0.060 C  
HETATM   28  H   UNL     1      -7.773   7.342  68.818  1.00  0.00     0.000 HD 
BRANCH  27  29
HETATM   29  C   UNL     1      -6.570   5.099  69.015  1.00  0.00    -0.051 C  
HETATM   30  C   UNL     1      -7.110   5.682  70.353  1.00  0.00    -0.066 C  
HETATM   31  N   UNL     1      -7.549   4.688  71.371  1.00  0.00    -0.075 NA 
HETATM   32  C   UNL     1      -6.493   3.916  72.022  1.00  0.00    -0.015 C  
HETATM   33  C   UNL     1      -8.669   3.846  70.884  1.00  0.00    -0.074 C  
HETATM   34  C   UNL     1     -10.014   4.571  71.260  1.00  0.00    -0.258 C  
HETATM   35  C   UNL     1     -10.449   5.477  70.175  1.00  0.00    -0.370 A  
HETATM   36  C   UNL     1     -11.078   6.707  70.109  1.00  0.00    -0.329 A  
HETATM   37  N   UNL     1     -11.187   7.052  68.791  1.00  0.00    -0.494 NA 
HETATM   38  H   UNL     1     -11.542   7.945  68.450  1.00  0.00     0.000 HD 
HETATM   39  C   UNL     1     -10.749   6.021  67.990  1.00  0.00    -0.282 A  
HETATM   40  C   UNL     1     -10.709   5.835  66.612  1.00  0.00    -0.333 A  
HETATM   41  C   UNL     1     -10.152   4.623  66.165  1.00  0.00    -0.291 A  
HETATM   42  C   UNL     1      -9.519   3.728  67.040  1.00  0.00    -0.227 A  
HETATM   43  C   UNL     1      -9.447   4.013  68.402  1.00  0.00    -0.211 A  
HETATM   44  C   UNL     1     -10.201   5.097  68.852  1.00  0.00    -0.221 A  
HETATM   45  C   UNL     1      -8.486   3.364  69.373  1.00  0.00    -0.096 C  
HETATM   46  C   UNL     1      -7.022   3.619  68.893  1.00  0.00    -0.046 C  
ENDBRANCH  27  29
ENDBRANCH  13  25
TORSDOF 4
ENDMDL
MODEL       16
REMARK 921   NORMALIZED FREE ENERGY PREDICTED BY IDOCK:   -7.50 KCAL/MOL
REMARK 922        TOTAL FREE ENERGY PREDICTED BY IDOCK:  -10.49 KCAL/MOL
REMARK 923 INTER-LIGAND FREE ENERGY PREDICTED BY IDOCK:   -8.08 KCAL/MOL
REMARK 924 INTRA-LIGAND FREE ENERGY PREDICTED BY IDOCK:   -2.41 KCAL/MOL
REMARK 927      BINDING AFFINITY PREDICTED BY RF-SCORE:    0.00 PKD
ROOT
HETATM    1  C   UNL     1      -9.017   6.464  68.335  1.00  0.00    -0.120 C  
HETATM    2  C   UNL     1      -9.116   5.209  67.467  1.00  0.00    -0.118 C  
HETATM    3  C   UNL     1      -7.657   4.668  67.479  1.00  0.00    -0.078 C  
HETATM    4  C   UNL     1      -6.796   5.776  68.096  1.00  0.00    -0.067 C  
HETATM    5  N   UNL     1      -7.669   6.930  68.182  1.00  0.00    -0.110 N  
HETATM    6  C   UNL     1      -7.253   7.991  68.962  1.00  0.00    -0.078 C  
HETATM    7  O   UNL     1      -6.128   8.476  68.870  1.00  0.00    -0.042 OA 
HETATM    8  C   UNL     1      -8.370   8.614  69.864  1.00  0.00    -0.123 C  
HETATM    9  O   UNL     1     -10.666   8.841  68.505  1.00  0.00    -0.168 OA 
HETATM   10  N   UNL     1      -9.654   7.769  70.038  1.00  0.00    -0.161 N  
HETATM   11  C   UNL     1     -10.815   8.358  70.462  1.00  0.00    -0.232 C  
HETATM   12  H   UNL     1     -12.016   7.246  68.975  1.00  0.00     0.000 HD 
HETATM   13  C   UNL     1     -10.775   9.763  69.813  1.00  0.00    -0.256 C  
HETATM   14  O   UNL     1     -11.696   7.720  71.037  1.00  0.00    -0.284 OA 
HETATM   15  O   UNL     1     -11.329   6.641  68.718  1.00  0.00    -0.218 OA 
HETATM   16  C   UNL     1     -11.507  10.067  71.227  1.00  0.00    -0.390 C  
HETATM   17  C   UNL     1     -10.173   7.480  68.767  1.00  0.00    -0.197 C  
ENDROOT
BRANCH   8  18
HETATM   18  C   UNL     1      -7.817   9.137  71.199  1.00  0.00    -0.119 C  
BRANCH  18  19
HETATM   19  C   UNL     1      -7.888   8.033  72.210  1.00  0.00    -0.151 A  
HETATM   20  C   UNL     1      -8.598   7.388  74.424  1.00  0.00    -0.249 A  
HETATM   21  C   UNL     1      -7.574   6.446  74.469  1.00  0.00    -0.099 A  
HETATM   22  C   UNL     1      -6.909   7.036  72.226  1.00  0.00    -0.061 A  
HETATM   23  C   UNL     1      -6.750   6.249  73.359  1.00  0.00    -0.074 A  
HETATM   24  C   UNL     1      -8.776   8.160  73.285  1.00  0.00    -0.313 A  
ENDBRANCH  18  19
ENDBRANCH   8  18
BRANCH  13  25
HETATM   25  N   UNL     1     -10.806  11.166  69.358  1.00  0.00    -0.332 N  
HETATM   26  O   UNL     1     -12.284  11.355  67.615  1.00  0.00    -0.485 OA 
HETATM   27  C   UNL     1     -11.670  11.878  68.535  1.00  0.00    -0.330 C  
HETATM   28  H   UNL     1     -10.036  11.727  69.722  1.00  0.00     0.000 HD 
BRANCH  27  29
HETATM   29  C   UNL     1     -11.723  13.440  68.864  1.00  0.00    -0.369 C  
HETATM   30  C   UNL     1     -10.671  13.992  69.870  1.00  0.00     0.305 C  
HETATM   31  N   UNL     1     -10.188  15.379  69.618  1.00  0.00    -0.267 NA 
HETATM   32  C   UNL     1     -11.142  16.454  69.877  1.00  0.00    -0.310 C  
HETATM   33  C   UNL     1      -9.512  15.506  68.304  1.00  0.00    -0.200 C  
HETATM   34  C   UNL     1      -7.984  15.196  68.518  1.00  0.00    -0.142 C  
HETATM   35  C   UNL     1      -7.704  13.755  68.331  1.00  0.00    -0.134 A  
HETATM   36  C   UNL     1      -6.852  12.833  68.908  1.00  0.00    -0.096 A  
HETATM   37  N   UNL     1      -7.078  11.623  68.314  1.00  0.00    -0.073 NA 
HETATM   38  H   UNL     1      -6.644  10.744  68.596  1.00  0.00     0.000 HD 
HETATM   39  C   UNL     1      -7.977  11.761  67.280  1.00  0.00    -0.161 A  
HETATM   40  C   UNL     1      -8.487  10.875  66.335  1.00  0.00    -0.163 A  
HETATM   41  C   UNL     1      -9.428  11.404  65.433  1.00  0.00    -0.240 A  
HETATM   42  C   UNL     1      -9.953  12.697  65.579  1.00  0.00    -0.237 A  
HETATM   43  C   UNL     1      -9.528  13.511  66.627  1.00  0.00    -0.271 A  
HETATM   44  C   UNL     1      -8.434  13.057  67.364  1.00  0.00    -0.200 A  
HETATM   45  C   UNL     1     -10.265  14.733  67.128  1.00  0.00    -0.245 C  
HETATM   46  C   UNL     1     -11.700  14.315  67.581  1.00  0.00    -0.421 C  
ENDBRANCH  27  29
ENDBRANCH  13  25
TORSDOF 4
ENDMDL
MODEL       17
REMARK 921   NORMALIZED FREE ENERGY PREDICTED BY IDOCK:   -7.44 KCAL/MOL
REMARK 922        TOTAL FREE ENERGY PREDICTED BY IDOCK:  -10.42 KCAL/MOL
REMARK 923 INTER-LIGAND FREE ENERGY PREDICTED BY IDOCK:   -9.65 KCAL/MOL
REMARK 924 INTRA-LIGAND FREE ENERGY PREDICTED BY IDOCK:   -0.77 KCAL/MOL
REMARK 927      BINDING AFFINITY PREDICTED BY RF-SCORE:    0.00 PKD
ROOT
HETATM    1  C   UNL     1     -11.520  14.582  68.825  1.00  0.00    -0.294 C  
HETATM    2  C   UNL     1     -12.573  14.615  69.934  1.00  0.00    -0.223 C  
HETATM    3  C   UNL     1     -12.121  15.827  70.799  1.00  0.00    -0.448 C  
HETATM    4  C   UNL     1     -10.724  16.210  70.301  1.00  0.00    -0.232 C  
HETATM    5  N   UNL     1     -10.333  15.137  69.408  1.00  0.00    -0.246 N  
HETATM    6  C   UNL     1      -9.243  15.351  68.588  1.00  0.00    -0.199 C  
HETATM    7  O   UNL     1      -8.176  15.789  69.011  1.00  0.00    -0.199 OA 
HETATM    8  C   UNL     1      -9.429  14.859  67.114  1.00  0.00    -0.225 C  
HETATM    9  O   UNL     1     -10.626  12.464  67.061  1.00  0.00    -0.222 OA 
HETATM   10  N   UNL     1     -10.880  14.542  66.681  1.00  0.00    -0.305 N  
HETATM   11  C   UNL     1     -11.117  13.756  65.585  1.00  0.00    -0.295 C  
HETATM   12  H   UNL     1     -12.717  12.643  66.629  1.00  0.00     0.000 HD 
HETATM   13  C   UNL     1      -9.968  12.719  65.620  1.00  0.00    -0.238 C  
HETATM   14  O   UNL     1     -12.161  13.835  64.941  1.00  0.00    -0.381 OA 
HETATM   15  O   UNL     1     -12.781  13.228  67.375  1.00  0.00     0.168 OA 
HETATM   16  C   UNL     1     -10.180  12.931  64.028  1.00  0.00    -0.256 C  
HETATM   17  C   UNL     1     -11.414  13.597  67.570  1.00  0.00    -0.329 C  
ENDROOT
BRANCH   8  18
HETATM   18  C   UNL     1      -8.688  15.750  66.104  1.00  0.00    -0.293 C  
BRANCH  18  19
HETATM   19  C   UNL     1      -9.035  17.180  66.387  1.00  0.00    -0.291 A  
HETATM   20  C   UNL     1     -10.586  18.983  65.978  1.00  0.00    -0.499 A  
HETATM   21  C   UNL     1      -9.558  19.902  66.176  1.00  0.00    -0.492 A  
HETATM   22  C   UNL     1      -8.023  18.104  66.659  1.00  0.00    -0.276 A  
HETATM   23  C   UNL     1      -8.285  19.463  66.546  1.00  0.00    -0.326 A  
HETATM   24  C   UNL     1     -10.334  17.626  66.114  1.00  0.00    -0.334 A  
ENDBRANCH  18  19
ENDBRANCH   8  18
BRANCH  13  25
HETATM   25  N   UNL     1      -8.866  11.750  65.466  1.00  0.00    -0.401 N  
HETATM   26  O   UNL     1      -7.904  11.378  67.514  1.00  0.00    -0.116 OA 
HETATM   27  C   UNL     1      -8.129  10.998  66.373  1.00  0.00    -0.166 C  
HETATM   28  H   UNL     1      -8.589  11.602  64.496  1.00  0.00     0.000 HD 
BRANCH  27  29
HETATM   29  C   UNL     1      -7.553   9.641  65.759  1.00  0.00    -0.103 C  
HETATM   30  C   UNL     1      -6.451   8.902  66.572  1.00  0.00    -0.063 C  
HETATM   31  N   UNL     1      -6.467   7.414  66.494  1.00  0.00    -0.051 NA 
HETATM   32  C   UNL     1      -6.056   6.827  65.222  1.00  0.00    -0.035 C  
HETATM   33  C   UNL     1      -7.729   6.840  67.021  1.00  0.00    -0.100 C  
HETATM   34  C   UNL     1      -7.537   6.587  68.561  1.00  0.00    -0.097 C  
HETATM   35  C   UNL     1      -7.948   7.771  69.348  1.00  0.00    -0.124 A  
HETATM   36  C   UNL     1      -7.510   8.388  70.505  1.00  0.00    -0.065 A  
HETATM   37  N   UNL     1      -8.296   9.485  70.719  1.00  0.00    -0.303 NA 
HETATM   38  H   UNL     1      -8.150  10.171  71.460  1.00  0.00     0.000 HD 
HETATM   39  C   UNL     1      -9.312   9.532  69.791  1.00  0.00    -0.211 A  
HETATM   40  C   UNL     1     -10.397  10.384  69.607  1.00  0.00    -0.261 A  
HETATM   41  C   UNL     1     -11.221  10.109  68.500  1.00  0.00    -0.226 A  
HETATM   42  C   UNL     1     -10.879   9.146  67.540  1.00  0.00    -0.151 A  
HETATM   43  C   UNL     1      -9.706   8.407  67.676  1.00  0.00    -0.201 A  
HETATM   44  C   UNL     1      -9.029   8.530  68.889  1.00  0.00    -0.146 A  
HETATM   45  C   UNL     1      -9.029   7.643  66.559  1.00  0.00    -0.187 C  
HETATM   46  C   UNL     1      -8.678   8.631  65.402  1.00  0.00    -0.208 C  
ENDBRANCH  27  29
ENDBRANCH  13  25
TORSDOF 4
ENDMDL
MODEL       18
REMARK 921   NORMALIZED FREE ENERGY PREDICTED BY IDOCK:   -7.42 KCAL/MOL
REMARK 922        TOTAL FREE ENERGY PREDICTED BY IDOCK:  -10.39 KCAL/MOL
REMARK 923 INTER-LIGAND FREE ENERGY PREDICTED BY IDOCK:  -10.30 KCAL/MOL
REMARK 924 INTRA-LIGAND FREE ENERGY PREDICTED BY IDOCK:   -0.09 KCAL/MOL
REMARK 927      BINDING AFFINITY PREDICTED BY RF-SCORE:    0.00 PKD
ROOT
HETATM    1  C   UNL     1     -10.479  16.007  68.247  1.00  0.00    -0.269 C  
HETATM    2  C   UNL     1     -10.074  17.393  68.751  1.00  0.00    -0.346 C  
HETATM    3  C   UNL     1     -10.207  18.274  67.475  1.00  0.00    -0.384 C  
HETATM    4  C   UNL     1     -10.393  17.304  66.303  1.00  0.00    -0.322 C  
HETATM    5  N   UNL     1     -10.130  15.990  66.855  1.00  0.00    -0.259 N  
HETATM    6  C   UNL     1     -10.503  14.893  66.103  1.00  0.00    -0.306 C  
HETATM    7  O   UNL     1     -10.214  14.780  64.914  1.00  0.00    -0.388 OA 
HETATM    8  C   UNL     1     -11.193  13.748  66.917  1.00  0.00    -0.313 C  
HETATM    9  O   UNL     1      -9.925  13.342  69.241  1.00  0.00     0.245 OA 
HETATM   10  N   UNL     1     -11.685  14.124  68.336  1.00  0.00    -0.325 N  
HETATM   11  C   UNL     1     -11.937  13.144  69.260  1.00  0.00    -0.292 C  
HETATM   12  H   UNL     1     -10.943  14.294  70.867  1.00  0.00     0.000 HD 
HETATM   13  C   UNL     1     -10.862  12.070  68.962  1.00  0.00    -0.177 C  
HETATM   14  O   UNL     1     -12.722  13.315  70.190  1.00  0.00    -0.095 OA 
HETATM   15  O   UNL     1     -10.872  15.109  70.383  1.00  0.00    -0.268 OA 
HETATM   16  C   UNL     1     -12.125  11.164  69.420  1.00  0.00    -0.396 C  
HETATM   17  C   UNL     1     -10.599  14.637  69.061  1.00  0.00    -0.247 C  
ENDROOT
BRANCH   8  18
HETATM   18  C   UNL     1     -12.261  13.010  66.095  1.00  0.00    -0.428 C  
BRANCH  18  19
HETATM   19  C   UNL     1     -11.580  11.977  65.248  1.00  0.00    -0.337 A  
HETATM   20  C   UNL     1      -9.803  10.350  65.117  1.00  0.00    -0.378 A  
HETATM   21  C   UNL     1      -9.745  10.536  63.739  1.00  0.00    -0.385 A  
HETATM   22  C   UNL     1     -11.572  12.107  63.857  1.00  0.00    -0.532 A  
HETATM   23  C   UNL     1     -10.649  11.391  63.106  1.00  0.00    -0.278 A  
HETATM   24  C   UNL     1     -10.740  11.044  65.869  1.00  0.00    -0.226 A  
ENDBRANCH  18  19
ENDBRANCH   8  18
BRANCH  13  25
HETATM   25  N   UNL     1      -9.974  10.920  68.710  1.00  0.00    -0.189 N  
HETATM   26  O   UNL     1      -9.681   9.757  70.665  1.00  0.00    -0.228 OA 
HETATM   27  C   UNL     1      -9.668   9.778  69.441  1.00  0.00    -0.202 C  
HETATM   28  H   UNL     1      -9.486  10.972  67.816  1.00  0.00     0.000 HD 
BRANCH  27  29
HETATM   29  C   UNL     1      -9.233   8.537  68.536  1.00  0.00    -0.135 C  
HETATM   30  C   UNL     1      -8.167   7.566  69.121  1.00  0.00    -0.131 C  
HETATM   31  N   UNL     1      -8.310   6.132  68.747  1.00  0.00    -0.111 NA 
HETATM   32  C   UNL     1      -8.001   5.789  67.361  1.00  0.00    -0.102 C  
HETATM   33  C   UNL     1      -9.596   5.558  69.215  1.00  0.00    -0.136 C  
HETATM   34  C   UNL     1      -9.366   4.981  70.661  1.00  0.00    -0.216 C  
HETATM   35  C   UNL     1      -9.645   6.005  71.691  1.00  0.00    -0.170 A  
HETATM   36  C   UNL     1      -9.112   6.337  72.922  1.00  0.00    -0.130 A  
HETATM   37  N   UNL     1      -9.794   7.423  73.396  1.00  0.00    -0.265 NA 
HETATM   38  H   UNL     1      -9.562   7.930  74.250  1.00  0.00     0.000 HD 
HETATM   39  C   UNL     1     -10.837   7.735  72.554  1.00  0.00    -0.328 A  
HETATM   40  C   UNL     1     -11.853   8.685  72.605  1.00  0.00    -0.235 A  
HETATM   41  C   UNL     1     -12.739   8.706  71.512  1.00  0.00    -0.351 A  
HETATM   42  C   UNL     1     -12.517   7.937  70.360  1.00  0.00     0.495 A  
HETATM   43  C   UNL     1     -11.406   7.100  70.280  1.00  0.00    -0.305 A  
HETATM   44  C   UNL     1     -10.675   6.921  71.454  1.00  0.00    -0.247 A  
HETATM   45  C   UNL     1     -10.840   6.533  68.997  1.00  0.00    -0.357 C  
HETATM   46  C   UNL     1     -10.452   7.708  68.045  1.00  0.00    -0.247 C  
ENDBRANCH  27  29
ENDBRANCH  13  25
TORSDOF 4
ENDMDL
MODEL       19
REMARK 921   NORMALIZED FREE ENERGY PREDICTED BY IDOCK:   -7.25 KCAL/MOL
REMARK 922        TOTAL FREE ENERGY PREDICTED BY IDOCK:  -10.19 KCAL/MOL
REMARK 923 INTER-LIGAND FREE ENERGY PREDICTED BY IDOCK:   -8.70 KCAL/MOL
REMARK 924 INTRA-LIGAND FREE ENERGY PREDICTED BY IDOCK:   -1.49 KCAL/MOL
REMARK 927      BINDING AFFINITY PREDICTED BY RF-SCORE:    0.00 PKD
ROOT
HETATM    1  C   UNL     1      -9.057   6.405  68.497  1.00  0.00    -0.126 C  
HETATM    2  C   UNL     1      -9.116   5.144  67.634  1.00  0.00    -0.117 C  
HETATM    3  C   UNL     1      -7.671   4.579  67.752  1.00  0.00    -0.081 C  
HETATM    4  C   UNL     1      -6.837   5.677  68.420  1.00  0.00    -0.063 C  
HETATM    5  N   UNL     1      -7.693   6.847  68.436  1.00  0.00    -0.114 N  
HETATM    6  C   UNL     1      -7.315   7.907  69.235  1.00  0.00    -0.082 C  
HETATM    7  O   UNL     1      -6.178   8.372  69.219  1.00  0.00    -0.037 OA 
HETATM    8  C   UNL     1      -8.482   8.557  70.052  1.00  0.00    -0.125 C  
HETATM    9  O   UNL     1     -10.673   8.810  68.533  1.00  0.00    -0.168 OA 
HETATM   10  N   UNL     1      -9.789   7.734  70.142  1.00  0.00    -0.184 N  
HETATM   11  C   UNL     1     -10.967   8.347  70.479  1.00  0.00    -0.242 C  
HETATM   12  H   UNL     1     -12.080   7.242  68.919  1.00  0.00     0.000 HD 
HETATM   13  C   UNL     1     -10.857   9.745  69.824  1.00  0.00    -0.257 C  
HETATM   14  O   UNL     1     -11.897   7.729  70.995  1.00  0.00    -0.289 OA 
HETATM   15  O   UNL     1     -11.387   6.624  68.716  1.00  0.00    -0.218 OA 
HETATM   16  C   UNL     1     -11.681  10.073  71.180  1.00  0.00    -0.472 C  
HETATM   17  C   UNL     1     -10.223   7.444  68.840  1.00  0.00    -0.196 C  
ENDROOT
BRANCH   8  18
HETATM   18  C   UNL     1      -8.014   9.082  71.418  1.00  0.00    -0.096 C  
BRANCH  18  19
HETATM   19  C   UNL     1      -8.160   7.983  72.427  1.00  0.00    -0.175 A  
HETATM   20  C   UNL     1      -7.897   5.626  72.871  1.00  0.00    -0.098 A  
HETATM   21  C   UNL     1      -8.930   5.694  73.802  1.00  0.00    -0.123 A  
HETATM   22  C   UNL     1      -9.144   8.066  73.415  1.00  0.00    -0.340 A  
HETATM   23  C   UNL     1      -9.532   6.919  74.095  1.00  0.00    -0.283 A  
HETATM   24  C   UNL     1      -7.489   6.773  72.206  1.00  0.00    -0.092 A  
ENDBRANCH  18  19
ENDBRANCH   8  18
BRANCH  13  25
HETATM   25  N   UNL     1     -10.831  11.144  69.357  1.00  0.00    -0.332 N  
HETATM   26  O   UNL     1     -12.275  11.370  67.589  1.00  0.00    -0.485 OA 
HETATM   27  C   UNL     1     -11.657  11.879  68.515  1.00  0.00    -0.318 C  
HETATM   28  H   UNL     1     -10.048  11.682  69.729  1.00  0.00     0.000 HD 
BRANCH  27  29
HETATM   29  C   UNL     1     -11.660  13.445  68.830  1.00  0.00    -0.356 C  
HETATM   30  C   UNL     1     -10.418  14.026  69.566  1.00  0.00     0.174 C  
HETATM   31  N   UNL     1     -10.028  15.416  69.197  1.00  0.00    -0.226 NA 
HETATM   32  C   UNL     1     -10.916  16.481  69.654  1.00  0.00    -0.287 C  
HETATM   33  C   UNL     1      -9.668  15.533  67.762  1.00  0.00    -0.211 C  
HETATM   34  C   UNL     1      -8.127  15.248  67.629  1.00  0.00    -0.173 C  
HETATM   35  C   UNL     1      -7.872  13.809  67.398  1.00  0.00    -0.167 A  
HETATM   36  C   UNL     1      -6.896  12.906  67.777  1.00  0.00    -0.138 A  
HETATM   37  N   UNL     1      -7.230  11.685  67.263  1.00  0.00    -0.127 NA 
HETATM   38  H   UNL     1      -6.729  10.817  67.449  1.00  0.00     0.000 HD 
HETATM   39  C   UNL     1      -8.342  11.795  66.458  1.00  0.00    -0.093 A  
HETATM   40  C   UNL     1      -9.037  10.890  65.663  1.00  0.00    -0.223 A  
HETATM   41  C   UNL     1     -10.167  11.393  64.991  1.00  0.00    -0.333 A  
HETATM   42  C   UNL     1     -10.667  12.680  65.238  1.00  0.00    -0.318 A  
HETATM   43  C   UNL     1     -10.029  13.515  66.154  1.00  0.00    -0.310 A  
HETATM   44  C   UNL     1      -8.790  13.086  66.630  1.00  0.00    -0.083 A  
HETATM   45  C   UNL     1     -10.655  14.733  66.796  1.00  0.00    -0.302 C  
HETATM   46  C   UNL     1     -11.943  14.302  67.566  1.00  0.00    -0.411 C  
ENDBRANCH  27  29
ENDBRANCH  13  25
TORSDOF 4
ENDMDL
MODEL       20
REMARK 921   NORMALIZED FREE ENERGY PREDICTED BY IDOCK:   -7.20 KCAL/MOL
REMARK 922        TOTAL FREE ENERGY PREDICTED BY IDOCK:  -10.12 KCAL/MOL
REMARK 923 INTER-LIGAND FREE ENERGY PREDICTED BY IDOCK:   -8.53 KCAL/MOL
REMARK 924 INTRA-LIGAND FREE ENERGY PREDICTED BY IDOCK:   -1.59 KCAL/MOL
REMARK 927      BINDING AFFINITY PREDICTED BY RF-SCORE:    0.00 PKD
ROOT
HETATM    1  C   UNL     1     -11.439  13.254  69.286  1.00  0.00    -0.288 C  
HETATM    2  C   UNL     1     -12.533  14.026  70.022  1.00  0.00    -0.339 C  
HETATM    3  C   UNL     1     -12.180  15.508  69.704  1.00  0.00    -0.297 C  
HETATM    4  C   UNL     1     -10.787  15.488  69.067  1.00  0.00    -0.249 C  
HETATM    5  N   UNL     1     -10.306  14.133  69.253  1.00  0.00    -0.085 N  
HETATM    6  C   UNL     1      -9.198  13.742  68.528  1.00  0.00    -0.138 C  
HETATM    7  O   UNL     1      -8.172  14.416  68.476  1.00  0.00    -0.142 OA 
HETATM    8  C   UNL     1      -9.300  12.312  67.900  1.00  0.00    -0.190 C  
HETATM    9  O   UNL     1     -10.367  10.586  69.649  1.00  0.00    -0.231 OA 
HETATM   10  N   UNL     1     -10.715  11.686  67.861  1.00  0.00    -0.193 N  
HETATM   11  C   UNL     1     -10.867  10.334  67.706  1.00  0.00    -0.292 C  
HETATM   12  H   UNL     1     -12.446  10.254  69.254  1.00  0.00     0.000 HD 
HETATM   13  C   UNL     1      -9.668   9.736  68.481  1.00  0.00    -0.154 C  
HETATM   14  O   UNL     1     -11.889   9.845  67.228  1.00  0.00     0.856 OA 
HETATM   15  O   UNL     1     -12.569  11.193  69.325  1.00  0.00    -0.336 OA 
HETATM   16  C   UNL     1      -9.829   8.691  67.254  1.00  0.00    -0.256 C  
HETATM   17  C   UNL     1     -11.232  11.673  69.166  1.00  0.00    -0.263 C  
ENDROOT
BRANCH   8  18
HETATM   18  C   UNL     1      -8.570  12.213  66.552  1.00  0.00    -0.070 C  
BRANCH  18  19
HETATM   19  C   UNL     1      -9.549  12.505  65.456  1.00  0.00    -0.056 A  
HETATM   20  C   UNL     1     -11.366  13.911  64.716  1.00  0.00    -0.365 A  
HETATM   21  C   UNL     1     -11.859  12.857  63.952  1.00  0.00    -0.541 A  
HETATM   22  C   UNL     1     -10.003  11.473  64.630  1.00  0.00    -0.305 A  
HETATM   23  C   UNL     1     -11.162  11.650  63.885  1.00  0.00    -0.479 A  
HETATM   24  C   UNL     1     -10.196  13.747  65.443  1.00  0.00    -0.344 A  
ENDBRANCH  18  19
ENDBRANCH   8  18
BRANCH  13  25
HETATM   25  N   UNL     1      -8.511   9.042  69.078  1.00  0.00    -0.130 N  
HETATM   26  O   UNL     1      -8.608   9.252  71.360  1.00  0.00    -0.326 OA 
HETATM   27  C   UNL     1      -8.207   8.646  70.376  1.00  0.00    -0.120 C  
HETATM   28  H   UNL     1      -7.786   8.805  68.401  1.00  0.00     0.000 HD 
BRANCH  27  29
HETATM   29  C   UNL     1      -7.237   7.379  70.445  1.00  0.00    -0.068 C  
HETATM   30  C   UNL     1      -6.799   6.894  71.858  1.00  0.00    -0.062 C  
HETATM   31  N   UNL     1      -6.607   5.425  72.016  1.00  0.00    -0.054 NA 
HETATM   32  C   UNL     1      -5.441   4.849  71.351  1.00  0.00    -0.004 C  
HETATM   33  C   UNL     1      -7.856   4.668  71.761  1.00  0.00    -0.098 C  
HETATM   34  C   UNL     1      -8.628   4.541  73.125  1.00  0.00    -0.101 C  
HETATM   35  C   UNL     1      -9.558   5.675  73.316  1.00  0.00    -0.150 A  
HETATM   36  C   UNL     1      -9.994   6.424  74.393  1.00  0.00    -0.343 A  
HETATM   37  N   UNL     1     -10.854   7.375  73.922  1.00  0.00    -0.547 NA 
HETATM   38  H   UNL     1     -11.269   8.117  74.486  1.00  0.00     0.000 HD 
HETATM   39  C   UNL     1     -11.081   7.189  72.577  1.00  0.00    -0.280 A  
HETATM   40  C   UNL     1     -11.905   7.823  71.652  1.00  0.00    -0.321 A  
HETATM   41  C   UNL     1     -11.837   7.346  70.330  1.00  0.00    -0.114 A  
HETATM   42  C   UNL     1     -10.878   6.405  69.928  1.00  0.00    -0.370 A  
HETATM   43  C   UNL     1      -9.968   5.894  70.851  1.00  0.00    -0.238 A  
HETATM   44  C   UNL     1     -10.200   6.204  72.191  1.00  0.00    -0.213 A  
HETATM   45  C   UNL     1      -8.672   5.200  70.496  1.00  0.00    -0.134 C  
HETATM   46  C   UNL     1      -7.789   6.168  69.646  1.00  0.00    -0.103 C  
ENDBRANCH  27  29
ENDBRANCH  13  25
TORSDOF 4
ENDMDL
MODEL       21
REMARK 921   NORMALIZED FREE ENERGY PREDICTED BY IDOCK:   -7.18 KCAL/MOL
REMARK 922        TOTAL FREE ENERGY PREDICTED BY IDOCK:  -10.09 KCAL/MOL
REMARK 923 INTER-LIGAND FREE ENERGY PREDICTED BY IDOCK:   -8.42 KCAL/MOL
REMARK 924 INTRA-LIGAND FREE ENERGY PREDICTED BY IDOCK:   -1.67 KCAL/MOL
REMARK 927      BINDING AFFINITY PREDICTED BY RF-SCORE:    0.00 PKD
ROOT
HETATM    1  C   UNL     1      -6.327   8.620  68.019  1.00  0.00    -0.056 C  
HETATM    2  C   UNL     1      -5.139   7.663  67.899  1.00  0.00    -0.030 C  
HETATM    3  C   UNL     1      -5.255   6.810  69.195  1.00  0.00    -0.013 C  
HETATM    4  C   UNL     1      -6.298   7.508  70.075  1.00  0.00    -0.031 C  
HETATM    5  N   UNL     1      -6.548   8.780  69.427  1.00  0.00    -0.044 N  
HETATM    6  C   UNL     1      -7.654   9.500  69.836  1.00  0.00    -0.123 C  
HETATM    7  O   UNL     1      -7.899   9.716  71.020  1.00  0.00    -0.310 OA 
HETATM    8  C   UNL     1      -8.484  10.136  68.671  1.00  0.00    -0.122 C  
HETATM    9  O   UNL     1      -6.863  11.207  66.828  1.00  0.00    -0.116 OA 
HETATM   10  N   UNL     1      -8.188   9.597  67.251  1.00  0.00    -0.114 N  
HETATM   11  C   UNL     1      -8.550  10.325  66.149  1.00  0.00    -0.139 C  
HETATM   12  H   UNL     1      -6.625   9.906  65.143  1.00  0.00     0.000 HD 
HETATM   13  C   UNL     1      -8.337  11.793  66.589  1.00  0.00    -0.136 C  
HETATM   14  O   UNL     1      -8.760   9.793  65.060  1.00  0.00    -0.150 OA 
HETATM   15  O   UNL     1      -6.334   9.237  65.751  1.00  0.00    -0.065 OA 
HETATM   16  C   UNL     1      -9.628  11.918  65.618  1.00  0.00    -0.221 C  
HETATM   17  C   UNL     1      -6.817   9.746  66.996  1.00  0.00    -0.083 C  
ENDROOT
BRANCH   8  18
HETATM   18  C   UNL     1      -9.987  10.185  68.987  1.00  0.00    -0.216 C  
BRANCH  18  19
HETATM   19  C   UNL     1     -10.388   8.878  69.600  1.00  0.00    -0.214 A  
HETATM   20  C   UNL     1     -11.020   6.585  69.193  1.00  0.00    -0.380 A  
HETATM   21  C   UNL     1     -11.767   6.590  70.367  1.00  0.00    -0.439 A  
HETATM   22  C   UNL     1     -11.076   8.858  70.816  1.00  0.00    -0.312 A  
HETATM   23  C   UNL     1     -11.770   7.716  71.194  1.00  0.00    -0.311 A  
HETATM   24  C   UNL     1     -10.306   7.715  68.824  1.00  0.00    -0.218 A  
ENDBRANCH  18  19
ENDBRANCH   8  18
BRANCH  13  25
HETATM   25  N   UNL     1      -8.293  13.231  66.916  1.00  0.00    -0.403 N  
HETATM   26  O   UNL     1      -7.884  13.477  69.159  1.00  0.00     0.083 OA 
HETATM   27  C   UNL     1      -7.850  13.940  68.027  1.00  0.00    -0.154 C  
HETATM   28  H   UNL     1      -8.664  13.826  66.175  1.00  0.00     0.000 HD 
BRANCH  27  29
HETATM   29  C   UNL     1      -7.367  15.423  67.686  1.00  0.00    -0.203 C  
HETATM   30  C   UNL     1      -7.692  15.971  66.266  1.00  0.00     0.189 C  
HETATM   31  N   UNL     1      -7.978  17.430  66.176  1.00  0.00    -0.465 NA 
HETATM   32  C   UNL     1      -6.840  18.326  66.366  1.00  0.00    -0.226 C  
HETATM   33  C   UNL     1      -9.164  17.818  66.978  1.00  0.00    -0.255 C  
HETATM   34  C   UNL     1     -10.431  17.687  66.055  1.00  0.00    -0.278 C  
HETATM   35  C   UNL     1     -11.021  16.334  66.153  1.00  0.00     0.006 A  
HETATM   36  C   UNL     1     -11.645  15.463  65.280  1.00  0.00    -0.068 A  
HETATM   37  N   UNL     1     -11.952  14.324  65.969  1.00  0.00    -0.398 NA 
HETATM   38  H   UNL     1     -12.349  13.480  65.555  1.00  0.00     0.000 HD 
HETATM   39  C   UNL     1     -11.647  14.478  67.303  1.00  0.00    -0.385 A  
HETATM   40  C   UNL     1     -11.819  13.667  68.420  1.00  0.00    -0.407 A  
HETATM   41  C   UNL     1     -11.344  14.182  69.641  1.00  0.00    -0.289 A  
HETATM   42  C   UNL     1     -10.591  15.363  69.706  1.00  0.00    -0.304 A  
HETATM   43  C   UNL     1     -10.310  16.080  68.545  1.00  0.00    -0.241 A  
HETATM   44  C   UNL     1     -10.980  15.680  67.389  1.00  0.00    -0.293 A  
HETATM   45  C   UNL     1      -9.217  17.116  68.410  1.00  0.00    -0.266 C  
HETATM   46  C   UNL     1      -7.842  16.456  68.745  1.00  0.00    -0.220 C  
ENDBRANCH  27  29
ENDBRANCH  13  25
TORSDOF 4
ENDMDL
MODEL       22
REMARK 921   NORMALIZED FREE ENERGY PREDICTED BY IDOCK:   -7.06 KCAL/MOL
REMARK 922        TOTAL FREE ENERGY PREDICTED BY IDOCK:   -9.95 KCAL/MOL
REMARK 923 INTER-LIGAND FREE ENERGY PREDICTED BY IDOCK:   -9.21 KCAL/MOL
REMARK 924 INTRA-LIGAND FREE ENERGY PREDICTED BY IDOCK:   -0.73 KCAL/MOL
REMARK 927      BINDING AFFINITY PREDICTED BY RF-SCORE:    0.00 PKD
ROOT
HETATM    1  C   UNL     1     -10.492  14.703  68.976  1.00  0.00    -0.246 C  
HETATM    2  C   UNL     1     -11.127  16.035  69.375  1.00  0.00    -0.331 C  
HETATM    3  C   UNL     1     -10.102  17.077  68.841  1.00  0.00    -0.307 C  
HETATM    4  C   UNL     1      -8.853  16.283  68.443  1.00  0.00    -0.202 C  
HETATM    5  N   UNL     1      -9.078  14.945  68.954  1.00  0.00    -0.194 N  
HETATM    6  C   UNL     1      -8.251  13.938  68.496  1.00  0.00    -0.131 C  
HETATM    7  O   UNL     1      -7.027  14.047  68.477  1.00  0.00    -0.088 OA 
HETATM    8  C   UNL     1      -8.985  12.602  68.141  1.00  0.00    -0.199 C  
HETATM    9  O   UNL     1     -10.823  12.011  69.997  1.00  0.00     0.307 OA 
HETATM   10  N   UNL     1     -10.524  12.688  68.003  1.00  0.00    -0.218 N  
HETATM   11  C   UNL     1     -11.288  11.554  68.084  1.00  0.00    -0.298 C  
HETATM   12  H   UNL     1     -12.791  12.562  69.355  1.00  0.00     0.000 HD 
HETATM   13  C   UNL     1     -10.552  10.687  69.134  1.00  0.00    -0.226 C  
HETATM   14  O   UNL     1     -12.395  11.476  67.554  1.00  0.00    -0.202 OA 
HETATM   15  O   UNL     1     -12.460  13.444  69.227  1.00  0.00    -0.139 OA 
HETATM   16  C   UNL     1     -11.127   9.565  68.116  1.00  0.00    -0.052 C  
HETATM   17  C   UNL     1     -11.049  13.220  69.190  1.00  0.00    -0.209 C  
ENDROOT
BRANCH   8  18
HETATM   18  C   UNL     1      -8.323  11.867  66.966  1.00  0.00    -0.178 C  
BRANCH  18  19
HETATM   19  C   UNL     1      -9.300  11.803  65.832  1.00  0.00    -0.214 A  
HETATM   20  C   UNL     1      -9.988  10.616  63.846  1.00  0.00    -0.390 A  
HETATM   21  C   UNL     1     -10.496  11.802  63.323  1.00  0.00    -0.439 A  
HETATM   22  C   UNL     1      -9.877  12.975  65.338  1.00  0.00    -0.127 A  
HETATM   23  C   UNL     1     -10.468  12.974  64.081  1.00  0.00    -0.395 A  
HETATM   24  C   UNL     1      -9.420  10.607  65.111  1.00  0.00    -0.276 A  
ENDBRANCH  18  19
ENDBRANCH   8  18
BRANCH  13  25
HETATM   25  N   UNL     1      -9.890   9.714  70.023  1.00  0.00    -0.232 N  
HETATM   26  O   UNL     1      -8.065   8.836  68.946  1.00  0.00    -0.110 OA 
HETATM   27  C   UNL     1      -8.647   9.090  69.991  1.00  0.00    -0.151 C  
HETATM   28  H   UNL     1     -10.459   9.444  70.824  1.00  0.00     0.000 HD 
BRANCH  27  29
HETATM   29  C   UNL     1      -8.101   8.682  71.436  1.00  0.00    -0.192 C  
HETATM   30  C   UNL     1      -9.116   8.707  72.615  1.00  0.00    -0.056 C  
HETATM   31  N   UNL     1      -8.916   7.678  73.673  1.00  0.00    -0.232 NA 
HETATM   32  C   UNL     1      -7.757   7.859  74.542  1.00  0.00    -0.211 C  
HETATM   33  C   UNL     1      -9.036   6.299  73.142  1.00  0.00    -0.129 C  
HETATM   34  C   UNL     1     -10.547   5.871  73.251  1.00  0.00    -0.277 C  
HETATM   35  C   UNL     1     -11.288   6.226  72.021  1.00  0.00    -0.348 A  
HETATM   36  C   UNL     1     -12.566   6.665  71.731  1.00  0.00    -0.274 A  
HETATM   37  N   UNL     1     -12.651   6.849  70.379  1.00  0.00    -0.534 NA 
HETATM   38  H   UNL     1     -13.457   7.243  69.894  1.00  0.00     0.000 HD 
HETATM   39  C   UNL     1     -11.492   6.428  69.768  1.00  0.00    -0.399 A  
HETATM   40  C   UNL     1     -11.094   6.338  68.437  1.00  0.00    -0.371 A  
HETATM   41  C   UNL     1      -9.788   5.866  68.210  1.00  0.00    -0.162 A  
HETATM   42  C   UNL     1      -8.879   5.660  69.259  1.00  0.00    -0.112 A  
HETATM   43  C   UNL     1      -9.264   5.900  70.576  1.00  0.00    -0.167 A  
HETATM   44  C   UNL     1     -10.620   6.142  70.795  1.00  0.00    -0.299 A  
HETATM   45  C   UNL     1      -8.311   6.098  71.734  1.00  0.00    -0.125 C  
HETATM   46  C   UNL     1      -7.375   7.309  71.426  1.00  0.00    -0.077 C  
ENDBRANCH  27  29
ENDBRANCH  13  25
TORSDOF 4
ENDMDL
MODEL       23
REMARK 921   NORMALIZED FREE ENERGY PREDICTED BY IDOCK:   -7.05 KCAL/MOL
REMARK 922        TOTAL FREE ENERGY PREDICTED BY IDOCK:   -9.93 KCAL/MOL
REMARK 923 INTER-LIGAND FREE ENERGY PREDICTED BY IDOCK:   -8.55 KCAL/MOL
REMARK 924 INTRA-LIGAND FREE ENERGY PREDICTED BY IDOCK:   -1.38 KCAL/MOL
REMARK 927      BINDING AFFINITY PREDICTED BY RF-SCORE:    0.00 PKD
ROOT
HETATM    1  C   UNL     1      -9.476  14.010  66.494  1.00  0.00    -0.279 C  
HETATM    2  C   UNL     1      -9.190  15.413  65.958  1.00  0.00    -0.333 C  
HETATM    3  C   UNL     1     -10.616  15.989  65.724  1.00  0.00    -0.366 C  
HETATM    4  C   UNL     1     -11.582  14.807  65.866  1.00  0.00    -0.286 C  
HETATM    5  N   UNL     1     -10.736  13.632  65.920  1.00  0.00    -0.278 N  
HETATM    6  C   UNL     1     -11.311  12.447  66.334  1.00  0.00    -0.342 C  
HETATM    7  O   UNL     1     -12.370  12.030  65.869  1.00  0.00    -0.463 OA 
HETATM    8  C   UNL     1     -10.441  11.613  67.333  1.00  0.00    -0.210 C  
HETATM    9  O   UNL     1      -7.876  11.595  66.563  1.00  0.00    -0.123 OA 
HETATM   10  N   UNL     1      -9.256  12.360  67.990  1.00  0.00    -0.198 N  
HETATM   11  C   UNL     1      -8.225  11.657  68.554  1.00  0.00    -0.144 C  
HETATM   12  H   UNL     1      -6.715  13.012  67.673  1.00  0.00     0.000 HD 
HETATM   13  C   UNL     1      -8.077  10.419  67.636  1.00  0.00    -0.107 C  
HETATM   14  O   UNL     1      -7.526  12.132  69.447  1.00  0.00     0.128 OA 
HETATM   15  O   UNL     1      -7.328  13.679  67.388  1.00  0.00    -0.171 OA 
HETATM   16  C   UNL     1      -7.711   9.805  69.090  1.00  0.00    -0.092 C  
HETATM   17  C   UNL     1      -8.444  12.888  66.975  1.00  0.00    -0.142 C  
ENDROOT
BRANCH   8  18
HETATM   18  C   UNL     1     -11.297  10.844  68.350  1.00  0.00    -0.370 C  
BRANCH  18  19
HETATM   19  C   UNL     1     -11.611  11.757  69.496  1.00  0.00    -0.398 A  
HETATM   20  C   UNL     1     -12.843  12.041  71.552  1.00  0.00    -0.403 A  
HETATM   21  C   UNL     1     -12.881  13.414  71.331  1.00  0.00    -0.420 A  
HETATM   22  C   UNL     1     -11.584  13.142  69.314  1.00  0.00    -0.370 A  
HETATM   23  C   UNL     1     -12.226  13.968  70.229  1.00  0.00    -0.430 A  
HETATM   24  C   UNL     1     -12.182  11.215  70.654  1.00  0.00    -0.492 A  
ENDBRANCH  18  19
ENDBRANCH   8  18
BRANCH  13  25
HETATM   25  N   UNL     1      -7.908   9.141  66.919  1.00  0.00    -0.098 N  
HETATM   26  O   UNL     1      -9.697   8.824  65.520  1.00  0.00    -0.089 OA 
HETATM   27  C   UNL     1      -8.533   8.584  65.809  1.00  0.00    -0.154 C  
HETATM   28  H   UNL     1      -7.185   8.544  67.320  1.00  0.00     0.000 HD 
BRANCH  27  29
HETATM   29  C   UNL     1      -7.610   7.559  65.004  1.00  0.00    -0.098 C  
HETATM   30  C   UNL     1      -6.306   7.074  65.703  1.00  0.00    -0.046 C  
HETATM   31  N   UNL     1      -5.887   5.675  65.408  1.00  0.00    -0.020 NA 
HETATM   32  C   UNL     1      -5.375   5.421  64.064  1.00  0.00    -0.013 C  
HETATM   33  C   UNL     1      -6.902   4.684  65.841  1.00  0.00    -0.058 C  
HETATM   34  C   UNL     1      -6.581   4.286  67.329  1.00  0.00    -0.046 C  
HETATM   35  C   UNL     1      -7.289   5.171  68.280  1.00  0.00    -0.071 A  
HETATM   36  C   UNL     1      -7.005   5.721  69.515  1.00  0.00    -0.063 A  
HETATM   37  N   UNL     1      -8.069   6.494  69.886  1.00  0.00    -0.119 NA 
HETATM   38  H   UNL     1      -8.101   7.081  70.719  1.00  0.00     0.000 HD 
HETATM   39  C   UNL     1      -9.091   6.368  68.972  1.00  0.00    -0.130 A  
HETATM   40  C   UNL     1     -10.385   6.876  68.912  1.00  0.00    -0.198 A  
HETATM   41  C   UNL     1     -11.137   6.528  67.774  1.00  0.00    -0.366 A  
HETATM   42  C   UNL     1     -10.567   5.854  66.684  1.00  0.00    -0.330 A  
HETATM   43  C   UNL     1      -9.223   5.485  66.714  1.00  0.00    -0.129 A  
HETATM   44  C   UNL     1      -8.564   5.632  67.934  1.00  0.00    -0.101 A  
HETATM   45  C   UNL     1      -8.399   5.121  65.499  1.00  0.00    -0.126 C  
HETATM   46  C   UNL     1      -8.401   6.322  64.500  1.00  0.00    -0.004 C  
ENDBRANCH  27  29
ENDBRANCH  13  25
TORSDOF 4
ENDMDL
MODEL       24
REMARK 921   NORMALIZED FREE ENERGY PREDICTED BY IDOCK:   -7.03 KCAL/MOL
REMARK 922        TOTAL FREE ENERGY PREDICTED BY IDOCK:   -9.92 KCAL/MOL
REMARK 923 INTER-LIGAND FREE ENERGY PREDICTED BY IDOCK:   -8.20 KCAL/MOL
REMARK 924 INTRA-LIGAND FREE ENERGY PREDICTED BY IDOCK:   -1.72 KCAL/MOL
REMARK 927      BINDING AFFINITY PREDICTED BY RF-SCORE:    0.00 PKD
ROOT
HETATM    1  C   UNL     1      -9.694   6.978  72.737  1.00  0.00    -0.153 C  
HETATM    2  C   UNL     1      -9.452   6.466  74.157  1.00  0.00    -0.215 C  
HETATM    3  C   UNL     1     -10.398   5.234  74.245  1.00  0.00    -0.308 C  
HETATM    4  C   UNL     1     -11.299   5.299  73.006  1.00  0.00    -0.309 C  
HETATM    5  N   UNL     1     -11.041   6.599  72.419  1.00  0.00    -0.249 N  
HETATM    6  C   UNL     1     -11.495   6.822  71.134  1.00  0.00    -0.314 C  
HETATM    7  O   UNL     1     -12.644   6.561  70.786  1.00  0.00    -0.162 OA 
HETATM    8  C   UNL     1     -10.478   7.562  70.202  1.00  0.00    -0.222 C  
HETATM    9  O   UNL     1      -9.286   9.572  71.511  1.00  0.00    -0.200 OA 
HETATM   10  N   UNL     1      -9.015   7.622  70.704  1.00  0.00    -0.152 N  
HETATM   11  C   UNL     1      -8.148   8.549  70.190  1.00  0.00    -0.111 C  
HETATM   12  H   UNL     1      -7.334   9.014  72.194  1.00  0.00     0.000 HD 
HETATM   13  C   UNL     1      -9.039   9.791  69.942  1.00  0.00    -0.229 C  
HETATM   14  O   UNL     1      -6.931   8.372  70.193  1.00  0.00    -0.042 OA 
HETATM   15  O   UNL     1      -7.743   8.284  72.644  1.00  0.00    -0.125 OA 
HETATM   16  C   UNL     1      -7.985   9.881  68.714  1.00  0.00    -0.093 C  
HETATM   17  C   UNL     1      -9.006   8.206  71.980  1.00  0.00    -0.176 C  
ENDROOT
BRANCH   8  18
HETATM   18  C   UNL     1     -10.587   7.104  68.740  1.00  0.00    -0.219 C  
BRANCH  18  19
HETATM   19  C   UNL     1      -9.704   5.908  68.548  1.00  0.00    -0.151 A  
HETATM   20  C   UNL     1      -8.293   4.685  67.020  1.00  0.00    -0.105 A  
HETATM   21  C   UNL     1      -8.594   3.506  67.697  1.00  0.00    -0.116 A  
HETATM   22  C   UNL     1      -9.945   4.737  69.272  1.00  0.00    -0.254 A  
HETATM   23  C   UNL     1      -9.395   3.537  68.841  1.00  0.00    -0.236 A  
HETATM   24  C   UNL     1      -8.820   5.889  67.462  1.00  0.00    -0.106 A  
ENDBRANCH  18  19
ENDBRANCH   8  18
BRANCH  13  25
HETATM   25  N   UNL     1      -9.790  10.996  69.545  1.00  0.00    -0.428 N  
HETATM   26  O   UNL     1     -11.642  10.365  68.348  1.00  0.00    -0.277 OA 
HETATM   27  C   UNL     1     -11.071  11.195  69.043  1.00  0.00    -0.242 C  
HETATM   28  H   UNL     1      -9.262  11.861  69.663  1.00  0.00     0.000 HD 
BRANCH  27  29
HETATM   29  C   UNL     1     -11.682  12.626  69.401  1.00  0.00    -0.387 C  
HETATM   30  C   UNL     1     -10.694  13.718  69.903  1.00  0.00     0.457 C  
HETATM   31  N   UNL     1     -11.010  15.119  69.509  1.00  0.00    -0.259 NA 
HETATM   32  C   UNL     1     -12.166  15.731  70.159  1.00  0.00    -0.314 C  
HETATM   33  C   UNL     1     -11.007  15.300  68.036  1.00  0.00    -0.299 C  
HETATM   34  C   UNL     1      -9.545  15.688  67.603  1.00  0.00    -0.220 C  
HETATM   35  C   UNL     1      -8.749  14.483  67.284  1.00  0.00    -0.225 A  
HETATM   36  C   UNL     1      -7.430  14.101  67.442  1.00  0.00    -0.134 A  
HETATM   37  N   UNL     1      -7.301  12.828  66.964  1.00  0.00    -0.374 NA 
HETATM   38  H   UNL     1      -6.452  12.265  67.024  1.00  0.00     0.000 HD 
HETATM   39  C   UNL     1      -8.481  12.413  66.389  1.00  0.00     0.150 A  
HETATM   40  C   UNL     1      -8.858  11.256  65.714  1.00  0.00    -0.154 A  
HETATM   41  C   UNL     1     -10.198  11.195  65.286  1.00  0.00    -0.337 A  
HETATM   42  C   UNL     1     -11.143  12.160  65.663  1.00  0.00    -0.360 A  
HETATM   43  C   UNL     1     -10.765  13.235  66.465  1.00  0.00    -0.290 A  
HETATM   44  C   UNL     1      -9.397  13.399  66.683  1.00  0.00    -0.248 A  
HETATM   45  C   UNL     1     -11.719  14.106  67.252  1.00  0.00    -0.421 C  
HETATM   46  C   UNL     1     -12.532  13.212  68.240  1.00  0.00     0.410 C  
ENDBRANCH  27  29
ENDBRANCH  13  25
TORSDOF 4
ENDMDL
MODEL       25
REMARK 921   NORMALIZED FREE ENERGY PREDICTED BY IDOCK:   -7.02 KCAL/MOL
REMARK 922        TOTAL FREE ENERGY PREDICTED BY IDOCK:   -9.89 KCAL/MOL
REMARK 923 INTER-LIGAND FREE ENERGY PREDICTED BY IDOCK:   -8.16 KCAL/MOL
REMARK 924 INTRA-LIGAND FREE ENERGY PREDICTED BY IDOCK:   -1.73 KCAL/MOL
REMARK 927      BINDING AFFINITY PREDICTED BY RF-SCORE:    0.00 PKD
ROOT
HETATM    1  C   UNL     1      -7.528   9.232  70.847  1.00  0.00    -0.102 C  
HETATM    2  C   UNL     1      -6.852   8.650  72.088  1.00  0.00    -0.069 C  
HETATM    3  C   UNL     1      -7.941   7.692  72.654  1.00  0.00    -0.132 C  
HETATM    4  C   UNL     1      -9.227   8.003  71.880  1.00  0.00    -0.167 C  
HETATM    5  N   UNL     1      -8.934   9.208  71.130  1.00  0.00    -0.219 N  
HETATM    6  C   UNL     1      -9.809   9.563  70.122  1.00  0.00    -0.244 C  
HETATM    7  O   UNL     1     -11.025   9.604  70.288  1.00  0.00    -0.245 OA 
HETATM    8  C   UNL     1      -9.121  10.043  68.800  1.00  0.00    -0.148 C  
HETATM    9  O   UNL     1      -7.060  11.665  69.343  1.00  0.00    -0.092 OA 
HETATM   10  N   UNL     1      -7.612   9.726  68.665  1.00  0.00    -0.078 N  
HETATM   11  C   UNL     1      -6.840  10.416  67.769  1.00  0.00    -0.074 C  
HETATM   12  H   UNL     1      -5.192  10.624  69.229  1.00  0.00     0.000 HD 
HETATM   13  C   UNL     1      -7.435  11.845  67.794  1.00  0.00    -0.121 C  
HETATM   14  O   UNL     1      -5.809   9.941  67.298  1.00  0.00    -0.050 OA 
HETATM   15  O   UNL     1      -5.539  10.011  69.866  1.00  0.00    -0.036 OA 
HETATM   16  C   UNL     1      -6.989  11.694  66.243  1.00  0.00     0.243 C  
HETATM   17  C   UNL     1      -6.943  10.264  69.775  1.00  0.00    -0.129 C  
ENDROOT
BRANCH   8  18
HETATM   18  C   UNL     1      -9.924   9.654  67.550  1.00  0.00    -0.231 C  
BRANCH  18  19
HETATM   19  C   UNL     1      -9.796   8.176  67.341  1.00  0.00    -0.242 A  
HETATM   20  C   UNL     1      -8.963   6.420  65.910  1.00  0.00    -0.111 A  
HETATM   21  C   UNL     1      -9.981   5.583  66.357  1.00  0.00    -0.203 A  
HETATM   22  C   UNL     1     -10.770   7.310  67.845  1.00  0.00    -0.239 A  
HETATM   23  C   UNL     1     -10.865   6.018  67.347  1.00  0.00    -0.394 A  
HETATM   24  C   UNL     1      -8.849   7.704  66.423  1.00  0.00    -0.179 A  
ENDBRANCH  18  19
ENDBRANCH   8  18
BRANCH  13  25
HETATM   25  N   UNL     1      -7.975  13.208  67.630  1.00  0.00    -0.160 N  
HETATM   26  O   UNL     1      -8.663  13.991  69.673  1.00  0.00     0.640 OA 
HETATM   27  C   UNL     1      -8.290  14.219  68.531  1.00  0.00    -0.156 C  
HETATM   28  H   UNL     1      -8.155  13.459  66.659  1.00  0.00     0.000 HD 
BRANCH  27  29
HETATM   29  C   UNL     1      -8.185  15.686  67.907  1.00  0.00    -0.155 C  
HETATM   30  C   UNL     1      -8.164  15.799  66.355  1.00  0.00    -0.171 C  
HETATM   31  N   UNL     1      -8.822  17.004  65.777  1.00  0.00    -0.493 NA 
HETATM   32  C   UNL     1      -8.134  18.277  65.975  1.00  0.00    -0.080 C  
HETATM   33  C   UNL     1     -10.267  17.065  66.110  1.00  0.00    -0.337 C  
HETATM   34  C   UNL     1     -11.052  16.304  64.979  1.00  0.00    -0.262 C  
HETATM   35  C   UNL     1     -11.211  14.872  65.316  1.00  0.00    -0.369 A  
HETATM   36  C   UNL     1     -11.218  13.687  64.606  1.00  0.00    -0.373 A  
HETATM   37  N   UNL     1     -11.385  12.664  65.497  1.00  0.00    -0.309 NA 
HETATM   38  H   UNL     1     -11.351  11.673  65.260  1.00  0.00     0.000 HD 
HETATM   39  C   UNL     1     -11.604  13.165  66.760  1.00  0.00    -0.366 A  
HETATM   40  C   UNL     1     -11.890  12.570  67.985  1.00  0.00    -0.382 A  
HETATM   41  C   UNL     1     -12.027  13.441  69.082  1.00  0.00    -0.363 A  
HETATM   42  C   UNL     1     -11.725  14.808  68.988  1.00  0.00    -0.343 A  
HETATM   43  C   UNL     1     -11.299  15.349  67.777  1.00  0.00    -0.308 A  
HETATM   44  C   UNL     1     -11.393  14.522  66.657  1.00  0.00    -0.359 A  
HETATM   45  C   UNL     1     -10.584  16.673  67.624  1.00  0.00    -0.321 C  
HETATM   46  C   UNL     1      -9.270  16.645  68.467  1.00  0.00    -0.234 C  
ENDBRANCH  27  29
ENDBRANCH  13  25
TORSDOF 4
ENDMDL
MODEL       26
REMARK 921   NORMALIZED FREE ENERGY PREDICTED BY IDOCK:   -6.96 KCAL/MOL
REMARK 922        TOTAL FREE ENERGY PREDICTED BY IDOCK:   -9.82 KCAL/MOL
REMARK 923 INTER-LIGAND FREE ENERGY PREDICTED BY IDOCK:   -7.51 KCAL/MOL
REMARK 924 INTRA-LIGAND FREE ENERGY PREDICTED BY IDOCK:   -2.32 KCAL/MOL
REMARK 927      BINDING AFFINITY PREDICTED BY RF-SCORE:    0.00 PKD
ROOT
HETATM    1  C   UNL     1      -8.833  13.157  68.327  1.00  0.00    -0.175 C  
HETATM    2  C   UNL     1      -9.128  14.486  69.024  1.00  0.00    -0.053 C  
HETATM    3  C   UNL     1      -8.255  15.494  68.222  1.00  0.00    -0.142 C  
HETATM    4  C   UNL     1      -7.332  14.650  67.337  1.00  0.00    -0.168 C  
HETATM    5  N   UNL     1      -7.505  13.288  67.801  1.00  0.00    -0.137 N  
HETATM    6  C   UNL     1      -7.018  12.272  67.002  1.00  0.00    -0.033 C  
HETATM    7  O   UNL     1      -5.880  12.286  66.539  1.00  0.00    -0.152 OA 
HETATM    8  C   UNL     1      -7.975  11.043  66.852  1.00  0.00    -0.143 C  
HETATM    9  O   UNL     1      -9.073  10.407  69.211  1.00  0.00    -0.187 OA 
HETATM   10  N   UNL     1      -9.440  11.264  67.299  1.00  0.00    -0.172 N  
HETATM   11  C   UNL     1     -10.245  10.191  67.578  1.00  0.00    -0.211 C  
HETATM   12  H   UNL     1     -11.065  11.176  69.381  1.00  0.00     0.000 HD 
HETATM   13  C   UNL     1      -9.281   9.164  68.219  1.00  0.00    -0.132 C  
HETATM   14  O   UNL     1     -11.469  10.258  67.491  1.00  0.00    -0.323 OA 
HETATM   15  O   UNL     1     -10.706  12.037  69.201  1.00  0.00    -0.178 OA 
HETATM   16  C   UNL     1     -10.306   8.204  67.411  1.00  0.00    -0.351 C  
HETATM   17  C   UNL     1      -9.438  11.708  68.629  1.00  0.00    -0.123 C  
ENDROOT
BRANCH   8  18
HETATM   18  C   UNL     1      -7.868  10.386  65.468  1.00  0.00    -0.152 C  
BRANCH  18  19
HETATM   19  C   UNL     1      -7.096   9.108  65.605  1.00  0.00    -0.082 A  
HETATM   20  C   UNL     1      -7.193   6.697  65.573  1.00  0.00    -0.070 A  
HETATM   21  C   UNL     1      -6.113   6.650  66.450  1.00  0.00    -0.033 A  
HETATM   22  C   UNL     1      -5.965   9.058  66.424  1.00  0.00    -0.059 A  
HETATM   23  C   UNL     1      -5.480   7.829  66.850  1.00  0.00    -0.031 A  
HETATM   24  C   UNL     1      -7.666   7.922  65.125  1.00  0.00    -0.103 A  
ENDBRANCH  18  19
ENDBRANCH   8  18
BRANCH  13  25
HETATM   25  N   UNL     1      -8.456   8.053  68.731  1.00  0.00    -0.127 N  
HETATM   26  O   UNL     1      -8.278   8.241  71.010  1.00  0.00    -0.096 OA 
HETATM   27  C   UNL     1      -8.234   7.544  70.005  1.00  0.00    -0.130 C  
HETATM   28  H   UNL     1      -7.944   7.559  68.001  1.00  0.00     0.000 HD 
BRANCH  27  29
HETATM   29  C   UNL     1      -7.850   5.994  70.015  1.00  0.00    -0.105 C  
HETATM   30  C   UNL     1      -7.417   5.375  71.376  1.00  0.00    -0.097 C  
HETATM   31  N   UNL     1      -7.802   3.954  71.602  1.00  0.00    -0.061 NA 
HETATM   32  C   UNL     1      -7.088   2.955  70.812  1.00  0.00    -0.033 C  
HETATM   33  C   UNL     1      -9.273   3.765  71.588  1.00  0.00    -0.121 C  
HETATM   34  C   UNL     1      -9.797   3.963  73.058  1.00  0.00    -0.183 C  
HETATM   35  C   UNL     1     -10.155   5.376  73.308  1.00  0.00    -0.198 A  
HETATM   36  C   UNL     1     -10.073   6.240  74.385  1.00  0.00    -0.340 A  
HETATM   37  N   UNL     1     -10.549   7.456  73.984  1.00  0.00    -0.536 NA 
HETATM   38  H   UNL     1     -10.536   8.303  74.553  1.00  0.00     0.000 HD 
HETATM   39  C   UNL     1     -11.048   7.375  72.704  1.00  0.00    -0.331 A  
HETATM   40  C   UNL     1     -11.690   8.286  71.871  1.00  0.00    -0.381 A  
HETATM   41  C   UNL     1     -12.036   7.819  70.589  1.00  0.00    -0.090 A  
HETATM   42  C   UNL     1     -11.610   6.571  70.113  1.00  0.00    -0.466 A  
HETATM   43  C   UNL     1     -10.840   5.738  70.923  1.00  0.00    -0.326 A  
HETATM   44  C   UNL     1     -10.707   6.117  72.258  1.00  0.00    -0.268 A  
HETATM   45  C   UNL     1     -10.005   4.579  70.426  1.00  0.00    -0.284 C  
HETATM   46  C   UNL     1      -8.962   5.106  69.391  1.00  0.00    -0.127 C  
ENDBRANCH  27  29
ENDBRANCH  13  25
TORSDOF 4
ENDMDL
MODEL       27
REMARK 921   NORMALIZED FREE ENERGY PREDICTED BY IDOCK:   -6.95 KCAL/MOL
REMARK 922        TOTAL FREE ENERGY PREDICTED BY IDOCK:   -9.81 KCAL/MOL
REMARK 923 INTER-LIGAND FREE ENERGY PREDICTED BY IDOCK:   -8.55 KCAL/MOL
REMARK 924 INTRA-LIGAND FREE ENERGY PREDICTED BY IDOCK:   -1.27 KCAL/MOL
REMARK 927      BINDING AFFINITY PREDICTED BY RF-SCORE:    0.00 PKD
ROOT
HETATM    1  C   UNL     1     -10.168  15.426  68.444  1.00  0.00    -0.221 C  
HETATM    2  C   UNL     1     -10.593  16.803  68.957  1.00  0.00    -0.343 C  
HETATM    3  C   UNL     1      -9.638  17.764  68.192  1.00  0.00    -0.303 C  
HETATM    4  C   UNL     1      -8.576  16.877  67.534  1.00  0.00    -0.203 C  
HETATM    5  N   UNL     1      -8.781  15.559  68.101  1.00  0.00    -0.163 N  
HETATM    6  C   UNL     1      -8.157  14.492  67.484  1.00  0.00    -0.189 C  
HETATM    7  O   UNL     1      -6.965  14.507  67.188  1.00  0.00    -0.190 OA 
HETATM    8  C   UNL     1      -9.052  13.218  67.322  1.00  0.00    -0.221 C  
HETATM    9  O   UNL     1     -10.464  12.765  69.552  1.00  0.00     0.264 OA 
HETATM   10  N   UNL     1     -10.572  13.423  67.532  1.00  0.00    -0.249 N  
HETATM   11  C   UNL     1     -11.382  12.351  67.799  1.00  0.00    -0.299 C  
HETATM   12  H   UNL     1     -12.479  13.469  69.361  1.00  0.00     0.000 HD 
HETATM   13  C   UNL     1     -10.496  11.427  68.668  1.00  0.00    -0.201 C  
HETATM   14  O   UNL     1     -12.582  12.362  67.532  1.00  0.00     0.157 OA 
HETATM   15  O   UNL     1     -12.119  14.322  69.149  1.00  0.00    -0.329 OA 
HETATM   16  C   UNL     1     -11.369  10.356  67.822  1.00  0.00    -0.205 C  
HETATM   17  C   UNL     1     -10.774  13.991  68.799  1.00  0.00    -0.259 C  
ENDROOT
BRANCH   8  18
HETATM   18  C   UNL     1      -8.729  12.438  66.038  1.00  0.00     0.298 C  
BRANCH  18  19
HETATM   19  C   UNL     1      -9.813  12.699  65.036  1.00  0.00    -0.090 A  
HETATM   20  C   UNL     1     -11.584  14.184  64.344  1.00  0.00    -0.377 A  
HETATM   21  C   UNL     1     -12.258  13.105  63.779  1.00  0.00    -0.528 A  
HETATM   22  C   UNL     1     -10.453  11.631  64.403  1.00  0.00    -0.374 A  
HETATM   23  C   UNL     1     -11.678  11.835  63.782  1.00  0.00    -0.499 A  
HETATM   24  C   UNL     1     -10.349  13.990  64.944  1.00  0.00    -0.434 A  
ENDBRANCH  18  19
ENDBRANCH   8  18
BRANCH  13  25
HETATM   25  N   UNL     1      -9.726  10.402  69.399  1.00  0.00    -0.295 N  
HETATM   26  O   UNL     1      -7.542  10.467  68.703  1.00  0.00    -0.087 OA 
HETATM   27  C   UNL     1      -8.365  10.171  69.559  1.00  0.00    -0.168 C  
HETATM   28  H   UNL     1     -10.313   9.726  69.888  1.00  0.00     0.000 HD 
BRANCH  27  29
HETATM   29  C   UNL     1      -7.999   9.425  70.922  1.00  0.00    -0.096 C  
HETATM   30  C   UNL     1      -9.163   8.733  71.690  1.00  0.00    -0.263 C  
HETATM   31  N   UNL     1      -8.814   7.483  72.421  1.00  0.00    -0.123 NA 
HETATM   32  C   UNL     1      -7.990   7.640  73.617  1.00  0.00    -0.146 C  
HETATM   33  C   UNL     1      -8.320   6.421  71.510  1.00  0.00    -0.125 C  
HETATM   34  C   UNL     1      -9.564   5.588  71.025  1.00  0.00    -0.217 C  
HETATM   35  C   UNL     1     -10.129   6.154  69.781  1.00  0.00    -0.229 A  
HETATM   36  C   UNL     1     -11.397   6.301  69.251  1.00  0.00    -0.341 A  
HETATM   37  N   UNL     1     -11.279   6.941  68.049  1.00  0.00    -0.545 NA 
HETATM   38  H   UNL     1     -12.062   7.249  67.473  1.00  0.00     0.000 HD 
HETATM   39  C   UNL     1      -9.951   7.110  67.729  1.00  0.00    -0.155 A  
HETATM   40  C   UNL     1      -9.297   7.631  66.616  1.00  0.00    -0.239 A  
HETATM   41  C   UNL     1      -7.891   7.653  66.676  1.00  0.00    -0.106 A  
HETATM   42  C   UNL     1      -7.192   7.333  67.849  1.00  0.00    -0.091 A  
HETATM   43  C   UNL     1      -7.885   6.954  68.996  1.00  0.00    -0.111 A  
HETATM   44  C   UNL     1      -9.252   6.716  68.848  1.00  0.00    -0.130 A  
HETATM   45  C   UNL     1      -7.313   6.962  70.396  1.00  0.00    -0.081 C  
HETATM   46  C   UNL     1      -6.838   8.408  70.746  1.00  0.00    -0.041 C  
ENDBRANCH  27  29
ENDBRANCH  13  25
TORSDOF 4
ENDMDL
MODEL       28
REMARK 921   NORMALIZED FREE ENERGY PREDICTED BY IDOCK:   -6.83 KCAL/MOL
REMARK 922        TOTAL FREE ENERGY PREDICTED BY IDOCK:   -9.67 KCAL/MOL
REMARK 923 INTER-LIGAND FREE ENERGY PREDICTED BY IDOCK:   -7.48 KCAL/MOL
REMARK 924 INTRA-LIGAND FREE ENERGY PREDICTED BY IDOCK:   -2.19 KCAL/MOL
REMARK 927      BINDING AFFINITY PREDICTED BY RF-SCORE:    0.00 PKD
ROOT
HETATM    1  C   UNL     1     -10.777  14.367  68.973  1.00  0.00    -0.250 C  
HETATM    2  C   UNL     1     -11.393  15.535  69.746  1.00  0.00    -0.325 C  
HETATM    3  C   UNL     1     -10.899  16.774  68.946  1.00  0.00    -0.301 C  
HETATM    4  C   UNL     1      -9.832  16.257  67.973  1.00  0.00    -0.236 C  
HETATM    5  N   UNL     1      -9.579  14.890  68.382  1.00  0.00    -0.203 N  
HETATM    6  C   UNL     1      -8.875  14.081  67.512  1.00  0.00    -0.199 C  
HETATM    7  O   UNL     1      -7.821  14.436  66.989  1.00  0.00    -0.135 OA 
HETATM    8  C   UNL     1      -9.449  12.634  67.358  1.00  0.00    -0.189 C  
HETATM    9  O   UNL     1     -10.164  11.641  69.741  1.00  0.00     0.416 OA 
HETATM   10  N   UNL     1     -10.884  12.411  67.893  1.00  0.00    -0.214 N  
HETATM   11  C   UNL     1     -11.329  11.144  68.165  1.00  0.00    -0.309 C  
HETATM   12  H   UNL     1     -12.277  11.799  70.054  1.00  0.00     0.000 HD 
HETATM   13  C   UNL     1     -10.072  10.419  68.705  1.00  0.00    -0.176 C  
HETATM   14  O   UNL     1     -12.525  10.858  68.148  1.00  0.00    -0.035 OA 
HETATM   15  O   UNL     1     -12.191  12.731  69.895  1.00  0.00    -0.262 OA 
HETATM   16  C   UNL     1     -10.832   9.229  67.910  1.00  0.00    -0.181 C  
HETATM   17  C   UNL     1     -10.922  12.798  69.240  1.00  0.00    -0.070 C  
ENDROOT
BRANCH   8  18
HETATM   18  C   UNL     1      -9.250  12.075  65.941  1.00  0.00    -0.106 C  
BRANCH  18  19
HETATM   19  C   UNL     1      -8.164  11.043  65.983  1.00  0.00    -0.129 A  
HETATM   20  C   UNL     1      -7.614   8.704  65.754  1.00  0.00    -0.089 A  
HETATM   21  C   UNL     1      -6.553   8.875  66.639  1.00  0.00    -0.064 A  
HETATM   22  C   UNL     1      -7.054  11.229  66.811  1.00  0.00    -0.143 A  
HETATM   23  C   UNL     1      -6.255  10.143  67.143  1.00  0.00    -0.062 A  
HETATM   24  C   UNL     1      -8.400   9.791  65.401  1.00  0.00    -0.143 A  
ENDBRANCH  18  19
ENDBRANCH   8  18
BRANCH  13  25
HETATM   25  N   UNL     1      -8.933   9.579  69.119  1.00  0.00    -0.141 N  
HETATM   26  O   UNL     1      -9.022   9.264  71.389  1.00  0.00    -0.311 OA 
HETATM   27  C   UNL     1      -8.638   8.889  70.290  1.00  0.00    -0.167 C  
HETATM   28  H   UNL     1      -8.216   9.485  68.401  1.00  0.00     0.000 HD 
BRANCH  27  29
HETATM   29  C   UNL     1      -7.700   7.617  70.061  1.00  0.00    -0.092 C  
HETATM   30  C   UNL     1      -7.019   6.999  71.317  1.00  0.00    -0.061 C  
HETATM   31  N   UNL     1      -6.834   5.521  71.302  1.00  0.00    -0.055 NA 
HETATM   32  C   UNL     1      -5.825   5.004  70.382  1.00  0.00    -0.017 C  
HETATM   33  C   UNL     1      -8.126   4.797  71.217  1.00  0.00    -0.101 C  
HETATM   34  C   UNL     1      -8.634   4.547  72.685  1.00  0.00    -0.114 C  
HETATM   35  C   UNL     1      -9.487   5.664  73.148  1.00  0.00    -0.149 A  
HETATM   36  C   UNL     1      -9.698   6.311  74.351  1.00  0.00    -0.278 A  
HETATM   37  N   UNL     1     -10.609   7.306  74.138  1.00  0.00    -0.547 NA 
HETATM   38  H   UNL     1     -10.895   7.994  74.835  1.00  0.00     0.000 HD 
HETATM   39  C   UNL     1     -11.086   7.248  72.848  1.00  0.00    -0.325 A  
HETATM   40  C   UNL     1     -12.052   7.970  72.154  1.00  0.00    -0.391 A  
HETATM   41  C   UNL     1     -12.242   7.618  70.805  1.00  0.00    -0.109 A  
HETATM   42  C   UNL     1     -11.395   6.714  70.147  1.00  0.00    -0.440 A  
HETATM   43  C   UNL     1     -10.341   6.114  70.834  1.00  0.00    -0.267 A  
HETATM   44  C   UNL     1     -10.313   6.299  72.216  1.00  0.00    -0.216 A  
HETATM   45  C   UNL     1      -9.150   5.450  70.181  1.00  0.00    -0.165 C  
HETATM   46  C   UNL     1      -8.418   6.488  69.272  1.00  0.00    -0.127 C  
ENDBRANCH  27  29
ENDBRANCH  13  25
TORSDOF 4
ENDMDL
MODEL       29
REMARK 921   NORMALIZED FREE ENERGY PREDICTED BY IDOCK:   -6.81 KCAL/MOL
REMARK 922        TOTAL FREE ENERGY PREDICTED BY IDOCK:   -9.65 KCAL/MOL
REMARK 923 INTER-LIGAND FREE ENERGY PREDICTED BY IDOCK:   -8.04 KCAL/MOL
REMARK 924 INTRA-LIGAND FREE ENERGY PREDICTED BY IDOCK:   -1.60 KCAL/MOL
REMARK 927      BINDING AFFINITY PREDICTED BY RF-SCORE:    0.00 PKD
ROOT
HETATM    1  C   UNL     1      -9.698   6.976  70.867  1.00  0.00    -0.174 C  
HETATM    2  C   UNL     1     -10.431   6.331  72.044  1.00  0.00    -0.239 C  
HETATM    3  C   UNL     1     -10.366   4.815  71.700  1.00  0.00    -0.215 C  
HETATM    4  C   UNL     1      -9.867   4.727  70.254  1.00  0.00    -0.242 C  
HETATM    5  N   UNL     1      -9.900   6.088  69.758  1.00  0.00    -0.160 N  
HETATM    6  C   UNL     1      -9.235   6.357  68.579  1.00  0.00    -0.124 C  
HETATM    7  O   UNL     1      -9.378   5.670  67.570  1.00  0.00    -0.110 OA 
HETATM    8  C   UNL     1      -8.400   7.681  68.587  1.00  0.00    -0.129 C  
HETATM    9  O   UNL     1      -9.772   9.656  69.767  1.00  0.00    -0.195 OA 
HETATM   10  N   UNL     1      -8.137   8.310  69.977  1.00  0.00    -0.113 N  
HETATM   11  C   UNL     1      -7.775   9.627  70.080  1.00  0.00    -0.157 C  
HETATM   12  H   UNL     1      -9.137   9.950  71.791  1.00  0.00     0.000 HD 
HETATM   13  C   UNL     1      -8.565  10.318  68.942  1.00  0.00    -0.150 C  
HETATM   14  O   UNL     1      -7.136  10.052  71.040  1.00  0.00    -0.325 OA 
HETATM   15  O   UNL     1      -9.331   9.033  71.944  1.00  0.00    -0.341 OA 
HETATM   16  C   UNL     1      -7.190  11.174  68.963  1.00  0.00    -0.118 C  
HETATM   17  C   UNL     1      -9.371   8.519  70.611  1.00  0.00    -0.174 C  
ENDROOT
BRANCH   8  18
HETATM   18  C   UNL     1      -7.128   7.573  67.733  1.00  0.00    -0.085 C  
BRANCH  18  19
HETATM   19  C   UNL     1      -7.348   8.321  66.453  1.00  0.00    -0.080 A  
HETATM   20  C   UNL     1      -8.712   8.545  64.474  1.00  0.00     0.016 A  
HETATM   21  C   UNL     1      -7.611   9.038  63.780  1.00  0.00    -0.115 A  
HETATM   22  C   UNL     1      -6.264   8.886  65.777  1.00  0.00    -0.052 A  
HETATM   23  C   UNL     1      -6.396   9.237  64.440  1.00  0.00    -0.077 A  
HETATM   24  C   UNL     1      -8.592   8.216  65.817  1.00  0.00    -0.175 A  
ENDBRANCH  18  19
ENDBRANCH   8  18
BRANCH  13  25
HETATM   25  N   UNL     1      -9.163  11.078  67.828  1.00  0.00    -0.152 N  
HETATM   26  O   UNL     1      -7.490  11.820  66.446  1.00  0.00     0.011 OA 
HETATM   27  C   UNL     1      -8.666  11.525  66.609  1.00  0.00    -0.182 C  
HETATM   28  H   UNL     1     -10.140  11.326  67.985  1.00  0.00     0.000 HD 
BRANCH  27  29
HETATM   29  C   UNL     1      -9.787  11.680  65.482  1.00  0.00    -0.264 C  
HETATM   30  C   UNL     1     -11.273  11.610  65.939  1.00  0.00    -0.238 C  
HETATM   31  N   UNL     1     -12.232  12.464  65.184  1.00  0.00    -0.521 NA 
HETATM   32  C   UNL     1     -12.533  12.048  63.817  1.00  0.00    -0.485 C  
HETATM   33  C   UNL     1     -11.902  13.906  65.294  1.00  0.00    -0.357 C  
HETATM   34  C   UNL     1     -12.652  14.476  66.554  1.00  0.00     0.129 C  
HETATM   35  C   UNL     1     -11.810  14.367  67.766  1.00  0.00    -0.402 A  
HETATM   36  C   UNL     1     -12.036  14.110  69.105  1.00  0.00    -0.325 A  
HETATM   37  N   UNL     1     -10.828  14.114  69.744  1.00  0.00    -0.459 NA 
HETATM   38  H   UNL     1     -10.687  13.876  70.726  1.00  0.00     0.000 HD 
HETATM   39  C   UNL     1      -9.830  14.485  68.872  1.00  0.00    -0.191 A  
HETATM   40  C   UNL     1      -8.464  14.705  69.023  1.00  0.00    -0.095 A  
HETATM   41  C   UNL     1      -7.759  15.059  67.858  1.00  0.00    -0.145 A  
HETATM   42  C   UNL     1      -8.356  15.026  66.589  1.00  0.00    -0.115 A  
HETATM   43  C   UNL     1      -9.693  14.659  66.453  1.00  0.00    -0.315 A  
HETATM   44  C   UNL     1     -10.428  14.538  67.632  1.00  0.00    -0.246 A  
HETATM   45  C   UNL     1     -10.341  14.210  65.163  1.00  0.00    -0.429 C  
HETATM   46  C   UNL     1      -9.585  12.956  64.620  1.00  0.00     0.272 C  
ENDBRANCH  27  29
ENDBRANCH  13  25
TORSDOF 4
ENDMDL
MODEL       30
REMARK 921   NORMALIZED FREE ENERGY PREDICTED BY IDOCK:   -6.81 KCAL/MOL
REMARK 922        TOTAL FREE ENERGY PREDICTED BY IDOCK:   -9.64 KCAL/MOL
REMARK 923 INTER-LIGAND FREE ENERGY PREDICTED BY IDOCK:   -7.75 KCAL/MOL
REMARK 924 INTRA-LIGAND FREE ENERGY PREDICTED BY IDOCK:   -1.89 KCAL/MOL
REMARK 927      BINDING AFFINITY PREDICTED BY RF-SCORE:    0.00 PKD
ROOT
HETATM    1  C   UNL     1      -7.552  11.993  68.841  1.00  0.00    -0.016 C  
HETATM    2  C   UNL     1      -6.729  13.282  68.840  1.00  0.00    -0.110 C  
HETATM    3  C   UNL     1      -7.684  14.299  68.152  1.00  0.00    -0.141 C  
HETATM    4  C   UNL     1      -8.837  13.474  67.567  1.00  0.00    -0.209 C  
HETATM    5  N   UNL     1      -8.419  12.093  67.702  1.00  0.00    -0.153 N  
HETATM    6  C   UNL     1      -9.377  11.114  67.524  1.00  0.00    -0.168 C  
HETATM    7  O   UNL     1     -10.136  11.102  66.558  1.00  0.00    -0.210 OA 
HETATM    8  C   UNL     1      -9.321   9.950  68.569  1.00  0.00    -0.143 C  
HETATM    9  O   UNL     1      -6.789   9.203  69.020  1.00  0.00    -0.054 OA 
HETATM   10  N   UNL     1      -8.474  10.214  69.837  1.00  0.00    -0.146 N  
HETATM   11  C   UNL     1      -8.041   9.167  70.607  1.00  0.00    -0.172 C  
HETATM   12  H   UNL     1      -6.030  10.060  70.830  1.00  0.00     0.000 HD 
HETATM   13  C   UNL     1      -7.751   8.047  69.578  1.00  0.00    -0.103 C  
HETATM   14  O   UNL     1      -7.780   9.303  71.801  1.00  0.00    -0.320 OA 
HETATM   15  O   UNL     1      -6.255  10.912  70.475  1.00  0.00    -0.229 OA 
HETATM   16  C   UNL     1      -8.294   7.203  70.851  1.00  0.00    -0.121 C  
HETATM   17  C   UNL     1      -7.174  10.560  69.439  1.00  0.00    -0.117 C  
ENDROOT
BRANCH   8  18
HETATM   18  C   UNL     1     -10.715   9.390  68.892  1.00  0.00    -0.203 C  
BRANCH  18  19
HETATM   19  C   UNL     1     -11.309  10.201  70.004  1.00  0.00    -0.351 A  
HETATM   20  C   UNL     1     -12.702  10.179  71.975  1.00  0.00    -0.421 A  
HETATM   21  C   UNL     1     -13.049  11.506  71.734  1.00  0.00    -0.503 A  
HETATM   22  C   UNL     1     -11.599  11.553  69.807  1.00  0.00    -0.401 A  
HETATM   23  C   UNL     1     -12.474  12.201  70.668  1.00  0.00    -0.330 A  
HETATM   24  C   UNL     1     -11.809   9.535  71.131  1.00  0.00    -0.436 A  
ENDBRANCH  18  19
ENDBRANCH   8  18
BRANCH  13  25
HETATM   25  N   UNL     1      -7.551   6.861  68.724  1.00  0.00    -0.103 N  
HETATM   26  O   UNL     1      -7.558   7.513  66.525  1.00  0.00    -0.086 OA 
HETATM   27  C   UNL     1      -7.231   6.702  67.381  1.00  0.00    -0.086 C  
HETATM   28  H   UNL     1      -7.672   5.979  69.221  1.00  0.00     0.000 HD 
BRANCH  27  29
HETATM   29  C   UNL     1      -6.466   5.336  67.065  1.00  0.00    -0.041 C  
HETATM   30  C   UNL     1      -6.206   4.372  68.259  1.00  0.00    -0.032 C  
HETATM   31  N   UNL     1      -6.245   2.916  67.946  1.00  0.00    -0.031 NA 
HETATM   32  C   UNL     1      -5.133   2.392  67.157  1.00  0.00    -0.005 C  
HETATM   33  C   UNL     1      -7.572   2.489  67.439  1.00  0.00    -0.061 C  
HETATM   34  C   UNL     1      -8.448   2.072  68.677  1.00  0.00    -0.086 C  
HETATM   35  C   UNL     1      -9.211   3.227  69.199  1.00  0.00    -0.225 A  
HETATM   36  C   UNL     1      -9.605   3.666  70.449  1.00  0.00    -0.184 A  
HETATM   37  N   UNL     1     -10.280   4.843  70.288  1.00  0.00    -0.252 NA 
HETATM   38  H   UNL     1     -10.619   5.431  71.050  1.00  0.00     0.000 HD 
HETATM   39  C   UNL     1     -10.437   5.123  68.949  1.00  0.00    -0.061 A  
HETATM   40  C   UNL     1     -11.090   6.138  68.256  1.00  0.00    -0.336 A  
HETATM   41  C   UNL     1     -11.001   6.089  66.853  1.00  0.00    -0.350 A  
HETATM   42  C   UNL     1     -10.166   5.176  66.192  1.00  0.00    -0.258 A  
HETATM   43  C   UNL     1      -9.409   4.263  66.924  1.00  0.00    -0.181 A  
HETATM   44  C   UNL     1      -9.686   4.176  68.288  1.00  0.00    -0.148 A  
HETATM   45  C   UNL     1      -8.208   3.512  66.393  1.00  0.00    -0.100 C  
HETATM   46  C   UNL     1      -7.134   4.538  65.911  1.00  0.00    -0.071 C  
ENDBRANCH  27  29
ENDBRANCH  13  25
TORSDOF 4
ENDMDL
MODEL       31
REMARK 921   NORMALIZED FREE ENERGY PREDICTED BY IDOCK:   -6.75 KCAL/MOL
REMARK 922        TOTAL FREE ENERGY PREDICTED BY IDOCK:   -9.56 KCAL/MOL
REMARK 923 INTER-LIGAND FREE ENERGY PREDICTED BY IDOCK:   -8.03 KCAL/MOL
REMARK 924 INTRA-LIGAND FREE ENERGY PREDICTED BY IDOCK:   -1.53 KCAL/MOL
REMARK 927      BINDING AFFINITY PREDICTED BY RF-SCORE:    0.00 PKD
ROOT
HETATM    1  C   UNL     1      -7.648  11.386  69.158  1.00  0.00    -0.038 C  
HETATM    2  C   UNL     1      -6.344  12.167  69.324  1.00  0.00    -0.103 C  
HETATM    3  C   UNL     1      -6.648  13.503  68.587  1.00  0.00    -0.098 C  
HETATM    4  C   UNL     1      -7.961  13.283  67.828  1.00  0.00    -0.166 C  
HETATM    5  N   UNL     1      -8.225  11.861  67.933  1.00  0.00    -0.141 N  
HETATM    6  C   UNL     1      -9.487  11.417  67.591  1.00  0.00    -0.162 C  
HETATM    7  O   UNL     1     -10.041  11.746  66.545  1.00  0.00    -0.198 OA 
HETATM    8  C   UNL     1     -10.092  10.356  68.570  1.00  0.00    -0.171 C  
HETATM    9  O   UNL     1      -8.241   8.551  69.269  1.00  0.00    -0.111 OA 
HETATM   10  N   UNL     1      -9.387  10.213  69.940  1.00  0.00    -0.163 N  
HETATM   11  C   UNL     1      -9.570   9.086  70.695  1.00  0.00    -0.237 C  
HETATM   12  H   UNL     1      -7.419   8.979  71.200  1.00  0.00     0.000 HD 
HETATM   13  C   UNL     1      -9.680   7.952  69.647  1.00  0.00    -0.173 C  
HETATM   14  O   UNL     1      -9.432   9.093  71.917  1.00  0.00    -0.332 OA 
HETATM   15  O   UNL     1      -7.192   9.841  70.869  1.00  0.00    -0.310 OA 
HETATM   16  C   UNL     1     -10.701   7.445  70.798  1.00  0.00    -0.245 C  
HETATM   17  C   UNL     1      -8.030   9.937  69.715  1.00  0.00    -0.174 C  
ENDROOT
BRANCH   8  18
HETATM   18  C   UNL     1     -11.618  10.483  68.697  1.00  0.00    -0.241 C  
BRANCH  18  19
HETATM   19  C   UNL     1     -11.928  11.303  69.912  1.00  0.00    -0.440 A  
HETATM   20  C   UNL     1     -13.227  11.465  71.940  1.00  0.00    -0.485 A  
HETATM   21  C   UNL     1     -13.180  12.853  71.850  1.00  0.00    -0.521 A  
HETATM   22  C   UNL     1     -11.818  12.694  69.865  1.00  0.00    -0.364 A  
HETATM   23  C   UNL     1     -12.450  13.467  70.830  1.00  0.00    -0.448 A  
HETATM   24  C   UNL     1     -12.576  10.689  70.992  1.00  0.00    -0.516 A  
ENDBRANCH  18  19
ENDBRANCH   8  18
BRANCH  13  25
HETATM   25  N   UNL     1      -9.922   6.801  68.757  1.00  0.00    -0.143 N  
HETATM   26  O   UNL     1      -9.977   7.532  66.584  1.00  0.00    -0.225 OA 
HETATM   27  C   UNL     1      -9.807   6.622  67.383  1.00  0.00    -0.131 C  
HETATM   28  H   UNL     1     -10.238   5.966  69.250  1.00  0.00     0.000 HD 
BRANCH  27  29
HETATM   29  C   UNL     1      -9.506   5.112  66.960  1.00  0.00    -0.143 C  
HETATM   30  C   UNL     1      -9.907   4.682  65.518  1.00  0.00    -0.184 C  
HETATM   31  N   UNL     1      -9.020   3.681  64.863  1.00  0.00    -0.121 NA 
HETATM   32  C   UNL     1      -9.081   2.319  65.388  1.00  0.00    -0.106 C  
HETATM   33  C   UNL     1      -7.633   4.181  64.702  1.00  0.00    -0.077 C  
HETATM   34  C   UNL     1      -7.545   4.915  63.314  1.00  0.00    -0.061 C  
HETATM   35  C   UNL     1      -7.865   6.353  63.452  1.00  0.00    -0.107 A  
HETATM   36  C   UNL     1      -8.511   7.299  62.679  1.00  0.00     0.157 A  
HETATM   37  N   UNL     1      -8.514   8.477  63.372  1.00  0.00    -0.395 NA 
HETATM   38  H   UNL     1      -8.991   9.328  63.074  1.00  0.00     0.000 HD 
HETATM   39  C   UNL     1      -7.781   8.350  64.531  1.00  0.00    -0.121 A  
HETATM   40  C   UNL     1      -7.422   9.243  65.535  1.00  0.00    -0.090 A  
HETATM   41  C   UNL     1      -6.664   8.714  66.596  1.00  0.00    -0.068 A  
HETATM   42  C   UNL     1      -6.429   7.337  66.726  1.00  0.00    -0.052 A  
HETATM   43  C   UNL     1      -6.928   6.448  65.777  1.00  0.00    -0.061 A  
HETATM   44  C   UNL     1      -7.472   7.011  64.622  1.00  0.00    -0.098 A  
HETATM   45  C   UNL     1      -7.089   4.959  65.986  1.00  0.00    -0.071 C  
HETATM   46  C   UNL     1      -8.026   4.712  67.210  1.00  0.00    -0.101 C  
ENDBRANCH  27  29
ENDBRANCH  13  25
TORSDOF 4
ENDMDL
MODEL       32
REMARK 921   NORMALIZED FREE ENERGY PREDICTED BY IDOCK:   -6.75 KCAL/MOL
REMARK 922        TOTAL FREE ENERGY PREDICTED BY IDOCK:   -9.56 KCAL/MOL
REMARK 923 INTER-LIGAND FREE ENERGY PREDICTED BY IDOCK:   -9.32 KCAL/MOL
REMARK 924 INTRA-LIGAND FREE ENERGY PREDICTED BY IDOCK:   -0.24 KCAL/MOL
REMARK 927      BINDING AFFINITY PREDICTED BY RF-SCORE:    0.00 PKD
ROOT
HETATM    1  C   UNL     1      -6.962   7.956  72.538  1.00  0.00    -0.080 C  
HETATM    2  C   UNL     1      -6.107   7.482  73.714  1.00  0.00    -0.064 C  
HETATM    3  C   UNL     1      -7.096   6.592  74.521  1.00  0.00    -0.092 C  
HETATM    4  C   UNL     1      -8.484   6.845  73.922  1.00  0.00    -0.139 C  
HETATM    5  N   UNL     1      -8.310   7.973  73.028  1.00  0.00    -0.168 N  
HETATM    6  C   UNL     1      -9.326   8.242  72.132  1.00  0.00    -0.234 C  
HETATM    7  O   UNL     1     -10.505   8.312  72.473  1.00  0.00    -0.311 OA 
HETATM    8  C   UNL     1      -8.844   8.591  70.685  1.00  0.00    -0.155 C  
HETATM    9  O   UNL     1      -6.730  10.235  70.763  1.00  0.00    -0.322 OA 
HETATM   10  N   UNL     1      -7.371   8.247  70.357  1.00  0.00    -0.054 N  
HETATM   11  C   UNL     1      -6.743   8.844  69.296  1.00  0.00    -0.050 C  
HETATM   12  H   UNL     1      -4.897   9.167  70.470  1.00  0.00     0.000 HD 
HETATM   13  C   UNL     1      -7.332  10.275  69.277  1.00  0.00    -0.099 C  
HETATM   14  O   UNL     1      -5.792   8.315  68.723  1.00  0.00    -0.041 OA 
HETATM   15  O   UNL     1      -5.144   8.619  71.205  1.00  0.00    -0.028 OA 
HETATM   16  C   UNL     1      -7.121   9.977  67.698  1.00  0.00    -0.087 C  
HETATM   17  C   UNL     1      -6.546   8.877  71.300  1.00  0.00    -0.080 C  
ENDROOT
BRANCH   8  18
HETATM   18  C   UNL     1      -9.823   8.098  69.609  1.00  0.00    -0.184 C  
BRANCH  18  19
HETATM   19  C   UNL     1      -9.494   6.673  69.282  1.00  0.00    -0.141 A  
HETATM   20  C   UNL     1      -9.500   4.954  67.588  1.00  0.00    -0.166 A  
HETATM   21  C   UNL     1      -9.623   3.987  68.581  1.00  0.00    -0.190 A  
HETATM   22  C   UNL     1      -9.541   5.697  70.281  1.00  0.00    -0.216 A  
HETATM   23  C   UNL     1      -9.613   4.356  69.927  1.00  0.00    -0.275 A  
HETATM   24  C   UNL     1      -9.403   6.293  67.937  1.00  0.00    -0.114 A  
ENDBRANCH  18  19
ENDBRANCH   8  18
BRANCH  13  25
HETATM   25  N   UNL     1      -7.895  11.623  69.070  1.00  0.00    -0.330 N  
HETATM   26  O   UNL     1      -7.961  12.070  66.821  1.00  0.00    -0.145 OA 
HETATM   27  C   UNL     1      -8.381  12.287  67.950  1.00  0.00    -0.163 C  
HETATM   28  H   UNL     1      -7.936  12.180  69.922  1.00  0.00     0.000 HD 
BRANCH  27  29
HETATM   29  C   UNL     1      -9.476  13.398  68.292  1.00  0.00    -0.209 C  
HETATM   30  C   UNL     1      -9.820  14.427  67.176  1.00  0.00    -0.254 C  
HETATM   31  N   UNL     1     -11.232  14.900  67.133  1.00  0.00    -0.336 NA 
HETATM   32  C   UNL     1     -11.651  15.788  68.214  1.00  0.00    -0.298 C  
HETATM   33  C   UNL     1     -12.186  13.791  66.888  1.00  0.00    -0.366 C  
HETATM   34  C   UNL     1     -12.367  13.648  65.331  1.00  0.00    -0.510 C  
HETATM   35  C   UNL     1     -11.383  12.698  64.768  1.00  0.00    -0.350 A  
HETATM   36  C   UNL     1     -10.660  12.605  63.594  1.00  0.00    -0.342 A  
HETATM   37  N   UNL     1      -9.877  11.487  63.669  1.00  0.00    -0.331 NA 
HETATM   38  H   UNL     1      -9.183  11.213  62.974  1.00  0.00     0.000 HD 
HETATM   39  C   UNL     1     -10.160  10.784  64.818  1.00  0.00    -0.331 A  
HETATM   40  C   UNL     1      -9.706   9.573  65.332  1.00  0.00    -0.314 A  
HETATM   41  C   UNL     1     -10.230   9.193  66.581  1.00  0.00    -0.328 A  
HETATM   42  C   UNL     1     -11.028  10.055  67.346  1.00  0.00    -0.258 A  
HETATM   43  C   UNL     1     -11.347  11.324  66.867  1.00  0.00    -0.231 A  
HETATM   44  C   UNL     1     -11.014  11.590  65.539  1.00  0.00    -0.290 A  
HETATM   45  C   UNL     1     -11.847  12.470  67.717  1.00  0.00    -0.375 C  
HETATM   46  C   UNL     1     -10.796  12.780  68.830  1.00  0.00    -0.270 C  
ENDBRANCH  27  29
ENDBRANCH  13  25
TORSDOF 4
ENDMDL
MODEL       33
REMARK 921   NORMALIZED FREE ENERGY PREDICTED BY IDOCK:   -6.73 KCAL/MOL
REMARK 922        TOTAL FREE ENERGY PREDICTED BY IDOCK:   -9.54 KCAL/MOL
REMARK 923 INTER-LIGAND FREE ENERGY PREDICTED BY IDOCK:   -8.59 KCAL/MOL
REMARK 924 INTRA-LIGAND FREE ENERGY PREDICTED BY IDOCK:   -0.95 KCAL/MOL
REMARK 927      BINDING AFFINITY PREDICTED BY RF-SCORE:    0.00 PKD
ROOT
HETATM    1  C   UNL     1      -8.925   7.238  67.353  1.00  0.00    -0.122 C  
HETATM    2  C   UNL     1      -9.076   6.193  66.246  1.00  0.00    -0.165 C  
HETATM    3  C   UNL     1      -8.279   4.981  66.808  1.00  0.00    -0.107 C  
HETATM    4  C   UNL     1      -7.512   5.503  68.028  1.00  0.00    -0.074 C  
HETATM    5  N   UNL     1      -7.674   6.943  67.989  1.00  0.00    -0.110 N  
HETATM    6  C   UNL     1      -7.334   7.657  69.121  1.00  0.00    -0.089 C  
HETATM    7  O   UNL     1      -6.266   7.494  69.707  1.00  0.00    -0.030 OA 
HETATM    8  C   UNL     1      -8.348   8.783  69.511  1.00  0.00    -0.119 C  
HETATM    9  O   UNL     1      -9.150  10.127  67.337  1.00  0.00    -0.137 OA 
HETATM   10  N   UNL     1      -9.733   8.720  68.823  1.00  0.00    -0.162 N  
HETATM   11  C   UNL     1     -10.534   9.830  68.781  1.00  0.00    -0.218 C  
HETATM   12  H   UNL     1     -11.072   9.460  66.669  1.00  0.00     0.000 HD 
HETATM   13  C   UNL     1      -9.533  11.001  68.627  1.00  0.00    -0.195 C  
HETATM   14  O   UNL     1     -11.756   9.746  68.676  1.00  0.00     0.205 OA 
HETATM   15  O   UNL     1     -10.708   8.583  66.621  1.00  0.00    -0.191 OA 
HETATM   16  C   UNL     1     -10.691  11.667  69.544  1.00  0.00    -0.002 C  
HETATM   17  C   UNL     1      -9.539   8.711  67.433  1.00  0.00    -0.159 C  
ENDROOT
BRANCH   8  18
HETATM   18  C   UNL     1      -8.448   8.977  71.032  1.00  0.00    -0.254 C  
BRANCH  18  19
HETATM   19  C   UNL     1      -9.523   8.075  71.557  1.00  0.00    -0.204 A  
HETATM   20  C   UNL     1     -10.601   5.924  71.370  1.00  0.00    -0.309 A  
HETATM   21  C   UNL     1     -11.786   6.485  71.839  1.00  0.00    -0.371 A  
HETATM   22  C   UNL     1     -10.690   8.619  72.099  1.00  0.00    -0.417 A  
HETATM   23  C   UNL     1     -11.821   7.824  72.232  1.00  0.00    -0.378 A  
HETATM   24  C   UNL     1      -9.462   6.708  71.258  1.00  0.00    -0.166 A  
ENDBRANCH  18  19
ENDBRANCH   8  18
BRANCH  13  25
HETATM   25  N   UNL     1      -8.690  12.211  68.600  1.00  0.00    -0.359 N  
HETATM   26  O   UNL     1      -8.807  13.159  66.515  1.00  0.00    -0.124 OA 
HETATM   27  C   UNL     1      -8.585  13.276  67.713  1.00  0.00    -0.184 C  
HETATM   28  H   UNL     1      -8.056  12.281  69.395  1.00  0.00     0.000 HD 
BRANCH  27  29
HETATM   29  C   UNL     1      -8.083  14.630  68.396  1.00  0.00    -0.147 C  
HETATM   30  C   UNL     1      -7.719  15.812  67.452  1.00  0.00    -0.183 C  
HETATM   31  N   UNL     1      -8.010  17.178  67.971  1.00  0.00    -0.205 NA 
HETATM   32  C   UNL     1      -7.155  17.655  69.055  1.00  0.00    -0.227 C  
HETATM   33  C   UNL     1      -9.455  17.379  68.238  1.00  0.00    -0.290 C  
HETATM   34  C   UNL     1     -10.115  17.926  66.919  1.00  0.00    -0.348 C  
HETATM   35  C   UNL     1     -10.602  16.816  66.070  1.00  0.00    -0.232 A  
HETATM   36  C   UNL     1     -10.681  16.573  64.712  1.00  0.00    -0.024 A  
HETATM   37  N   UNL     1     -11.215  15.328  64.538  1.00  0.00    -0.667 NA 
HETATM   38  H   UNL     1     -11.316  14.857  63.639  1.00  0.00     0.000 HD 
HETATM   39  C   UNL     1     -11.595  14.799  65.751  1.00  0.00    -0.290 A  
HETATM   40  C   UNL     1     -12.234  13.619  66.118  1.00  0.00    -0.490 A  
HETATM   41  C   UNL     1     -12.433  13.423  67.498  1.00  0.00     0.164 A  
HETATM   42  C   UNL     1     -11.871  14.278  68.458  1.00  0.00    -0.382 A  
HETATM   43  C   UNL     1     -11.110  15.375  68.059  1.00  0.00    -0.312 A  
HETATM   44  C   UNL     1     -11.120  15.679  66.698  1.00  0.00    -0.147 A  
HETATM   45  C   UNL     1     -10.147  16.129  68.948  1.00  0.00    -0.238 C  
HETATM   46  C   UNL     1      -9.065  15.140  69.486  1.00  0.00    -0.131 C  
ENDBRANCH  27  29
ENDBRANCH  13  25
TORSDOF 4
ENDMDL
MODEL       34
REMARK 921   NORMALIZED FREE ENERGY PREDICTED BY IDOCK:   -6.73 KCAL/MOL
REMARK 922        TOTAL FREE ENERGY PREDICTED BY IDOCK:   -9.54 KCAL/MOL
REMARK 923 INTER-LIGAND FREE ENERGY PREDICTED BY IDOCK:   -8.07 KCAL/MOL
REMARK 924 INTRA-LIGAND FREE ENERGY PREDICTED BY IDOCK:   -1.47 KCAL/MOL
REMARK 927      BINDING AFFINITY PREDICTED BY RF-SCORE:    0.00 PKD
ROOT
HETATM    1  C   UNL     1      -9.605  14.151  66.604  1.00  0.00    -0.289 C  
HETATM    2  C   UNL     1      -9.634  15.414  65.741  1.00  0.00    -0.368 C  
HETATM    3  C   UNL     1     -11.157  15.700  65.604  1.00  0.00    -0.195 C  
HETATM    4  C   UNL     1     -11.875  14.457  66.141  1.00  0.00    -0.382 C  
HETATM    5  N   UNL     1     -10.833  13.466  66.321  1.00  0.00    -0.287 N  
HETATM    6  C   UNL     1     -11.139  12.343  67.064  1.00  0.00    -0.278 C  
HETATM    7  O   UNL     1     -12.152  11.676  66.863  1.00  0.00    -0.512 OA 
HETATM    8  C   UNL     1     -10.028  11.908  68.077  1.00  0.00    -0.190 C  
HETATM    9  O   UNL     1      -7.603  12.085  66.955  1.00  0.00    -0.149 OA 
HETATM   10  N   UNL     1      -8.929  12.957  68.372  1.00  0.00    -0.165 N  
HETATM   11  C   UNL     1      -7.733  12.567  68.914  1.00  0.00     0.085 C  
HETATM   12  H   UNL     1      -6.596  13.881  67.546  1.00  0.00     0.000 HD 
HETATM   13  C   UNL     1      -7.471  11.182  68.274  1.00  0.00    -0.094 C  
HETATM   14  O   UNL     1      -7.034  13.339  69.569  1.00  0.00     0.005 OA 
HETATM   15  O   UNL     1      -7.346  14.363  67.217  1.00  0.00    -0.176 OA 
HETATM   16  C   UNL     1      -6.842  10.993  69.756  1.00  0.00    -0.116 C  
HETATM   17  C   UNL     1      -8.343  13.341  67.157  1.00  0.00    -0.135 C  
ENDROOT
BRANCH   8  18
HETATM   18  C   UNL     1     -10.615  11.287  69.354  1.00  0.00    -0.142 C  
BRANCH  18  19
HETATM   19  C   UNL     1     -11.604  12.248  69.941  1.00  0.00    -0.278 A  
HETATM   20  C   UNL     1     -12.044  14.537  70.564  1.00  0.00    -0.395 A  
HETATM   21  C   UNL     1     -12.912  14.092  71.557  1.00  0.00    -0.417 A  
HETATM   22  C   UNL     1     -12.532  11.806  70.887  1.00  0.00    -0.416 A  
HETATM   23  C   UNL     1     -13.179  12.729  71.698  1.00  0.00    -0.410 A  
HETATM   24  C   UNL     1     -11.414  13.620  69.735  1.00  0.00    -0.256 A  
ENDBRANCH  18  19
ENDBRANCH   8  18
BRANCH  13  25
HETATM   25  N   UNL     1      -7.159   9.809  67.835  1.00  0.00    -0.082 N  
HETATM   26  O   UNL     1      -5.614   9.898  66.142  1.00  0.00    -0.052 OA 
HETATM   27  C   UNL     1      -6.148   9.271  67.047  1.00  0.00    -0.060 C  
HETATM   28  H   UNL     1      -7.819   9.113  68.180  1.00  0.00     0.000 HD 
BRANCH  27  29
HETATM   29  C   UNL     1      -5.810   7.749  67.394  1.00  0.00    -0.037 C  
HETATM   30  C   UNL     1      -6.694   7.050  68.467  1.00  0.00    -0.064 C  
HETATM   31  N   UNL     1      -6.945   5.596  68.263  1.00  0.00    -0.066 NA 
HETATM   32  C   UNL     1      -5.808   4.705  68.480  1.00  0.00    -0.025 C  
HETATM   33  C   UNL     1      -7.663   5.325  66.993  1.00  0.00    -0.096 C  
HETATM   34  C   UNL     1      -9.206   5.375  67.294  1.00  0.00    -0.111 C  
HETATM   35  C   UNL     1      -9.739   6.742  67.104  1.00  0.00    -0.191 A  
HETATM   36  C   UNL     1     -10.703   7.520  67.718  1.00  0.00    -0.163 A  
HETATM   37  N   UNL     1     -10.721   8.736  67.095  1.00  0.00    -0.379 NA 
HETATM   38  H   UNL     1     -11.283   9.534  67.391  1.00  0.00     0.000 HD 
HETATM   39  C   UNL     1      -9.872   8.729  66.012  1.00  0.00    -0.164 A  
HETATM   40  C   UNL     1      -9.574   9.666  65.027  1.00  0.00    -0.284 A  
HETATM   41  C   UNL     1      -8.608   9.284  64.078  1.00  0.00    -0.204 A  
HETATM   42  C   UNL     1      -7.863   8.103  64.210  1.00  0.00    -0.137 A  
HETATM   43  C   UNL     1      -8.083   7.253  65.291  1.00  0.00    -0.134 A  
HETATM   44  C   UNL     1      -9.194   7.532  66.086  1.00  0.00    -0.156 A  
HETATM   45  C   UNL     1      -7.120   6.187  65.764  1.00  0.00    -0.073 C  
HETATM   46  C   UNL     1      -5.755   6.853  66.126  1.00  0.00    -0.030 C  
ENDBRANCH  27  29
ENDBRANCH  13  25
TORSDOF 4
ENDMDL
MODEL       35
REMARK 921   NORMALIZED FREE ENERGY PREDICTED BY IDOCK:   -6.65 KCAL/MOL
REMARK 922        TOTAL FREE ENERGY PREDICTED BY IDOCK:   -9.44 KCAL/MOL
REMARK 923 INTER-LIGAND FREE ENERGY PREDICTED BY IDOCK:   -7.14 KCAL/MOL
REMARK 924 INTRA-LIGAND FREE ENERGY PREDICTED BY IDOCK:   -2.31 KCAL/MOL
REMARK 927      BINDING AFFINITY PREDICTED BY RF-SCORE:    0.00 PKD
ROOT
HETATM    1  C   UNL     1      -8.888  10.872  64.938  1.00  0.00    -0.116 C  
HETATM    2  C   UNL     1      -8.827  10.857  63.410  1.00  0.00    -0.123 C  
HETATM    3  C   UNL     1     -10.224  11.411  63.006  1.00  0.00    -0.311 C  
HETATM    4  C   UNL     1     -11.063  11.431  64.289  1.00  0.00    -0.285 C  
HETATM    5  N   UNL     1     -10.275  10.708  65.268  1.00  0.00    -0.290 N  
HETATM    6  C   UNL     1     -10.647  10.813  66.593  1.00  0.00    -0.232 C  
HETATM    7  O   UNL     1     -11.806  10.651  66.967  1.00  0.00     0.021 OA 
HETATM    8  C   UNL     1      -9.457  11.010  67.591  1.00  0.00    -0.164 C  
HETATM    9  O   UNL     1      -7.412   9.403  66.954  1.00  0.00    -0.090 OA 
HETATM   10  N   UNL     1      -8.102  11.415  66.962  1.00  0.00    -0.151 N  
HETATM   11  C   UNL     1      -6.938  11.237  67.660  1.00  0.00    -0.085 C  
HETATM   12  H   UNL     1      -5.893  10.458  65.873  1.00  0.00     0.000 HD 
HETATM   13  C   UNL     1      -7.178   9.928  68.451  1.00  0.00    -0.073 C  
HETATM   14  O   UNL     1      -5.937  11.916  67.439  1.00  0.00    -0.085 OA 
HETATM   15  O   UNL     1      -6.564  10.703  65.246  1.00  0.00    -0.092 OA 
HETATM   16  C   UNL     1      -6.268  10.782  69.484  1.00  0.00    -0.064 C  
HETATM   17  C   UNL     1      -7.759  10.462  65.993  1.00  0.00    -0.136 C  
ENDROOT
BRANCH   8  18
HETATM   18  C   UNL     1      -9.842  11.889  68.791  1.00  0.00    -0.078 C  
BRANCH  18  19
HETATM   19  C   UNL     1     -10.835  11.143  69.630  1.00  0.00    -0.200 A  
HETATM   20  C   UNL     1     -12.726  11.311  71.120  1.00  0.00    -0.492 A  
HETATM   21  C   UNL     1     -12.334  10.127  71.738  1.00  0.00    -0.401 A  
HETATM   22  C   UNL     1     -10.486   9.916  70.201  1.00  0.00    -0.339 A  
HETATM   23  C   UNL     1     -11.233   9.415  71.259  1.00  0.00    -0.437 A  
HETATM   24  C   UNL     1     -11.998  11.803  70.047  1.00  0.00    -0.421 A  
ENDBRANCH  18  19
ENDBRANCH   8  18
BRANCH  13  25
HETATM   25  N   UNL     1      -7.319   8.766  69.349  1.00  0.00    -0.070 N  
HETATM   26  O   UNL     1      -5.550   7.344  69.017  1.00  0.00    -0.018 OA 
HETATM   27  C   UNL     1      -6.447   7.757  69.740  1.00  0.00    -0.034 C  
HETATM   28  H   UNL     1      -8.245   8.687  69.768  1.00  0.00     0.000 HD 
BRANCH  27  29
HETATM   29  C   UNL     1      -6.776   7.151  71.181  1.00  0.00    -0.051 C  
HETATM   30  C   UNL     1      -8.198   7.412  71.755  1.00  0.00    -0.103 C  
HETATM   31  N   UNL     1      -8.775   6.325  72.595  1.00  0.00    -0.124 NA 
HETATM   32  C   UNL     1      -8.174   6.135  73.913  1.00  0.00    -0.109 C  
HETATM   33  C   UNL     1      -8.933   5.059  71.839  1.00  0.00    -0.133 C  
HETATM   34  C   UNL     1     -10.360   5.070  71.176  1.00  0.00    -0.254 C  
HETATM   35  C   UNL     1     -10.311   5.670  69.824  1.00  0.00    -0.352 A  
HETATM   36  C   UNL     1     -11.152   6.463  69.066  1.00  0.00    -0.358 A  
HETATM   37  N   UNL     1     -10.528   6.720  67.878  1.00  0.00    -0.196 NA 
HETATM   38  H   UNL     1     -10.885   7.344  67.155  1.00  0.00     0.000 HD 
HETATM   39  C   UNL     1      -9.348   6.015  67.797  1.00  0.00    -0.106 A  
HETATM   40  C   UNL     1      -8.389   5.872  66.799  1.00  0.00    -0.109 A  
HETATM   41  C   UNL     1      -7.283   5.061  67.112  1.00  0.00    -0.077 A  
HETATM   42  C   UNL     1      -7.068   4.564  68.406  1.00  0.00    -0.056 A  
HETATM   43  C   UNL     1      -7.976   4.848  69.425  1.00  0.00    -0.074 A  
HETATM   44  C   UNL     1      -9.173   5.452  69.042  1.00  0.00    -0.149 A  
HETATM   45  C   UNL     1      -7.685   4.721  70.904  1.00  0.00    -0.073 C  
HETATM   46  C   UNL     1      -6.469   5.631  71.267  1.00  0.00    -0.044 C  
ENDBRANCH  27  29
ENDBRANCH  13  25
TORSDOF 4
ENDMDL
MODEL       36
REMARK 921   NORMALIZED FREE ENERGY PREDICTED BY IDOCK:   -6.65 KCAL/MOL
REMARK 922        TOTAL FREE ENERGY PREDICTED BY IDOCK:   -9.44 KCAL/MOL
REMARK 923 INTER-LIGAND FREE ENERGY PREDICTED BY IDOCK:   -8.04 KCAL/MOL
REMARK 924 INTRA-LIGAND FREE ENERGY PREDICTED BY IDOCK:   -1.40 KCAL/MOL
REMARK 927      BINDING AFFINITY PREDICTED BY RF-SCORE:    0.00 PKD
ROOT
HETATM    1  C   UNL     1      -9.007   5.829  71.769  1.00  0.00    -0.139 C  
HETATM    2  C   UNL     1      -8.944   4.657  72.749  1.00  0.00    -0.127 C  
HETATM    3  C   UNL     1      -8.608   5.355  74.098  1.00  0.00    -0.114 C  
HETATM    4  C   UNL     1      -8.229   6.798  73.749  1.00  0.00    -0.110 C  
HETATM    5  N   UNL     1      -8.120   6.822  72.304  1.00  0.00    -0.099 N  
HETATM    6  C   UNL     1      -8.073   8.056  71.685  1.00  0.00    -0.114 C  
HETATM    7  O   UNL     1      -7.316   8.950  72.055  1.00  0.00    -0.301 OA 
HETATM    8  C   UNL     1      -8.951   8.172  70.395  1.00  0.00    -0.146 C  
HETATM    9  O   UNL     1      -8.716   5.970  68.889  1.00  0.00    -0.121 OA 
HETATM   10  N   UNL     1     -10.004   7.058  70.186  1.00  0.00    -0.182 N  
HETATM   11  C   UNL     1     -10.540   6.839  68.945  1.00  0.00    -0.228 C  
HETATM   12  H   UNL     1     -10.375   4.645  69.173  1.00  0.00     0.000 HD 
HETATM   13  C   UNL     1      -9.363   7.122  67.980  1.00  0.00    -0.129 C  
HETATM   14  O   UNL     1     -11.647   6.324  68.796  1.00  0.00    -0.167 OA 
HETATM   15  O   UNL     1     -10.172   4.652  70.101  1.00  0.00    -0.240 OA 
HETATM   16  C   UNL     1     -10.634   7.649  67.123  1.00  0.00    -0.410 C  
HETATM   17  C   UNL     1      -9.350   5.817  70.208  1.00  0.00    -0.156 C  
ENDROOT
BRANCH   8  18
HETATM   18  C   UNL     1      -9.533   9.582  70.211  1.00  0.00    -0.307 C  
BRANCH  18  19
HETATM   19  C   UNL     1     -10.803   9.680  71.000  1.00  0.00    -0.412 A  
HETATM   20  C   UNL     1     -12.292   8.573  72.544  1.00  0.00    -0.372 A  
HETATM   21  C   UNL     1     -13.360   9.295  72.019  1.00  0.00    -0.518 A  
HETATM   22  C   UNL     1     -11.863  10.457  70.526  1.00  0.00    -0.430 A  
HETATM   23  C   UNL     1     -13.141  10.258  71.032  1.00  0.00    -0.458 A  
HETATM   24  C   UNL     1     -11.010   8.787  72.059  1.00  0.00    -0.438 A  
ENDBRANCH  18  19
ENDBRANCH   8  18
BRANCH  13  25
HETATM   25  N   UNL     1      -8.369   7.475  66.949  1.00  0.00    -0.122 N  
HETATM   26  O   UNL     1      -6.351   7.879  67.961  1.00  0.00    -0.048 OA 
HETATM   27  C   UNL     1      -6.982   7.570  66.960  1.00  0.00    -0.083 C  
HETATM   28  H   UNL     1      -8.784   7.695  66.044  1.00  0.00     0.000 HD 
BRANCH  27  29
HETATM   29  C   UNL     1      -6.313   7.308  65.533  1.00  0.00    -0.038 C  
HETATM   30  C   UNL     1      -7.266   7.208  64.307  1.00  0.00    -0.072 C  
HETATM   31  N   UNL     1      -6.733   7.732  63.018  1.00  0.00    -0.074 NA 
HETATM   32  C   UNL     1      -5.679   6.944  62.384  1.00  0.00    -0.036 C  
HETATM   33  C   UNL     1      -6.413   9.179  63.092  1.00  0.00    -0.090 C  
HETATM   34  C   UNL     1      -7.706   9.978  62.685  1.00  0.00    -0.138 C  
HETATM   35  C   UNL     1      -8.540  10.277  63.870  1.00  0.00    -0.191 A  
HETATM   36  C   UNL     1      -9.895  10.357  64.129  1.00  0.00    -0.313 A  
HETATM   37  N   UNL     1     -10.054  10.652  65.453  1.00  0.00    -0.280 NA 
HETATM   38  H   UNL     1     -10.950  10.695  65.938  1.00  0.00     0.000 HD 
HETATM   39  C   UNL     1      -8.830  10.882  66.040  1.00  0.00    -0.188 A  
HETATM   40  C   UNL     1      -8.443  11.273  67.318  1.00  0.00    -0.144 A  
HETATM   41  C   UNL     1      -7.058  11.381  67.542  1.00  0.00    -0.106 A  
HETATM   42  C   UNL     1      -6.116  10.957  66.593  1.00  0.00    -0.101 A  
HETATM   43  C   UNL     1      -6.538  10.431  65.374  1.00  0.00    -0.109 A  
HETATM   44  C   UNL     1      -7.897  10.548  65.083  1.00  0.00    -0.076 A  
HETATM   45  C   UNL     1      -5.682   9.596  64.448  1.00  0.00    -0.081 C  
HETATM   46  C   UNL     1      -5.187   8.328  65.213  1.00  0.00    -0.032 C  
ENDBRANCH  27  29
ENDBRANCH  13  25
TORSDOF 4
ENDMDL
MODEL       37
REMARK 921   NORMALIZED FREE ENERGY PREDICTED BY IDOCK:   -6.61 KCAL/MOL
REMARK 922        TOTAL FREE ENERGY PREDICTED BY IDOCK:   -9.39 KCAL/MOL
REMARK 923 INTER-LIGAND FREE ENERGY PREDICTED BY IDOCK:   -7.66 KCAL/MOL
REMARK 924 INTRA-LIGAND FREE ENERGY PREDICTED BY IDOCK:   -1.73 KCAL/MOL
REMARK 927      BINDING AFFINITY PREDICTED BY RF-SCORE:    0.00 PKD
ROOT
HETATM    1  C   UNL     1     -10.584  13.606  66.744  1.00  0.00    -0.273 C  
HETATM    2  C   UNL     1     -11.762  14.499  66.350  1.00  0.00    -0.372 C  
HETATM    3  C   UNL     1     -11.058  15.748  65.745  1.00  0.00    -0.124 C  
HETATM    4  C   UNL     1      -9.571  15.609  66.089  1.00  0.00    -0.330 C  
HETATM    5  N   UNL     1      -9.501  14.505  67.025  1.00  0.00    -0.230 N  
HETATM    6  C   UNL     1      -8.258  13.964  67.287  1.00  0.00    -0.161 C  
HETATM    7  O   UNL     1      -7.285  14.658  67.572  1.00  0.00    -0.178 OA 
HETATM    8  C   UNL     1      -8.222  12.400  67.332  1.00  0.00    -0.180 C  
HETATM    9  O   UNL     1     -10.344  11.444  68.658  1.00  0.00    -0.192 OA 
HETATM   10  N   UNL     1      -9.454  11.675  66.739  1.00  0.00    -0.182 N  
HETATM   11  C   UNL     1      -9.710  10.370  67.067  1.00  0.00    -0.178 C  
HETATM   12  H   UNL     1     -11.870  10.772  67.315  1.00  0.00     0.000 HD 
HETATM   13  C   UNL     1      -9.261  10.266  68.545  1.00  0.00    -0.144 C  
HETATM   14  O   UNL     1     -10.355   9.628  66.329  1.00  0.00    -0.239 OA 
HETATM   15  O   UNL     1     -11.859  11.640  66.930  1.00  0.00    -0.577 OA 
HETATM   16  C   UNL     1      -8.877   8.799  67.974  1.00  0.00    -0.141 C  
HETATM   17  C   UNL     1     -10.604  12.145  67.391  1.00  0.00    -0.226 C  
ENDROOT
BRANCH   8  18
HETATM   18  C   UNL     1      -6.892  11.832  66.814  1.00  0.00    -0.050 C  
BRANCH  18  19
HETATM   19  C   UNL     1      -6.066  11.407  67.990  1.00  0.00    -0.046 A  
HETATM   20  C   UNL     1      -5.179   9.547  69.246  1.00  0.00    -0.036 A  
HETATM   21  C   UNL     1      -5.185  10.331  70.396  1.00  0.00    -0.049 A  
HETATM   22  C   UNL     1      -6.000  12.214  69.128  1.00  0.00    -0.075 A  
HETATM   23  C   UNL     1      -5.566  11.673  70.331  1.00  0.00    -0.149 A  
HETATM   24  C   UNL     1      -5.588  10.091  68.038  1.00  0.00    -0.038 A  
ENDBRANCH  18  19
ENDBRANCH   8  18
BRANCH  13  25
HETATM   25  N   UNL     1      -8.763   9.998  69.908  1.00  0.00    -0.329 N  
HETATM   26  O   UNL     1     -10.455   9.081  71.156  1.00  0.00    -0.241 OA 
HETATM   27  C   UNL     1      -9.257   9.248  70.969  1.00  0.00    -0.202 C  
HETATM   28  H   UNL     1      -7.875  10.456  70.113  1.00  0.00     0.000 HD 
BRANCH  27  29
HETATM   29  C   UNL     1      -8.120   8.694  71.944  1.00  0.00    -0.149 C  
HETATM   30  C   UNL     1      -8.556   8.259  73.373  1.00  0.00    -0.207 C  
HETATM   31  N   UNL     1      -7.811   7.112  73.964  1.00  0.00    -0.107 NA 
HETATM   32  C   UNL     1      -6.430   7.371  74.361  1.00  0.00    -0.082 C  
HETATM   33  C   UNL     1      -7.964   5.873  73.162  1.00  0.00    -0.110 C  
HETATM   34  C   UNL     1      -9.230   5.107  73.698  1.00  0.00    -0.129 C  
HETATM   35  C   UNL     1     -10.449   5.524  72.971  1.00  0.00    -0.244 A  
HETATM   36  C   UNL     1     -11.778   5.715  73.300  1.00  0.00     0.255 A  
HETATM   37  N   UNL     1     -12.432   6.139  72.178  1.00  0.00    -0.404 NA 
HETATM   38  H   UNL     1     -13.409   6.431  72.148  1.00  0.00     0.000 HD 
HETATM   39  C   UNL     1     -11.583   6.116  71.094  1.00  0.00    -0.202 A  
HETATM   40  C   UNL     1     -11.758   6.382  69.740  1.00  0.00    -0.261 A  
HETATM   41  C   UNL     1     -10.612   6.267  68.931  1.00  0.00    -0.321 A  
HETATM   42  C   UNL     1      -9.335   6.066  69.476  1.00  0.00    -0.151 A  
HETATM   43  C   UNL     1      -9.172   5.949  70.855  1.00  0.00    -0.167 A  
HETATM   44  C   UNL     1     -10.338   5.835  71.612  1.00  0.00    -0.266 A  
HETATM   45  C   UNL     1      -7.861   6.122  71.589  1.00  0.00    -0.102 C  
HETATM   46  C   UNL     1      -7.295   7.547  71.298  1.00  0.00    -0.078 C  
ENDBRANCH  27  29
ENDBRANCH  13  25
TORSDOF 4
ENDMDL
MODEL       38
REMARK 921   NORMALIZED FREE ENERGY PREDICTED BY IDOCK:   -6.55 KCAL/MOL
REMARK 922        TOTAL FREE ENERGY PREDICTED BY IDOCK:   -9.33 KCAL/MOL
REMARK 923 INTER-LIGAND FREE ENERGY PREDICTED BY IDOCK:   -8.22 KCAL/MOL
REMARK 924 INTRA-LIGAND FREE ENERGY PREDICTED BY IDOCK:   -1.10 KCAL/MOL
REMARK 927      BINDING AFFINITY PREDICTED BY RF-SCORE:    0.00 PKD
ROOT
HETATM    1  C   UNL     1     -10.687  12.260  65.078  1.00  0.00    -0.298 C  
HETATM    2  C   UNL     1     -11.105  12.229  63.607  1.00  0.00    -0.537 C  
HETATM    3  C   UNL     1     -12.009  13.489  63.481  1.00  0.00    -0.388 C  
HETATM    4  C   UNL     1     -12.268  13.973  64.912  1.00  0.00    -0.437 C  
HETATM    5  N   UNL     1     -11.759  12.918  65.766  1.00  0.00    -0.368 N  
HETATM    6  C   UNL     1     -11.595  13.203  67.108  1.00  0.00    -0.361 C  
HETATM    7  O   UNL     1     -12.476  13.732  67.781  1.00  0.00    -0.126 OA 
HETATM    8  C   UNL     1     -10.261  12.671  67.729  1.00  0.00    -0.222 C  
HETATM    9  O   UNL     1      -9.742  10.188  66.871  1.00  0.00    -0.174 OA 
HETATM   10  N   UNL     1      -9.170  12.232  66.723  1.00  0.00    -0.206 N  
HETATM   11  C   UNL     1      -8.152  11.409  67.126  1.00  0.00    -0.155 C  
HETATM   12  H   UNL     1      -8.301  10.192  65.286  1.00  0.00     0.000 HD 
HETATM   13  C   UNL     1      -8.823  10.468  68.155  1.00  0.00    -0.134 C  
HETATM   14  O   UNL     1      -7.064  11.393  66.553  1.00  0.00    -0.128 OA 
HETATM   15  O   UNL     1      -8.876  10.783  64.817  1.00  0.00    -0.188 OA 
HETATM   16  C   UNL     1      -7.334  10.633  68.773  1.00  0.00    -0.100 C  
HETATM   17  C   UNL     1      -9.717  11.264  65.868  1.00  0.00    -0.224 C  
ENDROOT
BRANCH   8  18
HETATM   18  C   UNL     1      -9.718  13.599  68.827  1.00  0.00    -0.040 C  
BRANCH  18  19
HETATM   19  C   UNL     1      -9.841  15.017  68.356  1.00  0.00    -0.222 A  
HETATM   20  C   UNL     1      -8.867  16.775  67.020  1.00  0.00    -0.227 A  
HETATM   21  C   UNL     1      -9.433  17.722  67.868  1.00  0.00    -0.270 A  
HETATM   22  C   UNL     1     -10.470  15.970  69.162  1.00  0.00    -0.251 A  
HETATM   23  C   UNL     1     -10.259  17.321  68.920  1.00  0.00    -0.349 A  
HETATM   24  C   UNL     1      -9.095  15.425  67.243  1.00  0.00    -0.218 A  
ENDBRANCH  18  19
ENDBRANCH   8  18
BRANCH  13  25
HETATM   25  N   UNL     1      -9.304   9.587  69.237  1.00  0.00    -0.161 N  
HETATM   26  O   UNL     1     -10.782   8.066  68.363  1.00  0.00    -0.139 OA 
HETATM   27  C   UNL     1      -9.991   8.379  69.243  1.00  0.00    -0.195 C  
HETATM   28  H   UNL     1      -9.089   9.937  70.170  1.00  0.00     0.000 HD 
BRANCH  27  29
HETATM   29  C   UNL     1      -9.700   7.486  70.535  1.00  0.00    -0.179 C  
HETATM   30  C   UNL     1     -10.350   6.072  70.585  1.00  0.00    -0.222 C  
HETATM   31  N   UNL     1      -9.557   5.011  71.265  1.00  0.00    -0.157 NA 
HETATM   32  C   UNL     1      -9.444   5.115  72.717  1.00  0.00    -0.142 C  
HETATM   33  C   UNL     1      -8.255   4.770  70.596  1.00  0.00    -0.092 C  
HETATM   34  C   UNL     1      -8.475   3.664  69.499  1.00  0.00    -0.097 C  
HETATM   35  C   UNL     1      -8.836   4.271  68.199  1.00  0.00    -0.129 A  
HETATM   36  C   UNL     1      -9.668   3.932  67.148  1.00  0.00    -0.139 A  
HETATM   37  N   UNL     1      -9.597   4.930  66.218  1.00  0.00    -0.158 NA 
HETATM   38  H   UNL     1     -10.167   4.981  65.373  1.00  0.00     0.000 HD 
HETATM   39  C   UNL     1      -8.648   5.857  66.584  1.00  0.00    -0.119 A  
HETATM   40  C   UNL     1      -8.148   7.003  65.974  1.00  0.00    -0.122 A  
HETATM   41  C   UNL     1      -7.173   7.716  66.695  1.00  0.00    -0.087 A  
HETATM   42  C   UNL     1      -6.846   7.395  68.021  1.00  0.00    -0.070 A  
HETATM   43  C   UNL     1      -7.473   6.326  68.657  1.00  0.00    -0.088 A  
HETATM   44  C   UNL     1      -8.258   5.498  67.856  1.00  0.00    -0.100 A  
HETATM   45  C   UNL     1      -7.514   6.113  70.154  1.00  0.00    -0.094 C  
HETATM   46  C   UNL     1      -8.181   7.352  70.830  1.00  0.00    -0.111 C  
ENDBRANCH  27  29
ENDBRANCH  13  25
TORSDOF 4
ENDMDL
MODEL       39
REMARK 921   NORMALIZED FREE ENERGY PREDICTED BY IDOCK:   -6.55 KCAL/MOL
REMARK 922        TOTAL FREE ENERGY PREDICTED BY IDOCK:   -9.32 KCAL/MOL
REMARK 923 INTER-LIGAND FREE ENERGY PREDICTED BY IDOCK:   -6.74 KCAL/MOL
REMARK 924 INTRA-LIGAND FREE ENERGY PREDICTED BY IDOCK:   -2.58 KCAL/MOL
REMARK 927      BINDING AFFINITY PREDICTED BY RF-SCORE:    0.00 PKD
ROOT
HETATM    1  C   UNL     1     -10.682  10.625  69.456  1.00  0.00    -0.251 C  
HETATM    2  C   UNL     1     -11.811  11.537  68.974  1.00  0.00    -0.408 C  
HETATM    3  C   UNL     1     -12.617  11.803  70.278  1.00  0.00    -0.131 C  
HETATM    4  C   UNL     1     -12.074  10.822  71.323  1.00  0.00    -0.261 C  
HETATM    5  N   UNL     1     -11.217   9.917  70.583  1.00  0.00    -0.319 N  
HETATM    6  C   UNL     1     -10.366   9.106  71.307  1.00  0.00    -0.334 C  
HETATM    7  O   UNL     1     -10.748   8.437  72.264  1.00  0.00    -0.303 OA 
HETATM    8  C   UNL     1      -8.917   8.997  70.725  1.00  0.00    -0.236 C  
HETATM    9  O   UNL     1      -8.984   8.736  68.061  1.00  0.00    -0.139 OA 
HETATM   10  N   UNL     1      -8.528  10.056  69.666  1.00  0.00    -0.178 N  
HETATM   11  C   UNL     1      -7.469   9.834  68.826  1.00  0.00    -0.075 C  
HETATM   12  H   UNL     1      -8.591  10.599  67.081  1.00  0.00     0.000 HD 
HETATM   13  C   UNL     1      -7.521   8.310  68.561  1.00  0.00    -0.095 C  
HETATM   14  O   UNL     1      -6.845  10.759  68.308  1.00  0.00    -0.066 OA 
HETATM   15  O   UNL     1      -9.314  10.967  67.575  1.00  0.00    -0.157 OA 
HETATM   16  C   UNL     1      -5.926   8.598  68.556  1.00  0.00    -0.045 C  
HETATM   17  C   UNL     1      -9.465  10.008  68.623  1.00  0.00    -0.156 C  
ENDROOT
BRANCH   8  18
HETATM   18  C   UNL     1      -7.857   8.841  71.827  1.00  0.00    -0.097 C  
BRANCH  18  19
HETATM   19  C   UNL     1      -7.795   7.399  72.229  1.00  0.00    -0.104 A  
HETATM   20  C   UNL     1      -8.135   5.798  74.002  1.00  0.00    -0.109 A  
HETATM   21  C   UNL     1      -7.158   4.980  73.441  1.00  0.00    -0.077 A  
HETATM   22  C   UNL     1      -6.870   6.543  71.625  1.00  0.00    -0.067 A  
HETATM   23  C   UNL     1      -6.549   5.338  72.237  1.00  0.00    -0.056 A  
HETATM   24  C   UNL     1      -8.477   6.990  73.382  1.00  0.00    -0.150 A  
ENDBRANCH  18  19
ENDBRANCH   8  18
BRANCH  13  25
HETATM   25  N   UNL     1      -7.382   6.861  68.322  1.00  0.00    -0.094 N  
HETATM   26  O   UNL     1      -7.257   6.484  66.063  1.00  0.00    -0.068 OA 
HETATM   27  C   UNL     1      -7.026   6.113  67.205  1.00  0.00    -0.069 C  
HETATM   28  H   UNL     1      -7.589   6.292  69.142  1.00  0.00     0.000 HD 
BRANCH  27  29
HETATM   29  C   UNL     1      -6.358   4.707  67.565  1.00  0.00    -0.041 C  
HETATM   30  C   UNL     1      -6.307   4.306  69.068  1.00  0.00    -0.032 C  
HETATM   31  N   UNL     1      -6.445   2.853  69.364  1.00  0.00    -0.029 NA 
HETATM   32  C   UNL     1      -5.310   2.007  69.001  1.00  0.00    -0.013 C  
HETATM   33  C   UNL     1      -7.746   2.310  68.904  1.00  0.00    -0.042 C  
HETATM   34  C   UNL     1      -8.777   2.472  70.081  1.00  0.00    -0.125 C  
HETATM   35  C   UNL     1      -9.483   3.769  69.992  1.00  0.00    -0.264 A  
HETATM   36  C   UNL     1      -9.961   4.696  70.899  1.00  0.00    -0.203 A  
HETATM   37  N   UNL     1     -10.508   5.731  70.193  1.00  0.00    -0.253 NA 
HETATM   38  H   UNL     1     -10.869   6.592  70.605  1.00  0.00     0.000 HD 
HETATM   39  C   UNL     1     -10.503   5.444  68.846  1.00  0.00    -0.168 A  
HETATM   40  C   UNL     1     -10.989   6.113  67.727  1.00  0.00    -0.400 A  
HETATM   41  C   UNL     1     -10.763   5.491  66.485  1.00  0.00    -0.309 A  
HETATM   42  C   UNL     1      -9.950   4.354  66.360  1.00  0.00    -0.252 A  
HETATM   43  C   UNL     1      -9.355   3.791  67.487  1.00  0.00    -0.238 A  
HETATM   44  C   UNL     1      -9.776   4.280  68.724  1.00  0.00    -0.184 A  
HETATM   45  C   UNL     1      -8.179   2.841  67.462  1.00  0.00    -0.087 C  
HETATM   46  C   UNL     1      -6.974   3.536  66.753  1.00  0.00    -0.054 C  
ENDBRANCH  27  29
ENDBRANCH  13  25
TORSDOF 4
ENDMDL
MODEL       40
REMARK 921   NORMALIZED FREE ENERGY PREDICTED BY IDOCK:   -6.55 KCAL/MOL
REMARK 922        TOTAL FREE ENERGY PREDICTED BY IDOCK:   -9.32 KCAL/MOL
REMARK 923 INTER-LIGAND FREE ENERGY PREDICTED BY IDOCK:   -7.61 KCAL/MOL
REMARK 924 INTRA-LIGAND FREE ENERGY PREDICTED BY IDOCK:   -1.71 KCAL/MOL
REMARK 927      BINDING AFFINITY PREDICTED BY RF-SCORE:    0.00 PKD
ROOT
HETATM    1  C   UNL     1     -10.047   7.947  70.308  1.00  0.00    -0.196 C  
HETATM    2  C   UNL     1     -11.198   7.387  71.145  1.00  0.00    -0.279 C  
HETATM    3  C   UNL     1     -11.709   6.202  70.275  1.00  0.00    -0.136 C  
HETATM    4  C   UNL     1     -11.022   6.345  68.912  1.00  0.00    -0.346 C  
HETATM    5  N   UNL     1     -10.382   7.645  68.946  1.00  0.00    -0.210 N  
HETATM    6  C   UNL     1      -9.448   7.925  67.968  1.00  0.00    -0.149 C  
HETATM    7  O   UNL     1      -9.666   7.732  66.774  1.00  0.00    -0.193 OA 
HETATM    8  C   UNL     1      -8.154   8.637  68.486  1.00  0.00    -0.117 C  
HETATM    9  O   UNL     1      -8.771  10.549  70.258  1.00  0.00     0.354 OA 
HETATM   10  N   UNL     1      -7.929   8.610  70.017  1.00  0.00    -0.101 N  
HETATM   11  C   UNL     1      -7.075   9.505  70.604  1.00  0.00    -0.123 C  
HETATM   12  H   UNL     1      -8.482   9.875  72.270  1.00  0.00     0.000 HD 
HETATM   13  C   UNL     1      -7.263  10.796  69.771  1.00  0.00    -0.101 C  
HETATM   14  O   UNL     1      -6.519   9.266  71.674  1.00  0.00    -0.213 OA 
HETATM   15  O   UNL     1      -9.069   9.155  72.072  1.00  0.00    -0.337 OA 
HETATM   16  C   UNL     1      -5.688  10.866  70.148  1.00  0.00    -0.088 C  
HETATM   17  C   UNL     1      -9.058   9.158  70.643  1.00  0.00    -0.257 C  
ENDROOT
BRANCH   8  18
HETATM   18  C   UNL     1      -6.904   8.224  67.694  1.00  0.00    -0.070 C  
BRANCH  18  19
HETATM   19  C   UNL     1      -6.658   9.245  66.625  1.00  0.00    -0.068 A  
HETATM   20  C   UNL     1      -6.861   9.779  64.280  1.00  0.00    -0.120 A  
HETATM   21  C   UNL     1      -5.747  10.606  64.380  1.00  0.00    -0.041 A  
HETATM   22  C   UNL     1      -5.586  10.134  66.740  1.00  0.00    -0.046 A  
HETATM   23  C   UNL     1      -5.128  10.807  65.616  1.00  0.00    -0.124 A  
HETATM   24  C   UNL     1      -7.337   9.123  65.406  1.00  0.00    -0.089 A  
ENDBRANCH  18  19
ENDBRANCH   8  18
BRANCH  13  25
HETATM   25  N   UNL     1      -7.255  12.048  68.991  1.00  0.00    -0.241 N  
HETATM   26  O   UNL     1      -8.795  11.887  67.300  1.00  0.00    -0.166 OA 
HETATM   27  C   UNL     1      -8.122  12.585  68.047  1.00  0.00    -0.164 C  
HETATM   28  H   UNL     1      -6.448  12.641  69.185  1.00  0.00     0.000 HD 
BRANCH  27  29
HETATM   29  C   UNL     1      -8.097  14.181  67.990  1.00  0.00    -0.149 C  
HETATM   30  C   UNL     1      -8.537  14.854  66.658  1.00  0.00    -0.172 C  
HETATM   31  N   UNL     1      -9.244  16.159  66.785  1.00  0.00    -0.217 NA 
HETATM   32  C   UNL     1      -8.431  17.298  67.203  1.00  0.00    -0.205 C  
HETATM   33  C   UNL     1     -10.511  16.037  67.547  1.00  0.00    -0.297 C  
HETATM   34  C   UNL     1     -11.658  15.710  66.522  1.00  0.00     0.284 C  
HETATM   35  C   UNL     1     -11.819  14.249  66.354  1.00  0.00    -0.427 A  
HETATM   36  C   UNL     1     -12.133  13.404  65.306  1.00  0.00    -0.413 A  
HETATM   37  N   UNL     1     -12.101  12.122  65.776  1.00  0.00    -0.554 NA 
HETATM   38  H   UNL     1     -12.218  11.287  65.201  1.00  0.00     0.000 HD 
HETATM   39  C   UNL     1     -11.888  12.117  67.136  1.00  0.00    -0.222 A  
HETATM   40  C   UNL     1     -11.836  11.106  68.090  1.00  0.00    -0.238 A  
HETATM   41  C   UNL     1     -11.566  11.511  69.411  1.00  0.00    -0.388 A  
HETATM   42  C   UNL     1     -11.202  12.829  69.724  1.00  0.00     0.010 A  
HETATM   43  C   UNL     1     -11.121  13.791  68.720  1.00  0.00    -0.295 A  
HETATM   44  C   UNL     1     -11.613  13.426  67.467  1.00  0.00    -0.382 A  
HETATM   45  C   UNL     1     -10.385  15.107  68.838  1.00  0.00    -0.243 C  
HETATM   46  C   UNL     1      -8.884  14.826  69.164  1.00  0.00    -0.084 C  
ENDBRANCH  27  29
ENDBRANCH  13  25
TORSDOF 4
ENDMDL
MODEL       41
REMARK 921   NORMALIZED FREE ENERGY PREDICTED BY IDOCK:   -6.52 KCAL/MOL
REMARK 922        TOTAL FREE ENERGY PREDICTED BY IDOCK:   -9.28 KCAL/MOL
REMARK 923 INTER-LIGAND FREE ENERGY PREDICTED BY IDOCK:   -7.47 KCAL/MOL
REMARK 924 INTRA-LIGAND FREE ENERGY PREDICTED BY IDOCK:   -1.81 KCAL/MOL
REMARK 927      BINDING AFFINITY PREDICTED BY RF-SCORE:    0.00 PKD
ROOT
HETATM    1  C   UNL     1      -8.735  16.327  67.034  1.00  0.00    -0.195 C  
HETATM    2  C   UNL     1      -8.427  17.726  66.499  1.00  0.00    -0.288 C  
HETATM    3  C   UNL     1      -9.831  18.395  66.458  1.00  0.00    -0.368 C  
HETATM    4  C   UNL     1     -10.846  17.271  66.693  1.00  0.00     0.049 C  
HETATM    5  N   UNL     1     -10.078  16.045  66.615  1.00  0.00    -0.269 N  
HETATM    6  C   UNL     1     -10.674  14.886  67.072  1.00  0.00    -0.307 C  
HETATM    7  O   UNL     1     -11.806  14.549  66.734  1.00  0.00    -0.392 OA 
HETATM    8  C   UNL     1      -9.742  13.970  67.935  1.00  0.00    -0.229 C  
HETATM    9  O   UNL     1      -7.299  13.817  66.850  1.00  0.00     0.163 OA 
HETATM   10  N   UNL     1      -8.439  14.623  68.455  1.00  0.00    -0.153 N  
HETATM   11  C   UNL     1      -7.394  13.841  68.869  1.00  0.00    -0.076 C  
HETATM   12  H   UNL     1      -5.920  15.126  67.837  1.00  0.00     0.000 HD 
HETATM   13  C   UNL     1      -7.442  12.624  67.913  1.00  0.00    -0.124 C  
HETATM   14  O   UNL     1      -6.561  14.244  69.678  1.00  0.00    -0.132 OA 
HETATM   15  O   UNL     1      -6.519  15.838  67.645  1.00  0.00    -0.138 OA 
HETATM   16  C   UNL     1      -6.940  11.945  69.295  1.00  0.00    -0.046 C  
HETATM   17  C   UNL     1      -7.727  15.130  67.358  1.00  0.00    -0.197 C  
ENDROOT
BRANCH   8  18
HETATM   18  C   UNL     1     -10.514  13.225  69.034  1.00  0.00    -0.044 C  
BRANCH  18  19
HETATM   19  C   UNL     1     -11.347  14.217  69.788  1.00  0.00    -0.279 A  
HETATM   20  C   UNL     1     -11.345  16.063  71.343  1.00  0.00    -0.371 A  
HETATM   21  C   UNL     1     -12.615  15.691  71.774  1.00  0.00    -0.510 A  
HETATM   22  C   UNL     1     -12.651  13.891  70.168  1.00  0.00    -0.285 A  
HETATM   23  C   UNL     1     -13.280  14.624  71.166  1.00  0.00    -0.431 A  
HETATM   24  C   UNL     1     -10.723  15.348  70.330  1.00  0.00    -0.320 A  
ENDBRANCH  18  19
ENDBRANCH   8  18
BRANCH  13  25
HETATM   25  N   UNL     1      -7.446  11.360  67.153  1.00  0.00    -0.130 N  
HETATM   26  O   UNL     1      -9.175  11.397  65.647  1.00  0.00    -0.215 OA 
HETATM   27  C   UNL     1      -8.087  10.954  65.988  1.00  0.00    -0.142 C  
HETATM   28  H   UNL     1      -6.858  10.636  67.566  1.00  0.00     0.000 HD 
BRANCH  27  29
HETATM   29  C   UNL     1      -7.301   9.815  65.191  1.00  0.00    -0.122 C  
HETATM   30  C   UNL     1      -6.102   9.136  65.915  1.00  0.00    -0.052 C  
HETATM   31  N   UNL     1      -5.884   7.694  65.609  1.00  0.00    -0.037 NA 
HETATM   32  C   UNL     1      -5.377   7.384  64.275  1.00  0.00    -0.029 C  
HETATM   33  C   UNL     1      -7.044   6.857  66.001  1.00  0.00    -0.073 C  
HETATM   34  C   UNL     1      -6.825   6.399  67.490  1.00  0.00    -0.076 C  
HETATM   35  C   UNL     1      -7.423   7.367  68.436  1.00  0.00    -0.105 A  
HETATM   36  C   UNL     1      -7.095   7.855  69.687  1.00  0.00    -0.061 A  
HETATM   37  N   UNL     1      -8.045   8.771  70.042  1.00  0.00    -0.104 NA 
HETATM   38  H   UNL     1      -8.014   9.347  70.884  1.00  0.00     0.000 HD 
HETATM   39  C   UNL     1      -9.049   8.806  69.101  1.00  0.00    -0.141 A  
HETATM   40  C   UNL     1     -10.253   9.498  69.016  1.00  0.00    -0.211 A  
HETATM   41  C   UNL     1     -11.016   9.278  67.854  1.00  0.00    -0.076 A  
HETATM   42  C   UNL     1     -10.520   8.541  66.768  1.00  0.00    -0.308 A  
HETATM   43  C   UNL     1      -9.247   7.979  66.826  1.00  0.00    -0.206 A  
HETATM   44  C   UNL     1      -8.606   8.014  68.065  1.00  0.00    -0.129 A  
HETATM   45  C   UNL     1      -8.451   7.513  65.628  1.00  0.00    -0.141 C  
HETATM   46  C   UNL     1      -8.251   8.712  64.648  1.00  0.00    -0.167 C  
ENDBRANCH  27  29
ENDBRANCH  13  25
TORSDOF 4
ENDMDL
MODEL       42
REMARK 921   NORMALIZED FREE ENERGY PREDICTED BY IDOCK:   -6.50 KCAL/MOL
REMARK 922        TOTAL FREE ENERGY PREDICTED BY IDOCK:   -9.26 KCAL/MOL
REMARK 923 INTER-LIGAND FREE ENERGY PREDICTED BY IDOCK:   -6.62 KCAL/MOL
REMARK 924 INTRA-LIGAND FREE ENERGY PREDICTED BY IDOCK:   -2.64 KCAL/MOL
REMARK 927      BINDING AFFINITY PREDICTED BY RF-SCORE:    0.00 PKD
ROOT
HETATM    1  C   UNL     1     -10.733  10.422  68.401  1.00  0.00    -0.225 C  
HETATM    2  C   UNL     1     -10.736  11.821  67.782  1.00  0.00    -0.244 C  
HETATM    3  C   UNL     1     -10.809  11.521  66.257  1.00  0.00    -0.333 C  
HETATM    4  C   UNL     1     -10.559  10.016  66.106  1.00  0.00    -0.000 C  
HETATM    5  N   UNL     1     -10.131   9.570  67.417  1.00  0.00    -0.193 N  
HETATM    6  C   UNL     1     -10.112   8.210  67.656  1.00  0.00    -0.207 C  
HETATM    7  O   UNL     1      -9.586   7.412  66.883  1.00  0.00    -0.166 OA 
HETATM    8  C   UNL     1     -10.685   7.785  69.049  1.00  0.00    -0.103 C  
HETATM    9  O   UNL     1      -9.821   9.439  70.970  1.00  0.00    -0.283 OA 
HETATM   10  N   UNL     1     -11.504   8.859  69.804  1.00  0.00     0.083 N  
HETATM   11  C   UNL     1     -11.711   8.745  71.153  1.00  0.00    -0.291 C  
HETATM   12  H   UNL     1     -11.308  10.895  71.477  1.00  0.00     0.000 HD 
HETATM   13  C   UNL     1     -10.396   8.119  71.678  1.00  0.00    -0.224 C  
HETATM   14  O   UNL     1     -12.676   9.267  71.709  1.00  0.00    -0.330 OA 
HETATM   15  O   UNL     1     -11.322  11.142  70.560  1.00  0.00    -0.205 OA 
HETATM   16  C   UNL     1     -11.500   7.453  72.659  1.00  0.00    -0.337 C  
HETATM   17  C   UNL     1     -10.710  10.007  69.945  1.00  0.00    -0.286 C  
ENDROOT
BRANCH   8  18
HETATM   18  C   UNL     1     -11.395   6.423  68.997  1.00  0.00    -0.332 C  
BRANCH  18  19
HETATM   19  C   UNL     1     -10.362   5.342  69.103  1.00  0.00    -0.300 A  
HETATM   20  C   UNL     1      -9.264   3.505  67.988  1.00  0.00    -0.228 A  
HETATM   21  C   UNL     1      -9.045   2.898  69.222  1.00  0.00    -0.198 A  
HETATM   22  C   UNL     1     -10.074   4.769  70.344  1.00  0.00    -0.301 A  
HETATM   23  C   UNL     1      -9.423   3.544  70.401  1.00  0.00    -0.254 A  
HETATM   24  C   UNL     1      -9.892   4.740  67.929  1.00  0.00    -0.191 A  
ENDBRANCH  18  19
ENDBRANCH   8  18
BRANCH  13  25
HETATM   25  N   UNL     1      -9.252   7.418  72.291  1.00  0.00    -0.131 N  
HETATM   26  O   UNL     1      -8.399   8.715  73.980  1.00  0.00    -0.325 OA 
HETATM   27  C   UNL     1      -8.542   7.611  73.471  1.00  0.00    -0.204 C  
HETATM   28  H   UNL     1      -8.913   6.632  71.737  1.00  0.00     0.000 HD 
BRANCH  27  29
HETATM   29  C   UNL     1      -7.882   6.275  74.045  1.00  0.00    -0.098 C  
HETATM   30  C   UNL     1      -7.955   5.003  73.150  1.00  0.00    -0.104 C  
HETATM   31  N   UNL     1      -6.794   4.074  73.237  1.00  0.00    -0.050 NA 
HETATM   32  C   UNL     1      -6.665   3.312  74.476  1.00  0.00    -0.036 C  
HETATM   33  C   UNL     1      -5.527   4.721  72.817  1.00  0.00    -0.008 C  
HETATM   34  C   UNL     1      -5.367   4.504  71.267  1.00  0.00    -0.004 C  
HETATM   35  C   UNL     1      -5.986   5.614  70.509  1.00  0.00    -0.025 A  
HETATM   36  C   UNL     1      -6.676   5.731  69.318  1.00  0.00    -0.060 A  
HETATM   37  N   UNL     1      -7.024   7.043  69.161  1.00  0.00    -0.075 NA 
HETATM   38  H   UNL     1      -7.607   7.406  68.407  1.00  0.00     0.000 HD 
HETATM   39  C   UNL     1      -6.474   7.805  70.167  1.00  0.00    -0.034 A  
HETATM   40  C   UNL     1      -6.465   9.171  70.433  1.00  0.00    -0.051 A  
HETATM   41  C   UNL     1      -5.795   9.572  71.604  1.00  0.00    -0.027 A  
HETATM   42  C   UNL     1      -5.314   8.644  72.539  1.00  0.00    -0.051 A  
HETATM   43  C   UNL     1      -5.468   7.277  72.314  1.00  0.00    -0.037 A  
HETATM   44  C   UNL     1      -5.922   6.903  71.049  1.00  0.00    -0.035 A  
HETATM   45  C   UNL     1      -5.360   6.207  73.376  1.00  0.00    -0.036 C  
HETATM   46  C   UNL     1      -6.412   6.489  74.496  1.00  0.00    -0.081 C  
ENDBRANCH  27  29
ENDBRANCH  13  25
TORSDOF 4
ENDMDL
MODEL       43
REMARK 921   NORMALIZED FREE ENERGY PREDICTED BY IDOCK:   -6.44 KCAL/MOL
REMARK 922        TOTAL FREE ENERGY PREDICTED BY IDOCK:   -9.18 KCAL/MOL
REMARK 923 INTER-LIGAND FREE ENERGY PREDICTED BY IDOCK:   -7.87 KCAL/MOL
REMARK 924 INTRA-LIGAND FREE ENERGY PREDICTED BY IDOCK:   -1.31 KCAL/MOL
REMARK 927      BINDING AFFINITY PREDICTED BY RF-SCORE:    0.00 PKD
ROOT
HETATM    1  C   UNL     1      -8.095  12.300  68.215  1.00  0.00    -0.166 C  
HETATM    2  C   UNL     1      -7.065  13.428  68.153  1.00  0.00    -0.116 C  
HETATM    3  C   UNL     1      -7.897  14.623  67.603  1.00  0.00    -0.196 C  
HETATM    4  C   UNL     1      -9.231  14.033  67.133  1.00  0.00    -0.235 C  
HETATM    5  N   UNL     1      -9.049  12.596  67.184  1.00  0.00    -0.202 N  
HETATM    6  C   UNL     1     -10.176  11.804  67.092  1.00  0.00    -0.212 C  
HETATM    7  O   UNL     1     -11.025  11.965  66.218  1.00  0.00    -0.278 OA 
HETATM    8  C   UNL     1     -10.213  10.603  68.094  1.00  0.00    -0.168 C  
HETATM    9  O   UNL     1      -7.817   9.415  68.236  1.00  0.00    -0.090 OA 
HETATM   10  N   UNL     1      -9.202  10.661  69.264  1.00  0.00    -0.150 N  
HETATM   11  C   UNL     1      -8.878   9.523  69.953  1.00  0.00    -0.211 C  
HETATM   12  H   UNL     1      -6.730  10.048  69.970  1.00  0.00     0.000 HD 
HETATM   13  C   UNL     1      -8.900   8.417  68.871  1.00  0.00    -0.143 C  
HETATM   14  O   UNL     1      -8.471   9.559  71.113  1.00  0.00    -0.278 OA 
HETATM   15  O   UNL     1      -6.839  10.941  69.664  1.00  0.00    -0.114 OA 
HETATM   16  C   UNL     1      -9.442   7.622  70.174  1.00  0.00    -0.161 C  
HETATM   17  C   UNL     1      -7.911  10.798  68.730  1.00  0.00    -0.136 C  
ENDROOT
BRANCH   8  18
HETATM   18  C   UNL     1     -11.640  10.275  68.559  1.00  0.00    -0.077 C  
BRANCH  18  19
HETATM   19  C   UNL     1     -11.920  11.039  69.817  1.00  0.00    -0.428 A  
HETATM   20  C   UNL     1     -13.091  11.063  71.927  1.00  0.00    -0.525 A  
HETATM   21  C   UNL     1     -13.133  12.454  71.879  1.00  0.00    -0.471 A  
HETATM   22  C   UNL     1     -11.896  12.436  69.808  1.00  0.00    -0.387 A  
HETATM   23  C   UNL     1     -12.509  13.140  70.836  1.00  0.00    -0.407 A  
HETATM   24  C   UNL     1     -12.458  10.356  70.915  1.00  0.00    -0.478 A  
ENDBRANCH  18  19
ENDBRANCH   8  18
BRANCH  13  25
HETATM   25  N   UNL     1      -9.003   7.253  67.970  1.00  0.00    -0.132 N  
HETATM   26  O   UNL     1     -11.099   6.342  68.159  1.00  0.00    -0.311 OA 
HETATM   27  C   UNL     1     -10.077   6.504  67.505  1.00  0.00    -0.155 C  
HETATM   28  H   UNL     1      -8.101   6.934  67.615  1.00  0.00     0.000 HD 
BRANCH  27  29
HETATM   29  C   UNL     1      -9.816   5.826  66.083  1.00  0.00    -0.087 C  
HETATM   30  C   UNL     1      -8.395   5.986  65.468  1.00  0.00    -0.146 C  
HETATM   31  N   UNL     1      -7.898   4.838  64.659  1.00  0.00    -0.085 NA 
HETATM   32  C   UNL     1      -8.539   4.631  63.364  1.00  0.00    -0.131 C  
HETATM   33  C   UNL     1      -7.790   3.595  65.461  1.00  0.00    -0.089 C  
HETATM   34  C   UNL     1      -6.350   3.553  66.093  1.00  0.00    -0.032 C  
HETATM   35  C   UNL     1      -6.334   4.207  67.420  1.00  0.00    -0.037 A  
HETATM   36  C   UNL     1      -5.434   4.981  68.128  1.00  0.00    -0.012 A  
HETATM   37  N   UNL     1      -6.015   5.317  69.319  1.00  0.00    -0.022 NA 
HETATM   38  H   UNL     1      -5.607   5.948  70.009  1.00  0.00     0.000 HD 
HETATM   39  C   UNL     1      -7.228   4.681  69.453  1.00  0.00    -0.052 A  
HETATM   40  C   UNL     1      -8.170   4.629  70.476  1.00  0.00    -0.085 A  
HETATM   41  C   UNL     1      -9.326   3.869  70.219  1.00  0.00    -0.238 A  
HETATM   42  C   UNL     1      -9.597   3.336  68.950  1.00  0.00    -0.102 A  
HETATM   43  C   UNL     1      -8.700   3.530  67.902  1.00  0.00    -0.130 A  
HETATM   44  C   UNL     1      -7.464   4.082  68.235  1.00  0.00    -0.059 A  
HETATM   45  C   UNL     1      -9.032   3.362  66.436  1.00  0.00    -0.153 C  
HETATM   46  C   UNL     1     -10.205   4.323  66.064  1.00  0.00    -0.183 C  
ENDBRANCH  27  29
ENDBRANCH  13  25
TORSDOF 4
ENDMDL
MODEL       44
REMARK 921   NORMALIZED FREE ENERGY PREDICTED BY IDOCK:   -6.43 KCAL/MOL
REMARK 922        TOTAL FREE ENERGY PREDICTED BY IDOCK:   -9.17 KCAL/MOL
REMARK 923 INTER-LIGAND FREE ENERGY PREDICTED BY IDOCK:   -7.47 KCAL/MOL
REMARK 924 INTRA-LIGAND FREE ENERGY PREDICTED BY IDOCK:   -1.69 KCAL/MOL
REMARK 927      BINDING AFFINITY PREDICTED BY RF-SCORE:    0.00 PKD
ROOT
HETATM    1  C   UNL     1      -9.749   6.629  72.883  1.00  0.00    -0.154 C  
HETATM    2  C   UNL     1     -10.113   6.130  74.282  1.00  0.00    -0.322 C  
HETATM    3  C   UNL     1     -10.553   4.661  74.019  1.00  0.00    -0.346 C  
HETATM    4  C   UNL     1     -10.679   4.519  72.498  1.00  0.00    -0.120 C  
HETATM    5  N   UNL     1     -10.567   5.869  71.982  1.00  0.00    -0.213 N  
HETATM    6  C   UNL     1     -10.356   6.020  70.625  1.00  0.00    -0.222 C  
HETATM    7  O   UNL     1     -11.033   5.436  69.784  1.00  0.00    -0.246 OA 
HETATM    8  C   UNL     1      -9.286   7.099  70.248  1.00  0.00    -0.156 C  
HETATM    9  O   UNL     1      -9.583   9.293  71.754  1.00  0.00    -0.291 OA 
HETATM   10  N   UNL     1      -8.371   7.581  71.399  1.00  0.00    -0.106 N  
HETATM   11  C   UNL     1      -7.688   8.763  71.288  1.00  0.00    -0.120 C  
HETATM   12  H   UNL     1      -8.176   9.331  73.369  1.00  0.00     0.000 HD 
HETATM   13  C   UNL     1      -8.659   9.677  70.500  1.00  0.00    -0.092 C  
HETATM   14  O   UNL     1      -6.650   8.976  71.911  1.00  0.00    -0.197 OA 
HETATM   15  O   UNL     1      -8.514   8.483  73.631  1.00  0.00    -0.353 OA 
HETATM   16  C   UNL     1      -7.215  10.170  69.954  1.00  0.00    -0.155 C  
HETATM   17  C   UNL     1      -9.180   8.056  72.441  1.00  0.00    -0.202 C  
ENDROOT
BRANCH   8  18
HETATM   18  C   UNL     1      -8.501   6.723  68.982  1.00  0.00    -0.128 C  
BRANCH  18  19
HETATM   19  C   UNL     1      -7.819   5.409  69.216  1.00  0.00    -0.089 A  
HETATM   20  C   UNL     1      -5.859   4.296  70.081  1.00  0.00    -0.017 A  
HETATM   21  C   UNL     1      -6.057   3.259  69.173  1.00  0.00    -0.024 A  
HETATM   22  C   UNL     1      -8.059   4.332  68.359  1.00  0.00    -0.081 A  
HETATM   23  C   UNL     1      -7.174   3.263  68.334  1.00  0.00    -0.050 A  
HETATM   24  C   UNL     1      -6.755   5.354  70.126  1.00  0.00    -0.047 A  
ENDBRANCH  18  19
ENDBRANCH   8  18
BRANCH  13  25
HETATM   25  N   UNL     1      -9.431  10.610  69.658  1.00  0.00    -0.419 N  
HETATM   26  O   UNL     1     -11.204   9.489  68.731  1.00  0.00    -0.063 OA 
HETATM   27  C   UNL     1     -10.694  10.545  69.080  1.00  0.00    -0.231 C  
HETATM   28  H   UNL     1      -8.938  11.480  69.459  1.00  0.00     0.000 HD 
BRANCH  27  29
HETATM   29  C   UNL     1     -11.368  11.975  68.857  1.00  0.00    -0.333 C  
HETATM   30  C   UNL     1     -10.498  13.229  69.163  1.00  0.00     0.086 C  
HETATM   31  N   UNL     1     -10.738  14.420  68.301  1.00  0.00    -0.237 NA 
HETATM   32  C   UNL     1     -12.000  15.126  68.508  1.00  0.00    -0.214 C  
HETATM   33  C   UNL     1     -10.455  14.141  66.872  1.00  0.00    -0.272 C  
HETATM   34  C   UNL     1      -8.939  14.471  66.609  1.00  0.00    -0.247 C  
HETATM   35  C   UNL     1      -8.092  13.279  66.831  1.00  0.00     0.079 A  
HETATM   36  C   UNL     1      -6.826  13.048  67.336  1.00  0.00    -0.118 A  
HETATM   37  N   UNL     1      -6.603  11.700  67.310  1.00  0.00    -0.109 NA 
HETATM   38  H   UNL     1      -5.779  11.238  67.695  1.00  0.00     0.000 HD 
HETATM   39  C   UNL     1      -7.650  11.055  66.691  1.00  0.00    -0.146 A  
HETATM   40  C   UNL     1      -7.887   9.726  66.355  1.00  0.00    -0.106 A  
HETATM   41  C   UNL     1      -9.119   9.452  65.734  1.00  0.00    -0.249 A  
HETATM   42  C   UNL     1     -10.123  10.425  65.614  1.00  0.00    -0.337 A  
HETATM   43  C   UNL     1      -9.909  11.715  66.094  1.00  0.00    -0.250 A  
HETATM   44  C   UNL     1      -8.609  12.024  66.492  1.00  0.00    -0.100 A  
HETATM   45  C   UNL     1     -10.999  12.722  66.384  1.00  0.00    -0.305 C  
HETATM   46  C   UNL     1     -11.983  12.124  67.439  1.00  0.00    -0.168 C  
ENDBRANCH  27  29
ENDBRANCH  13  25
TORSDOF 4
ENDMDL
MODEL       45
REMARK 921   NORMALIZED FREE ENERGY PREDICTED BY IDOCK:   -6.40 KCAL/MOL
REMARK 922        TOTAL FREE ENERGY PREDICTED BY IDOCK:   -9.14 KCAL/MOL
REMARK 923 INTER-LIGAND FREE ENERGY PREDICTED BY IDOCK:   -6.91 KCAL/MOL
REMARK 924 INTRA-LIGAND FREE ENERGY PREDICTED BY IDOCK:   -2.22 KCAL/MOL
REMARK 927      BINDING AFFINITY PREDICTED BY RF-SCORE:    0.00 PKD
ROOT
HETATM    1  C   UNL     1      -9.277  11.185  67.280  1.00  0.00    -0.160 C  
HETATM    2  C   UNL     1     -10.095  12.344  66.711  1.00  0.00    -0.226 C  
HETATM    3  C   UNL     1      -9.177  13.573  66.973  1.00  0.00    -0.248 C  
HETATM    4  C   UNL     1      -8.062  13.082  67.903  1.00  0.00    -0.158 C  
HETATM    5  N   UNL     1      -8.475  11.758  68.323  1.00  0.00    -0.157 N  
HETATM    6  C   UNL     1      -7.532  10.957  68.935  1.00  0.00    -0.116 C  
HETATM    7  O   UNL     1      -6.828  11.356  69.860  1.00  0.00    -0.092 OA 
HETATM    8  C   UNL     1      -7.531   9.467  68.456  1.00  0.00    -0.080 C  
HETATM    9  O   UNL     1     -10.036   8.549  68.217  1.00  0.00    -0.171 OA 
HETATM   10  N   UNL     1      -8.305   9.173  67.148  1.00  0.00    -0.116 N  
HETATM   11  C   UNL     1      -8.696   7.894  66.851  1.00  0.00    -0.131 C  
HETATM   12  H   UNL     1     -10.689   8.577  66.177  1.00  0.00     0.000 HD 
HETATM   13  C   UNL     1      -9.047   7.286  68.231  1.00  0.00    -0.134 C  
HETATM   14  O   UNL     1      -8.888   7.526  65.694  1.00  0.00    -0.134 OA 
HETATM   15  O   UNL     1     -10.482   9.504  66.164  1.00  0.00    -0.170 OA 
HETATM   16  C   UNL     1      -8.436   6.007  67.446  1.00  0.00    -0.104 C  
HETATM   17  C   UNL     1      -9.624   9.625  67.301  1.00  0.00    -0.164 C  
ENDROOT
BRANCH   8  18
HETATM   18  C   UNL     1      -6.123   8.853  68.464  1.00  0.00    -0.046 C  
BRANCH  18  19
HETATM   19  C   UNL     1      -5.531   8.998  67.095  1.00  0.00    -0.041 A  
HETATM   20  C   UNL     1      -5.282  10.421  65.162  1.00  0.00    -0.110 A  
HETATM   21  C   UNL     1      -5.154   9.293  64.357  1.00  0.00    -0.050 A  
HETATM   22  C   UNL     1      -5.326   7.869  66.298  1.00  0.00    -0.025 A  
HETATM   23  C   UNL     1      -5.145   8.019  64.929  1.00  0.00    -0.032 A  
HETATM   24  C   UNL     1      -5.439  10.277  66.533  1.00  0.00    -0.048 A  
ENDBRANCH  18  19
ENDBRANCH   8  18
BRANCH  13  25
HETATM   25  N   UNL     1      -9.299   6.548  69.483  1.00  0.00    -0.148 N  
HETATM   26  O   UNL     1     -11.521   5.990  69.590  1.00  0.00    -0.394 OA 
HETATM   27  C   UNL     1     -10.366   5.780  69.935  1.00  0.00    -0.262 C  
HETATM   28  H   UNL     1      -8.534   6.616  70.154  1.00  0.00     0.000 HD 
BRANCH  27  29
HETATM   29  C   UNL     1      -9.943   4.659  70.991  1.00  0.00    -0.270 C  
HETATM   30  C   UNL     1      -8.466   4.661  71.479  1.00  0.00    -0.111 C  
HETATM   31  N   UNL     1      -8.241   4.239  72.890  1.00  0.00    -0.093 NA 
HETATM   32  C   UNL     1      -8.436   2.821  73.181  1.00  0.00    -0.075 C  
HETATM   33  C   UNL     1      -8.927   5.131  73.857  1.00  0.00    -0.116 C  
HETATM   34  C   UNL     1      -7.934   6.293  74.226  1.00  0.00    -0.104 C  
HETATM   35  C   UNL     1      -8.098   7.443  73.310  1.00  0.00    -0.141 A  
HETATM   36  C   UNL     1      -7.256   8.377  72.737  1.00  0.00    -0.069 A  
HETATM   37  N   UNL     1      -8.011   9.191  71.940  1.00  0.00    -0.288 NA 
HETATM   38  H   UNL     1      -7.639   9.923  71.335  1.00  0.00     0.000 HD 
HETATM   39  C   UNL     1      -9.346   8.882  72.072  1.00  0.00    -0.149 A  
HETATM   40  C   UNL     1     -10.510   9.435  71.547  1.00  0.00    -0.299 A  
HETATM   41  C   UNL     1     -11.715   8.806  71.909  1.00  0.00    -0.429 A  
HETATM   42  C   UNL     1     -11.738   7.594  72.615  1.00  0.00    -0.323 A  
HETATM   43  C   UNL     1     -10.545   6.986  73.003  1.00  0.00    -0.323 A  
HETATM   44  C   UNL     1      -9.382   7.738  72.838  1.00  0.00    -0.278 A  
HETATM   45  C   UNL     1     -10.404   5.536  73.405  1.00  0.00    -0.243 C  
HETATM   46  C   UNL     1     -10.882   4.629  72.228  1.00  0.00    -0.085 C  
ENDBRANCH  27  29
ENDBRANCH  13  25
TORSDOF 4
ENDMDL
MODEL       46
REMARK 921   NORMALIZED FREE ENERGY PREDICTED BY IDOCK:   -6.39 KCAL/MOL
REMARK 922        TOTAL FREE ENERGY PREDICTED BY IDOCK:   -9.12 KCAL/MOL
REMARK 923 INTER-LIGAND FREE ENERGY PREDICTED BY IDOCK:   -6.30 KCAL/MOL
REMARK 924 INTRA-LIGAND FREE ENERGY PREDICTED BY IDOCK:   -2.82 KCAL/MOL
REMARK 927      BINDING AFFINITY PREDICTED BY RF-SCORE:    0.00 PKD
ROOT
HETATM    1  C   UNL     1      -9.621   3.464  73.113  1.00  0.00    -0.110 C  
HETATM    2  C   UNL     1     -10.592   3.003  74.200  1.00  0.00    -0.252 C  
HETATM    3  C   UNL     1     -11.038   1.602  73.690  1.00  0.00    -0.258 C  
HETATM    4  C   UNL     1     -10.528   1.490  72.249  1.00  0.00    -0.149 C  
HETATM    5  N   UNL     1     -10.062   2.820  71.909  1.00  0.00    -0.134 N  
HETATM    6  C   UNL     1      -9.285   2.955  70.775  1.00  0.00    -0.135 C  
HETATM    7  O   UNL     1      -9.606   2.467  69.694  1.00  0.00    -0.100 OA 
HETATM    8  C   UNL     1      -8.045   3.895  70.943  1.00  0.00    -0.066 C  
HETATM    9  O   UNL     1      -8.706   6.096  72.318  1.00  0.00    -0.136 OA 
HETATM   10  N   UNL     1      -7.652   4.250  72.397  1.00  0.00    -0.072 N  
HETATM   11  C   UNL     1      -6.861   5.339  72.651  1.00  0.00    -0.076 C  
HETATM   12  H   UNL     1      -8.113   5.945  74.371  1.00  0.00     0.000 HD 
HETATM   13  C   UNL     1      -7.304   6.373  71.588  1.00  0.00    -0.088 C  
HETATM   14  O   UNL     1      -6.165   5.415  73.662  1.00  0.00    -0.053 OA 
HETATM   15  O   UNL     1      -8.620   5.143  74.417  1.00  0.00    -0.109 OA 
HETATM   16  C   UNL     1      -5.720   6.687  71.723  1.00  0.00    -0.036 C  
HETATM   17  C   UNL     1      -8.767   4.813  73.035  1.00  0.00    -0.113 C  
ENDROOT
BRANCH   8  18
HETATM   18  C   UNL     1      -6.846   3.435  70.098  1.00  0.00    -0.034 C  
BRANCH  18  19
HETATM   19  C   UNL     1      -6.729   4.337  68.907  1.00  0.00    -0.046 A  
HETATM   20  C   UNL     1      -7.577   4.875  66.712  1.00  0.00    -0.088 A  
HETATM   21  C   UNL     1      -6.324   5.369  66.358  1.00  0.00    -0.039 A  
HETATM   22  C   UNL     1      -5.495   4.901  68.575  1.00  0.00    -0.015 A  
HETATM   23  C   UNL     1      -5.293   5.410  67.299  1.00  0.00    -0.008 A  
HETATM   24  C   UNL     1      -7.790   4.389  67.993  1.00  0.00    -0.080 A  
ENDBRANCH  18  19
ENDBRANCH   8  18
BRANCH  13  25
HETATM   25  N   UNL     1      -7.543   7.402  70.559  1.00  0.00    -0.085 N  
HETATM   26  O   UNL     1      -7.693   9.454  71.572  1.00  0.00    -0.321 OA 
HETATM   27  C   UNL     1      -7.470   8.791  70.569  1.00  0.00    -0.075 C  
HETATM   28  H   UNL     1      -7.818   7.017  69.656  1.00  0.00     0.000 HD 
BRANCH  27  29
HETATM   29  C   UNL     1      -7.141   9.423  69.139  1.00  0.00    -0.062 C  
HETATM   30  C   UNL     1      -7.229   8.479  67.905  1.00  0.00    -0.088 C  
HETATM   31  N   UNL     1      -7.693   9.102  66.635  1.00  0.00    -0.096 NA 
HETATM   32  C   UNL     1      -6.761  10.021  65.986  1.00  0.00    -0.100 C  
HETATM   33  C   UNL     1      -9.066   9.651  66.750  1.00  0.00    -0.146 C  
HETATM   34  C   UNL     1     -10.074   8.508  66.357  1.00  0.00    -0.271 C  
HETATM   35  C   UNL     1     -10.473   7.722  67.545  1.00  0.00    -0.338 A  
HETATM   36  C   UNL     1     -10.764   6.395  67.798  1.00  0.00    -0.303 A  
HETATM   37  N   UNL     1     -11.047   6.273  69.129  1.00  0.00    -0.372 NA 
HETATM   38  H   UNL     1     -11.222   5.390  69.610  1.00  0.00     0.000 HD 
HETATM   39  C   UNL     1     -11.061   7.512  69.729  1.00  0.00    -0.129 A  
HETATM   40  C   UNL     1     -11.351   7.944  71.020  1.00  0.00    -0.292 A  
HETATM   41  C   UNL     1     -11.227   9.326  71.255  1.00  0.00    -0.425 A  
HETATM   42  C   UNL     1     -10.681  10.196  70.300  1.00  0.00    -0.352 A  
HETATM   43  C   UNL     1     -10.262   9.707  69.064  1.00  0.00    -0.209 A  
HETATM   44  C   UNL     1     -10.605   8.388  68.769  1.00  0.00    -0.154 A  
HETATM   45  C   UNL     1      -9.324  10.426  68.121  1.00  0.00    -0.149 C  
HETATM   46  C   UNL     1      -7.974  10.702  68.854  1.00  0.00    -0.132 C  
ENDBRANCH  27  29
ENDBRANCH  13  25
TORSDOF 4
ENDMDL
MODEL       47
REMARK 921   NORMALIZED FREE ENERGY PREDICTED BY IDOCK:   -6.39 KCAL/MOL
REMARK 922        TOTAL FREE ENERGY PREDICTED BY IDOCK:   -9.12 KCAL/MOL
REMARK 923 INTER-LIGAND FREE ENERGY PREDICTED BY IDOCK:   -6.51 KCAL/MOL
REMARK 924 INTRA-LIGAND FREE ENERGY PREDICTED BY IDOCK:   -2.61 KCAL/MOL
REMARK 927      BINDING AFFINITY PREDICTED BY RF-SCORE:    0.00 PKD
ROOT
HETATM    1  C   UNL     1      -9.421  12.387  67.466  1.00  0.00    -0.187 C  
HETATM    2  C   UNL     1      -9.483  13.574  66.503  1.00  0.00    -0.265 C  
HETATM    3  C   UNL     1     -10.969  14.023  66.607  1.00  0.00    -0.300 C  
HETATM    4  C   UNL     1     -11.697  12.916  67.378  1.00  0.00    -0.372 C  
HETATM    5  N   UNL     1     -10.743  11.828  67.468  1.00  0.00    -0.213 N  
HETATM    6  C   UNL     1     -11.017  10.808  68.357  1.00  0.00    -0.248 C  
HETATM    7  O   UNL     1     -12.110  10.249  68.402  1.00  0.00    -0.068 OA 
HETATM    8  C   UNL     1      -9.788  10.328  69.199  1.00  0.00    -0.216 C  
HETATM    9  O   UNL     1      -7.605  10.137  67.659  1.00  0.00    -0.090 OA 
HETATM   10  N   UNL     1      -8.554  11.262  69.195  1.00  0.00     0.032 N  
HETATM   11  C   UNL     1      -7.324  10.781  69.555  1.00  0.00    -0.124 C  
HETATM   12  H   UNL     1      -6.332  11.845  67.889  1.00  0.00     0.000 HD 
HETATM   13  C   UNL     1      -7.323   9.329  69.016  1.00  0.00    -0.072 C  
HETATM   14  O   UNL     1      -6.444  11.515  70.001  1.00  0.00    -0.139 OA 
HETATM   15  O   UNL     1      -7.078  12.384  67.652  1.00  0.00    -0.106 OA 
HETATM   16  C   UNL     1      -6.455   9.183  70.376  1.00  0.00    -0.051 C  
HETATM   17  C   UNL     1      -8.166  11.482  67.865  1.00  0.00    -0.134 C  
ENDROOT
BRANCH   8  18
HETATM   18  C   UNL     1     -10.189   9.877  70.612  1.00  0.00    -0.203 C  
BRANCH  18  19
HETATM   19  C   UNL     1     -10.113   8.382  70.675  1.00  0.00    -0.220 A  
HETATM   20  C   UNL     1     -11.251   6.299  70.237  1.00  0.00    -0.455 A  
HETATM   21  C   UNL     1     -10.539   5.701  71.273  1.00  0.00    -0.321 A  
HETATM   22  C   UNL     1      -9.346   7.761  71.664  1.00  0.00    -0.174 A  
HETATM   23  C   UNL     1      -9.565   6.424  71.965  1.00  0.00    -0.157 A  
HETATM   24  C   UNL     1     -11.018   7.628  69.916  1.00  0.00    -0.208 A  
ENDBRANCH  18  19
ENDBRANCH   8  18
BRANCH  13  25
HETATM   25  N   UNL     1      -7.235   7.900  68.663  1.00  0.00    -0.079 N  
HETATM   26  O   UNL     1      -5.228   7.508  67.624  1.00  0.00    -0.026 OA 
HETATM   27  C   UNL     1      -6.184   7.084  68.261  1.00  0.00    -0.035 C  
HETATM   28  H   UNL     1      -8.127   7.410  68.729  1.00  0.00     0.000 HD 
BRANCH  27  29
HETATM   29  C   UNL     1      -6.384   5.547  68.647  1.00  0.00    -0.041 C  
HETATM   30  C   UNL     1      -7.774   5.129  69.208  1.00  0.00    -0.076 C  
HETATM   31  N   UNL     1      -8.240   3.761  68.849  1.00  0.00    -0.072 NA 
HETATM   32  C   UNL     1      -7.541   2.649  69.488  1.00  0.00    -0.043 C  
HETATM   33  C   UNL     1      -8.392   3.588  67.384  1.00  0.00    -0.091 C  
HETATM   34  C   UNL     1      -9.860   4.004  67.001  1.00  0.00    -0.151 C  
HETATM   35  C   UNL     1      -9.934   5.444  66.666  1.00  0.00    -0.220 A  
HETATM   36  C   UNL     1     -10.860   6.453  66.846  1.00  0.00    -0.357 A  
HETATM   37  N   UNL     1     -10.333   7.604  66.333  1.00  0.00    -0.467 NA 
HETATM   38  H   UNL     1     -10.767   8.525  66.398  1.00  0.00     0.000 HD 
HETATM   39  C   UNL     1      -9.130   7.343  65.715  1.00  0.00     0.041 A  
HETATM   40  C   UNL     1      -8.237   8.131  64.995  1.00  0.00    -0.157 A  
HETATM   41  C   UNL     1      -7.076   7.486  64.531  1.00  0.00    -0.065 A  
HETATM   42  C   UNL     1      -6.749   6.177  64.912  1.00  0.00    -0.043 A  
HETATM   43  C   UNL     1      -7.596   5.461  65.757  1.00  0.00    -0.083 A  
HETATM   44  C   UNL     1      -8.843   6.030  66.015  1.00  0.00    -0.159 A  
HETATM   45  C   UNL     1      -7.198   4.233  66.544  1.00  0.00    -0.075 C  
HETATM   46  C   UNL     1      -6.003   4.592  67.483  1.00  0.00    -0.023 C  
ENDBRANCH  27  29
ENDBRANCH  13  25
TORSDOF 4
ENDMDL
MODEL       48
REMARK 921   NORMALIZED FREE ENERGY PREDICTED BY IDOCK:   -6.37 KCAL/MOL
REMARK 922        TOTAL FREE ENERGY PREDICTED BY IDOCK:   -9.09 KCAL/MOL
REMARK 923 INTER-LIGAND FREE ENERGY PREDICTED BY IDOCK:   -7.10 KCAL/MOL
REMARK 924 INTRA-LIGAND FREE ENERGY PREDICTED BY IDOCK:   -1.99 KCAL/MOL
REMARK 927      BINDING AFFINITY PREDICTED BY RF-SCORE:    0.00 PKD
ROOT
HETATM    1  C   UNL     1     -10.711  13.253  67.201  1.00  0.00    -0.259 C  
HETATM    2  C   UNL     1     -11.790  14.326  67.347  1.00  0.00    -0.441 C  
HETATM    3  C   UNL     1     -10.980  15.564  67.828  1.00  0.00    -0.317 C  
HETATM    4  C   UNL     1      -9.583  15.047  68.187  1.00  0.00    -0.207 C  
HETATM    5  N   UNL     1      -9.693  13.602  68.150  1.00  0.00    -0.224 N  
HETATM    6  C   UNL     1      -8.522  12.870  68.149  1.00  0.00    -0.176 C  
HETATM    7  O   UNL     1      -7.614  13.078  68.950  1.00  0.00    -0.070 OA 
HETATM    8  C   UNL     1      -8.504  11.669  67.145  1.00  0.00    -0.162 C  
HETATM    9  O   UNL     1     -10.839  10.358  67.199  1.00  0.00    -0.273 OA 
HETATM   10  N   UNL     1      -9.610  11.671  66.063  1.00  0.00    -0.223 N  
HETATM   11  C   UNL     1      -9.929  10.515  65.401  1.00  0.00    -0.289 C  
HETATM   12  H   UNL     1     -12.096  10.927  65.561  1.00  0.00     0.000 HD 
HETATM   13  C   UNL     1      -9.760   9.415  66.477  1.00  0.00    -0.236 C  
HETATM   14  O   UNL     1     -10.430  10.526  64.279  1.00  0.00    -0.287 OA 
HETATM   15  O   UNL     1     -12.009  11.826  65.858  1.00  0.00    -0.405 OA 
HETATM   16  C   UNL     1      -9.286   8.645  65.133  1.00  0.00     0.046 C  
HETATM   17  C   UNL     1     -10.857  11.742  66.701  1.00  0.00    -0.276 C  
ENDROOT
BRANCH   8  18
HETATM   18  C   UNL     1      -7.104  11.415  66.565  1.00  0.00    -0.058 C  
BRANCH  18  19
HETATM   19  C   UNL     1      -6.661  10.042  66.973  1.00  0.00    -0.078 A  
HETATM   20  C   UNL     1      -5.673   8.691  68.712  1.00  0.00    -0.041 A  
HETATM   21  C   UNL     1      -5.170   7.827  67.743  1.00  0.00    -0.031 A  
HETATM   22  C   UNL     1      -6.220   9.134  66.008  1.00  0.00    -0.063 A  
HETATM   23  C   UNL     1      -5.469   8.032  66.395  1.00  0.00    -0.028 A  
HETATM   24  C   UNL     1      -6.445   9.780  68.332  1.00  0.00    -0.055 A  
ENDBRANCH  18  19
ENDBRANCH   8  18
BRANCH  13  25
HETATM   25  N   UNL     1      -9.523   8.262  67.366  1.00  0.00    -0.147 N  
HETATM   26  O   UNL     1     -11.524   7.229  67.802  1.00  0.00     0.264 OA 
HETATM   27  C   UNL     1     -10.304   7.173  67.737  1.00  0.00    -0.202 C  
HETATM   28  H   UNL     1      -8.598   8.263  67.795  1.00  0.00     0.000 HD 
BRANCH  27  29
HETATM   29  C   UNL     1      -9.451   5.882  68.133  1.00  0.00    -0.120 C  
HETATM   30  C   UNL     1      -7.987   6.112  68.607  1.00  0.00    -0.101 C  
HETATM   31  N   UNL     1      -7.478   5.173  69.645  1.00  0.00    -0.060 NA 
HETATM   32  C   UNL     1      -7.223   3.802  69.210  1.00  0.00    -0.049 C  
HETATM   33  C   UNL     1      -8.265   5.248  70.901  1.00  0.00    -0.112 C  
HETATM   34  C   UNL     1      -7.606   6.346  71.815  1.00  0.00    -0.095 C  
HETATM   35  C   UNL     1      -8.204   7.675  71.563  1.00  0.00    -0.108 A  
HETATM   36  C   UNL     1      -7.741   8.977  71.537  1.00  0.00     0.015 A  
HETATM   37  N   UNL     1      -8.789   9.790  71.210  1.00  0.00    -0.129 NA 
HETATM   38  H   UNL     1      -8.720  10.794  71.044  1.00  0.00     0.000 HD 
HETATM   39  C   UNL     1      -9.954   9.059  71.136  1.00  0.00    -0.295 A  
HETATM   40  C   UNL     1     -11.283   9.402  70.907  1.00  0.00    -0.393 A  
HETATM   41  C   UNL     1     -12.204   8.339  70.884  1.00  0.00    -0.101 A  
HETATM   42  C   UNL     1     -11.793   6.998  70.917  1.00  0.00    -0.401 A  
HETATM   43  C   UNL     1     -10.438   6.683  70.999  1.00  0.00    -0.246 A  
HETATM   44  C   UNL     1      -9.566   7.742  71.253  1.00  0.00    -0.178 A  
HETATM   45  C   UNL     1      -9.840   5.337  70.656  1.00  0.00    -0.264 C  
HETATM   46  C   UNL     1     -10.182   4.988  69.173  1.00  0.00    -0.227 C  
ENDBRANCH  27  29
ENDBRANCH  13  25
TORSDOF 4
ENDMDL
MODEL       49
REMARK 921   NORMALIZED FREE ENERGY PREDICTED BY IDOCK:   -6.36 KCAL/MOL
REMARK 922        TOTAL FREE ENERGY PREDICTED BY IDOCK:   -9.08 KCAL/MOL
REMARK 923 INTER-LIGAND FREE ENERGY PREDICTED BY IDOCK:   -9.84 KCAL/MOL
REMARK 924 INTRA-LIGAND FREE ENERGY PREDICTED BY IDOCK:    0.76 KCAL/MOL
REMARK 927      BINDING AFFINITY PREDICTED BY RF-SCORE:    0.00 PKD
ROOT
HETATM    1  C   UNL     1      -8.500   6.674  69.915  1.00  0.00    -0.139 C  
HETATM    2  C   UNL     1      -7.928   5.259  70.007  1.00  0.00    -0.080 C  
HETATM    3  C   UNL     1      -8.315   4.826  71.451  1.00  0.00    -0.108 C  
HETATM    4  C   UNL     1      -8.813   6.091  72.157  1.00  0.00    -0.135 C  
HETATM    5  N   UNL     1      -8.487   7.180  71.258  1.00  0.00    -0.113 N  
HETATM    6  C   UNL     1      -9.073   8.407  71.498  1.00  0.00    -0.195 C  
HETATM    7  O   UNL     1      -9.075   8.930  72.609  1.00  0.00    -0.321 OA 
HETATM    8  C   UNL     1      -9.605   9.137  70.220  1.00  0.00    -0.213 C  
HETATM    9  O   UNL     1      -7.849   8.924  68.209  1.00  0.00    -0.099 OA 
HETATM   10  N   UNL     1      -9.735   8.269  68.945  1.00  0.00    -0.161 N  
HETATM   11  C   UNL     1      -9.807   8.861  67.712  1.00  0.00    -0.166 C  
HETATM   12  H   UNL     1      -8.416   7.384  66.833  1.00  0.00     0.000 HD 
HETATM   13  C   UNL     1      -8.881  10.095  67.840  1.00  0.00    -0.125 C  
HETATM   14  O   UNL     1     -10.345   8.307  66.756  1.00  0.00    -0.310 OA 
HETATM   15  O   UNL     1      -8.424   6.783  67.569  1.00  0.00    -0.121 OA 
HETATM   16  C   UNL     1     -10.041  10.647  66.853  1.00  0.00    -0.260 C  
HETATM   17  C   UNL     1      -8.488   7.684  68.676  1.00  0.00    -0.129 C  
ENDROOT
BRANCH   8  18
HETATM   18  C   UNL     1     -10.867   9.966  70.505  1.00  0.00    -0.391 C  
BRANCH  18  19
HETATM   19  C   UNL     1     -11.869   9.089  71.192  1.00  0.00    -0.362 A  
HETATM   20  C   UNL     1     -13.062   6.992  71.142  1.00  0.00    -0.260 A  
HETATM   21  C   UNL     1     -14.113   7.582  71.838  1.00  0.00    -0.436 A  
HETATM   22  C   UNL     1     -12.890   9.659  71.956  1.00  0.00    -0.497 A  
HETATM   23  C   UNL     1     -14.014   8.906  72.271  1.00  0.00    -0.531 A  
HETATM   24  C   UNL     1     -11.927   7.733  70.846  1.00  0.00    -0.229 A  
ENDBRANCH  18  19
ENDBRANCH   8  18
BRANCH  13  25
HETATM   25  N   UNL     1      -8.129  11.364  67.862  1.00  0.00    -0.121 N  
HETATM   26  O   UNL     1      -8.863  12.699  66.148  1.00  0.00     0.008 OA 
HETATM   27  C   UNL     1      -8.319  12.592  67.239  1.00  0.00    -0.185 C  
HETATM   28  H   UNL     1      -7.300  11.334  68.455  1.00  0.00     0.000 HD 
BRANCH  27  29
HETATM   29  C   UNL     1      -7.701  13.821  68.049  1.00  0.00    -0.152 C  
HETATM   30  C   UNL     1      -7.444  15.138  67.259  1.00  0.00    -0.194 C  
HETATM   31  N   UNL     1      -7.631  16.405  68.019  1.00  0.00    -0.148 NA 
HETATM   32  C   UNL     1      -6.627  16.706  69.036  1.00  0.00    -0.198 C  
HETATM   33  C   UNL     1      -9.022  16.561  68.510  1.00  0.00    -0.231 C  
HETATM   34  C   UNL     1      -9.844  17.308  67.395  1.00  0.00    -0.272 C  
HETATM   35  C   UNL     1     -10.465  16.345  66.460  1.00  0.00    -0.282 A  
HETATM   36  C   UNL     1     -10.733  16.318  65.104  1.00  0.00    -0.331 A  
HETATM   37  N   UNL     1     -11.312  15.115  64.814  1.00  0.00    -0.514 NA 
HETATM   38  H   UNL     1     -11.544  14.791  63.875  1.00  0.00     0.000 HD 
HETATM   39  C   UNL     1     -11.535  14.402  65.970  1.00  0.00    -0.349 A  
HETATM   40  C   UNL     1     -12.143  13.179  66.234  1.00  0.00    -0.460 A  
HETATM   41  C   UNL     1     -12.156  12.769  67.580  1.00  0.00    -0.213 A  
HETATM   42  C   UNL     1     -11.452  13.463  68.575  1.00  0.00    -0.345 A  
HETATM   43  C   UNL     1     -10.729  14.609  68.251  1.00  0.00    -0.240 A  
HETATM   44  C   UNL     1     -10.917  15.123  66.968  1.00  0.00    -0.322 A  
HETATM   45  C   UNL     1      -9.638  15.215  69.106  1.00  0.00    -0.232 C  
HETATM   46  C   UNL     1      -8.514  14.154  69.329  1.00  0.00     0.322 C  
ENDBRANCH  27  29
ENDBRANCH  13  25
TORSDOF 4
ENDMDL
MODEL       50
REMARK 921   NORMALIZED FREE ENERGY PREDICTED BY IDOCK:   -6.31 KCAL/MOL
REMARK 922        TOTAL FREE ENERGY PREDICTED BY IDOCK:   -9.03 KCAL/MOL
REMARK 923 INTER-LIGAND FREE ENERGY PREDICTED BY IDOCK:   -6.94 KCAL/MOL
REMARK 924 INTRA-LIGAND FREE ENERGY PREDICTED BY IDOCK:   -2.08 KCAL/MOL
REMARK 927      BINDING AFFINITY PREDICTED BY RF-SCORE:    0.00 PKD
ROOT
HETATM    1  C   UNL     1     -10.610  14.239  69.206  1.00  0.00    -0.141 C  
HETATM    2  C   UNL     1     -11.166  15.340  70.110  1.00  0.00    -0.313 C  
HETATM    3  C   UNL     1     -10.665  16.639  69.416  1.00  0.00    -0.331 C  
HETATM    4  C   UNL     1      -9.649  16.194  68.359  1.00  0.00    -0.209 C  
HETATM    5  N   UNL     1      -9.419  14.788  68.624  1.00  0.00    -0.209 N  
HETATM    6  C   UNL     1      -8.769  14.051  67.653  1.00  0.00    -0.189 C  
HETATM    7  O   UNL     1      -7.725  14.429  67.128  1.00  0.00    -0.171 OA 
HETATM    8  C   UNL     1      -9.388  12.639  67.382  1.00  0.00    -0.189 C  
HETATM    9  O   UNL     1     -10.045  11.437  69.683  1.00  0.00     0.177 OA 
HETATM   10  N   UNL     1     -10.809  12.400  67.947  1.00  0.00    -0.214 N  
HETATM   11  C   UNL     1     -11.279  11.124  68.113  1.00  0.00    -0.292 C  
HETATM   12  H   UNL     1     -12.141  11.614  70.090  1.00  0.00     0.000 HD 
HETATM   13  C   UNL     1     -10.024  10.320  68.532  1.00  0.00    -0.164 C  
HETATM   14  O   UNL     1     -12.482  10.869  68.113  1.00  0.00    -0.035 OA 
HETATM   15  O   UNL     1     -12.035  12.555  70.019  1.00  0.00    -0.332 OA 
HETATM   16  C   UNL     1     -10.844   9.231  67.655  1.00  0.00    -0.188 C  
HETATM   17  C   UNL     1     -10.789  12.655  69.326  1.00  0.00     0.009 C  
ENDROOT
BRANCH   8  18
HETATM   18  C   UNL     1      -9.254  12.217  65.911  1.00  0.00    -0.069 C  
BRANCH  18  19
HETATM   19  C   UNL     1     -10.552  12.496  65.215  1.00  0.00    -0.319 A  
HETATM   20  C   UNL     1     -12.038  11.866  63.421  1.00  0.00    -0.539 A  
HETATM   21  C   UNL     1     -12.501  13.176  63.355  1.00  0.00    -0.328 A  
HETATM   22  C   UNL     1     -11.072  13.793  65.198  1.00  0.00    -0.330 A  
HETATM   23  C   UNL     1     -12.041  14.132  64.263  1.00  0.00    -0.471 A  
HETATM   24  C   UNL     1     -11.088  11.516  64.369  1.00  0.00    -0.359 A  
ENDBRANCH  18  19
ENDBRANCH   8  18
BRANCH  13  25
HETATM   25  N   UNL     1      -8.895   9.416  68.820  1.00  0.00    -0.131 N  
HETATM   26  O   UNL     1      -6.986  10.661  69.076  1.00  0.00    -0.066 OA 
HETATM   27  C   UNL     1      -7.605   9.629  69.294  1.00  0.00    -0.091 C  
HETATM   28  H   UNL     1      -9.102   8.435  68.634  1.00  0.00     0.000 HD 
BRANCH  27  29
HETATM   29  C   UNL     1      -6.998   8.377  70.078  1.00  0.00    -0.043 C  
HETATM   30  C   UNL     1      -7.823   7.057  70.060  1.00  0.00    -0.113 C  
HETATM   31  N   UNL     1      -7.036   5.792  70.056  1.00  0.00    -0.065 NA 
HETATM   32  C   UNL     1      -6.343   5.455  71.297  1.00  0.00    -0.035 C  
HETATM   33  C   UNL     1      -6.171   5.676  68.857  1.00  0.00    -0.029 C  
HETATM   34  C   UNL     1      -7.004   4.961  67.730  1.00  0.00    -0.061 C  
HETATM   35  C   UNL     1      -7.730   5.947  66.900  1.00  0.00    -0.100 A  
HETATM   36  C   UNL     1      -8.955   5.989  66.261  1.00  0.00    -0.149 A  
HETATM   37  N   UNL     1      -9.074   7.211  65.661  1.00  0.00    -0.380 NA 
HETATM   38  H   UNL     1      -9.910   7.546  65.182  1.00  0.00     0.000 HD 
HETATM   39  C   UNL     1      -7.905   7.924  65.796  1.00  0.00    -0.103 A  
HETATM   40  C   UNL     1      -7.484   9.165  65.325  1.00  0.00    -0.097 A  
HETATM   41  C   UNL     1      -6.191   9.568  65.706  1.00  0.00    -0.064 A  
HETATM   42  C   UNL     1      -5.434   8.848  66.642  1.00  0.00    -0.039 A  
HETATM   43  C   UNL     1      -5.944   7.682  67.208  1.00  0.00    -0.047 A  
HETATM   44  C   UNL     1      -7.119   7.180  66.648  1.00  0.00    -0.078 A  
HETATM   45  C   UNL     1      -5.431   7.039  68.477  1.00  0.00    -0.017 C  
HETATM   46  C   UNL     1      -5.538   8.063  69.650  1.00  0.00    -0.026 C  
ENDBRANCH  27  29
ENDBRANCH  13  25
TORSDOF 4
ENDMDL
MODEL       51
REMARK 921   NORMALIZED FREE ENERGY PREDICTED BY IDOCK:   -6.31 KCAL/MOL
REMARK 922        TOTAL FREE ENERGY PREDICTED BY IDOCK:   -9.03 KCAL/MOL
REMARK 923 INTER-LIGAND FREE ENERGY PREDICTED BY IDOCK:   -6.99 KCAL/MOL
REMARK 924 INTRA-LIGAND FREE ENERGY PREDICTED BY IDOCK:   -2.04 KCAL/MOL
REMARK 927      BINDING AFFINITY PREDICTED BY RF-SCORE:    0.00 PKD
ROOT
HETATM    1  C   UNL     1      -6.734   7.374  70.555  1.00  0.00    -0.047 C  
HETATM    2  C   UNL     1      -5.400   7.162  71.273  1.00  0.00    -0.027 C  
HETATM    3  C   UNL     1      -5.817   7.146  72.772  1.00  0.00    -0.041 C  
HETATM    4  C   UNL     1      -7.273   7.623  72.816  1.00  0.00    -0.077 C  
HETATM    5  N   UNL     1      -7.553   8.105  71.478  1.00  0.00    -0.076 N  
HETATM    6  C   UNL     1      -8.874   8.329  71.142  1.00  0.00    -0.151 C  
HETATM    7  O   UNL     1      -9.636   8.976  71.857  1.00  0.00    -0.287 OA 
HETATM    8  C   UNL     1      -9.280   7.818  69.719  1.00  0.00    -0.150 C  
HETATM    9  O   UNL     1      -7.380   8.406  67.926  1.00  0.00    -0.092 OA 
HETATM   10  N   UNL     1      -8.292   6.840  69.040  1.00  0.00    -0.124 N  
HETATM   11  C   UNL     1      -8.339   6.642  67.686  1.00  0.00    -0.122 C  
HETATM   12  H   UNL     1      -6.135   6.711  67.519  1.00  0.00     0.000 HD 
HETATM   13  C   UNL     1      -8.718   8.034  67.123  1.00  0.00    -0.131 C  
HETATM   14  O   UNL     1      -7.932   5.605  67.166  1.00  0.00    -0.101 OA 
HETATM   15  O   UNL     1      -5.959   6.666  68.452  1.00  0.00    -0.019 OA 
HETATM   16  C   UNL     1      -9.473   7.037  66.092  1.00  0.00    -0.055 C  
HETATM   17  C   UNL     1      -7.029   7.448  68.986  1.00  0.00    -0.077 C  
ENDROOT
BRANCH   8  18
HETATM   18  C   UNL     1     -10.734   7.324  69.671  1.00  0.00    -0.249 C  
BRANCH  18  19
HETATM   19  C   UNL     1     -10.889   6.202  70.652  1.00  0.00    -0.355 A  
HETATM   20  C   UNL     1     -11.527   5.576  72.894  1.00  0.00    -0.327 A  
HETATM   21  C   UNL     1     -10.646   4.500  72.835  1.00  0.00    -0.275 A  
HETATM   22  C   UNL     1     -10.063   5.079  70.567  1.00  0.00    -0.323 A  
HETATM   23  C   UNL     1      -9.937   4.234  71.662  1.00  0.00    -0.250 A  
HETATM   24  C   UNL     1     -11.674   6.408  71.794  1.00  0.00    -0.376 A  
ENDBRANCH  18  19
ENDBRANCH   8  18
BRANCH  13  25
HETATM   25  N   UNL     1      -9.191   9.266  66.465  1.00  0.00    -0.152 N  
HETATM   26  O   UNL     1      -7.481  10.153  65.220  1.00  0.00    -0.136 OA 
HETATM   27  C   UNL     1      -8.680  10.049  65.435  1.00  0.00    -0.159 C  
HETATM   28  H   UNL     1     -10.071   9.616  66.843  1.00  0.00     0.000 HD 
BRANCH  27  29
HETATM   29  C   UNL     1      -9.802  10.841  64.619  1.00  0.00    -0.366 C  
HETATM   30  C   UNL     1     -11.268  10.729  65.130  1.00  0.00     0.450 C  
HETATM   31  N   UNL     1     -12.118  11.939  64.953  1.00  0.00    -0.252 NA 
HETATM   32  C   UNL     1     -12.518  12.254  63.584  1.00  0.00    -0.541 C  
HETATM   33  C   UNL     1     -11.583  13.111  65.688  1.00  0.00    -0.338 C  
HETATM   34  C   UNL     1     -12.205  13.096  67.133  1.00  0.00    -0.250 C  
HETATM   35  C   UNL     1     -11.350  12.335  68.070  1.00  0.00    -0.348 A  
HETATM   36  C   UNL     1     -11.569  11.502  69.151  1.00  0.00    -0.316 A  
HETATM   37  N   UNL     1     -10.353  11.070  69.601  1.00  0.00    -0.446 NA 
HETATM   38  H   UNL     1     -10.216  10.383  70.343  1.00  0.00     0.000 HD 
HETATM   39  C   UNL     1      -9.339  11.695  68.911  1.00  0.00     0.047 A  
HETATM   40  C   UNL     1      -7.952  11.665  69.017  1.00  0.00     0.060 A  
HETATM   41  C   UNL     1      -7.241  12.447  68.089  1.00  0.00    -0.100 A  
HETATM   42  C   UNL     1      -7.875  13.084  67.013  1.00  0.00     0.015 A  
HETATM   43  C   UNL     1      -9.255  12.976  66.849  1.00  0.00    -0.236 A  
HETATM   44  C   UNL     1      -9.963  12.394  67.901  1.00  0.00    -0.204 A  
HETATM   45  C   UNL     1     -10.000  13.265  65.565  1.00  0.00    -0.222 C  
HETATM   46  C   UNL     1      -9.447  12.342  64.434  1.00  0.00     0.237 C  
ENDBRANCH  27  29
ENDBRANCH  13  25
TORSDOF 4
ENDMDL
MODEL       52
REMARK 921   NORMALIZED FREE ENERGY PREDICTED BY IDOCK:   -6.27 KCAL/MOL
REMARK 922        TOTAL FREE ENERGY PREDICTED BY IDOCK:   -8.98 KCAL/MOL
REMARK 923 INTER-LIGAND FREE ENERGY PREDICTED BY IDOCK:   -7.68 KCAL/MOL
REMARK 924 INTRA-LIGAND FREE ENERGY PREDICTED BY IDOCK:   -1.30 KCAL/MOL
REMARK 927      BINDING AFFINITY PREDICTED BY RF-SCORE:    0.00 PKD
ROOT
HETATM    1  C   UNL     1      -7.609   6.022  69.541  1.00  0.00    -0.093 C  
HETATM    2  C   UNL     1      -6.690   5.893  70.756  1.00  0.00    -0.053 C  
HETATM    3  C   UNL     1      -7.537   5.033  71.738  1.00  0.00    -0.104 C  
HETATM    4  C   UNL     1      -8.949   4.976  71.146  1.00  0.00    -0.137 C  
HETATM    5  N   UNL     1      -8.944   5.937  70.061  1.00  0.00    -0.139 N  
HETATM    6  C   UNL     1      -9.992   5.896  69.163  1.00  0.00    -0.165 C  
HETATM    7  O   UNL     1     -11.166   5.859  69.522  1.00  0.00    -0.389 OA 
HETATM    8  C   UNL     1      -9.571   6.043  67.663  1.00  0.00    -0.112 C  
HETATM    9  O   UNL     1      -7.716   7.954  67.384  1.00  0.00    -0.105 OA 
HETATM   10  N   UNL     1      -8.066   5.856  67.357  1.00  0.00    -0.102 N  
HETATM   11  C   UNL     1      -7.535   6.334  66.188  1.00  0.00    -0.085 C  
HETATM   12  H   UNL     1      -5.749   7.121  67.229  1.00  0.00     0.000 HD 
HETATM   13  C   UNL     1      -8.324   7.642  65.933  1.00  0.00    -0.139 C  
HETATM   14  O   UNL     1      -6.521   5.851  65.689  1.00  0.00    -0.040 OA 
HETATM   15  O   UNL     1      -5.911   6.684  68.057  1.00  0.00    -0.022 OA 
HETATM   16  C   UNL     1      -8.080   7.097  64.426  1.00  0.00    -0.056 C  
HETATM   17  C   UNL     1      -7.336   6.756  68.148  1.00  0.00    -0.097 C  
ENDROOT
BRANCH   8  18
HETATM   18  C   UNL     1     -10.475   5.231  66.721  1.00  0.00    -0.330 C  
BRANCH  18  19
HETATM   19  C   UNL     1      -9.845   3.890  66.496  1.00  0.00    -0.125 A  
HETATM   20  C   UNL     1      -8.548   2.099  67.463  1.00  0.00    -0.115 A  
HETATM   21  C   UNL     1      -8.051   1.788  66.200  1.00  0.00    -0.080 A  
HETATM   22  C   UNL     1      -9.405   3.529  65.221  1.00  0.00    -0.157 A  
HETATM   23  C   UNL     1      -8.502   2.483  65.076  1.00  0.00    -0.097 A  
HETATM   24  C   UNL     1      -9.468   3.127  67.609  1.00  0.00    -0.202 A  
ENDBRANCH  18  19
ENDBRANCH   8  18
BRANCH  13  25
HETATM   25  N   UNL     1      -9.076   8.837  65.507  1.00  0.00    -0.333 N  
HETATM   26  O   UNL     1     -10.784   9.214  66.990  1.00  0.00    -0.234 OA 
HETATM   27  C   UNL     1     -10.016   9.643  66.140  1.00  0.00    -0.276 C  
HETATM   28  H   UNL     1      -8.862   9.133  64.555  1.00  0.00     0.000 HD 
BRANCH  27  29
HETATM   29  C   UNL     1     -10.038  11.145  65.597  1.00  0.00    -0.304 C  
HETATM   30  C   UNL     1     -11.326  11.978  65.859  1.00  0.00    -0.337 C  
HETATM   31  N   UNL     1     -11.128  13.435  66.094  1.00  0.00    -0.287 NA 
HETATM   32  C   UNL     1     -10.733  14.231  64.934  1.00  0.00    -0.432 C  
HETATM   33  C   UNL     1     -10.294  13.700  67.292  1.00  0.00    -0.249 C  
HETATM   34  C   UNL     1     -11.256  13.805  68.532  1.00  0.00    -0.304 C  
HETATM   35  C   UNL     1     -11.447  12.484  69.169  1.00  0.00    -0.361 A  
HETATM   36  C   UNL     1     -12.493  11.830  69.792  1.00  0.00     0.012 A  
HETATM   37  N   UNL     1     -12.055  10.589  70.158  1.00  0.00    -0.361 NA 
HETATM   38  H   UNL     1     -12.641   9.861  70.569  1.00  0.00     0.000 HD 
HETATM   39  C   UNL     1     -10.711  10.460  69.892  1.00  0.00    -0.279 A  
HETATM   40  C   UNL     1      -9.784   9.449  70.125  1.00  0.00    -0.274 A  
HETATM   41  C   UNL     1      -8.474   9.690  69.674  1.00  0.00    -0.181 A  
HETATM   42  C   UNL     1      -8.153  10.804  68.884  1.00  0.00    -0.145 A  
HETATM   43  C   UNL     1      -9.139  11.728  68.543  1.00  0.00    -0.144 A  
HETATM   44  C   UNL     1     -10.368  11.594  69.189  1.00  0.00    -0.045 A  
HETATM   45  C   UNL     1      -9.034  12.728  67.413  1.00  0.00    -0.195 C  
HETATM   46  C   UNL     1      -8.806  11.962  66.072  1.00  0.00    -0.007 C  
ENDBRANCH  27  29
ENDBRANCH  13  25
TORSDOF 4
ENDMDL
MODEL       53
REMARK 921   NORMALIZED FREE ENERGY PREDICTED BY IDOCK:   -6.26 KCAL/MOL
REMARK 922        TOTAL FREE ENERGY PREDICTED BY IDOCK:   -8.96 KCAL/MOL
REMARK 923 INTER-LIGAND FREE ENERGY PREDICTED BY IDOCK:   -7.41 KCAL/MOL
REMARK 924 INTRA-LIGAND FREE ENERGY PREDICTED BY IDOCK:   -1.55 KCAL/MOL
REMARK 927      BINDING AFFINITY PREDICTED BY RF-SCORE:    0.00 PKD
ROOT
HETATM    1  C   UNL     1     -10.035   7.966  70.606  1.00  0.00    -0.186 C  
HETATM    2  C   UNL     1     -11.003   7.479  71.685  1.00  0.00    -0.263 C  
HETATM    3  C   UNL     1     -11.849   6.413  70.931  1.00  0.00    -0.317 C  
HETATM    4  C   UNL     1     -11.506   6.568  69.445  1.00  0.00    -0.281 C  
HETATM    5  N   UNL     1     -10.729   7.789  69.362  1.00  0.00    -0.208 N  
HETATM    6  C   UNL     1     -10.038   8.030  68.191  1.00  0.00    -0.197 C  
HETATM    7  O   UNL     1     -10.565   7.937  67.085  1.00  0.00    -0.320 OA 
HETATM    8  C   UNL     1      -8.582   8.566  68.391  1.00  0.00    -0.139 C  
HETATM    9  O   UNL     1      -8.513  10.416  70.326  1.00  0.00     0.132 OA 
HETATM   10  N   UNL     1      -7.991   8.418  69.813  1.00  0.00    -0.102 N  
HETATM   11  C   UNL     1      -6.919   9.179  70.197  1.00  0.00    -0.056 C  
HETATM   12  H   UNL     1      -7.818   9.589  72.176  1.00  0.00     0.000 HD 
HETATM   13  C   UNL     1      -7.152  10.532  69.484  1.00  0.00    -0.124 C  
HETATM   14  O   UNL     1      -6.149   8.815  71.084  1.00  0.00    -0.038 OA 
HETATM   15  O   UNL     1      -8.517   8.949  72.107  1.00  0.00    -0.382 OA 
HETATM   16  C   UNL     1      -5.537  10.411  69.455  1.00  0.00    -0.037 C  
HETATM   17  C   UNL     1      -8.859   9.042  70.722  1.00  0.00    -0.234 C  
ENDROOT
BRANCH   8  18
HETATM   18  C   UNL     1      -7.624   8.074  67.295  1.00  0.00    -0.097 C  
BRANCH  18  19
HETATM   19  C   UNL     1      -7.108   6.722  67.685  1.00  0.00    -0.085 A  
HETATM   20  C   UNL     1      -5.182   5.272  67.806  1.00  0.00    -0.004 A  
HETATM   21  C   UNL     1      -6.017   4.166  67.676  1.00  0.00    -0.027 A  
HETATM   22  C   UNL     1      -7.950   5.609  67.631  1.00  0.00    -0.101 A  
HETATM   23  C   UNL     1      -7.403   4.333  67.619  1.00  0.00    -0.069 A  
HETATM   24  C   UNL     1      -5.727   6.547  67.843  1.00  0.00    -0.009 A  
ENDBRANCH  18  19
ENDBRANCH   8  18
BRANCH  13  25
HETATM   25  N   UNL     1      -7.188  11.824  68.772  1.00  0.00    -0.109 N  
HETATM   26  O   UNL     1      -8.861  11.768  67.205  1.00  0.00    -0.161 OA 
HETATM   27  C   UNL     1      -8.121  12.418  67.930  1.00  0.00    -0.161 C  
HETATM   28  H   UNL     1      -6.360  12.398  68.931  1.00  0.00     0.000 HD 
BRANCH  27  29
HETATM   29  C   UNL     1      -8.076  14.015  67.954  1.00  0.00    -0.156 C  
HETATM   30  C   UNL     1      -8.533  14.759  66.666  1.00  0.00    -0.058 C  
HETATM   31  N   UNL     1      -9.221  16.064  66.873  1.00  0.00    -0.213 NA 
HETATM   32  C   UNL     1      -8.387  17.172  67.332  1.00  0.00    -0.190 C  
HETATM   33  C   UNL     1     -10.475  15.918  67.651  1.00  0.00    -0.289 C  
HETATM   34  C   UNL     1     -11.645  15.657  66.633  1.00  0.00     0.260 C  
HETATM   35  C   UNL     1     -11.827  14.208  66.394  1.00  0.00    -0.440 A  
HETATM   36  C   UNL     1     -12.170  13.422  65.311  1.00  0.00    -0.440 A  
HETATM   37  N   UNL     1     -12.146  12.117  65.714  1.00  0.00    -0.554 NA 
HETATM   38  H   UNL     1     -12.284  11.313  65.100  1.00  0.00     0.000 HD 
HETATM   39  C   UNL     1     -11.908  12.041  67.068  1.00  0.00    -0.176 A  
HETATM   40  C   UNL     1     -11.851  10.982  67.969  1.00  0.00    -0.152 A  
HETATM   41  C   UNL     1     -11.552  11.316  69.302  1.00  0.00    -0.390 A  
HETATM   42  C   UNL     1     -11.166  12.612  69.675  1.00  0.00    -0.077 A  
HETATM   43  C   UNL     1     -11.091  13.623  68.720  1.00  0.00    -0.302 A  
HETATM   44  C   UNL     1     -11.611  13.327  67.459  1.00  0.00    -0.388 A  
HETATM   45  C   UNL     1     -10.337  14.922  68.891  1.00  0.00    -0.244 C  
HETATM   46  C   UNL     1      -8.833  14.608  69.173  1.00  0.00    -0.024 C  
ENDBRANCH  27  29
ENDBRANCH  13  25
TORSDOF 4
ENDMDL
MODEL       54
REMARK 921   NORMALIZED FREE ENERGY PREDICTED BY IDOCK:   -6.23 KCAL/MOL
REMARK 922        TOTAL FREE ENERGY PREDICTED BY IDOCK:   -8.92 KCAL/MOL
REMARK 923 INTER-LIGAND FREE ENERGY PREDICTED BY IDOCK:   -8.25 KCAL/MOL
REMARK 924 INTRA-LIGAND FREE ENERGY PREDICTED BY IDOCK:   -0.67 KCAL/MOL
REMARK 927      BINDING AFFINITY PREDICTED BY RF-SCORE:    0.00 PKD
ROOT
HETATM    1  C   UNL     1      -7.289   7.879  71.703  1.00  0.00    -0.070 C  
HETATM    2  C   UNL     1      -5.993   7.482  72.411  1.00  0.00    -0.040 C  
HETATM    3  C   UNL     1      -6.475   6.416  73.437  1.00  0.00    -0.065 C  
HETATM    4  C   UNL     1      -8.006   6.486  73.438  1.00  0.00    -0.098 C  
HETATM    5  N   UNL     1      -8.331   7.669  72.667  1.00  0.00    -0.113 N  
HETATM    6  C   UNL     1      -9.640   7.826  72.256  1.00  0.00    -0.176 C  
HETATM    7  O   UNL     1     -10.591   7.701  73.024  1.00  0.00    -0.314 OA 
HETATM    8  C   UNL     1      -9.806   8.314  70.778  1.00  0.00    -0.179 C  
HETATM    9  O   UNL     1      -8.042  10.250  70.218  1.00  0.00    -0.090 OA 
HETATM   10  N   UNL     1      -8.548   8.211  69.883  1.00  0.00    -0.129 N  
HETATM   11  C   UNL     1      -8.459   8.946  68.730  1.00  0.00    -0.131 C  
HETATM   12  H   UNL     1      -6.355   9.486  69.142  1.00  0.00     0.000 HD 
HETATM   13  C   UNL     1      -9.176  10.272  69.083  1.00  0.00    -0.194 C  
HETATM   14  O   UNL     1      -7.752   8.595  67.788  1.00  0.00    -0.100 OA 
HETATM   15  O   UNL     1      -6.228   8.872  69.856  1.00  0.00    -0.034 OA 
HETATM   16  C   UNL     1      -9.564  10.086  67.521  1.00  0.00    -0.178 C  
HETATM   17  C   UNL     1      -7.502   8.911  70.502  1.00  0.00    -0.089 C  
ENDROOT
BRANCH   8  18
HETATM   18  C   UNL     1     -11.060   7.732  70.109  1.00  0.00    -0.216 C  
BRANCH  18  19
HETATM   19  C   UNL     1     -12.269   8.343  70.751  1.00  0.00    -0.006 A  
HETATM   20  C   UNL     1     -13.109  10.109  72.165  1.00  0.00    -0.463 A  
HETATM   21  C   UNL     1     -14.153   9.281  72.566  1.00  0.00    -0.319 A  
HETATM   22  C   UNL     1     -13.359   7.540  71.096  1.00  0.00    -0.229 A  
HETATM   23  C   UNL     1     -14.295   8.009  72.009  1.00  0.00    -0.511 A  
HETATM   24  C   UNL     1     -12.185   9.655  71.235  1.00  0.00    -0.452 A  
ENDBRANCH  18  19
ENDBRANCH   8  18
BRANCH  13  25
HETATM   25  N   UNL     1      -9.932  11.528  69.245  1.00  0.00    -0.414 N  
HETATM   26  O   UNL     1     -12.074  11.216  68.488  1.00  0.00    -0.586 OA 
HETATM   27  C   UNL     1     -11.287  11.835  69.190  1.00  0.00    -0.279 C  
HETATM   28  H   UNL     1      -9.340  12.336  69.436  1.00  0.00     0.000 HD 
BRANCH  27  29
HETATM   29  C   UNL     1     -11.690  13.105  70.070  1.00  0.00    -0.291 C  
HETATM   30  C   UNL     1     -10.557  14.109  70.433  1.00  0.00     0.906 C  
HETATM   31  N   UNL     1     -10.955  15.542  70.520  1.00  0.00    -0.328 NA 
HETATM   32  C   UNL     1     -11.783  15.916  71.664  1.00  0.00    -0.485 C  
HETATM   33  C   UNL     1     -11.476  16.058  69.231  1.00  0.00    -0.350 C  
HETATM   34  C   UNL     1     -10.258  16.623  68.412  1.00  0.00    -0.284 C  
HETATM   35  C   UNL     1      -9.662  15.575  67.555  1.00  0.00    -0.215 A  
HETATM   36  C   UNL     1      -8.385  15.247  67.140  1.00  0.00    -0.216 A  
HETATM   37  N   UNL     1      -8.471  14.129  66.359  1.00  0.00    -0.303 NA 
HETATM   38  H   UNL     1      -7.673  13.620  65.979  1.00  0.00     0.000 HD 
HETATM   39  C   UNL     1      -9.790  13.787  66.160  1.00  0.00    -0.297 A  
HETATM   40  C   UNL     1     -10.416  12.797  65.409  1.00  0.00    -0.305 A  
HETATM   41  C   UNL     1     -11.820  12.755  65.483  1.00  0.00    -0.466 A  
HETATM   42  C   UNL     1     -12.540  13.548  66.389  1.00  0.00    -0.244 A  
HETATM   43  C   UNL     1     -11.870  14.430  67.235  1.00  0.00    -0.434 A  
HETATM   44  C   UNL     1     -10.512  14.621  66.985  1.00  0.00    -0.269 A  
HETATM   45  C   UNL     1     -12.454  15.037  68.491  1.00  0.00     0.284 C  
HETATM   46  C   UNL     1     -12.883  13.891  69.461  1.00  0.00     0.518 C  
ENDBRANCH  27  29
ENDBRANCH  13  25
TORSDOF 4
ENDMDL
MODEL       55
REMARK 921   NORMALIZED FREE ENERGY PREDICTED BY IDOCK:   -6.23 KCAL/MOL
REMARK 922        TOTAL FREE ENERGY PREDICTED BY IDOCK:   -8.92 KCAL/MOL
REMARK 923 INTER-LIGAND FREE ENERGY PREDICTED BY IDOCK:   -8.99 KCAL/MOL
REMARK 924 INTRA-LIGAND FREE ENERGY PREDICTED BY IDOCK:    0.07 KCAL/MOL
REMARK 927      BINDING AFFINITY PREDICTED BY RF-SCORE:    0.00 PKD
ROOT
HETATM    1  C   UNL     1      -9.487  14.272  66.501  1.00  0.00    -0.287 C  
HETATM    2  C   UNL     1      -9.202  15.667  65.943  1.00  0.00    -0.330 C  
HETATM    3  C   UNL     1     -10.629  16.245  65.721  1.00  0.00    -0.336 C  
HETATM    4  C   UNL     1     -11.598  15.070  65.892  1.00  0.00    -0.165 C  
HETATM    5  N   UNL     1     -10.756  13.892  65.950  1.00  0.00    -0.282 N  
HETATM    6  C   UNL     1     -11.330  12.715  66.389  1.00  0.00    -0.331 C  
HETATM    7  O   UNL     1     -12.397  12.296  65.945  1.00  0.00    -0.618 OA 
HETATM    8  C   UNL     1     -10.449  11.891  67.386  1.00  0.00    -0.217 C  
HETATM    9  O   UNL     1      -7.895  11.851  66.581  1.00  0.00    -0.115 OA 
HETATM   10  N   UNL     1      -9.252  12.642  68.017  1.00  0.00    -0.203 N  
HETATM   11  C   UNL     1      -8.216  11.942  68.575  1.00  0.00    -0.126 C  
HETATM   12  H   UNL     1      -6.713  13.278  67.655  1.00  0.00     0.000 HD 
HETATM   13  C   UNL     1      -8.086  10.691  67.672  1.00  0.00    -0.107 C  
HETATM   14  O   UNL     1      -7.503  12.426  69.452  1.00  0.00     0.180 OA 
HETATM   15  O   UNL     1      -7.327  13.944  67.369  1.00  0.00    -0.174 OA 
HETATM   16  C   UNL     1      -7.703  10.095  69.129  1.00  0.00    -0.112 C  
HETATM   17  C   UNL     1      -8.453  13.152  66.983  1.00  0.00    -0.132 C  
ENDROOT
BRANCH   8  18
HETATM   18  C   UNL     1     -11.294  11.139  68.426  1.00  0.00    -0.357 C  
BRANCH  18  19
HETATM   19  C   UNL     1     -11.643  12.089  69.533  1.00  0.00    -0.389 A  
HETATM   20  C   UNL     1     -12.822  12.387  71.617  1.00  0.00    -0.375 A  
HETATM   21  C   UNL     1     -12.982  13.739  71.324  1.00  0.00    -0.409 A  
HETATM   22  C   UNL     1     -11.738  13.458  69.275  1.00  0.00    -0.383 A  
HETATM   23  C   UNL     1     -12.414  14.280  70.168  1.00  0.00    -0.393 A  
HETATM   24  C   UNL     1     -12.126  11.568  70.740  1.00  0.00    -0.410 A  
ENDBRANCH  18  19
ENDBRANCH   8  18
BRANCH  13  25
HETATM   25  N   UNL     1      -7.932   9.403  66.971  1.00  0.00    -0.102 N  
HETATM   26  O   UNL     1      -7.209   7.819  68.465  1.00  0.00    -0.081 OA 
HETATM   27  C   UNL     1      -7.771   8.094  67.413  1.00  0.00    -0.102 C  
HETATM   28  H   UNL     1      -7.948   9.489  65.955  1.00  0.00     0.000 HD 
BRANCH  27  29
HETATM   29  C   UNL     1      -8.322   7.001  66.387  1.00  0.00    -0.125 C  
HETATM   30  C   UNL     1      -7.790   5.547  66.541  1.00  0.00    -0.101 C  
HETATM   31  N   UNL     1      -8.752   4.459  66.212  1.00  0.00    -0.112 NA 
HETATM   32  C   UNL     1      -9.082   4.290  64.799  1.00  0.00    -0.149 C  
HETATM   33  C   UNL     1      -9.947   4.485  67.090  1.00  0.00    -0.159 C  
HETATM   34  C   UNL     1      -9.637   3.596  68.350  1.00  0.00    -0.164 C  
HETATM   35  C   UNL     1      -9.036   4.405  69.434  1.00  0.00    -0.171 A  
HETATM   36  C   UNL     1      -8.077   4.194  70.407  1.00  0.00    -0.058 A  
HETATM   37  N   UNL     1      -7.931   5.356  71.111  1.00  0.00    -0.107 NA 
HETATM   38  H   UNL     1      -7.235   5.512  71.840  1.00  0.00     0.000 HD 
HETATM   39  C   UNL     1      -8.858   6.285  70.696  1.00  0.00    -0.144 A  
HETATM   40  C   UNL     1      -9.175   7.572  71.119  1.00  0.00    -0.151 A  
HETATM   41  C   UNL     1     -10.197   8.226  70.408  1.00  0.00    -0.209 A  
HETATM   42  C   UNL     1     -10.749   7.688  69.236  1.00  0.00    -0.169 A  
HETATM   43  C   UNL     1     -10.306   6.458  68.754  1.00  0.00    -0.232 A  
HETATM   44  C   UNL     1      -9.466   5.727  69.593  1.00  0.00    -0.174 A  
HETATM   45  C   UNL     1     -10.514   5.955  67.343  1.00  0.00    -0.311 C  
HETATM   46  C   UNL     1      -9.874   6.966  66.339  1.00  0.00    -0.101 C  
ENDBRANCH  27  29
ENDBRANCH  13  25
TORSDOF 4
ENDMDL
MODEL       56
REMARK 921   NORMALIZED FREE ENERGY PREDICTED BY IDOCK:   -6.21 KCAL/MOL
REMARK 922        TOTAL FREE ENERGY PREDICTED BY IDOCK:   -8.90 KCAL/MOL
REMARK 923 INTER-LIGAND FREE ENERGY PREDICTED BY IDOCK:   -6.47 KCAL/MOL
REMARK 924 INTRA-LIGAND FREE ENERGY PREDICTED BY IDOCK:   -2.43 KCAL/MOL
REMARK 927      BINDING AFFINITY PREDICTED BY RF-SCORE:    0.00 PKD
ROOT
HETATM    1  C   UNL     1      -9.728   3.740  72.764  1.00  0.00    -0.139 C  
HETATM    2  C   UNL     1     -10.543   3.655  74.055  1.00  0.00    -0.278 C  
HETATM    3  C   UNL     1     -10.827   2.130  74.182  1.00  0.00    -0.227 C  
HETATM    4  C   UNL     1     -10.413   1.506  72.845  1.00  0.00    -0.131 C  
HETATM    5  N   UNL     1     -10.161   2.630  71.965  1.00  0.00    -0.114 N  
HETATM    6  C   UNL     1      -9.495   2.380  70.781  1.00  0.00    -0.136 C  
HETATM    7  O   UNL     1      -9.823   1.474  70.019  1.00  0.00     0.001 OA 
HETATM    8  C   UNL     1      -8.389   3.427  70.422  1.00  0.00    -0.056 C  
HETATM    9  O   UNL     1      -9.247   5.916  70.912  1.00  0.00    -0.151 OA 
HETATM   10  N   UNL     1      -7.944   4.367  71.568  1.00  0.00    -0.081 N  
HETATM   11  C   UNL     1      -7.296   5.540  71.285  1.00  0.00    -0.085 C  
HETATM   12  H   UNL     1      -8.491   6.653  72.777  1.00  0.00     0.000 HD 
HETATM   13  C   UNL     1      -7.954   6.018  69.968  1.00  0.00    -0.109 C  
HETATM   14  O   UNL     1      -6.545   6.080  72.095  1.00  0.00    -0.056 OA 
HETATM   15  O   UNL     1      -8.877   5.889  73.190  1.00  0.00    -0.123 OA 
HETATM   16  C   UNL     1      -6.424   6.515  69.777  1.00  0.00    -0.043 C  
HETATM   17  C   UNL     1      -9.077   5.024  72.070  1.00  0.00    -0.136 C  
ENDROOT
BRANCH   8  18
HETATM   18  C   UNL     1      -7.203   2.791  69.681  1.00  0.00    -0.044 C  
BRANCH  18  19
HETATM   19  C   UNL     1      -7.302   3.146  68.228  1.00  0.00    -0.050 A  
HETATM   20  C   UNL     1      -6.336   4.391  66.400  1.00  0.00    -0.036 A  
HETATM   21  C   UNL     1      -7.594   4.490  65.813  1.00  0.00    -0.082 A  
HETATM   22  C   UNL     1      -8.550   3.181  67.600  1.00  0.00    -0.118 A  
HETATM   23  C   UNL     1      -8.695   3.859  66.397  1.00  0.00    -0.115 A  
HETATM   24  C   UNL     1      -6.182   3.694  67.590  1.00  0.00    -0.036 A  
ENDBRANCH  18  19
ENDBRANCH   8  18
BRANCH  13  25
HETATM   25  N   UNL     1      -8.408   6.524  68.659  1.00  0.00    -0.121 N  
HETATM   26  O   UNL     1     -10.662   6.936  68.756  1.00  0.00    -0.217 OA 
HETATM   27  C   UNL     1      -9.576   7.148  68.235  1.00  0.00    -0.136 C  
HETATM   28  H   UNL     1      -7.726   6.389  67.913  1.00  0.00     0.000 HD 
BRANCH  27  29
HETATM   29  C   UNL     1      -9.368   8.102  66.971  1.00  0.00    -0.197 C  
HETATM   30  C   UNL     1     -10.607   8.896  66.466  1.00  0.00     0.019 C  
HETATM   31  N   UNL     1     -10.333  10.248  65.903  1.00  0.00    -0.211 NA 
HETATM   32  C   UNL     1      -9.660  10.287  64.607  1.00  0.00    -0.312 C  
HETATM   33  C   UNL     1      -9.722  11.157  66.903  1.00  0.00    -0.191 C  
HETATM   34  C   UNL     1     -10.889  11.895  67.658  1.00  0.00    -0.271 C  
HETATM   35  C   UNL     1     -11.308  11.137  68.857  1.00  0.00    -0.344 A  
HETATM   36  C   UNL     1     -12.505  10.899  69.505  1.00  0.00    -0.057 A  
HETATM   37  N   UNL     1     -12.251  10.080  70.569  1.00  0.00    -0.414 NA 
HETATM   38  H   UNL     1     -12.963   9.679  71.180  1.00  0.00     0.000 HD 
HETATM   39  C   UNL     1     -10.897   9.872  70.698  1.00  0.00    -0.330 A  
HETATM   40  C   UNL     1     -10.120   9.189  71.629  1.00  0.00    -0.346 A  
HETATM   41  C   UNL     1      -8.732   9.186  71.398  1.00  0.00    -0.089 A  
HETATM   42  C   UNL     1      -8.175   9.692  70.215  1.00  0.00    -0.217 A  
HETATM   43  C   UNL     1      -8.996  10.241  69.232  1.00  0.00    -0.190 A  
HETATM   44  C   UNL     1     -10.332  10.442  69.578  1.00  0.00    -0.264 A  
HETATM   45  C   UNL     1      -8.595  10.456  67.790  1.00  0.00    -0.122 C  
HETATM   46  C   UNL     1      -8.182   9.087  67.163  1.00  0.00    -0.110 C  
ENDBRANCH  27  29
ENDBRANCH  13  25
TORSDOF 4
ENDMDL
MODEL       57
REMARK 921   NORMALIZED FREE ENERGY PREDICTED BY IDOCK:   -6.16 KCAL/MOL
REMARK 922        TOTAL FREE ENERGY PREDICTED BY IDOCK:   -8.84 KCAL/MOL
REMARK 923 INTER-LIGAND FREE ENERGY PREDICTED BY IDOCK:   -8.03 KCAL/MOL
REMARK 924 INTRA-LIGAND FREE ENERGY PREDICTED BY IDOCK:   -0.80 KCAL/MOL
REMARK 927      BINDING AFFINITY PREDICTED BY RF-SCORE:    0.00 PKD
ROOT
HETATM    1  C   UNL     1     -11.213  13.965  69.215  1.00  0.00    -0.251 C  
HETATM    2  C   UNL     1     -12.456  14.267  70.054  1.00  0.00    -0.355 C  
HETATM    3  C   UNL     1     -12.171  15.701  70.585  1.00  0.00    -0.446 C  
HETATM    4  C   UNL     1     -10.702  15.994  70.258  1.00  0.00    -0.271 C  
HETATM    5  N   UNL     1     -10.155  14.728  69.812  1.00  0.00    -0.002 N  
HETATM    6  C   UNL     1      -8.928  14.749  69.178  1.00  0.00    -0.078 C  
HETATM    7  O   UNL     1      -7.959  15.347  69.637  1.00  0.00    -0.222 OA 
HETATM    8  C   UNL     1      -8.835  13.837  67.909  1.00  0.00    -0.186 C  
HETATM    9  O   UNL     1     -10.010  11.473  68.355  1.00  0.00    -0.194 OA 
HETATM   10  N   UNL     1     -10.179  13.332  67.334  1.00  0.00    -0.228 N  
HETATM   11  C   UNL     1     -10.207  12.247  66.498  1.00  0.00    -0.214 C  
HETATM   12  H   UNL     1     -11.981  11.407  67.518  1.00  0.00     0.000 HD 
HETATM   13  C   UNL     1      -9.091  11.327  67.049  1.00  0.00    -0.163 C  
HETATM   14  O   UNL     1     -11.112  12.079  65.682  1.00  0.00    -0.295 OA 
HETATM   15  O   UNL     1     -12.182  12.181  68.031  1.00  0.00    -0.419 OA 
HETATM   16  C   UNL     1      -8.997  11.052  65.455  1.00  0.00    -0.192 C  
HETATM   17  C   UNL     1     -10.875  12.663  68.352  1.00  0.00    -0.245 C  
ENDROOT
BRANCH   8  18
HETATM   18  C   UNL     1      -7.913  14.430  66.832  1.00  0.00     0.099 C  
BRANCH  18  19
HETATM   19  C   UNL     1      -8.499  15.728  66.364  1.00  0.00    -0.313 A  
HETATM   20  C   UNL     1      -8.333  18.135  66.417  1.00  0.00    -0.272 A  
HETATM   21  C   UNL     1      -9.709  18.226  66.229  1.00  0.00    -0.293 A  
HETATM   22  C   UNL     1      -9.868  15.822  66.099  1.00  0.00    -0.341 A  
HETATM   23  C   UNL     1     -10.471  17.072  66.039  1.00  0.00    -0.280 A  
HETATM   24  C   UNL     1      -7.722  16.890  66.454  1.00  0.00    -0.345 A  
ENDBRANCH  18  19
ENDBRANCH   8  18
BRANCH  13  25
HETATM   25  N   UNL     1      -7.983  10.416  67.393  1.00  0.00    -0.107 N  
HETATM   26  O   UNL     1      -7.746  10.353  69.673  1.00  0.00    -0.153 OA 
HETATM   27  C   UNL     1      -7.575   9.825  68.583  1.00  0.00    -0.079 C  
HETATM   28  H   UNL     1      -7.399  10.168  66.595  1.00  0.00     0.000 HD 
BRANCH  27  29
HETATM   29  C   UNL     1      -6.806   8.440  68.377  1.00  0.00    -0.065 C  
HETATM   30  C   UNL     1      -6.006   7.882  69.590  1.00  0.00    -0.026 C  
HETATM   31  N   UNL     1      -5.966   6.399  69.722  1.00  0.00    -0.018 NA 
HETATM   32  C   UNL     1      -5.159   5.682  68.738  1.00  0.00     0.000 C  
HETATM   33  C   UNL     1      -7.319   5.816  69.900  1.00  0.00    -0.070 C  
HETATM   34  C   UNL     1      -7.624   5.774  71.443  1.00  0.00    -0.105 C  
HETATM   35  C   UNL     1      -8.289   7.019  71.886  1.00  0.00    -0.106 A  
HETATM   36  C   UNL     1      -8.257   7.804  73.023  1.00  0.00    -0.133 A  
HETATM   37  N   UNL     1      -9.091   8.867  72.824  1.00  0.00    -0.168 NA 
HETATM   38  H   UNL     1      -9.204   9.649  73.469  1.00  0.00     0.000 HD 
HETATM   39  C   UNL     1      -9.758   8.731  71.627  1.00  0.00    -0.296 A  
HETATM   40  C   UNL     1     -10.744   9.481  70.994  1.00  0.00    -0.411 A  
HETATM   41  C   UNL     1     -11.165   9.017  69.734  1.00  0.00    -0.041 A  
HETATM   42  C   UNL     1     -10.515   7.963  69.075  1.00  0.00    -0.210 A  
HETATM   43  C   UNL     1      -9.432   7.324  69.675  1.00  0.00    -0.155 A  
HETATM   44  C   UNL     1      -9.182   7.643  71.009  1.00  0.00    -0.152 A  
HETATM   45  C   UNL     1      -8.419   6.469  68.946  1.00  0.00    -0.122 C  
HETATM   46  C   UNL     1      -7.737   7.323  67.831  1.00  0.00    -0.113 C  
ENDBRANCH  27  29
ENDBRANCH  13  25
TORSDOF 4
ENDMDL
MODEL       58
REMARK 921   NORMALIZED FREE ENERGY PREDICTED BY IDOCK:   -6.14 KCAL/MOL
REMARK 922        TOTAL FREE ENERGY PREDICTED BY IDOCK:   -8.81 KCAL/MOL
REMARK 923 INTER-LIGAND FREE ENERGY PREDICTED BY IDOCK:   -7.76 KCAL/MOL
REMARK 924 INTRA-LIGAND FREE ENERGY PREDICTED BY IDOCK:   -1.05 KCAL/MOL
REMARK 927      BINDING AFFINITY PREDICTED BY RF-SCORE:    0.00 PKD
ROOT
HETATM    1  C   UNL     1      -6.740  16.623  68.877  1.00  0.00    -0.184 C  
HETATM    2  C   UNL     1      -5.805  17.204  69.939  1.00  0.00    -0.236 C  
HETATM    3  C   UNL     1      -5.587  18.662  69.443  1.00  0.00    -0.225 C  
HETATM    4  C   UNL     1      -6.162  18.721  68.024  1.00  0.00    -0.204 C  
HETATM    5  N   UNL     1      -6.443  17.343  67.672  1.00  0.00    -0.147 N  
HETATM    6  C   UNL     1      -7.235  17.114  66.564  1.00  0.00    -0.273 C  
HETATM    7  O   UNL     1      -7.030  17.660  65.483  1.00  0.00    -0.351 OA 
HETATM    8  C   UNL     1      -8.319  16.001  66.756  1.00  0.00    -0.270 C  
HETATM    9  O   UNL     1      -7.294  13.898  68.060  1.00  0.00    -0.109 OA 
HETATM   10  N   UNL     1      -8.600  15.570  68.216  1.00  0.00    -0.158 N  
HETATM   11  C   UNL     1      -9.215  14.374  68.475  1.00  0.00    -0.198 C  
HETATM   12  H   UNL     1      -7.823  13.929  70.136  1.00  0.00     0.000 HD 
HETATM   13  C   UNL     1      -8.667  13.432  67.375  1.00  0.00    -0.209 C  
HETATM   14  O   UNL     1      -9.853  14.181  69.508  1.00  0.00     0.195 OA 
HETATM   15  O   UNL     1      -7.436  14.796  70.181  1.00  0.00     0.020 OA 
HETATM   16  C   UNL     1     -10.182  12.888  67.559  1.00  0.00    -0.213 C  
HETATM   17  C   UNL     1      -7.392  15.165  68.801  1.00  0.00    -0.131 C  
ENDROOT
BRANCH   8  18
HETATM   18  C   UNL     1      -9.602  16.294  65.965  1.00  0.00    -0.371 C  
BRANCH  18  19
HETATM   19  C   UNL     1     -10.202  17.566  66.484  1.00  0.00    -0.342 A  
HETATM   20  C   UNL     1     -10.619  19.904  66.057  1.00  0.00    -0.527 A  
HETATM   21  C   UNL     1     -10.603  20.149  67.427  1.00  0.00    -0.338 A  
HETATM   22  C   UNL     1     -10.263  17.800  67.860  1.00  0.00    -0.362 A  
HETATM   23  C   UNL     1     -10.456  19.093  68.328  1.00  0.00    -0.377 A  
HETATM   24  C   UNL     1     -10.450  18.611  65.585  1.00  0.00    -0.147 A  
ENDBRANCH  18  19
ENDBRANCH   8  18
BRANCH  13  25
HETATM   25  N   UNL     1      -8.321  12.464  66.317  1.00  0.00    -0.370 N  
HETATM   26  O   UNL     1      -6.658  11.082  67.080  1.00  0.00    -0.075 OA 
HETATM   27  C   UNL     1      -7.589  11.282  66.313  1.00  0.00    -0.032 C  
HETATM   28  H   UNL     1      -8.694  12.714  65.401  1.00  0.00     0.000 HD 
BRANCH  27  29
HETATM   29  C   UNL     1      -8.037  10.258  65.172  1.00  0.00    -0.151 C  
HETATM   30  C   UNL     1      -7.086   9.062  64.875  1.00  0.00    -0.091 C  
HETATM   31  N   UNL     1      -7.744   7.787  64.474  1.00  0.00    -0.115 NA 
HETATM   32  C   UNL     1      -8.349   7.759  63.145  1.00  0.00     0.086 C  
HETATM   33  C   UNL     1      -8.640   7.263  65.533  1.00  0.00    -0.075 C  
HETATM   34  C   UNL     1      -7.785   6.330  66.468  1.00  0.00    -0.099 C  
HETATM   35  C   UNL     1      -7.195   7.097  67.587  1.00  0.00    -0.091 A  
HETATM   36  C   UNL     1      -6.007   7.058  68.292  1.00  0.00    -0.025 A  
HETATM   37  N   UNL     1      -6.033   8.064  69.215  1.00  0.00    -0.033 NA 
HETATM   38  H   UNL     1      -5.254   8.319  69.823  1.00  0.00     0.000 HD 
HETATM   39  C   UNL     1      -7.261   8.686  69.208  1.00  0.00    -0.063 A  
HETATM   40  C   UNL     1      -7.821   9.702  69.977  1.00  0.00    -0.173 A  
HETATM   41  C   UNL     1      -9.131  10.087  69.638  1.00  0.00    -0.230 A  
HETATM   42  C   UNL     1      -9.776   9.601  68.491  1.00  0.00    -0.161 A  
HETATM   43  C   UNL     1      -9.130   8.691  67.657  1.00  0.00    -0.145 A  
HETATM   44  C   UNL     1      -7.935   8.152  68.132  1.00  0.00    -0.127 A  
HETATM   45  C   UNL     1      -9.526   8.394  66.228  1.00  0.00    -0.292 C  
HETATM   46  C   UNL     1      -9.474   9.715  65.397  1.00  0.00    -0.343 C  
ENDBRANCH  27  29
ENDBRANCH  13  25
TORSDOF 4
ENDMDL
MODEL       59
REMARK 921   NORMALIZED FREE ENERGY PREDICTED BY IDOCK:   -6.08 KCAL/MOL
REMARK 922        TOTAL FREE ENERGY PREDICTED BY IDOCK:   -8.74 KCAL/MOL
REMARK 923 INTER-LIGAND FREE ENERGY PREDICTED BY IDOCK:   -6.17 KCAL/MOL
REMARK 924 INTRA-LIGAND FREE ENERGY PREDICTED BY IDOCK:   -2.57 KCAL/MOL
REMARK 927      BINDING AFFINITY PREDICTED BY RF-SCORE:    0.00 PKD
ROOT
HETATM    1  C   UNL     1      -8.803   3.785  65.762  1.00  0.00    -0.124 C  
HETATM    2  C   UNL     1      -9.084   2.509  64.968  1.00  0.00    -0.137 C  
HETATM    3  C   UNL     1     -10.294   2.917  64.079  1.00  0.00    -0.105 C  
HETATM    4  C   UNL     1     -10.786   4.264  64.620  1.00  0.00    -0.091 C  
HETATM    5  N   UNL     1     -10.066   4.458  65.863  1.00  0.00    -0.244 N  
HETATM    6  C   UNL     1     -10.090   5.718  66.427  1.00  0.00    -0.133 C  
HETATM    7  O   UNL     1     -11.132   6.350  66.585  1.00  0.00    -0.292 OA 
HETATM    8  C   UNL     1      -8.711   6.213  66.976  1.00  0.00    -0.107 C  
HETATM    9  O   UNL     1      -7.452   4.244  68.284  1.00  0.00    -0.063 OA 
HETATM   10  N   UNL     1      -7.468   5.418  66.510  1.00  0.00    -0.086 N  
HETATM   11  C   UNL     1      -6.293   5.503  67.208  1.00  0.00    -0.039 C  
HETATM   12  H   UNL     1      -5.955   3.322  67.061  1.00  0.00     0.000 HD 
HETATM   13  C   UNL     1      -6.748   5.629  68.683  1.00  0.00    -0.057 C  
HETATM   14  O   UNL     1      -5.205   5.289  66.678  1.00  0.00    -0.008 OA 
HETATM   15  O   UNL     1      -6.637   3.155  66.421  1.00  0.00    -0.038 OA 
HETATM   16  C   UNL     1      -5.417   6.553  68.662  1.00  0.00    -0.016 C  
HETATM   17  C   UNL     1      -7.655   4.067  66.838  1.00  0.00    -0.084 C  
ENDROOT
BRANCH   8  18
HETATM   18  C   UNL     1      -8.535   7.732  66.827  1.00  0.00    -0.126 C  
BRANCH  18  19
HETATM   19  C   UNL     1      -9.231   8.408  67.970  1.00  0.00    -0.143 A  
HETATM   20  C   UNL     1     -10.945   9.974  68.626  1.00  0.00    -0.247 A  
HETATM   21  C   UNL     1     -10.222  10.270  69.778  1.00  0.00    -0.262 A  
HETATM   22  C   UNL     1      -8.544   8.650  69.162  1.00  0.00    -0.129 A  
HETATM   23  C   UNL     1      -9.038   9.586  70.061  1.00  0.00    -0.255 A  
HETATM   24  C   UNL     1     -10.468   9.022  67.738  1.00  0.00    -0.305 A  
ENDBRANCH  18  19
ENDBRANCH   8  18
BRANCH  13  25
HETATM   25  N   UNL     1      -7.042   5.876  70.107  1.00  0.00    -0.068 N  
HETATM   26  O   UNL     1      -6.021   4.259  71.373  1.00  0.00    -0.015 OA 
HETATM   27  C   UNL     1      -6.501   5.381  71.288  1.00  0.00    -0.035 C  
HETATM   28  H   UNL     1      -7.797   6.545  70.255  1.00  0.00     0.000 HD 
BRANCH  27  29
HETATM   29  C   UNL     1      -6.632   6.387  72.521  1.00  0.00    -0.064 C  
HETATM   30  C   UNL     1      -7.484   7.672  72.305  1.00  0.00    -0.078 C  
HETATM   31  N   UNL     1      -8.239   8.165  73.490  1.00  0.00    -0.206 NA 
HETATM   32  C   UNL     1      -7.445   8.757  74.564  1.00  0.00    -0.011 C  
HETATM   33  C   UNL     1      -9.228   7.172  73.976  1.00  0.00    -0.243 C  
HETATM   34  C   UNL     1     -10.582   7.432  73.219  1.00  0.00    -0.442 C  
HETATM   35  C   UNL     1     -10.654   6.639  71.972  1.00  0.00    -0.236 A  
HETATM   36  C   UNL     1     -11.171   6.835  70.706  1.00  0.00    -0.304 A  
HETATM   37  N   UNL     1     -10.897   5.721  69.963  1.00  0.00    -0.335 NA 
HETATM   38  H   UNL     1     -11.096   5.621  68.967  1.00  0.00     0.000 HD 
HETATM   39  C   UNL     1     -10.315   4.754  70.751  1.00  0.00    -0.114 A  
HETATM   40  C   UNL     1      -9.910   3.445  70.511  1.00  0.00    -0.041 A  
HETATM   41  C   UNL     1      -9.320   2.768  71.595  1.00  0.00    -0.194 A  
HETATM   42  C   UNL     1      -9.001   3.422  72.794  1.00  0.00    -0.106 A  
HETATM   43  C   UNL     1      -9.288   4.777  72.951  1.00  0.00    -0.143 A  
HETATM   44  C   UNL     1     -10.075   5.365  71.962  1.00  0.00    -0.240 A  
HETATM   45  C   UNL     1      -8.666   5.678  73.995  1.00  0.00    -0.120 C  
HETATM   46  C   UNL     1      -7.115   5.676  73.815  1.00  0.00    -0.086 C  
ENDBRANCH  27  29
ENDBRANCH  13  25
TORSDOF 4
ENDMDL
MODEL       60
REMARK 921   NORMALIZED FREE ENERGY PREDICTED BY IDOCK:   -6.04 KCAL/MOL
REMARK 922        TOTAL FREE ENERGY PREDICTED BY IDOCK:   -8.69 KCAL/MOL
REMARK 923 INTER-LIGAND FREE ENERGY PREDICTED BY IDOCK:   -7.30 KCAL/MOL
REMARK 924 INTRA-LIGAND FREE ENERGY PREDICTED BY IDOCK:   -1.39 KCAL/MOL
REMARK 927      BINDING AFFINITY PREDICTED BY RF-SCORE:    0.00 PKD
ROOT
HETATM    1  C   UNL     1      -6.724   3.942  69.040  1.00  0.00    -0.045 C  
HETATM    2  C   UNL     1      -5.591   2.923  68.916  1.00  0.00    -0.021 C  
HETATM    3  C   UNL     1      -5.160   2.707  70.396  1.00  0.00    -0.004 C  
HETATM    4  C   UNL     1      -5.862   3.801  71.208  1.00  0.00    -0.013 C  
HETATM    5  N   UNL     1      -6.429   4.699  70.223  1.00  0.00    -0.033 N  
HETATM    6  C   UNL     1      -7.363   5.620  70.657  1.00  0.00    -0.083 C  
HETATM    7  O   UNL     1      -7.176   6.335  71.639  1.00  0.00    -0.083 OA 
HETATM    8  C   UNL     1      -8.607   5.778  69.721  1.00  0.00    -0.127 C  
HETATM    9  O   UNL     1      -7.856   5.826  67.151  1.00  0.00    -0.100 OA 
HETATM   10  N   UNL     1      -8.807   4.668  68.662  1.00  0.00    -0.098 N  
HETATM   11  C   UNL     1      -9.601   4.894  67.568  1.00  0.00    -0.151 C  
HETATM   12  H   UNL     1      -8.147   3.921  66.214  1.00  0.00     0.000 HD 
HETATM   13  C   UNL     1      -9.357   6.386  67.236  1.00  0.00    -0.119 C  
HETATM   14  O   UNL     1     -10.151   3.975  66.964  1.00  0.00    -0.108 OA 
HETATM   15  O   UNL     1      -7.604   3.546  66.897  1.00  0.00    -0.078 OA 
HETATM   16  C   UNL     1     -10.918   6.205  66.843  1.00  0.00    -0.384 C  
HETATM   17  C   UNL     1      -7.639   4.573  67.891  1.00  0.00    -0.077 C  
ENDROOT
BRANCH   8  18
HETATM   18  C   UNL     1      -9.890   6.090  70.505  1.00  0.00    -0.222 C  
BRANCH  18  19
HETATM   19  C   UNL     1      -9.983   5.143  71.664  1.00  0.00    -0.243 A  
HETATM   20  C   UNL     1     -10.340   2.860  72.360  1.00  0.00    -0.155 A  
HETATM   21  C   UNL     1     -10.858   3.318  73.568  1.00  0.00    -0.320 A  
HETATM   22  C   UNL     1     -10.432   5.599  72.906  1.00  0.00    -0.246 A  
HETATM   23  C   UNL     1     -10.876   4.685  73.853  1.00  0.00    -0.359 A  
HETATM   24  C   UNL     1      -9.873   3.768  71.421  1.00  0.00    -0.226 A  
ENDBRANCH  18  19
ENDBRANCH   8  18
BRANCH  13  25
HETATM   25  N   UNL     1      -9.310   7.817  66.884  1.00  0.00    -0.159 N  
HETATM   26  O   UNL     1      -7.128   8.524  66.914  1.00  0.00    -0.073 OA 
HETATM   27  C   UNL     1      -8.276   8.672  66.518  1.00  0.00    -0.107 C  
HETATM   28  H   UNL     1     -10.221   8.273  66.916  1.00  0.00     0.000 HD 
BRANCH  27  29
HETATM   29  C   UNL     1      -8.749   9.888  65.597  1.00  0.00    -0.168 C  
HETATM   30  C   UNL     1     -10.279  10.156  65.501  1.00  0.00    -0.218 C  
HETATM   31  N   UNL     1     -10.687  11.581  65.359  1.00  0.00    -0.285 NA 
HETATM   32  C   UNL     1     -10.399  12.213  64.074  1.00  0.00    -0.385 C  
HETATM   33  C   UNL     1     -10.263  12.403  66.519  1.00  0.00    -0.227 C  
HETATM   34  C   UNL     1     -11.417  12.357  67.588  1.00  0.00    -0.399 C  
HETATM   35  C   UNL     1     -11.223  11.233  68.530  1.00  0.00    -0.311 A  
HETATM   36  C   UNL     1     -12.051  10.352  69.199  1.00  0.00     0.119 A  
HETATM   37  N   UNL     1     -11.263   9.502  69.922  1.00  0.00    -0.353 NA 
HETATM   38  H   UNL     1     -11.603   8.699  70.452  1.00  0.00     0.000 HD 
HETATM   39  C   UNL     1      -9.943   9.882  69.832  1.00  0.00    -0.252 A  
HETATM   40  C   UNL     1      -8.771   9.409  70.415  1.00  0.00    -0.278 A  
HETATM   41  C   UNL     1      -7.584  10.067  70.045  1.00  0.00    -0.182 A  
HETATM   42  C   UNL     1      -7.553  11.028  69.024  1.00  0.00    -0.134 A  
HETATM   43  C   UNL     1      -8.725  11.377  68.356  1.00  0.00    -0.157 A  
HETATM   44  C   UNL     1      -9.916  10.887  68.890  1.00  0.00    -0.208 A  
HETATM   45  C   UNL     1      -8.782  12.078  67.016  1.00  0.00    -0.188 C  
HETATM   46  C   UNL     1      -8.027  11.215  65.955  1.00  0.00    -0.041 C  
ENDBRANCH  27  29
ENDBRANCH  13  25
TORSDOF 4
ENDMDL
MODEL       61
REMARK 921   NORMALIZED FREE ENERGY PREDICTED BY IDOCK:   -6.03 KCAL/MOL
REMARK 922        TOTAL FREE ENERGY PREDICTED BY IDOCK:   -8.68 KCAL/MOL
REMARK 923 INTER-LIGAND FREE ENERGY PREDICTED BY IDOCK:   -6.41 KCAL/MOL
REMARK 924 INTRA-LIGAND FREE ENERGY PREDICTED BY IDOCK:   -2.27 KCAL/MOL
REMARK 927      BINDING AFFINITY PREDICTED BY RF-SCORE:    0.00 PKD
ROOT
HETATM    1  C   UNL     1      -7.428   9.953  69.405  1.00  0.00    -0.108 C  
HETATM    2  C   UNL     1      -6.465  10.511  70.454  1.00  0.00    -0.117 C  
HETATM    3  C   UNL     1      -6.036  11.873  69.837  1.00  0.00    -0.153 C  
HETATM    4  C   UNL     1      -6.545  11.865  68.391  1.00  0.00    -0.056 C  
HETATM    5  N   UNL     1      -6.993  10.507  68.155  1.00  0.00    -0.072 N  
HETATM    6  C   UNL     1      -7.766  10.273  67.035  1.00  0.00    -0.100 C  
HETATM    7  O   UNL     1      -7.450  10.680  65.919  1.00  0.00    -0.145 OA 
HETATM    8  C   UNL     1      -8.994   9.333  67.274  1.00  0.00    -0.123 C  
HETATM    9  O   UNL     1      -8.307   7.255  68.817  1.00  0.00    -0.127 OA 
HETATM   10  N   UNL     1      -9.385   9.087  68.751  1.00  0.00    -0.140 N  
HETATM   11  C   UNL     1     -10.162   8.011  69.089  1.00  0.00    -0.217 C  
HETATM   12  H   UNL     1      -8.906   7.558  70.852  1.00  0.00     0.000 HD 
HETATM   13  C   UNL     1      -9.703   6.903  68.110  1.00  0.00    -0.131 C  
HETATM   14  O   UNL     1     -10.859   8.005  70.102  1.00  0.00    -0.243 OA 
HETATM   15  O   UNL     1      -8.409   8.367  70.836  1.00  0.00    -0.115 OA 
HETATM   16  C   UNL     1     -11.283   6.579  68.268  1.00  0.00    -0.259 C  
HETATM   17  C   UNL     1      -8.264   8.591  69.432  1.00  0.00    -0.114 C  
ENDROOT
BRANCH   8  18
HETATM   18  C   UNL     1     -10.197   9.709  66.395  1.00  0.00    -0.288 C  
BRANCH  18  19
HETATM   19  C   UNL     1     -10.576  11.129  66.689  1.00  0.00    -0.314 A  
HETATM   20  C   UNL     1     -11.910  12.603  68.057  1.00  0.00    -0.376 A  
HETATM   21  C   UNL     1     -11.951  13.522  67.013  1.00  0.00    -0.440 A  
HETATM   22  C   UNL     1     -10.555  12.085  65.670  1.00  0.00    -0.303 A  
HETATM   23  C   UNL     1     -11.249  13.276  65.831  1.00  0.00    -0.309 A  
HETATM   24  C   UNL     1     -11.198  11.422  67.910  1.00  0.00    -0.352 A  
ENDBRANCH  18  19
ENDBRANCH   8  18
BRANCH  13  25
HETATM   25  N   UNL     1      -9.449   5.800  67.165  1.00  0.00    -0.114 N  
HETATM   26  O   UNL     1      -8.444   4.070  68.286  1.00  0.00    -0.090 OA 
HETATM   27  C   UNL     1      -9.105   4.464  67.335  1.00  0.00    -0.132 C  
HETATM   28  H   UNL     1      -9.545   6.074  66.187  1.00  0.00     0.000 HD 
BRANCH  27  29
HETATM   29  C   UNL     1      -9.594   3.522  66.141  1.00  0.00    -0.106 C  
HETATM   30  C   UNL     1     -10.256   4.213  64.914  1.00  0.00    -0.204 C  
HETATM   31  N   UNL     1     -10.008   3.577  63.590  1.00  0.00    -0.158 NA 
HETATM   32  C   UNL     1     -10.672   2.298  63.350  1.00  0.00    -0.196 C  
HETATM   33  C   UNL     1      -8.566   3.558  63.241  1.00  0.00    -0.090 C  
HETATM   34  C   UNL     1      -8.241   4.890  62.470  1.00  0.00    -0.089 C  
HETATM   35  C   UNL     1      -7.824   5.956  63.407  1.00  0.00    -0.100 A  
HETATM   36  C   UNL     1      -7.995   7.326  63.482  1.00  0.00    -0.066 A  
HETATM   37  N   UNL     1      -7.383   7.763  64.623  1.00  0.00    -0.075 NA 
HETATM   38  H   UNL     1      -7.417   8.721  64.973  1.00  0.00     0.000 HD 
HETATM   39  C   UNL     1      -6.717   6.725  65.234  1.00  0.00    -0.051 A  
HETATM   40  C   UNL     1      -5.901   6.646  66.359  1.00  0.00    -0.021 A  
HETATM   41  C   UNL     1      -5.413   5.367  66.684  1.00  0.00    -0.013 A  
HETATM   42  C   UNL     1      -5.855   4.212  66.021  1.00  0.00    -0.023 A  
HETATM   43  C   UNL     1      -6.787   4.310  64.989  1.00  0.00    -0.050 A  
HETATM   44  C   UNL     1      -7.079   5.596  64.534  1.00  0.00    -0.053 A  
HETATM   45  C   UNL     1      -7.624   3.164  64.467  1.00  0.00    -0.076 C  
HETATM   46  C   UNL     1      -8.471   2.574  65.639  1.00  0.00    -0.104 C  
ENDBRANCH  27  29
ENDBRANCH  13  25
TORSDOF 4
ENDMDL
MODEL       62
REMARK 921   NORMALIZED FREE ENERGY PREDICTED BY IDOCK:   -6.01 KCAL/MOL
REMARK 922        TOTAL FREE ENERGY PREDICTED BY IDOCK:   -8.65 KCAL/MOL
REMARK 923 INTER-LIGAND FREE ENERGY PREDICTED BY IDOCK:   -6.38 KCAL/MOL
REMARK 924 INTRA-LIGAND FREE ENERGY PREDICTED BY IDOCK:   -2.27 KCAL/MOL
REMARK 927      BINDING AFFINITY PREDICTED BY RF-SCORE:    0.00 PKD
ROOT
HETATM    1  C   UNL     1      -9.004   4.144  70.623  1.00  0.00    -0.095 C  
HETATM    2  C   UNL     1      -9.667   3.823  71.963  1.00  0.00    -0.236 C  
HETATM    3  C   UNL     1      -9.898   2.287  71.871  1.00  0.00    -0.225 C  
HETATM    4  C   UNL     1      -9.623   1.900  70.414  1.00  0.00    -0.038 C  
HETATM    5  N   UNL     1      -9.499   3.158  69.706  1.00  0.00    -0.156 N  
HETATM    6  C   UNL     1      -8.965   3.127  68.432  1.00  0.00    -0.138 C  
HETATM    7  O   UNL     1      -9.355   2.340  67.573  1.00  0.00    -0.166 OA 
HETATM    8  C   UNL     1      -7.931   4.262  68.130  1.00  0.00    -0.078 C  
HETATM    9  O   UNL     1      -8.787   6.605  69.107  1.00  0.00    -0.129 OA 
HETATM   10  N   UNL     1      -7.382   5.027  69.358  1.00  0.00    -0.056 N  
HETATM   11  C   UNL     1      -6.798   6.255  69.201  1.00  0.00    -0.062 C  
HETATM   12  H   UNL     1      -7.843   7.067  70.973  1.00  0.00     0.000 HD 
HETATM   13  C   UNL     1      -7.612   6.908  68.058  1.00  0.00    -0.108 C  
HETATM   14  O   UNL     1      -5.973   6.690  70.003  1.00  0.00    -0.022 OA 
HETATM   15  O   UNL     1      -8.162   6.233  71.297  1.00  0.00    -0.119 OA 
HETATM   16  C   UNL     1      -6.125   7.491  67.787  1.00  0.00    -0.044 C  
HETATM   17  C   UNL     1      -8.466   5.548  70.080  1.00  0.00    -0.120 C  
ENDROOT
BRANCH   8  18
HETATM   18  C   UNL     1      -6.822   3.801  67.172  1.00  0.00    -0.051 C  
BRANCH  18  19
HETATM   19  C   UNL     1      -7.111   4.350  65.808  1.00  0.00    -0.071 A  
HETATM   20  C   UNL     1      -6.477   5.951  64.118  1.00  0.00    -0.033 A  
HETATM   21  C   UNL     1      -7.794   5.987  63.669  1.00  0.00    -0.112 A  
HETATM   22  C   UNL     1      -8.416   4.329  65.308  1.00  0.00    -0.115 A  
HETATM   23  C   UNL     1      -8.756   5.153  64.243  1.00  0.00    -0.071 A  
HETATM   24  C   UNL     1      -6.127   5.112  65.165  1.00  0.00    -0.030 A  
ENDBRANCH  18  19
ENDBRANCH   8  18
BRANCH  13  25
HETATM   25  N   UNL     1      -8.222   7.596  66.905  1.00  0.00    -0.118 N  
HETATM   26  O   UNL     1     -10.476   7.814  67.270  1.00  0.00    -0.272 OA 
HETATM   27  C   UNL     1      -9.461   8.194  66.702  1.00  0.00    -0.213 C  
HETATM   28  H   UNL     1      -7.611   7.642  66.090  1.00  0.00     0.000 HD 
BRANCH  27  29
HETATM   29  C   UNL     1      -9.435   9.363  65.615  1.00  0.00    -0.328 C  
HETATM   30  C   UNL     1     -10.743  10.183  65.419  1.00  0.00     0.366 C  
HETATM   31  N   UNL     1     -10.570  11.623  65.080  1.00  0.00    -0.278 NA 
HETATM   32  C   UNL     1     -10.071  11.917  63.739  1.00  0.00    -0.398 C  
HETATM   33  C   UNL     1      -9.851  12.366  66.144  1.00  0.00    -0.252 C  
HETATM   34  C   UNL     1     -10.923  12.911  67.158  1.00  0.00    -0.290 C  
HETATM   35  C   UNL     1     -11.170  11.936  68.243  1.00  0.00    -0.317 A  
HETATM   36  C   UNL     1     -12.268  11.539  68.982  1.00  0.00    -0.121 A  
HETATM   37  N   UNL     1     -11.864  10.556  69.841  1.00  0.00    -0.340 NA 
HETATM   38  H   UNL     1     -12.483  10.025  70.453  1.00  0.00     0.000 HD 
HETATM   39  C   UNL     1     -10.500  10.384  69.761  1.00  0.00    -0.240 A  
HETATM   40  C   UNL     1      -9.598   9.580  70.449  1.00  0.00    -0.326 A  
HETATM   41  C   UNL     1      -8.251   9.675  70.051  1.00  0.00    -0.197 A  
HETATM   42  C   UNL     1      -7.861  10.404  68.918  1.00  0.00    -0.115 A  
HETATM   43  C   UNL     1      -8.812  11.084  68.161  1.00  0.00    -0.141 A  
HETATM   44  C   UNL     1     -10.096  11.166  68.701  1.00  0.00    -0.208 A  
HETATM   45  C   UNL     1      -8.606  11.566  66.742  1.00  0.00    -0.170 C  
HETATM   46  C   UNL     1      -8.253  10.347  65.833  1.00  0.00    -0.150 C  
ENDBRANCH  27  29
ENDBRANCH  13  25
TORSDOF 4
ENDMDL
MODEL       63
REMARK 921   NORMALIZED FREE ENERGY PREDICTED BY IDOCK:   -5.99 KCAL/MOL
REMARK 922        TOTAL FREE ENERGY PREDICTED BY IDOCK:   -8.63 KCAL/MOL
REMARK 923 INTER-LIGAND FREE ENERGY PREDICTED BY IDOCK:   -6.51 KCAL/MOL
REMARK 924 INTRA-LIGAND FREE ENERGY PREDICTED BY IDOCK:   -2.12 KCAL/MOL
REMARK 927      BINDING AFFINITY PREDICTED BY RF-SCORE:    0.00 PKD
ROOT
HETATM    1  C   UNL     1     -12.742  13.533  71.303  1.00  0.00    -0.348 C  
HETATM    2  C   UNL     1     -13.508  14.148  72.475  1.00  0.00    -0.634 C  
HETATM    3  C   UNL     1     -13.584  15.652  72.083  1.00  0.00    -0.558 C  
HETATM    4  C   UNL     1     -12.636  15.832  70.893  1.00  0.00    -0.386 C  
HETATM    5  N   UNL     1     -11.905  14.584  70.800  1.00  0.00    -0.308 N  
HETATM    6  C   UNL     1     -11.185  14.347  69.645  1.00  0.00    -0.232 C  
HETATM    7  O   UNL     1     -10.417  15.178  69.166  1.00  0.00    -0.233 OA 
HETATM    8  C   UNL     1     -11.317  12.893  69.081  1.00  0.00    -0.273 C  
HETATM    9  O   UNL     1     -11.194  11.095  71.062  1.00  0.00     0.476 OA 
HETATM   10  N   UNL     1     -12.476  12.044  69.654  1.00  0.00     0.015 N  
HETATM   11  C   UNL     1     -12.454  10.679  69.537  1.00  0.00     0.033 C  
HETATM   12  H   UNL     1     -13.145  10.410  71.621  1.00  0.00     0.000 HD 
HETATM   13  C   UNL     1     -10.954  10.321  69.678  1.00  0.00    -0.270 C  
HETATM   14  O   UNL     1     -13.485  10.009  69.547  1.00  0.00     0.898 OA 
HETATM   15  O   UNL     1     -13.378  11.319  71.771  1.00  0.00    -0.391 OA 
HETATM   16  C   UNL     1     -11.467   9.210  68.615  1.00  0.00     0.624 C  
HETATM   17  C   UNL     1     -12.351  12.004  71.051  1.00  0.00    -0.238 C  
ENDROOT
BRANCH   8  18
HETATM   18  C   UNL     1     -11.254  12.856  67.546  1.00  0.00    -0.329 C  
BRANCH  18  19
HETATM   19  C   UNL     1      -9.880  12.422  67.136  1.00  0.00    -0.206 A  
HETATM   20  C   UNL     1      -8.569  10.780  65.948  1.00  0.00    -0.182 A  
HETATM   21  C   UNL     1      -7.498  11.029  66.802  1.00  0.00    -0.139 A  
HETATM   22  C   UNL     1      -8.780  12.725  67.942  1.00  0.00    -0.185 A  
HETATM   23  C   UNL     1      -7.593  12.023  67.778  1.00  0.00    -0.130 A  
HETATM   24  C   UNL     1      -9.748  11.496  66.093  1.00  0.00    -0.249 A  
ENDBRANCH  18  19
ENDBRANCH   8  18
BRANCH  13  25
HETATM   25  N   UNL     1      -9.556   9.853  69.675  1.00  0.00    -0.216 N  
HETATM   26  O   UNL     1      -8.939   9.322  71.819  1.00  0.00    -0.298 OA 
HETATM   27  C   UNL     1      -8.774   9.190  70.614  1.00  0.00    -0.229 C  
HETATM   28  H   UNL     1      -9.061  10.058  68.807  1.00  0.00     0.000 HD 
BRANCH  27  29
HETATM   29  C   UNL     1      -7.610   8.308  69.967  1.00  0.00    -0.072 C  
HETATM   30  C   UNL     1      -6.587   7.654  70.941  1.00  0.00    -0.038 C  
HETATM   31  N   UNL     1      -6.053   6.325  70.534  1.00  0.00    -0.033 NA 
HETATM   32  C   UNL     1      -5.127   6.316  69.404  1.00  0.00    -0.012 C  
HETATM   33  C   UNL     1      -7.123   5.304  70.418  1.00  0.00    -0.061 C  
HETATM   34  C   UNL     1      -7.285   4.617  71.824  1.00  0.00    -0.064 C  
HETATM   35  C   UNL     1      -8.289   5.327  72.648  1.00  0.00    -0.114 A  
HETATM   36  C   UNL     1      -8.435   5.620  73.991  1.00  0.00    -0.114 A  
HETATM   37  N   UNL     1      -9.584   6.343  74.141  1.00  0.00    -0.199 NA 
HETATM   38  H   UNL     1      -9.901   6.760  75.016  1.00  0.00     0.000 HD 
HETATM   39  C   UNL     1     -10.253   6.428  72.941  1.00  0.00    -0.191 A  
HETATM   40  C   UNL     1     -11.474   6.982  72.566  1.00  0.00    -0.275 A  
HETATM   41  C   UNL     1     -11.808   6.884  71.203  1.00  0.00    -0.395 A  
HETATM   42  C   UNL     1     -10.897   6.413  70.246  1.00  0.00    -0.350 A  
HETATM   43  C   UNL     1      -9.624   6.000  70.634  1.00  0.00    -0.201 A  
HETATM   44  C   UNL     1      -9.398   5.888  72.006  1.00  0.00    -0.160 A  
HETATM   45  C   UNL     1      -8.442   5.848  69.704  1.00  0.00    -0.117 C  
HETATM   46  C   UNL     1      -8.159   7.217  69.008  1.00  0.00    -0.124 C  
ENDBRANCH  27  29
ENDBRANCH  13  25
TORSDOF 4
ENDMDL
MODEL       64
REMARK 921   NORMALIZED FREE ENERGY PREDICTED BY IDOCK:   -5.98 KCAL/MOL
REMARK 922        TOTAL FREE ENERGY PREDICTED BY IDOCK:   -8.61 KCAL/MOL
REMARK 923 INTER-LIGAND FREE ENERGY PREDICTED BY IDOCK:   -6.91 KCAL/MOL
REMARK 924 INTRA-LIGAND FREE ENERGY PREDICTED BY IDOCK:   -1.71 KCAL/MOL
REMARK 927      BINDING AFFINITY PREDICTED BY RF-SCORE:    0.00 PKD
ROOT
HETATM    1  C   UNL     1      -8.806  12.018  68.182  1.00  0.00    -0.182 C  
HETATM    2  C   UNL     1      -8.481  13.473  67.841  1.00  0.00    -0.179 C  
HETATM    3  C   UNL     1      -9.863  14.041  67.408  1.00  0.00    -0.240 C  
HETATM    4  C   UNL     1     -10.794  12.833  67.261  1.00  0.00    -0.251 C  
HETATM    5  N   UNL     1      -9.928  11.674  67.357  1.00  0.00    -0.183 N  
HETATM    6  C   UNL     1     -10.524  10.443  67.547  1.00  0.00    -0.245 C  
HETATM    7  O   UNL     1     -11.466  10.054  66.861  1.00  0.00     0.144 OA 
HETATM    8  C   UNL     1      -9.816   9.532  68.604  1.00  0.00    -0.162 C  
HETATM    9  O   UNL     1      -7.155   9.640  68.313  1.00  0.00    -0.076 OA 
HETATM   10  N   UNL     1      -8.795  10.233  69.532  1.00  0.00    -0.177 N  
HETATM   11  C   UNL     1      -7.856   9.498  70.205  1.00  0.00    -0.160 C  
HETATM   12  H   UNL     1      -6.264  10.963  69.743  1.00  0.00     0.000 HD 
HETATM   13  C   UNL     1      -7.501   8.360  69.217  1.00  0.00    -0.084 C  
HETATM   14  O   UNL     1      -7.346   9.896  71.250  1.00  0.00    -0.223 OA 
HETATM   15  O   UNL     1      -6.841  11.643  69.415  1.00  0.00    -0.115 OA 
HETATM   16  C   UNL     1      -7.378   7.612  70.649  1.00  0.00    -0.067 C  
HETATM   17  C   UNL     1      -7.836  10.875  68.735  1.00  0.00    -0.132 C  
ENDROOT
BRANCH   8  18
HETATM   18  C   UNL     1     -10.810   8.649  69.373  1.00  0.00    -0.108 C  
BRANCH  18  19
HETATM   19  C   UNL     1     -11.460   9.480  70.438  1.00  0.00    -0.297 A  
HETATM   20  C   UNL     1     -12.959   9.496  72.329  1.00  0.00    -0.466 A  
HETATM   21  C   UNL     1     -13.285  10.821  72.050  1.00  0.00    -0.466 A  
HETATM   22  C   UNL     1     -11.730  10.831  70.205  1.00  0.00    -0.442 A  
HETATM   23  C   UNL     1     -12.647  11.497  71.007  1.00  0.00    -0.457 A  
HETATM   24  C   UNL     1     -12.025   8.835  71.546  1.00  0.00    -0.386 A  
ENDBRANCH  18  19
ENDBRANCH   8  18
BRANCH  13  25
HETATM   25  N   UNL     1      -7.160   7.162  68.426  1.00  0.00    -0.082 N  
HETATM   26  O   UNL     1      -5.135   7.493  67.402  1.00  0.00    -0.023 OA 
HETATM   27  C   UNL     1      -5.985   6.723  67.827  1.00  0.00    -0.027 C  
HETATM   28  H   UNL     1      -7.946   6.527  68.292  1.00  0.00     0.000 HD 
BRANCH  27  29
HETATM   29  C   UNL     1      -5.895   5.134  67.689  1.00  0.00    -0.018 C  
HETATM   30  C   UNL     1      -7.121   4.306  68.171  1.00  0.00    -0.059 C  
HETATM   31  N   UNL     1      -7.412   3.061  67.407  1.00  0.00    -0.061 NA 
HETATM   32  C   UNL     1      -6.473   1.956  67.587  1.00  0.00    -0.028 C  
HETATM   33  C   UNL     1      -7.719   3.338  65.982  1.00  0.00    -0.081 C  
HETATM   34  C   UNL     1      -9.270   3.570  65.862  1.00  0.00    -0.162 C  
HETATM   35  C   UNL     1      -9.607   5.001  66.034  1.00  0.00    -0.179 A  
HETATM   36  C   UNL     1     -10.648   5.707  66.605  1.00  0.00    -0.295 A  
HETATM   37  N   UNL     1     -10.374   7.039  66.472  1.00  0.00    -0.482 NA 
HETATM   38  H   UNL     1     -10.934   7.793  66.871  1.00  0.00     0.000 HD 
HETATM   39  C   UNL     1      -9.234   7.219  65.722  1.00  0.00     0.129 A  
HETATM   40  C   UNL     1      -8.571   8.347  65.249  1.00  0.00    -0.177 A  
HETATM   41  C   UNL     1      -7.392   8.114  64.517  1.00  0.00    -0.088 A  
HETATM   42  C   UNL     1      -6.821   6.837  64.415  1.00  0.00    -0.046 A  
HETATM   43  C   UNL     1      -7.434   5.745  65.027  1.00  0.00    -0.079 A  
HETATM   44  C   UNL     1      -8.711   5.957  65.545  1.00  0.00    -0.133 A  
HETATM   45  C   UNL     1      -6.754   4.428  65.328  1.00  0.00    -0.049 C  
HETATM   46  C   UNL     1      -5.520   4.688  66.249  1.00  0.00    -0.013 C  
ENDBRANCH  27  29
ENDBRANCH  13  25
TORSDOF 4
ENDMDL
MODEL       65
REMARK 921   NORMALIZED FREE ENERGY PREDICTED BY IDOCK:   -5.96 KCAL/MOL
REMARK 922        TOTAL FREE ENERGY PREDICTED BY IDOCK:   -8.59 KCAL/MOL
REMARK 923 INTER-LIGAND FREE ENERGY PREDICTED BY IDOCK:   -8.70 KCAL/MOL
REMARK 924 INTRA-LIGAND FREE ENERGY PREDICTED BY IDOCK:    0.10 KCAL/MOL
REMARK 927      BINDING AFFINITY PREDICTED BY RF-SCORE:    0.00 PKD
ROOT
HETATM    1  C   UNL     1      -8.549  17.160  67.121  1.00  0.00    -0.204 C  
HETATM    2  C   UNL     1      -8.211  18.652  67.133  1.00  0.00    -0.258 C  
HETATM    3  C   UNL     1      -9.511  19.302  66.577  1.00  0.00    -0.407 C  
HETATM    4  C   UNL     1     -10.366  18.151  66.034  1.00  0.00    -0.353 C  
HETATM    5  N   UNL     1      -9.497  16.991  66.058  1.00  0.00    -0.211 N  
HETATM    6  C   UNL     1     -10.081  15.750  65.897  1.00  0.00    -0.356 C  
HETATM    7  O   UNL     1     -10.876  15.509  64.991  1.00  0.00    -0.407 OA 
HETATM    8  C   UNL     1      -9.544  14.646  66.867  1.00  0.00    -0.244 C  
HETATM    9  O   UNL     1      -6.879  14.792  67.083  1.00  0.00    -0.242 OA 
HETATM   10  N   UNL     1      -8.725  15.146  68.080  1.00  0.00    -0.163 N  
HETATM   11  C   UNL     1      -7.898  14.287  68.755  1.00  0.00    -0.128 C  
HETATM   12  H   UNL     1      -6.293  15.804  68.878  1.00  0.00     0.000 HD 
HETATM   13  C   UNL     1      -7.341  13.363  67.645  1.00  0.00    -0.168 C  
HETATM   14  O   UNL     1      -7.592  14.470  69.932  1.00  0.00     0.049 OA 
HETATM   15  O   UNL     1      -6.822  16.539  68.590  1.00  0.00    -0.145 OA 
HETATM   16  C   UNL     1      -7.451  12.348  68.904  1.00  0.00     0.001 C  
HETATM   17  C   UNL     1      -7.658  15.925  67.607  1.00  0.00    -0.150 C  
ENDROOT
BRANCH   8  18
HETATM   18  C   UNL     1     -10.633  13.636  67.260  1.00  0.00    -0.267 C  
BRANCH  18  19
HETATM   19  C   UNL     1     -11.054  12.886  66.033  1.00  0.00    -0.308 A  
HETATM   20  C   UNL     1     -10.441  12.183  63.807  1.00  0.00    -0.470 A  
HETATM   21  C   UNL     1     -11.786  12.175  63.447  1.00  0.00    -0.553 A  
HETATM   22  C   UNL     1     -12.407  12.804  65.693  1.00  0.00    -0.444 A  
HETATM   23  C   UNL     1     -12.770  12.456  64.398  1.00  0.00    -0.434 A  
HETATM   24  C   UNL     1     -10.076  12.507  65.105  1.00  0.00    -0.266 A  
ENDBRANCH  18  19
ENDBRANCH   8  18
BRANCH  13  25
HETATM   25  N   UNL     1      -6.831  12.341  66.712  1.00  0.00    -0.364 N  
HETATM   26  O   UNL     1      -6.212  10.481  67.903  1.00  0.00    -0.057 OA 
HETATM   27  C   UNL     1      -6.563  10.983  66.844  1.00  0.00    -0.112 C  
HETATM   28  H   UNL     1      -6.635  12.704  65.780  1.00  0.00     0.000 HD 
BRANCH  27  29
HETATM   29  C   UNL     1      -6.690  10.171  65.475  1.00  0.00    -0.122 C  
HETATM   30  C   UNL     1      -5.933   8.814  65.378  1.00  0.00    -0.048 C  
HETATM   31  N   UNL     1      -6.592   7.753  64.565  1.00  0.00    -0.048 NA 
HETATM   32  C   UNL     1      -6.606   7.959  63.119  1.00  0.00    -0.079 C  
HETATM   33  C   UNL     1      -7.917   7.372  65.112  1.00  0.00    -0.128 C  
HETATM   34  C   UNL     1      -7.694   6.206  66.143  1.00  0.00    -0.099 C  
HETATM   35  C   UNL     1      -7.476   6.737  67.507  1.00  0.00    -0.097 A  
HETATM   36  C   UNL     1      -6.700   6.380  68.593  1.00  0.00    -0.061 A  
HETATM   37  N   UNL     1      -6.914   7.298  69.582  1.00  0.00    -0.053 NA 
HETATM   38  H   UNL     1      -6.414   7.325  70.471  1.00  0.00     0.000 HD 
HETATM   39  C   UNL     1      -7.902   8.181  69.208  1.00  0.00    -0.110 A  
HETATM   40  C   UNL     1      -8.530   9.240  69.855  1.00  0.00    -0.170 A  
HETATM   41  C   UNL     1      -9.501   9.935  69.111  1.00  0.00    -0.201 A  
HETATM   42  C   UNL     1      -9.706   9.691  67.745  1.00  0.00    -0.173 A  
HETATM   43  C   UNL     1      -8.954   8.720  67.087  1.00  0.00    -0.146 A  
HETATM   44  C   UNL     1      -8.169   7.891  67.888  1.00  0.00    -0.129 A  
HETATM   45  C   UNL     1      -8.788   8.623  65.587  1.00  0.00    -0.227 C  
HETATM   46  C   UNL     1      -8.169   9.953  65.053  1.00  0.00    -0.143 C  
ENDBRANCH  27  29
ENDBRANCH  13  25
TORSDOF 4
ENDMDL
MODEL       66
REMARK 921   NORMALIZED FREE ENERGY PREDICTED BY IDOCK:   -5.95 KCAL/MOL
REMARK 922        TOTAL FREE ENERGY PREDICTED BY IDOCK:   -8.58 KCAL/MOL
REMARK 923 INTER-LIGAND FREE ENERGY PREDICTED BY IDOCK:   -7.50 KCAL/MOL
REMARK 924 INTRA-LIGAND FREE ENERGY PREDICTED BY IDOCK:   -1.07 KCAL/MOL
REMARK 927      BINDING AFFINITY PREDICTED BY RF-SCORE:    0.00 PKD
ROOT
HETATM    1  C   UNL     1      -9.590  11.408  65.435  1.00  0.00    -0.228 C  
HETATM    2  C   UNL     1      -9.575  11.778  63.951  1.00  0.00    -0.145 C  
HETATM    3  C   UNL     1     -10.844  12.666  63.806  1.00  0.00    -0.466 C  
HETATM    4  C   UNL     1     -11.628  12.509  65.114  1.00  0.00    -0.353 C  
HETATM    5  N   UNL     1     -10.973  11.424  65.818  1.00  0.00    -0.237 N  
HETATM    6  C   UNL     1     -11.281  11.249  67.153  1.00  0.00    -0.275 C  
HETATM    7  O   UNL     1     -12.438  11.214  67.563  1.00  0.00     0.514 OA 
HETATM    8  C   UNL     1     -10.049  10.958  68.074  1.00  0.00    -0.177 C  
HETATM    9  O   UNL     1      -8.382   9.220  66.902  1.00  0.00    -0.121 OA 
HETATM   10  N   UNL     1      -8.658  11.253  67.464  1.00  0.00    -0.132 N  
HETATM   11  C   UNL     1      -7.534  10.688  68.004  1.00  0.00    -0.090 C  
HETATM   12  H   UNL     1      -6.714  10.218  66.004  1.00  0.00     0.000 HD 
HETATM   13  C   UNL     1      -8.009   9.287  68.461  1.00  0.00    -0.101 C  
HETATM   14  O   UNL     1      -6.424  11.203  67.882  1.00  0.00    -0.057 OA 
HETATM   15  O   UNL     1      -7.339  10.737  65.511  1.00  0.00    -0.098 OA 
HETATM   16  C   UNL     1      -6.919   9.661  69.600  1.00  0.00    -0.071 C  
HETATM   17  C   UNL     1      -8.537  10.536  66.264  1.00  0.00    -0.147 C  
ENDROOT
BRANCH   8  18
HETATM   18  C   UNL     1     -10.220  11.552  69.481  1.00  0.00     0.293 C  
BRANCH  18  19
HETATM   19  C   UNL     1     -10.999  12.827  69.368  1.00  0.00    -0.041 A  
HETATM   20  C   UNL     1     -10.954  15.152  68.721  1.00  0.00    -0.257 A  
HETATM   21  C   UNL     1     -11.943  15.425  69.661  1.00  0.00    -0.366 A  
HETATM   22  C   UNL     1     -12.044  13.089  70.258  1.00  0.00    -0.388 A  
HETATM   23  C   UNL     1     -12.509  14.389  70.408  1.00  0.00    -0.420 A  
HETATM   24  C   UNL     1     -10.504  13.851  68.550  1.00  0.00    -0.253 A  
ENDBRANCH  18  19
ENDBRANCH   8  18
BRANCH  13  25
HETATM   25  N   UNL     1      -8.354   7.979  69.049  1.00  0.00    -0.128 N  
HETATM   26  O   UNL     1     -10.423   7.340  68.294  1.00  0.00    -0.198 OA 
HETATM   27  C   UNL     1      -9.334   7.036  68.760  1.00  0.00    -0.134 C  
HETATM   28  H   UNL     1      -7.751   7.712  69.827  1.00  0.00     0.000 HD 
BRANCH  27  29
HETATM   29  C   UNL     1      -8.923   5.545  69.160  1.00  0.00    -0.120 C  
HETATM   30  C   UNL     1      -7.776   5.376  70.199  1.00  0.00    -0.077 C  
HETATM   31  N   UNL     1      -7.892   4.211  71.119  1.00  0.00    -0.069 NA 
HETATM   32  C   UNL     1      -7.679   2.893  70.526  1.00  0.00    -0.043 C  
HETATM   33  C   UNL     1      -9.113   4.281  71.958  1.00  0.00    -0.121 C  
HETATM   34  C   UNL     1      -8.749   5.064  73.273  1.00  0.00    -0.111 C  
HETATM   35  C   UNL     1      -8.987   6.515  73.108  1.00  0.00    -0.137 A  
HETATM   36  C   UNL     1      -8.373   7.672  73.549  1.00  0.00    -0.173 A  
HETATM   37  N   UNL     1      -9.057   8.735  73.031  1.00  0.00    -0.201 NA 
HETATM   38  H   UNL     1      -8.780   9.712  73.129  1.00  0.00     0.000 HD 
HETATM   39  C   UNL     1     -10.175   8.299  72.356  1.00  0.00    -0.327 A  
HETATM   40  C   UNL     1     -11.220   8.957  71.715  1.00  0.00    -0.432 A  
HETATM   41  C   UNL     1     -12.189   8.138  71.106  1.00  0.00    -0.257 A  
HETATM   42  C   UNL     1     -12.028   6.749  70.999  1.00  0.00    -0.431 A  
HETATM   43  C   UNL     1     -10.894   6.133  71.525  1.00  0.00    -0.313 A  
HETATM   44  C   UNL     1     -10.067   6.926  72.321  1.00  0.00    -0.194 A  
HETATM   45  C   UNL     1     -10.409   4.750  71.152  1.00  0.00    -0.188 C  
HETATM   46  C   UNL     1     -10.142   4.698  69.614  1.00  0.00    -0.232 C  
ENDBRANCH  27  29
ENDBRANCH  13  25
TORSDOF 4
ENDMDL
MODEL       67
REMARK 921   NORMALIZED FREE ENERGY PREDICTED BY IDOCK:   -5.93 KCAL/MOL
REMARK 922        TOTAL FREE ENERGY PREDICTED BY IDOCK:   -8.55 KCAL/MOL
REMARK 923 INTER-LIGAND FREE ENERGY PREDICTED BY IDOCK:   -7.33 KCAL/MOL
REMARK 924 INTRA-LIGAND FREE ENERGY PREDICTED BY IDOCK:   -1.22 KCAL/MOL
REMARK 927      BINDING AFFINITY PREDICTED BY RF-SCORE:    0.00 PKD
ROOT
HETATM    1  C   UNL     1      -9.601   5.628  70.355  1.00  0.00    -0.170 C  
HETATM    2  C   UNL     1      -9.866   4.122  70.311  1.00  0.00    -0.239 C  
HETATM    3  C   UNL     1      -8.451   3.518  70.549  1.00  0.00    -0.096 C  
HETATM    4  C   UNL     1      -7.464   4.684  70.428  1.00  0.00    -0.050 C  
HETATM    5  N   UNL     1      -8.246   5.791  69.913  1.00  0.00    -0.113 N  
HETATM    6  C   UNL     1      -7.688   7.052  69.974  1.00  0.00    -0.104 C  
HETATM    7  O   UNL     1      -6.547   7.288  69.584  1.00  0.00    -0.039 OA 
HETATM    8  C   UNL     1      -8.669   8.178  70.444  1.00  0.00    -0.136 C  
HETATM    9  O   UNL     1     -11.066   7.887  69.284  1.00  0.00    -0.053 OA 
HETATM   10  N   UNL     1      -9.984   7.701  71.107  1.00  0.00    -0.177 N  
HETATM   11  C   UNL     1     -11.057   8.546  71.196  1.00  0.00    -0.260 C  
HETATM   12  H   UNL     1     -12.467   6.948  70.604  1.00  0.00     0.000 HD 
HETATM   13  C   UNL     1     -10.986   9.372  69.888  1.00  0.00    -0.229 C  
HETATM   14  O   UNL     1     -11.919   8.414  72.063  1.00  0.00    -0.310 OA 
HETATM   15  O   UNL     1     -11.849   6.230  70.685  1.00  0.00    -0.313 OA 
HETATM   16  C   UNL     1     -11.558  10.461  70.942  1.00  0.00    -0.428 C  
HETATM   17  C   UNL     1     -10.641   6.835  70.220  1.00  0.00    -0.215 C  
ENDROOT
BRANCH   8  18
HETATM   18  C   UNL     1      -7.957   9.271  71.256  1.00  0.00     0.040 C  
BRANCH  18  19
HETATM   19  C   UNL     1      -7.485   8.674  72.547  1.00  0.00    -0.007 A  
HETATM   20  C   UNL     1      -5.641   7.659  73.728  1.00  0.00    -0.049 A  
HETATM   21  C   UNL     1      -6.545   6.956  74.519  1.00  0.00    -0.087 A  
HETATM   22  C   UNL     1      -8.390   8.026  73.391  1.00  0.00    -0.278 A  
HETATM   23  C   UNL     1      -7.918   7.162  74.371  1.00  0.00    -0.165 A  
HETATM   24  C   UNL     1      -6.107   8.541  72.765  1.00  0.00    -0.085 A  
ENDBRANCH  18  19
ENDBRANCH   8  18
BRANCH  13  25
HETATM   25  N   UNL     1     -10.968  10.307  68.747  1.00  0.00    -0.236 N  
HETATM   26  O   UNL     1     -10.597   9.126  66.816  1.00  0.00    -0.227 OA 
HETATM   27  C   UNL     1     -11.032  10.126  67.370  1.00  0.00    -0.229 C  
HETATM   28  H   UNL     1     -10.894  11.285  69.026  1.00  0.00     0.000 HD 
BRANCH  27  29
HETATM   29  C   UNL     1     -11.656  11.373  66.591  1.00  0.00     0.010 C  
HETATM   30  C   UNL     1     -11.643  12.748  67.320  1.00  0.00    -0.360 C  
HETATM   31  N   UNL     1     -11.465  13.947  66.455  1.00  0.00    -0.334 NA 
HETATM   32  C   UNL     1     -12.593  14.304  65.599  1.00  0.00    -0.410 C  
HETATM   33  C   UNL     1     -10.170  13.927  65.732  1.00  0.00    -0.318 C  
HETATM   34  C   UNL     1      -9.100  14.635  66.642  1.00  0.00    -0.285 C  
HETATM   35  C   UNL     1      -8.425  13.659  67.526  1.00  0.00    -0.190 A  
HETATM   36  C   UNL     1      -7.934  13.672  68.817  1.00  0.00    -0.022 A  
HETATM   37  N   UNL     1      -7.435  12.430  69.090  1.00  0.00    -0.328 NA 
HETATM   38  H   UNL     1      -7.078  12.131  69.998  1.00  0.00     0.000 HD 
HETATM   39  C   UNL     1      -7.484  11.639  67.964  1.00  0.00    -0.100 A  
HETATM   40  C   UNL     1      -7.053  10.345  67.688  1.00  0.00    -0.085 A  
HETATM   41  C   UNL     1      -7.311   9.869  66.389  1.00  0.00    -0.101 A  
HETATM   42  C   UNL     1      -8.104  10.583  65.479  1.00  0.00    -0.155 A  
HETATM   43  C   UNL     1      -8.645  11.816  65.839  1.00  0.00     0.135 A  
HETATM   44  C   UNL     1      -8.189  12.371  67.035  1.00  0.00    -0.141 A  
HETATM   45  C   UNL     1      -9.801  12.493  65.136  1.00  0.00    -0.133 C  
HETATM   46  C   UNL     1     -11.045  11.550  65.174  1.00  0.00    -0.260 C  
ENDBRANCH  27  29
ENDBRANCH  13  25
TORSDOF 4
ENDMDL
MODEL       68
REMARK 921   NORMALIZED FREE ENERGY PREDICTED BY IDOCK:   -5.91 KCAL/MOL
REMARK 922        TOTAL FREE ENERGY PREDICTED BY IDOCK:   -8.53 KCAL/MOL
REMARK 923 INTER-LIGAND FREE ENERGY PREDICTED BY IDOCK:   -6.60 KCAL/MOL
REMARK 924 INTRA-LIGAND FREE ENERGY PREDICTED BY IDOCK:   -1.92 KCAL/MOL
REMARK 927      BINDING AFFINITY PREDICTED BY RF-SCORE:    0.00 PKD
ROOT
HETATM    1  C   UNL     1      -9.205   5.713  69.083  1.00  0.00    -0.115 C  
HETATM    2  C   UNL     1      -9.350   4.195  68.972  1.00  0.00    -0.232 C  
HETATM    3  C   UNL     1      -7.912   3.689  69.285  1.00  0.00    -0.060 C  
HETATM    4  C   UNL     1      -7.011   4.929  69.269  1.00  0.00    -0.051 C  
HETATM    5  N   UNL     1      -7.841   5.993  68.739  1.00  0.00    -0.098 N  
HETATM    6  C   UNL     1      -7.386   7.290  68.879  1.00  0.00    -0.095 C  
HETATM    7  O   UNL     1      -6.244   7.624  68.574  1.00  0.00    -0.037 OA 
HETATM    8  C   UNL     1      -8.479   8.320  69.318  1.00  0.00    -0.126 C  
HETATM    9  O   UNL     1     -10.766   7.897  67.990  1.00  0.00    -0.161 OA 
HETATM   10  N   UNL     1      -9.793   7.723  69.874  1.00  0.00    -0.176 N  
HETATM   11  C   UNL     1     -10.932   8.482  69.918  1.00  0.00    -0.165 C  
HETATM   12  H   UNL     1     -12.173   6.807  69.181  1.00  0.00     0.000 HD 
HETATM   13  C   UNL     1     -10.840   9.359  68.646  1.00  0.00    -0.109 C  
HETATM   14  O   UNL     1     -11.835   8.254  70.721  1.00  0.00    -0.264 OA 
HETATM   15  O   UNL     1     -11.509   6.134  69.280  1.00  0.00    -0.404 OA 
HETATM   16  C   UNL     1     -11.560  10.363  69.694  1.00  0.00    -0.307 C  
HETATM   17  C   UNL     1     -10.323   6.844  68.917  1.00  0.00    -0.189 C  
ENDROOT
BRANCH   8  18
HETATM   18  C   UNL     1      -7.906   9.432  70.211  1.00  0.00    -0.165 C  
BRANCH  18  19
HETATM   19  C   UNL     1      -7.428   8.816  71.491  1.00  0.00    -0.116 A  
HETATM   20  C   UNL     1      -8.042   8.042  73.693  1.00  0.00    -0.263 A  
HETATM   21  C   UNL     1      -6.758   8.332  74.144  1.00  0.00    -0.161 A  
HETATM   22  C   UNL     1      -6.119   9.036  71.927  1.00  0.00    -0.065 A  
HETATM   23  C   UNL     1      -5.789   8.800  73.255  1.00  0.00    -0.102 A  
HETATM   24  C   UNL     1      -8.370   8.253  72.361  1.00  0.00    -0.231 A  
ENDBRANCH  18  19
ENDBRANCH   8  18
BRANCH  13  25
HETATM   25  N   UNL     1     -10.819  10.335  67.540  1.00  0.00    -0.295 N  
HETATM   26  O   UNL     1      -8.805  10.193  66.453  1.00  0.00    -0.141 OA 
HETATM   27  C   UNL     1      -9.987  10.506  66.439  1.00  0.00    -0.218 C  
HETATM   28  H   UNL     1     -11.568  11.025  67.594  1.00  0.00     0.000 HD 
BRANCH  27  29
HETATM   29  C   UNL     1     -10.707  11.209  65.198  1.00  0.00    -0.279 C  
HETATM   30  C   UNL     1     -12.103  11.847  65.452  1.00  0.00     0.141 C  
HETATM   31  N   UNL     1     -12.414  13.076  64.670  1.00  0.00    -0.585 NA 
HETATM   32  C   UNL     1     -12.652  12.892  63.240  1.00  0.00    -0.080 C  
HETATM   33  C   UNL     1     -11.469  14.181  64.965  1.00  0.00    -0.352 C  
HETATM   34  C   UNL     1     -12.055  15.006  66.169  1.00  0.00     0.149 C  
HETATM   35  C   UNL     1     -11.570  14.475  67.462  1.00  0.00    -0.403 A  
HETATM   36  C   UNL     1     -12.102  14.322  68.728  1.00  0.00    -0.265 A  
HETATM   37  N   UNL     1     -11.153  13.730  69.514  1.00  0.00    -0.431 NA 
HETATM   38  H   UNL     1     -11.299  13.427  70.477  1.00  0.00     0.000 HD 
HETATM   39  C   UNL     1      -9.972  13.600  68.819  1.00  0.00    -0.089 A  
HETATM   40  C   UNL     1      -8.707  13.135  69.165  1.00  0.00     0.653 A  
HETATM   41  C   UNL     1      -7.742  13.139  68.142  1.00  0.00    -0.143 A  
HETATM   42  C   UNL     1      -8.072  13.430  66.810  1.00  0.00     0.250 A  
HETATM   43  C   UNL     1      -9.383  13.752  66.467  1.00  0.00    -0.249 A  
HETATM   44  C   UNL     1     -10.268  13.966  67.524  1.00  0.00    -0.245 A  
HETATM   45  C   UNL     1      -9.949  13.703  65.066  1.00  0.00    -0.205 C  
HETATM   46  C   UNL     1      -9.794  12.255  64.502  1.00  0.00    -0.125 C  
ENDBRANCH  27  29
ENDBRANCH  13  25
TORSDOF 4
ENDMDL
MODEL       69
REMARK 921   NORMALIZED FREE ENERGY PREDICTED BY IDOCK:   -5.86 KCAL/MOL
REMARK 922        TOTAL FREE ENERGY PREDICTED BY IDOCK:   -8.46 KCAL/MOL
REMARK 923 INTER-LIGAND FREE ENERGY PREDICTED BY IDOCK:   -6.76 KCAL/MOL
REMARK 924 INTRA-LIGAND FREE ENERGY PREDICTED BY IDOCK:   -1.70 KCAL/MOL
REMARK 927      BINDING AFFINITY PREDICTED BY RF-SCORE:    0.00 PKD
ROOT
HETATM    1  C   UNL     1      -6.842  11.045  69.902  1.00  0.00    -0.095 C  
HETATM    2  C   UNL     1      -5.548  11.391  70.640  1.00  0.00    -0.135 C  
HETATM    3  C   UNL     1      -5.425  12.926  70.414  1.00  0.00    -0.146 C  
HETATM    4  C   UNL     1      -6.472  13.287  69.355  1.00  0.00    -0.097 C  
HETATM    5  N   UNL     1      -6.956  12.016  68.852  1.00  0.00    -0.102 N  
HETATM    6  C   UNL     1      -8.110  12.025  68.094  1.00  0.00    -0.160 C  
HETATM    7  O   UNL     1      -8.275  12.798  67.154  1.00  0.00    -0.179 OA 
HETATM    8  C   UNL     1      -9.123  10.882  68.435  1.00  0.00    -0.164 C  
HETATM    9  O   UNL     1      -7.841   8.559  68.798  1.00  0.00    -0.106 OA 
HETATM   10  N   UNL     1      -8.884  10.138  69.771  1.00  0.00    -0.172 N  
HETATM   11  C   UNL     1      -9.443   8.905  69.983  1.00  0.00    -0.178 C  
HETATM   12  H   UNL     1      -7.577   8.126  70.879  1.00  0.00     0.000 HD 
HETATM   13  C   UNL     1      -9.398   8.235  68.588  1.00  0.00    -0.143 C  
HETATM   14  O   UNL     1      -9.674   8.482  71.114  1.00  0.00    -0.174 OA 
HETATM   15  O   UNL     1      -7.141   8.966  70.958  1.00  0.00    -0.072 OA 
HETATM   16  C   UNL     1     -10.777   7.644  69.201  1.00  0.00    -0.153 C  
HETATM   17  C   UNL     1      -7.576   9.631  69.770  1.00  0.00    -0.123 C  
ENDROOT
BRANCH   8  18
HETATM   18  C   UNL     1     -10.583  11.325  68.255  1.00  0.00    -0.228 C  
BRANCH  18  19
HETATM   19  C   UNL     1     -10.898  11.342  66.790  1.00  0.00    -0.334 A  
HETATM   20  C   UNL     1     -10.200  10.658  64.583  1.00  0.00    -0.404 A  
HETATM   21  C   UNL     1     -10.848  11.766  64.043  1.00  0.00    -0.446 A  
HETATM   22  C   UNL     1     -11.611  12.410  66.240  1.00  0.00    -0.449 A  
HETATM   23  C   UNL     1     -11.578  12.624  64.868  1.00  0.00    -0.376 A  
HETATM   24  C   UNL     1     -10.251  10.427  65.950  1.00  0.00    -0.302 A  
ENDBRANCH  18  19
ENDBRANCH   8  18
BRANCH  13  25
HETATM   25  N   UNL     1      -9.528   7.529  67.299  1.00  0.00    -0.144 N  
HETATM   26  O   UNL     1      -7.438   6.967  66.540  1.00  0.00    -0.078 OA 
HETATM   27  C   UNL     1      -8.645   6.770  66.540  1.00  0.00    -0.128 C  
HETATM   28  H   UNL     1     -10.454   7.616  66.880  1.00  0.00     0.000 HD 
BRANCH  27  29
HETATM   29  C   UNL     1      -9.367   5.677  65.626  1.00  0.00    -0.027 C  
HETATM   30  C   UNL     1      -8.458   4.779  64.737  1.00  0.00    -0.141 C  
HETATM   31  N   UNL     1      -8.924   3.380  64.526  1.00  0.00    -0.120 NA 
HETATM   32  C   UNL     1     -10.095   3.208  63.670  1.00  0.00    -0.174 C  
HETATM   33  C   UNL     1      -9.018   2.624  65.800  1.00  0.00    -0.133 C  
HETATM   34  C   UNL     1      -7.625   1.941  66.057  1.00  0.00    -0.063 C  
HETATM   35  C   UNL     1      -6.738   2.824  66.846  1.00  0.00    -0.040 A  
HETATM   36  C   UNL     1      -5.383   3.094  66.871  1.00  0.00    -0.012 A  
HETATM   37  N   UNL     1      -5.162   4.046  67.825  1.00  0.00    -0.011 NA 
HETATM   38  H   UNL     1      -4.263   4.491  68.008  1.00  0.00     0.000 HD 
HETATM   39  C   UNL     1      -6.328   4.320  68.504  1.00  0.00    -0.036 A  
HETATM   40  C   UNL     1      -6.632   5.142  69.585  1.00  0.00    -0.043 A  
HETATM   41  C   UNL     1      -7.981   5.169  69.985  1.00  0.00    -0.082 A  
HETATM   42  C   UNL     1      -8.990   4.544  69.238  1.00  0.00    -0.142 A  
HETATM   43  C   UNL     1      -8.671   3.847  68.074  1.00  0.00    -0.122 A  
HETATM   44  C   UNL     1      -7.314   3.639  67.826  1.00  0.00    -0.062 A  
HETATM   45  C   UNL     1      -9.658   3.472  66.991  1.00  0.00    -0.155 C  
HETATM   46  C   UNL     1     -10.329   4.769  66.439  1.00  0.00    -0.312 C  
ENDBRANCH  27  29
ENDBRANCH  13  25
TORSDOF 4
ENDMDL
MODEL       70
REMARK 921   NORMALIZED FREE ENERGY PREDICTED BY IDOCK:   -5.84 KCAL/MOL
REMARK 922        TOTAL FREE ENERGY PREDICTED BY IDOCK:   -8.44 KCAL/MOL
REMARK 923 INTER-LIGAND FREE ENERGY PREDICTED BY IDOCK:   -7.18 KCAL/MOL
REMARK 924 INTRA-LIGAND FREE ENERGY PREDICTED BY IDOCK:   -1.26 KCAL/MOL
REMARK 927      BINDING AFFINITY PREDICTED BY RF-SCORE:    0.00 PKD
ROOT
HETATM    1  C   UNL     1      -9.379  10.525  64.047  1.00  0.00    -0.267 C  
HETATM    2  C   UNL     1      -9.071   9.719  62.784  1.00  0.00    -0.286 C  
HETATM    3  C   UNL     1      -8.175   8.567  63.323  1.00  0.00    -0.141 C  
HETATM    4  C   UNL     1      -7.809   8.947  64.761  1.00  0.00    -0.121 C  
HETATM    5  N   UNL     1      -8.257  10.317  64.916  1.00  0.00    -0.156 N  
HETATM    6  C   UNL     1      -8.320  10.830  66.196  1.00  0.00    -0.166 C  
HETATM    7  O   UNL     1      -7.391  10.730  66.993  1.00  0.00    -0.099 OA 
HETATM    8  C   UNL     1      -9.607  11.668  66.500  1.00  0.00    -0.209 C  
HETATM    9  O   UNL     1     -10.195  13.277  64.442  1.00  0.00    -0.392 OA 
HETATM   10  N   UNL     1     -10.770  11.519  65.491  1.00  0.00    -0.278 N  
HETATM   11  C   UNL     1     -11.758  12.465  65.433  1.00  0.00    -0.402 C  
HETATM   12  H   UNL     1     -11.750  12.452  63.221  1.00  0.00     0.000 HD 
HETATM   13  C   UNL     1     -11.015  13.792  65.720  1.00  0.00    -0.280 C  
HETATM   14  O   UNL     1     -12.886  12.203  65.017  1.00  0.00    -0.456 OA 
HETATM   15  O   UNL     1     -11.208  11.677  63.124  1.00  0.00    -0.278 OA 
HETATM   16  C   UNL     1     -12.454  14.055  66.418  1.00  0.00    -0.395 C  
HETATM   17  C   UNL     1     -10.291  11.828  64.210  1.00  0.00    -0.314 C  
ENDROOT
BRANCH   8  18
HETATM   18  C   UNL     1     -10.064  11.526  67.960  1.00  0.00    -0.197 C  
BRANCH  18  19
HETATM   19  C   UNL     1     -10.129  10.068  68.299  1.00  0.00    -0.182 A  
HETATM   20  C   UNL     1      -9.135   8.255  69.544  1.00  0.00    -0.154 A  
HETATM   21  C   UNL     1      -9.589   7.356  68.582  1.00  0.00    -0.146 A  
HETATM   22  C   UNL     1     -10.648   9.157  67.375  1.00  0.00    -0.315 A  
HETATM   23  C   UNL     1     -10.370   7.804  67.515  1.00  0.00    -0.333 A  
HETATM   24  C   UNL     1      -9.431   9.604  69.422  1.00  0.00    -0.201 A  
ENDBRANCH  18  19
ENDBRANCH   8  18
BRANCH  13  25
HETATM   25  N   UNL     1     -10.458  15.105  66.097  1.00  0.00    -0.298 N  
HETATM   26  O   UNL     1      -8.205  15.113  65.670  1.00  0.00     1.447 OA 
HETATM   27  C   UNL     1      -9.246  15.734  65.834  1.00  0.00    -0.302 C  
HETATM   28  H   UNL     1     -11.091  15.666  66.667  1.00  0.00     0.000 HD 
BRANCH  27  29
HETATM   29  C   UNL     1      -9.340  17.328  65.840  1.00  0.00    -0.025 C  
HETATM   30  C   UNL     1     -10.566  17.968  66.553  1.00  0.00    -0.253 C  
HETATM   31  N   UNL     1     -10.323  19.270  67.234  1.00  0.00    -0.405 NA 
HETATM   32  C   UNL     1     -10.105  20.424  66.366  1.00  0.00    -0.253 C  
HETATM   33  C   UNL     1      -9.314  19.156  68.315  1.00  0.00    -0.344 C  
HETATM   34  C   UNL     1     -10.074  18.797  69.645  1.00  0.00     0.390 C  
HETATM   35  C   UNL     1     -10.175  17.331  69.819  1.00  0.00     0.194 A  
HETATM   36  C   UNL     1     -11.119  16.461  70.332  1.00  0.00    -0.233 A  
HETATM   37  N   UNL     1     -10.639  15.190  70.189  1.00  0.00    -0.459 NA 
HETATM   38  H   UNL     1     -11.160  14.341  70.412  1.00  0.00     0.000 HD 
HETATM   39  C   UNL     1      -9.352  15.218  69.701  1.00  0.00    -0.155 A  
HETATM   40  C   UNL     1      -8.409  14.228  69.441  1.00  0.00     0.329 A  
HETATM   41  C   UNL     1      -7.181  14.665  68.910  1.00  0.00    -0.124 A  
HETATM   42  C   UNL     1      -6.976  15.992  68.505  1.00  0.00    -0.131 A  
HETATM   43  C   UNL     1      -7.995  16.932  68.644  1.00  0.00    -0.256 A  
HETATM   44  C   UNL     1      -9.112  16.535  69.379  1.00  0.00     0.015 A  
HETATM   45  C   UNL     1      -8.058  18.256  67.915  1.00  0.00    -0.260 C  
HETATM   46  C   UNL     1      -8.043  17.993  66.376  1.00  0.00    -0.292 C  
ENDBRANCH  27  29
ENDBRANCH  13  25
TORSDOF 4
ENDMDL
MODEL       71
REMARK 921   NORMALIZED FREE ENERGY PREDICTED BY IDOCK:   -5.79 KCAL/MOL
REMARK 922        TOTAL FREE ENERGY PREDICTED BY IDOCK:   -8.38 KCAL/MOL
REMARK 923 INTER-LIGAND FREE ENERGY PREDICTED BY IDOCK:   -6.25 KCAL/MOL
REMARK 924 INTRA-LIGAND FREE ENERGY PREDICTED BY IDOCK:   -2.12 KCAL/MOL
REMARK 927      BINDING AFFINITY PREDICTED BY RF-SCORE:    0.00 PKD
ROOT
HETATM    1  C   UNL     1     -10.611  14.540  65.859  1.00  0.00    -0.309 C  
HETATM    2  C   UNL     1     -10.823  15.125  64.462  1.00  0.00    -0.145 C  
HETATM    3  C   UNL     1     -12.369  15.062  64.295  1.00  0.00    -0.247 C  
HETATM    4  C   UNL     1     -12.889  14.207  65.456  1.00  0.00    -0.376 C  
HETATM    5  N   UNL     1     -11.704  13.635  66.065  1.00  0.00    -0.342 N  
HETATM    6  C   UNL     1     -11.842  13.051  67.309  1.00  0.00    -0.363 C  
HETATM    7  O   UNL     1     -12.728  12.238  67.560  1.00  0.00     0.636 OA 
HETATM    8  C   UNL     1     -10.701  13.397  68.322  1.00  0.00    -0.258 C  
HETATM    9  O   UNL     1      -8.310  13.309  67.119  1.00  0.00    -0.180 OA 
HETATM   10  N   UNL     1      -9.794  14.592  67.942  1.00  0.00    -0.219 N  
HETATM   11  C   UNL     1      -8.564  14.737  68.527  1.00  0.00    -0.168 C  
HETATM   12  H   UNL     1      -7.621  15.269  66.598  1.00  0.00     0.000 HD 
HETATM   13  C   UNL     1      -8.065  13.282  68.704  1.00  0.00    -0.028 C  
HETATM   14  O   UNL     1      -8.016  15.833  68.624  1.00  0.00    -0.138 OA 
HETATM   15  O   UNL     1      -8.431  15.382  66.115  1.00  0.00    -0.152 OA 
HETATM   16  C   UNL     1      -7.450  14.010  70.015  1.00  0.00     0.670 C  
HETATM   17  C   UNL     1      -9.248  14.350  66.673  1.00  0.00    -0.261 C  
ENDROOT
BRANCH   8  18
HETATM   18  C   UNL     1     -11.210  13.474  69.769  1.00  0.00    -0.067 C  
BRANCH  18  19
HETATM   19  C   UNL     1     -11.712  12.120  70.171  1.00  0.00    -0.301 A  
HETATM   20  C   UNL     1     -13.075  10.868  71.719  1.00  0.00    -0.564 A  
HETATM   21  C   UNL     1     -12.253   9.759  71.534  1.00  0.00    -0.493 A  
HETATM   22  C   UNL     1     -10.934  10.985  69.929  1.00  0.00    -0.218 A  
HETATM   23  C   UNL     1     -11.202   9.809  70.617  1.00  0.00    -0.402 A  
HETATM   24  C   UNL     1     -12.826  12.037  71.016  1.00  0.00    -0.279 A  
ENDBRANCH  18  19
ENDBRANCH   8  18
BRANCH  13  25
HETATM   25  N   UNL     1      -7.524  11.952  69.041  1.00  0.00    -0.290 N  
HETATM   26  O   UNL     1      -5.276  11.922  68.589  1.00  0.00    -0.050 OA 
HETATM   27  C   UNL     1      -6.232  11.465  69.201  1.00  0.00    -0.064 C  
HETATM   28  H   UNL     1      -8.245  11.245  69.186  1.00  0.00     0.000 HD 
BRANCH  27  29
HETATM   29  C   UNL     1      -6.137  10.219  70.196  1.00  0.00    -0.088 C  
HETATM   30  C   UNL     1      -7.475   9.565  70.647  1.00  0.00    -0.118 C  
HETATM   31  N   UNL     1      -7.442   8.092  70.868  1.00  0.00    -0.067 NA 
HETATM   32  C   UNL     1      -6.708   7.629  72.043  1.00  0.00    -0.055 C  
HETATM   33  C   UNL     1      -7.092   7.349  69.633  1.00  0.00    -0.072 C  
HETATM   34  C   UNL     1      -8.429   7.032  68.867  1.00  0.00    -0.125 C  
HETATM   35  C   UNL     1      -8.765   8.114  67.916  1.00  0.00    -0.128 A  
HETATM   36  C   UNL     1      -9.929   8.709  67.469  1.00  0.00    -0.199 A  
HETATM   37  N   UNL     1      -9.586   9.696  66.588  1.00  0.00    -0.175 NA 
HETATM   38  H   UNL     1     -10.241  10.351  66.161  1.00  0.00     0.000 HD 
HETATM   39  C   UNL     1      -8.228   9.681  66.361  1.00  0.00    -0.119 A  
HETATM   40  C   UNL     1      -7.392  10.412  65.523  1.00  0.00    -0.139 A  
HETATM   41  C   UNL     1      -6.020  10.110  65.596  1.00  0.00    -0.092 A  
HETATM   42  C   UNL     1      -5.499   9.248  66.573  1.00  0.00    -0.045 A  
HETATM   43  C   UNL     1      -6.349   8.641  67.495  1.00  0.00    -0.057 A  
HETATM   44  C   UNL     1      -7.718   8.771  67.261  1.00  0.00    -0.096 A  
HETATM   45  C   UNL     1      -5.907   8.024  68.803  1.00  0.00    -0.035 C  
HETATM   46  C   UNL     1      -5.188   9.110  69.665  1.00  0.00    -0.034 C  
ENDBRANCH  27  29
ENDBRANCH  13  25
TORSDOF 4
ENDMDL
MODEL       72
REMARK 921   NORMALIZED FREE ENERGY PREDICTED BY IDOCK:   -5.77 KCAL/MOL
REMARK 922        TOTAL FREE ENERGY PREDICTED BY IDOCK:   -8.35 KCAL/MOL
REMARK 923 INTER-LIGAND FREE ENERGY PREDICTED BY IDOCK:   -6.95 KCAL/MOL
REMARK 924 INTRA-LIGAND FREE ENERGY PREDICTED BY IDOCK:   -1.40 KCAL/MOL
REMARK 927      BINDING AFFINITY PREDICTED BY RF-SCORE:    0.00 PKD
ROOT
HETATM    1  C   UNL     1     -10.646  11.638  64.667  1.00  0.00    -0.312 C  
HETATM    2  C   UNL     1     -11.257  11.936  63.297  1.00  0.00    -0.382 C  
HETATM    3  C   UNL     1     -12.361  12.979  63.633  1.00  0.00    -0.499 C  
HETATM    4  C   UNL     1     -12.489  12.988  65.160  1.00  0.00    -0.496 C  
HETATM    5  N   UNL     1     -11.702  11.858  65.612  1.00  0.00    -0.243 N  
HETATM    6  C   UNL     1     -11.398  11.786  66.958  1.00  0.00    -0.321 C  
HETATM    7  O   UNL     1     -12.248  11.926  67.834  1.00  0.00    -0.508 OA 
HETATM    8  C   UNL     1      -9.921  11.373  67.272  1.00  0.00    -0.194 C  
HETATM    9  O   UNL     1      -9.137   9.376  65.669  1.00  0.00    -0.177 OA 
HETATM   10  N   UNL     1      -8.927  11.451  66.088  1.00  0.00    -0.202 N  
HETATM   11  C   UNL     1      -7.743  10.764  66.136  1.00  0.00    -0.149 C  
HETATM   12  H   UNL     1      -7.953  10.100  64.037  1.00  0.00     0.000 HD 
HETATM   13  C   UNL     1      -8.102   9.462  66.892  1.00  0.00    -0.109 C  
HETATM   14  O   UNL     1      -6.759  11.120  65.491  1.00  0.00     0.117 OA 
HETATM   15  O   UNL     1      -8.677  10.674  63.818  1.00  0.00    -0.180 OA 
HETATM   16  C   UNL     1      -6.588   9.737  67.398  1.00  0.00    -0.070 C  
HETATM   17  C   UNL     1      -9.427  10.671  65.035  1.00  0.00    -0.243 C  
ENDROOT
BRANCH   8  18
HETATM   18  C   UNL     1      -9.385  12.048  68.544  1.00  0.00    -0.127 C  
BRANCH  18  19
HETATM   19  C   UNL     1      -9.094  13.485  68.235  1.00  0.00    -0.189 A  
HETATM   20  C   UNL     1      -9.953  15.554  67.337  1.00  0.00    -0.234 A  
HETATM   21  C   UNL     1      -8.663  15.917  66.960  1.00  0.00    -0.248 A  
HETATM   22  C   UNL     1      -7.792  13.884  67.924  1.00  0.00    -0.161 A  
HETATM   23  C   UNL     1      -7.580  15.097  67.281  1.00  0.00    -0.236 A  
HETATM   24  C   UNL     1     -10.167  14.356  68.002  1.00  0.00    -0.228 A  
ENDBRANCH  18  19
ENDBRANCH   8  18
BRANCH  13  25
HETATM   25  N   UNL     1      -8.278   8.241  67.700  1.00  0.00    -0.125 N  
HETATM   26  O   UNL     1      -9.703   6.816  66.604  1.00  0.00    -0.171 OA 
HETATM   27  C   UNL     1      -8.809   6.986  67.422  1.00  0.00    -0.119 C  
HETATM   28  H   UNL     1      -7.942   8.336  68.658  1.00  0.00     0.000 HD 
BRANCH  27  29
HETATM   29  C   UNL     1      -8.191   5.818  68.319  1.00  0.00    -0.108 C  
HETATM   30  C   UNL     1      -8.692   4.370  68.047  1.00  0.00    -0.105 C  
HETATM   31  N   UNL     1      -7.690   3.284  68.237  1.00  0.00    -0.059 NA 
HETATM   32  C   UNL     1      -7.302   2.993  69.614  1.00  0.00    -0.044 C  
HETATM   33  C   UNL     1      -6.530   3.427  67.323  1.00  0.00    -0.037 C  
HETATM   34  C   UNL     1      -6.865   2.653  65.996  1.00  0.00    -0.047 C  
HETATM   35  C   UNL     1      -7.528   3.541  65.016  1.00  0.00    -0.073 A  
HETATM   36  C   UNL     1      -8.517   3.395  64.062  1.00  0.00    -0.090 A  
HETATM   37  N   UNL     1      -8.720   4.613  63.477  1.00  0.00    -0.135 NA 
HETATM   38  H   UNL     1      -9.447   4.817  62.791  1.00  0.00     0.000 HD 
HETATM   39  C   UNL     1      -7.802   5.526  63.946  1.00  0.00    -0.100 A  
HETATM   40  C   UNL     1      -7.535   6.856  63.636  1.00  0.00    -0.091 A  
HETATM   41  C   UNL     1      -6.503   7.470  64.369  1.00  0.00    -0.048 A  
HETATM   42  C   UNL     1      -5.894   6.840  65.464  1.00  0.00    -0.034 A  
HETATM   43  C   UNL     1      -6.286   5.558  65.843  1.00  0.00    -0.035 A  
HETATM   44  C   UNL     1      -7.139   4.884  64.968  1.00  0.00    -0.062 A  
HETATM   45  C   UNL     1      -6.011   4.931  67.191  1.00  0.00    -0.027 C  
HETATM   46  C   UNL     1      -6.638   5.824  68.309  1.00  0.00    -0.052 C  
ENDBRANCH  27  29
ENDBRANCH  13  25
TORSDOF 4
ENDMDL
MODEL       73
REMARK 921   NORMALIZED FREE ENERGY PREDICTED BY IDOCK:   -5.61 KCAL/MOL
REMARK 922        TOTAL FREE ENERGY PREDICTED BY IDOCK:   -8.16 KCAL/MOL
REMARK 923 INTER-LIGAND FREE ENERGY PREDICTED BY IDOCK:   -7.47 KCAL/MOL
REMARK 924 INTRA-LIGAND FREE ENERGY PREDICTED BY IDOCK:   -0.69 KCAL/MOL
REMARK 927      BINDING AFFINITY PREDICTED BY RF-SCORE:    0.00 PKD
ROOT
HETATM    1  C   UNL     1      -9.914   7.629  71.445  1.00  0.00    -0.181 C  
HETATM    2  C   UNL     1     -10.312   7.485  72.915  1.00  0.00    -0.349 C  
HETATM    3  C   UNL     1     -10.947   6.065  72.961  1.00  0.00    -0.289 C  
HETATM    4  C   UNL     1     -11.122   5.628  71.503  1.00  0.00    -0.165 C  
HETATM    5  N   UNL     1     -10.843   6.813  70.716  1.00  0.00    -0.239 N  
HETATM    6  C   UNL     1     -10.643   6.650  69.360  1.00  0.00    -0.240 C  
HETATM    7  O   UNL     1     -11.409   5.998  68.654  1.00  0.00    -0.251 OA 
HETATM    8  C   UNL     1      -9.448   7.474  68.773  1.00  0.00    -0.148 C  
HETATM    9  O   UNL     1      -9.422   9.953  69.786  1.00  0.00    -0.210 OA 
HETATM   10  N   UNL     1      -8.454   8.059  69.804  1.00  0.00    -0.126 N  
HETATM   11  C   UNL     1      -7.624   9.090  69.454  1.00  0.00    -0.078 C  
HETATM   12  H   UNL     1      -7.989  10.139  71.367  1.00  0.00     0.000 HD 
HETATM   13  C   UNL     1      -8.482   9.941  68.486  1.00  0.00    -0.112 C  
HETATM   14  O   UNL     1      -6.554   9.287  70.027  1.00  0.00    -0.044 OA 
HETATM   15  O   UNL     1      -8.430   9.416  71.798  1.00  0.00    -0.190 OA 
HETATM   16  C   UNL     1      -6.998  10.113  67.859  1.00  0.00    -0.083 C  
HETATM   17  C   UNL     1      -9.172   8.844  70.719  1.00  0.00    -0.223 C  
ENDROOT
BRANCH   8  18
HETATM   18  C   UNL     1      -8.746   6.741  67.619  1.00  0.00    -0.119 C  
BRANCH  18  19
HETATM   19  C   UNL     1      -7.733   5.801  68.198  1.00  0.00    -0.096 A  
HETATM   20  C   UNL     1      -5.467   4.978  68.080  1.00  0.00    -0.012 A  
HETATM   21  C   UNL     1      -5.893   3.755  68.589  1.00  0.00    -0.023 A  
HETATM   22  C   UNL     1      -8.145   4.599  68.780  1.00  0.00    -0.082 A  
HETATM   23  C   UNL     1      -7.225   3.576  68.968  1.00  0.00    -0.049 A  
HETATM   24  C   UNL     1      -6.378   6.011  67.914  1.00  0.00    -0.037 A  
ENDBRANCH  18  19
ENDBRANCH   8  18
BRANCH  13  25
HETATM   25  N   UNL     1      -9.142  10.773  67.462  1.00  0.00    -0.139 N  
HETATM   26  O   UNL     1      -7.538  11.830  66.209  1.00  0.00     0.064 OA 
HETATM   27  C   UNL     1      -8.682  11.409  66.315  1.00  0.00    -0.173 C  
HETATM   28  H   UNL     1     -10.138  10.908  67.629  1.00  0.00     0.000 HD 
BRANCH  27  29
HETATM   29  C   UNL     1      -9.805  11.595  65.194  1.00  0.00    -0.281 C  
HETATM   30  C   UNL     1     -11.285  11.386  65.627  1.00  0.00    -0.076 C  
HETATM   31  N   UNL     1     -12.295  12.242  64.944  1.00  0.00    -0.477 NA 
HETATM   32  C   UNL     1     -12.562  11.937  63.541  1.00  0.00    -0.459 C  
HETATM   33  C   UNL     1     -12.062  13.686  65.192  1.00  0.00    -0.403 C  
HETATM   34  C   UNL     1     -12.854  14.084  66.492  1.00  0.00     0.200 C  
HETATM   35  C   UNL     1     -12.013  13.917  67.698  1.00  0.00    -0.403 A  
HETATM   36  C   UNL     1     -12.228  13.521  69.004  1.00  0.00    -0.186 A  
HETATM   37  N   UNL     1     -11.026  13.545  69.653  1.00  0.00    -0.458 NA 
HETATM   38  H   UNL     1     -10.874  13.226  70.610  1.00  0.00     0.000 HD 
HETATM   39  C   UNL     1     -10.050  14.060  68.831  1.00  0.00    -0.126 A  
HETATM   40  C   UNL     1      -8.703  14.355  69.017  1.00  0.00     0.014 A  
HETATM   41  C   UNL     1      -8.017  14.862  67.898  1.00  0.00    -0.145 A  
HETATM   42  C   UNL     1      -8.605  14.910  66.625  1.00  0.00    -0.207 A  
HETATM   43  C   UNL     1      -9.914  14.470  66.441  1.00  0.00    -0.304 A  
HETATM   44  C   UNL     1     -10.645  14.191  67.595  1.00  0.00    -0.253 A  
HETATM   45  C   UNL     1     -10.524  14.103  65.107  1.00  0.00    -0.422 C  
HETATM   46  C   UNL     1      -9.684  12.957  64.458  1.00  0.00     0.115 C  
ENDBRANCH  27  29
ENDBRANCH  13  25
TORSDOF 4
ENDMDL
MODEL       74
REMARK 921   NORMALIZED FREE ENERGY PREDICTED BY IDOCK:   -5.56 KCAL/MOL
REMARK 922        TOTAL FREE ENERGY PREDICTED BY IDOCK:   -8.10 KCAL/MOL
REMARK 923 INTER-LIGAND FREE ENERGY PREDICTED BY IDOCK:   -5.67 KCAL/MOL
REMARK 924 INTRA-LIGAND FREE ENERGY PREDICTED BY IDOCK:   -2.43 KCAL/MOL
REMARK 927      BINDING AFFINITY PREDICTED BY RF-SCORE:    0.00 PKD
ROOT
HETATM    1  C   UNL     1      -9.162   5.691  72.234  1.00  0.00    -0.145 C  
HETATM    2  C   UNL     1      -9.064   4.484  73.168  1.00  0.00    -0.126 C  
HETATM    3  C   UNL     1      -8.867   5.145  74.563  1.00  0.00    -0.110 C  
HETATM    4  C   UNL     1      -8.587   6.629  74.296  1.00  0.00    -0.146 C  
HETATM    5  N   UNL     1      -8.393   6.725  72.863  1.00  0.00    -0.116 N  
HETATM    6  C   UNL     1      -8.410   7.985  72.298  1.00  0.00    -0.144 C  
HETATM    7  O   UNL     1      -7.752   8.919  72.751  1.00  0.00    -0.366 OA 
HETATM    8  C   UNL     1      -9.215   8.090  70.960  1.00  0.00    -0.149 C  
HETATM    9  O   UNL     1      -8.710   5.982  69.386  1.00  0.00    -0.120 OA 
HETATM   10  N   UNL     1     -10.159   6.906  70.641  1.00  0.00    -0.194 N  
HETATM   11  C   UNL     1     -10.600   6.702  69.360  1.00  0.00    -0.240 C  
HETATM   12  H   UNL     1     -10.270   4.520  69.510  1.00  0.00     0.000 HD 
HETATM   13  C   UNL     1      -9.394   7.119  68.484  1.00  0.00    -0.136 C  
HETATM   14  O   UNL     1     -11.650   6.109  69.120  1.00  0.00    -0.287 OA 
HETATM   15  O   UNL     1     -10.125   4.502  70.449  1.00  0.00    -0.224 OA 
HETATM   16  C   UNL     1     -10.649   7.582  67.570  1.00  0.00    -0.331 C  
HETATM   17  C   UNL     1      -9.408   5.721  70.654  1.00  0.00    -0.159 C  
ENDROOT
BRANCH   8  18
HETATM   18  C   UNL     1      -9.898   9.456  70.796  1.00  0.00    -0.348 C  
BRANCH  18  19
HETATM   19  C   UNL     1      -9.135  10.251  69.780  1.00  0.00    -0.089 A  
HETATM   20  C   UNL     1      -9.184  11.292  67.603  1.00  0.00    -0.156 A  
HETATM   21  C   UNL     1      -7.810  11.105  67.491  1.00  0.00    -0.117 A  
HETATM   22  C   UNL     1      -7.745  10.133  69.698  1.00  0.00    -0.167 A  
HETATM   23  C   UNL     1      -7.086  10.553  68.551  1.00  0.00    -0.075 A  
HETATM   24  C   UNL     1      -9.843  10.896  68.758  1.00  0.00    -0.203 A  
ENDBRANCH  18  19
ENDBRANCH   8  18
BRANCH  13  25
HETATM   25  N   UNL     1      -8.371   7.596  67.533  1.00  0.00    -0.120 N  
HETATM   26  O   UNL     1      -6.517   6.256  67.693  1.00  0.00    -0.042 OA 
HETATM   27  C   UNL     1      -7.197   7.037  67.042  1.00  0.00    -0.081 C  
HETATM   28  H   UNL     1      -8.566   8.525  67.161  1.00  0.00     0.000 HD 
BRANCH  27  29
HETATM   29  C   UNL     1      -6.796   7.568  65.590  1.00  0.00    -0.056 C  
HETATM   30  C   UNL     1      -5.507   6.979  64.947  1.00  0.00    -0.032 C  
HETATM   31  N   UNL     1      -5.527   6.820  63.466  1.00  0.00    -0.027 NA 
HETATM   32  C   UNL     1      -5.472   8.050  62.681  1.00  0.00    -0.064 C  
HETATM   33  C   UNL     1      -6.593   5.890  63.018  1.00  0.00    -0.036 C  
HETATM   34  C   UNL     1      -5.987   4.439  62.995  1.00  0.00    -0.017 C  
HETATM   35  C   UNL     1      -6.181   3.762  64.296  1.00  0.00    -0.023 A  
HETATM   36  C   UNL     1      -5.452   2.876  65.066  1.00  0.00    -0.009 A  
HETATM   37  N   UNL     1      -6.161   2.629  66.208  1.00  0.00    -0.024 NA 
HETATM   38  H   UNL     1      -5.827   2.070  66.993  1.00  0.00     0.000 HD 
HETATM   39  C   UNL     1      -7.392   3.243  66.147  1.00  0.00    -0.072 A  
HETATM   40  C   UNL     1      -8.495   3.257  66.995  1.00  0.00    -0.104 A  
HETATM   41  C   UNL     1      -9.585   4.044  66.583  1.00  0.00    -0.228 A  
HETATM   42  C   UNL     1      -9.508   4.901  65.475  1.00  0.00    -0.155 A  
HETATM   43  C   UNL     1      -8.334   4.975  64.728  1.00  0.00    -0.140 A  
HETATM   44  C   UNL     1      -7.354   4.023  65.012  1.00  0.00    -0.072 A  
HETATM   45  C   UNL     1      -7.978   6.101  63.783  1.00  0.00    -0.101 C  
HETATM   46  C   UNL     1      -7.965   7.448  64.574  1.00  0.00    -0.122 C  
ENDBRANCH  27  29
ENDBRANCH  13  25
TORSDOF 4
ENDMDL
MODEL       75
REMARK 921   NORMALIZED FREE ENERGY PREDICTED BY IDOCK:   -5.53 KCAL/MOL
REMARK 922        TOTAL FREE ENERGY PREDICTED BY IDOCK:   -8.06 KCAL/MOL
REMARK 923 INTER-LIGAND FREE ENERGY PREDICTED BY IDOCK:   -6.81 KCAL/MOL
REMARK 924 INTRA-LIGAND FREE ENERGY PREDICTED BY IDOCK:   -1.25 KCAL/MOL
REMARK 927      BINDING AFFINITY PREDICTED BY RF-SCORE:    0.00 PKD
ROOT
HETATM    1  C   UNL     1      -9.055   5.670  72.078  1.00  0.00    -0.137 C  
HETATM    2  C   UNL     1      -9.098   4.500  73.062  1.00  0.00    -0.129 C  
HETATM    3  C   UNL     1      -8.788   5.186  74.424  1.00  0.00    -0.111 C  
HETATM    4  C   UNL     1      -8.321   6.607  74.090  1.00  0.00    -0.132 C  
HETATM    5  N   UNL     1      -8.144   6.619  72.651  1.00  0.00    -0.102 N  
HETATM    6  C   UNL     1      -8.007   7.846  72.033  1.00  0.00    -0.113 C  
HETATM    7  O   UNL     1      -7.224   8.703  72.436  1.00  0.00    -0.243 OA 
HETATM    8  C   UNL     1      -8.818   8.001  70.703  1.00  0.00    -0.143 C  
HETATM    9  O   UNL     1      -8.626   5.783  69.214  1.00  0.00    -0.110 OA 
HETATM   10  N   UNL     1      -9.916   6.940  70.449  1.00  0.00    -0.179 N  
HETATM   11  C   UNL     1     -10.404   6.743  69.184  1.00  0.00    -0.194 C  
HETATM   12  H   UNL     1     -10.361   4.545  69.424  1.00  0.00     0.000 HD 
HETATM   13  C   UNL     1      -9.171   6.962  68.274  1.00  0.00    -0.123 C  
HETATM   14  O   UNL     1     -11.527   6.285  68.986  1.00  0.00    -0.363 OA 
HETATM   15  O   UNL     1     -10.201   4.546  70.360  1.00  0.00    -0.210 OA 
HETATM   16  C   UNL     1     -10.373   7.549  67.359  1.00  0.00    -0.346 C  
HETATM   17  C   UNL     1      -9.327   5.668  70.503  1.00  0.00    -0.161 C  
ENDROOT
BRANCH   8  18
HETATM   18  C   UNL     1      -9.318   9.437  70.490  1.00  0.00    -0.319 C  
BRANCH  18  19
HETATM   19  C   UNL     1     -10.692   9.556  71.078  1.00  0.00    -0.411 A  
HETATM   20  C   UNL     1     -12.325   8.582  72.564  1.00  0.00    -0.372 A  
HETATM   21  C   UNL     1     -13.344   9.136  71.795  1.00  0.00    -0.469 A  
HETATM   22  C   UNL     1     -11.713  10.174  70.351  1.00  0.00    -0.390 A  
HETATM   23  C   UNL     1     -13.038   9.956  70.708  1.00  0.00    -0.256 A  
HETATM   24  C   UNL     1     -11.000   8.816  72.227  1.00  0.00    -0.336 A  
ENDBRANCH  18  19
ENDBRANCH   8  18
BRANCH  13  25
HETATM   25  N   UNL     1      -8.114   7.260  67.289  1.00  0.00    -0.111 N  
HETATM   26  O   UNL     1      -6.416   5.738  67.529  1.00  0.00    -0.044 OA 
HETATM   27  C   UNL     1      -7.014   6.545  66.831  1.00  0.00    -0.067 C  
HETATM   28  H   UNL     1      -8.211   8.179  66.857  1.00  0.00     0.000 HD 
BRANCH  27  29
HETATM   29  C   UNL     1      -6.575   6.932  65.345  1.00  0.00    -0.051 C  
HETATM   30  C   UNL     1      -5.381   6.148  64.728  1.00  0.00    -0.017 C  
HETATM   31  N   UNL     1      -5.446   5.903  63.260  1.00  0.00    -0.017 NA 
HETATM   32  C   UNL     1      -5.251   7.067  62.399  1.00  0.00    -0.033 C  
HETATM   33  C   UNL     1      -6.628   5.090  62.881  1.00  0.00    -0.026 C  
HETATM   34  C   UNL     1      -6.209   3.575  62.942  1.00  0.00    -0.014 C  
HETATM   35  C   UNL     1      -6.464   3.008  64.284  1.00  0.00    -0.031 A  
HETATM   36  C   UNL     1      -5.839   2.085  65.101  1.00  0.00    -0.017 A  
HETATM   37  N   UNL     1      -6.554   1.999  66.262  1.00  0.00    -0.030 NA 
HETATM   38  H   UNL     1      -6.279   1.451  67.077  1.00  0.00     0.000 HD 
HETATM   39  C   UNL     1      -7.698   2.759  66.175  1.00  0.00    -0.077 A  
HETATM   40  C   UNL     1      -8.776   2.963  67.030  1.00  0.00    -0.137 A  
HETATM   41  C   UNL     1      -9.766   3.855  66.581  1.00  0.00    -0.189 A  
HETATM   42  C   UNL     1      -9.601   4.627  65.421  1.00  0.00    -0.177 A  
HETATM   43  C   UNL     1      -8.440   4.507  64.660  1.00  0.00    -0.130 A  
HETATM   44  C   UNL     1      -7.583   3.458  64.993  1.00  0.00    -0.077 A  
HETATM   45  C   UNL     1      -7.962   5.520  63.644  1.00  0.00    -0.108 C  
HETATM   46  C   UNL     1      -7.767   6.899  64.349  1.00  0.00    -0.113 C  
ENDBRANCH  27  29
ENDBRANCH  13  25
TORSDOF 4
ENDMDL
MODEL       76
REMARK 921   NORMALIZED FREE ENERGY PREDICTED BY IDOCK:   -5.52 KCAL/MOL
REMARK 922        TOTAL FREE ENERGY PREDICTED BY IDOCK:   -8.05 KCAL/MOL
REMARK 923 INTER-LIGAND FREE ENERGY PREDICTED BY IDOCK:   -6.87 KCAL/MOL
REMARK 924 INTRA-LIGAND FREE ENERGY PREDICTED BY IDOCK:   -1.18 KCAL/MOL
REMARK 927      BINDING AFFINITY PREDICTED BY RF-SCORE:    0.00 PKD
ROOT
HETATM    1  C   UNL     1      -9.380  16.367  67.369  1.00  0.00    -0.221 C  
HETATM    2  C   UNL     1      -9.292  17.719  66.659  1.00  0.00    -0.296 C  
HETATM    3  C   UNL     1     -10.756  18.240  66.732  1.00  0.00    -0.247 C  
HETATM    4  C   UNL     1     -11.607  17.058  67.208  1.00  0.00     0.905 C  
HETATM    5  N   UNL     1     -10.723  15.910  67.156  1.00  0.00    -0.316 N  
HETATM    6  C   UNL     1     -11.130  14.759  67.801  1.00  0.00    -0.299 C  
HETATM    7  O   UNL     1     -12.250  14.278  67.647  1.00  0.00    -0.337 OA 
HETATM    8  C   UNL     1     -10.009  14.042  68.625  1.00  0.00    -0.203 C  
HETATM    9  O   UNL     1      -7.708  14.003  67.255  1.00  0.00    -0.175 OA 
HETATM   10  N   UNL     1      -8.734  14.872  68.904  1.00  0.00    -0.180 N  
HETATM   11  C   UNL     1      -7.567  14.247  69.257  1.00  0.00     0.012 C  
HETATM   12  H   UNL     1      -6.375  15.542  67.919  1.00  0.00     0.000 HD 
HETATM   13  C   UNL     1      -7.593  12.931  68.443  1.00  0.00    -0.133 C  
HETATM   14  O   UNL     1      -6.694  14.819  69.907  1.00  0.00    -0.164 OA 
HETATM   15  O   UNL     1      -7.067  16.167  67.735  1.00  0.00    -0.121 OA 
HETATM   16  C   UNL     1      -6.861  12.465  69.811  1.00  0.00     0.233 C  
HETATM   17  C   UNL     1      -8.215  15.317  67.679  1.00  0.00    -0.161 C  
ENDROOT
BRANCH   8  18
HETATM   18  C   UNL     1     -10.560  13.356  69.884  1.00  0.00     0.815 C  
BRANCH  18  19
HETATM   19  C   UNL     1     -11.558  14.270  70.527  1.00  0.00    -0.239 A  
HETATM   20  C   UNL     1     -11.890  16.182  71.962  1.00  0.00    -0.615 A  
HETATM   21  C   UNL     1     -13.127  15.671  72.344  1.00  0.00    -0.544 A  
HETATM   22  C   UNL     1     -12.832  13.797  70.853  1.00  0.00    -0.341 A  
HETATM   23  C   UNL     1     -13.611  14.495  71.767  1.00  0.00    -0.474 A  
HETATM   24  C   UNL     1     -11.119  15.501  71.031  1.00  0.00    -0.387 A  
ENDBRANCH  18  19
ENDBRANCH   8  18
BRANCH  13  25
HETATM   25  N   UNL     1      -7.547  11.593  67.822  1.00  0.00    -0.113 N  
HETATM   26  O   UNL     1      -6.167  11.665  65.992  1.00  0.00     0.024 OA 
HETATM   27  C   UNL     1      -6.711  11.015  66.874  1.00  0.00    -0.120 C  
HETATM   28  H   UNL     1      -8.278  10.966  68.156  1.00  0.00     0.000 HD 
BRANCH  27  29
HETATM   29  C   UNL     1      -6.594   9.428  67.010  1.00  0.00    -0.068 C  
HETATM   30  C   UNL     1      -7.369   8.754  68.180  1.00  0.00    -0.087 C  
HETATM   31  N   UNL     1      -7.913   7.394  67.908  1.00  0.00    -0.117 NA 
HETATM   32  C   UNL     1      -6.935   6.313  67.805  1.00  0.00    -0.075 C  
HETATM   33  C   UNL     1      -8.896   7.397  66.797  1.00  0.00    -0.137 C  
HETATM   34  C   UNL     1     -10.319   7.655  67.416  1.00  0.00    -0.347 C  
HETATM   35  C   UNL     1     -10.623   9.103  67.461  1.00  0.00    -0.317 A  
HETATM   36  C   UNL     1     -11.295   9.944  68.327  1.00  0.00     0.024 A  
HETATM   37  N   UNL     1     -11.211  11.214  67.829  1.00  0.00    -0.279 NA 
HETATM   38  H   UNL     1     -11.553  12.050  68.303  1.00  0.00     0.000 HD 
HETATM   39  C   UNL     1     -10.600  11.203  66.595  1.00  0.00    -0.264 A  
HETATM   40  C   UNL     1     -10.331  12.192  65.654  1.00  0.00    -0.289 A  
HETATM   41  C   UNL     1      -9.649  11.779  64.495  1.00  0.00    -0.093 A  
HETATM   42  C   UNL     1      -9.118  10.487  64.367  1.00  0.00    -0.254 A  
HETATM   43  C   UNL     1      -9.277   9.558  65.393  1.00  0.00    -0.306 A  
HETATM   44  C   UNL     1     -10.148   9.913  66.423  1.00  0.00    -0.308 A  
HETATM   45  C   UNL     1      -8.451   8.303  65.561  1.00  0.00    -0.177 C  
HETATM   46  C   UNL     1      -6.945   8.694  65.686  1.00  0.00    -0.075 C  
ENDBRANCH  27  29
ENDBRANCH  13  25
TORSDOF 4
ENDMDL
MODEL       77
REMARK 921   NORMALIZED FREE ENERGY PREDICTED BY IDOCK:   -5.52 KCAL/MOL
REMARK 922        TOTAL FREE ENERGY PREDICTED BY IDOCK:   -8.04 KCAL/MOL
REMARK 923 INTER-LIGAND FREE ENERGY PREDICTED BY IDOCK:   -6.58 KCAL/MOL
REMARK 924 INTRA-LIGAND FREE ENERGY PREDICTED BY IDOCK:   -1.46 KCAL/MOL
REMARK 927      BINDING AFFINITY PREDICTED BY RF-SCORE:    0.00 PKD
ROOT
HETATM    1  C   UNL     1      -7.248   8.927  65.008  1.00  0.00    -0.091 C  
HETATM    2  C   UNL     1      -7.332   8.169  63.682  1.00  0.00    -0.105 C  
HETATM    3  C   UNL     1      -5.918   8.390  63.071  1.00  0.00    -0.078 C  
HETATM    4  C   UNL     1      -5.244   9.464  63.931  1.00  0.00    -0.060 C  
HETATM    5  N   UNL     1      -6.294   9.976  64.789  1.00  0.00    -0.119 N  
HETATM    6  C   UNL     1      -5.919  10.752  65.868  1.00  0.00    -0.135 C  
HETATM    7  O   UNL     1      -5.136  11.693  65.762  1.00  0.00    -0.290 OA 
HETATM    8  C   UNL     1      -6.675  10.428  67.199  1.00  0.00    -0.078 C  
HETATM    9  O   UNL     1      -9.286  10.050  66.735  1.00  0.00    -0.144 OA 
HETATM   10  N   UNL     1      -7.453   9.090  67.231  1.00  0.00    -0.084 N  
HETATM   11  C   UNL     1      -8.441   8.889  68.158  1.00  0.00    -0.129 C  
HETATM   12  H   UNL     1      -9.774   7.966  66.654  1.00  0.00     0.000 HD 
HETATM   13  C   UNL     1      -9.094  10.284  68.310  1.00  0.00    -0.139 C  
HETATM   14  O   UNL     1      -8.764   7.763  68.529  1.00  0.00    -0.128 OA 
HETATM   15  O   UNL     1      -9.118   7.879  65.973  1.00  0.00    -0.174 OA 
HETATM   16  C   UNL     1      -9.211   9.693  69.814  1.00  0.00    -0.237 C  
HETATM   17  C   UNL     1      -8.352   9.072  66.154  1.00  0.00    -0.121 C  
ENDROOT
BRANCH   8  18
HETATM   18  C   UNL     1      -5.789  10.629  68.437  1.00  0.00    -0.043 C  
BRANCH  18  19
HETATM   19  C   UNL     1      -6.091  11.974  69.026  1.00  0.00    -0.073 A  
HETATM   20  C   UNL     1      -6.218  14.351  68.629  1.00  0.00    -0.087 A  
HETATM   21  C   UNL     1      -5.928  14.583  69.971  1.00  0.00    -0.141 A  
HETATM   22  C   UNL     1      -5.876  12.207  70.387  1.00  0.00    -0.154 A  
HETATM   23  C   UNL     1      -5.788  13.511  70.855  1.00  0.00    -0.150 A  
HETATM   24  C   UNL     1      -6.331  13.050  68.162  1.00  0.00    -0.101 A  
ENDBRANCH  18  19
ENDBRANCH   8  18
BRANCH  13  25
HETATM   25  N   UNL     1      -9.725  11.576  68.640  1.00  0.00    -0.279 N  
HETATM   26  O   UNL     1     -11.899  11.555  67.910  1.00  0.00    -0.565 OA 
HETATM   27  C   UNL     1     -11.046  12.010  68.659  1.00  0.00    -0.250 C  
HETATM   28  H   UNL     1      -9.057  12.297  68.909  1.00  0.00     0.000 HD 
BRANCH  27  29
HETATM   29  C   UNL     1     -11.313  13.197  69.693  1.00  0.00    -0.182 C  
HETATM   30  C   UNL     1     -10.183  14.252  69.875  1.00  0.00     0.526 C  
HETATM   31  N   UNL     1     -10.626  15.648  70.148  1.00  0.00    -0.326 NA 
HETATM   32  C   UNL     1     -11.203  15.898  71.467  1.00  0.00    -0.180 C  
HETATM   33  C   UNL     1     -11.443  16.202  69.041  1.00  0.00    -0.323 C  
HETATM   34  C   UNL     1     -10.465  16.894  68.022  1.00  0.00    -0.347 C  
HETATM   35  C   UNL     1     -10.016  15.939  66.985  1.00  0.00    -0.248 A  
HETATM   36  C   UNL     1      -8.846  15.722  66.282  1.00  0.00    -0.343 A  
HETATM   37  N   UNL     1      -9.041  14.648  65.461  1.00  0.00    -0.140 NA 
HETATM   38  H   UNL     1      -8.320  14.217  64.883  1.00  0.00     0.000 HD 
HETATM   39  C   UNL     1     -10.352  14.231  65.526  1.00  0.00    -0.355 A  
HETATM   40  C   UNL     1     -11.074  13.247  64.858  1.00  0.00    -0.345 A  
HETATM   41  C   UNL     1     -12.424  13.108  65.228  1.00  0.00    -0.550 A  
HETATM   42  C   UNL     1     -12.970  13.797  66.321  1.00  0.00     0.172 A  
HETATM   43  C   UNL     1     -12.178  14.670  67.065  1.00  0.00    -0.104 A  
HETATM   44  C   UNL     1     -10.919  14.966  66.543  1.00  0.00    -0.327 A  
HETATM   45  C   UNL     1     -12.505  15.163  68.457  1.00  0.00     0.337 C  
HETATM   46  C   UNL     1     -12.650  13.936  69.413  1.00  0.00     0.112 C  
ENDBRANCH  27  29
ENDBRANCH  13  25
TORSDOF 4
ENDMDL
MODEL       78
REMARK 921   NORMALIZED FREE ENERGY PREDICTED BY IDOCK:   -5.51 KCAL/MOL
REMARK 922        TOTAL FREE ENERGY PREDICTED BY IDOCK:   -8.04 KCAL/MOL
REMARK 923 INTER-LIGAND FREE ENERGY PREDICTED BY IDOCK:   -5.48 KCAL/MOL
REMARK 924 INTRA-LIGAND FREE ENERGY PREDICTED BY IDOCK:   -2.56 KCAL/MOL
REMARK 927      BINDING AFFINITY PREDICTED BY RF-SCORE:    0.00 PKD
ROOT
HETATM    1  C   UNL     1      -7.374   5.279  64.863  1.00  0.00    -0.067 C  
HETATM    2  C   UNL     1      -6.676   4.518  63.735  1.00  0.00    -0.043 C  
HETATM    3  C   UNL     1      -7.864   4.089  62.826  1.00  0.00    -0.066 C  
HETATM    4  C   UNL     1      -9.140   4.379  63.625  1.00  0.00    -0.136 C  
HETATM    5  N   UNL     1      -8.683   4.702  64.962  1.00  0.00    -0.137 N  
HETATM    6  C   UNL     1      -9.590   5.286  65.825  1.00  0.00    -0.089 C  
HETATM    7  O   UNL     1     -10.720   4.835  65.997  1.00  0.00    -0.319 OA 
HETATM    8  C   UNL     1      -9.017   6.474  66.666  1.00  0.00    -0.138 C  
HETATM    9  O   UNL     1      -6.567   5.893  67.578  1.00  0.00    -0.052 OA 
HETATM   10  N   UNL     1      -7.669   7.062  66.184  1.00  0.00    -0.092 N  
HETATM   11  C   UNL     1      -6.900   7.811  67.034  1.00  0.00    -0.069 C  
HETATM   12  H   UNL     1      -5.046   6.802  66.374  1.00  0.00     0.000 HD 
HETATM   13  C   UNL     1      -7.119   7.146  68.414  1.00  0.00    -0.085 C  
HETATM   14  O   UNL     1      -6.100   8.648  66.620  1.00  0.00    -0.055 OA 
HETATM   15  O   UNL     1      -5.430   6.359  65.625  1.00  0.00    -0.016 OA 
HETATM   16  C   UNL     1      -6.967   8.708  68.815  1.00  0.00    -0.063 C  
HETATM   17  C   UNL     1      -6.728   6.024  66.122  1.00  0.00    -0.060 C  
ENDROOT
BRANCH   8  18
HETATM   18  C   UNL     1     -10.073   7.556  66.941  1.00  0.00    -0.336 C  
BRANCH  18  19
HETATM   19  C   UNL     1     -10.419   7.525  68.399  1.00  0.00    -0.212 A  
HETATM   20  C   UNL     1     -11.616   6.373  70.149  1.00  0.00    -0.449 A  
HETATM   21  C   UNL     1     -11.750   7.575  70.838  1.00  0.00    -0.307 A  
HETATM   22  C   UNL     1     -10.488   8.716  69.127  1.00  0.00    -0.223 A  
HETATM   23  C   UNL     1     -11.161   8.739  70.342  1.00  0.00    -0.261 A  
HETATM   24  C   UNL     1     -10.924   6.339  68.947  1.00  0.00    -0.435 A  
ENDBRANCH  18  19
ENDBRANCH   8  18
BRANCH  13  25
HETATM   25  N   UNL     1      -7.333   6.687  69.800  1.00  0.00    -0.084 N  
HETATM   26  O   UNL     1      -5.352   6.823  70.947  1.00  0.00    -0.022 OA 
HETATM   27  C   UNL     1      -6.574   6.786  70.961  1.00  0.00    -0.053 C  
HETATM   28  H   UNL     1      -8.217   6.196  69.933  1.00  0.00     0.000 HD 
BRANCH  27  29
HETATM   29  C   UNL     1      -7.449   6.776  72.297  1.00  0.00    -0.092 C  
HETATM   30  C   UNL     1      -8.967   6.466  72.153  1.00  0.00    -0.136 C  
HETATM   31  N   UNL     1      -9.593   5.716  73.277  1.00  0.00    -0.146 NA 
HETATM   32  C   UNL     1      -9.763   6.447  74.530  1.00  0.00    -0.310 C  
HETATM   33  C   UNL     1      -8.982   4.377  73.464  1.00  0.00    -0.100 C  
HETATM   34  C   UNL     1      -9.776   3.357  72.567  1.00  0.00    -0.207 C  
HETATM   35  C   UNL     1      -9.174   3.254  71.220  1.00  0.00    -0.192 A  
HETATM   36  C   UNL     1      -9.653   3.080  69.935  1.00  0.00    -0.054 A  
HETATM   37  N   UNL     1      -8.585   3.094  69.083  1.00  0.00    -0.067 NA 
HETATM   38  H   UNL     1      -8.650   3.063  68.065  1.00  0.00     0.000 HD 
HETATM   39  C   UNL     1      -7.408   3.156  69.795  1.00  0.00    -0.044 A  
HETATM   40  C   UNL     1      -6.067   3.131  69.425  1.00  0.00    -0.024 A  
HETATM   41  C   UNL     1      -5.132   3.244  70.470  1.00  0.00    -0.004 A  
HETATM   42  C   UNL     1      -5.520   3.537  71.786  1.00  0.00    -0.008 A  
HETATM   43  C   UNL     1      -6.868   3.701  72.099  1.00  0.00    -0.023 A  
HETATM   44  C   UNL     1      -7.784   3.359  71.104  1.00  0.00    -0.051 A  
HETATM   45  C   UNL     1      -7.391   4.385  73.342  1.00  0.00    -0.077 C  
HETATM   46  C   UNL     1      -6.848   5.849  73.388  1.00  0.00    -0.080 C  
ENDBRANCH  27  29
ENDBRANCH  13  25
TORSDOF 4
ENDMDL
MODEL       79
REMARK 921   NORMALIZED FREE ENERGY PREDICTED BY IDOCK:   -5.43 KCAL/MOL
REMARK 922        TOTAL FREE ENERGY PREDICTED BY IDOCK:   -7.93 KCAL/MOL
REMARK 923 INTER-LIGAND FREE ENERGY PREDICTED BY IDOCK:   -5.70 KCAL/MOL
REMARK 924 INTRA-LIGAND FREE ENERGY PREDICTED BY IDOCK:   -2.23 KCAL/MOL
REMARK 927      BINDING AFFINITY PREDICTED BY RF-SCORE:    0.00 PKD
ROOT
HETATM    1  C   UNL     1      -9.060  12.609  67.558  1.00  0.00    -0.192 C  
HETATM    2  C   UNL     1      -9.696  13.983  67.345  1.00  0.00    -0.233 C  
HETATM    3  C   UNL     1      -8.460  14.925  67.264  1.00  0.00    -0.229 C  
HETATM    4  C   UNL     1      -7.256  14.088  67.710  1.00  0.00    -0.165 C  
HETATM    5  N   UNL     1      -7.822  12.862  68.237  1.00  0.00    -0.136 N  
HETATM    6  C   UNL     1      -6.965  11.800  68.448  1.00  0.00    -0.080 C  
HETATM    7  O   UNL     1      -5.902  11.920  69.052  1.00  0.00    -0.054 OA 
HETATM    8  C   UNL     1      -7.520  10.412  67.984  1.00  0.00    -0.090 C  
HETATM    9  O   UNL     1     -10.093  10.143  68.676  1.00  0.00    -0.160 OA 
HETATM   10  N   UNL     1      -8.755  10.450  67.051  1.00  0.00    -0.130 N  
HETATM   11  C   UNL     1      -9.543   9.340  66.905  1.00  0.00    -0.174 C  
HETATM   12  H   UNL     1     -11.395  10.542  67.023  1.00  0.00     0.000 HD 
HETATM   13  C   UNL     1      -9.527   8.688  68.309  1.00  0.00    -0.141 C  
HETATM   14  O   UNL     1     -10.220   9.153  65.896  1.00  0.00    -0.209 OA 
HETATM   15  O   UNL     1     -10.974  11.390  66.946  1.00  0.00    -0.275 OA 
HETATM   16  C   UNL     1      -9.587   7.392  67.338  1.00  0.00    -0.184 C  
HETATM   17  C   UNL     1      -9.769  11.182  67.686  1.00  0.00    -0.170 C  
ENDROOT
BRANCH   8  18
HETATM   18  C   UNL     1      -6.411   9.485  67.464  1.00  0.00    -0.061 C  
BRANCH  18  19
HETATM   19  C   UNL     1      -6.277   9.684  65.985  1.00  0.00    -0.065 A  
HETATM   20  C   UNL     1      -6.148   8.618  63.824  1.00  0.00    -0.072 A  
HETATM   21  C   UNL     1      -5.389   9.685  63.351  1.00  0.00    -0.076 A  
HETATM   22  C   UNL     1      -5.581  10.789  65.488  1.00  0.00    -0.126 A  
HETATM   23  C   UNL     1      -5.133  10.784  64.174  1.00  0.00    -0.129 A  
HETATM   24  C   UNL     1      -6.619   8.630  65.128  1.00  0.00    -0.064 A  
ENDBRANCH  18  19
ENDBRANCH   8  18
BRANCH  13  25
HETATM   25  N   UNL     1      -9.501   7.902  69.556  1.00  0.00    -0.160 N  
HETATM   26  O   UNL     1      -8.523   9.153  71.210  1.00  0.00    -0.286 OA 
HETATM   27  C   UNL     1      -9.263   8.235  70.885  1.00  0.00    -0.155 C  
HETATM   28  H   UNL     1      -9.698   6.911  69.416  1.00  0.00     0.000 HD 
BRANCH  27  29
HETATM   29  C   UNL     1      -9.989   7.266  71.926  1.00  0.00    -0.184 C  
HETATM   30  C   UNL     1     -10.690   6.000  71.353  1.00  0.00    -0.259 C  
HETATM   31  N   UNL     1     -10.664   4.788  72.219  1.00  0.00    -0.161 NA 
HETATM   32  C   UNL     1     -11.502   4.828  73.415  1.00  0.00    -0.244 C  
HETATM   33  C   UNL     1      -9.281   4.326  72.492  1.00  0.00    -0.115 C  
HETATM   34  C   UNL     1      -8.880   3.314  71.356  1.00  0.00    -0.136 C  
HETATM   35  C   UNL     1      -8.238   4.015  70.223  1.00  0.00    -0.073 A  
HETATM   36  C   UNL     1      -8.231   3.870  68.849  1.00  0.00    -0.073 A  
HETATM   37  N   UNL     1      -7.452   4.864  68.325  1.00  0.00    -0.073 NA 
HETATM   38  H   UNL     1      -7.330   5.046  67.329  1.00  0.00     0.000 HD 
HETATM   39  C   UNL     1      -6.855   5.584  69.336  1.00  0.00    -0.061 A  
HETATM   40  C   UNL     1      -5.940   6.632  69.348  1.00  0.00    -0.022 A  
HETATM   41  C   UNL     1      -5.580   7.127  70.615  1.00  0.00    -0.024 A  
HETATM   42  C   UNL     1      -6.228   6.711  71.788  1.00  0.00    -0.042 A  
HETATM   43  C   UNL     1      -7.246   5.761  71.726  1.00  0.00    -0.091 A  
HETATM   44  C   UNL     1      -7.426   5.120  70.500  1.00  0.00    -0.070 A  
HETATM   45  C   UNL     1      -8.268   5.516  72.813  1.00  0.00    -0.109 C  
HETATM   46  C   UNL     1      -9.051   6.839  73.088  1.00  0.00    -0.145 C  
ENDBRANCH  27  29
ENDBRANCH  13  25
TORSDOF 4
ENDMDL
MODEL       80
REMARK 921   NORMALIZED FREE ENERGY PREDICTED BY IDOCK:   -5.41 KCAL/MOL
REMARK 922        TOTAL FREE ENERGY PREDICTED BY IDOCK:   -7.92 KCAL/MOL
REMARK 923 INTER-LIGAND FREE ENERGY PREDICTED BY IDOCK:   -5.85 KCAL/MOL
REMARK 924 INTRA-LIGAND FREE ENERGY PREDICTED BY IDOCK:   -2.07 KCAL/MOL
REMARK 927      BINDING AFFINITY PREDICTED BY RF-SCORE:    0.00 PKD
ROOT
HETATM    1  C   UNL     1      -9.405  11.065  68.418  1.00  0.00    -0.179 C  
HETATM    2  C   UNL     1      -9.910  12.503  68.302  1.00  0.00    -0.227 C  
HETATM    3  C   UNL     1      -8.592  13.319  68.165  1.00  0.00    -0.177 C  
HETATM    4  C   UNL     1      -7.452  12.348  68.493  1.00  0.00    -0.112 C  
HETATM    5  N   UNL     1      -8.104  11.163  69.015  1.00  0.00    -0.116 N  
HETATM    6  C   UNL     1      -7.348  10.013  69.125  1.00  0.00    -0.087 C  
HETATM    7  O   UNL     1      -6.240  10.000  69.655  1.00  0.00    -0.043 OA 
HETATM    8  C   UNL     1      -8.073   8.708  68.653  1.00  0.00    -0.117 C  
HETATM    9  O   UNL     1     -10.607   8.669  69.520  1.00  0.00    -0.223 OA 
HETATM   10  N   UNL     1      -9.358   8.910  67.814  1.00  0.00    -0.140 N  
HETATM   11  C   UNL     1     -10.264   7.891  67.686  1.00  0.00    -0.226 C  
HETATM   12  H   UNL     1     -11.971   9.266  67.980  1.00  0.00     0.000 HD 
HETATM   13  C   UNL     1     -10.220   7.182  69.061  1.00  0.00    -0.190 C  
HETATM   14  O   UNL     1     -11.025   7.816  66.723  1.00  0.00    -0.145 OA 
HETATM   15  O   UNL     1     -11.471  10.070  67.903  1.00  0.00    -0.210 OA 
HETATM   16  C   UNL     1     -10.479   5.941  68.051  1.00  0.00    -0.294 C  
HETATM   17  C   UNL     1     -10.247   9.712  68.547  1.00  0.00    -0.193 C  
ENDROOT
BRANCH   8  18
HETATM   18  C   UNL     1      -7.104   7.698  68.022  1.00  0.00    -0.085 C  
BRANCH  18  19
HETATM   19  C   UNL     1      -7.003   7.987  66.554  1.00  0.00    -0.071 A  
HETATM   20  C   UNL     1      -6.967   7.057  64.328  1.00  0.00    -0.055 A  
HETATM   21  C   UNL     1      -6.186   8.128  63.902  1.00  0.00    -0.067 A  
HETATM   22  C   UNL     1      -6.284   9.099  66.108  1.00  0.00    -0.064 A  
HETATM   23  C   UNL     1      -5.871   9.163  64.784  1.00  0.00    -0.064 A  
HETATM   24  C   UNL     1      -7.402   7.001  65.644  1.00  0.00    -0.079 A  
ENDBRANCH  18  19
ENDBRANCH   8  18
BRANCH  13  25
HETATM   25  N   UNL     1     -10.190   6.344  70.274  1.00  0.00    -0.190 N  
HETATM   26  O   UNL     1     -11.441   7.351  71.911  1.00  0.00    -0.252 OA 
HETATM   27  C   UNL     1     -10.943   6.336  71.442  1.00  0.00    -0.275 C  
HETATM   28  H   UNL     1      -9.469   5.623  70.251  1.00  0.00     0.000 HD 
BRANCH  27  29
HETATM   29  C   UNL     1     -11.031   4.900  72.136  1.00  0.00    -0.068 C  
HETATM   30  C   UNL     1     -10.050   3.803  71.631  1.00  0.00    -0.079 C  
HETATM   31  N   UNL     1      -9.565   2.835  72.654  1.00  0.00    -0.104 NA 
HETATM   32  C   UNL     1     -10.543   1.869  73.147  1.00  0.00    -0.134 C  
HETATM   33  C   UNL     1      -8.808   3.503  73.741  1.00  0.00    -0.088 C  
HETATM   34  C   UNL     1      -7.294   3.548  73.314  1.00  0.00    -0.056 C  
HETATM   35  C   UNL     1      -6.989   4.791  72.572  1.00  0.00    -0.074 A  
HETATM   36  C   UNL     1      -6.167   5.133  71.514  1.00  0.00    -0.030 A  
HETATM   37  N   UNL     1      -6.344   6.463  71.257  1.00  0.00    -0.047 NA 
HETATM   38  H   UNL     1      -5.921   6.968  70.479  1.00  0.00     0.000 HD 
HETATM   39  C   UNL     1      -7.177   7.024  72.199  1.00  0.00    -0.077 A  
HETATM   40  C   UNL     1      -7.619   8.323  72.430  1.00  0.00    -0.160 A  
HETATM   41  C   UNL     1      -8.506   8.495  73.508  1.00  0.00    -0.045 A  
HETATM   42  C   UNL     1      -9.051   7.406  74.204  1.00  0.00    -0.267 A  
HETATM   43  C   UNL     1      -8.700   6.104  73.853  1.00  0.00    -0.124 A  
HETATM   44  C   UNL     1      -7.651   5.966  72.943  1.00  0.00    -0.099 A  
HETATM   45  C   UNL     1      -9.478   4.865  74.234  1.00  0.00    -0.134 C  
HETATM   46  C   UNL     1     -10.935   4.986  73.684  1.00  0.00    -0.379 C  
ENDBRANCH  27  29
ENDBRANCH  13  25
TORSDOF 4
ENDMDL
MODEL       81
REMARK 921   NORMALIZED FREE ENERGY PREDICTED BY IDOCK:   -5.28 KCAL/MOL
REMARK 922        TOTAL FREE ENERGY PREDICTED BY IDOCK:   -7.75 KCAL/MOL
REMARK 923 INTER-LIGAND FREE ENERGY PREDICTED BY IDOCK:   -5.96 KCAL/MOL
REMARK 924 INTRA-LIGAND FREE ENERGY PREDICTED BY IDOCK:   -1.79 KCAL/MOL
REMARK 927      BINDING AFFINITY PREDICTED BY RF-SCORE:    0.00 PKD
ROOT
HETATM    1  C   UNL     1     -10.529   5.859  72.085  1.00  0.00    -0.207 C  
HETATM    2  C   UNL     1     -11.495   5.381  73.170  1.00  0.00    -0.273 C  
HETATM    3  C   UNL     1     -10.992   3.939  73.466  1.00  0.00    -0.343 C  
HETATM    4  C   UNL     1      -9.986   3.602  72.360  1.00  0.00    -0.166 C  
HETATM    5  N   UNL     1     -10.116   4.673  71.392  1.00  0.00    -0.193 N  
HETATM    6  C   UNL     1      -9.132   4.790  70.430  1.00  0.00    -0.119 C  
HETATM    7  O   UNL     1      -8.744   3.833  69.764  1.00  0.00    -0.069 OA 
HETATM    8  C   UNL     1      -8.655   6.256  70.158  1.00  0.00    -0.134 C  
HETATM    9  O   UNL     1     -10.746   7.927  70.067  1.00  0.00    -0.240 OA 
HETATM   10  N   UNL     1      -9.064   7.310  71.215  1.00  0.00    -0.146 N  
HETATM   11  C   UNL     1      -9.048   8.643  70.900  1.00  0.00    -0.187 C  
HETATM   12  H   UNL     1     -10.984   8.986  71.914  1.00  0.00     0.000 HD 
HETATM   13  C   UNL     1      -9.486   8.677  69.416  1.00  0.00    -0.161 C  
HETATM   14  O   UNL     1      -8.916   9.512  71.760  1.00  0.00    -0.068 OA 
HETATM   15  O   UNL     1     -11.025   8.141  72.347  1.00  0.00    -0.294 OA 
HETATM   16  C   UNL     1      -8.428   9.902  69.482  1.00  0.00    -0.184 C  
HETATM   17  C   UNL     1     -10.459   7.280  71.357  1.00  0.00    -0.203 C  
ENDROOT
BRANCH   8  18
HETATM   18  C   UNL     1      -7.165   6.326  69.794  1.00  0.00    -0.074 C  
BRANCH  18  19
HETATM   19  C   UNL     1      -7.044   6.502  68.310  1.00  0.00    -0.083 A  
HETATM   20  C   UNL     1      -6.402   7.980  66.515  1.00  0.00    -0.050 A  
HETATM   21  C   UNL     1      -7.330   7.361  65.683  1.00  0.00    -0.074 A  
HETATM   22  C   UNL     1      -7.921   5.832  67.453  1.00  0.00    -0.102 A  
HETATM   23  C   UNL     1      -8.067   6.267  66.143  1.00  0.00    -0.116 A  
HETATM   24  C   UNL     1      -6.235   7.533  67.817  1.00  0.00    -0.048 A  
ENDBRANCH  18  19
ENDBRANCH   8  18
BRANCH  13  25
HETATM   25  N   UNL     1      -9.772   8.844  67.978  1.00  0.00    -0.152 N  
HETATM   26  O   UNL     1     -11.380  10.458  67.717  1.00  0.00    -0.353 OA 
HETATM   27  C   UNL     1     -10.448   9.817  67.251  1.00  0.00    -0.261 C  
HETATM   28  H   UNL     1      -9.397   8.092  67.400  1.00  0.00     0.000 HD 
BRANCH  27  29
HETATM   29  C   UNL     1      -9.937   9.958  65.744  1.00  0.00    -0.347 C  
HETATM   30  C   UNL     1     -10.951  10.500  64.696  1.00  0.00     0.655 C  
HETATM   31  N   UNL     1     -10.380  11.334  63.602  1.00  0.00    -0.374 NA 
HETATM   32  C   UNL     1      -9.577  10.633  62.604  1.00  0.00    -0.257 C  
HETATM   33  C   UNL     1      -9.726  12.561  64.118  1.00  0.00     0.046 C  
HETATM   34  C   UNL     1     -10.814  13.695  64.182  1.00  0.00    -0.178 C  
HETATM   35  C   UNL     1     -11.489  13.708  65.499  1.00  0.00    -0.317 A  
HETATM   36  C   UNL     1     -12.772  13.960  65.948  1.00  0.00    -0.421 A  
HETATM   37  N   UNL     1     -12.785  13.784  67.303  1.00  0.00    -0.148 NA 
HETATM   38  H   UNL     1     -13.619  13.829  67.889  1.00  0.00     0.000 HD 
HETATM   39  C   UNL     1     -11.511  13.537  67.763  1.00  0.00    -0.315 A  
HETATM   40  C   UNL     1     -10.975  13.355  69.034  1.00  0.00    -0.265 A  
HETATM   41  C   UNL     1      -9.594  13.094  69.095  1.00  0.00     0.525 A  
HETATM   42  C   UNL     1      -8.831  12.860  67.941  1.00  0.00    -0.190 A  
HETATM   43  C   UNL     1      -9.430  12.905  66.684  1.00  0.00    -0.255 A  
HETATM   44  C   UNL     1     -10.737  13.390  66.634  1.00  0.00    -0.282 A  
HETATM   45  C   UNL     1      -8.845  12.306  65.424  1.00  0.00     0.644 C  
HETATM   46  C   UNL     1      -8.621  10.776  65.641  1.00  0.00    -0.185 C  
ENDBRANCH  27  29
ENDBRANCH  13  25
TORSDOF 4
ENDMDL
MODEL       82
REMARK 921   NORMALIZED FREE ENERGY PREDICTED BY IDOCK:   -5.24 KCAL/MOL
REMARK 922        TOTAL FREE ENERGY PREDICTED BY IDOCK:   -7.70 KCAL/MOL
REMARK 923 INTER-LIGAND FREE ENERGY PREDICTED BY IDOCK:   -5.84 KCAL/MOL
REMARK 924 INTRA-LIGAND FREE ENERGY PREDICTED BY IDOCK:   -1.86 KCAL/MOL
REMARK 927      BINDING AFFINITY PREDICTED BY RF-SCORE:    0.00 PKD
ROOT
HETATM    1  C   UNL     1      -8.651   3.808  65.519  1.00  0.00    -0.111 C  
HETATM    2  C   UNL     1      -8.844   2.548  64.673  1.00  0.00    -0.113 C  
HETATM    3  C   UNL     1     -10.098   2.897  63.820  1.00  0.00    -0.169 C  
HETATM    4  C   UNL     1     -10.684   4.177  64.425  1.00  0.00    -0.126 C  
HETATM    5  N   UNL     1      -9.961   4.373  65.666  1.00  0.00    -0.219 N  
HETATM    6  C   UNL     1     -10.074   5.603  66.285  1.00  0.00    -0.114 C  
HETATM    7  O   UNL     1     -11.160   6.143  66.485  1.00  0.00    -0.209 OA 
HETATM    8  C   UNL     1      -8.729   6.181  66.837  1.00  0.00    -0.109 C  
HETATM    9  O   UNL     1      -7.297   4.264  68.040  1.00  0.00    -0.063 OA 
HETATM   10  N   UNL     1      -7.435   5.508  66.319  1.00  0.00    -0.085 N  
HETATM   11  C   UNL     1      -6.259   5.656  67.005  1.00  0.00    -0.034 C  
HETATM   12  H   UNL     1      -5.753   3.517  66.757  1.00  0.00     0.000 HD 
HETATM   13  C   UNL     1      -6.697   5.682  68.489  1.00  0.00    -0.057 C  
HETATM   14  O   UNL     1      -5.166   5.552  66.450  1.00  0.00    -0.005 OA 
HETATM   15  O   UNL     1      -6.431   3.323  66.119  1.00  0.00    -0.034 OA 
HETATM   16  C   UNL     1      -5.443   6.708  68.491  1.00  0.00    -0.016 C  
HETATM   17  C   UNL     1      -7.510   4.133  66.590  1.00  0.00    -0.080 C  
ENDROOT
BRANCH   8  18
HETATM   18  C   UNL     1      -8.675   7.714  66.752  1.00  0.00    -0.139 C  
BRANCH  18  19
HETATM   19  C   UNL     1      -8.683   8.112  65.307  1.00  0.00    -0.093 A  
HETATM   20  C   UNL     1      -7.465   8.114  63.224  1.00  0.00    -0.120 A  
HETATM   21  C   UNL     1      -8.127   9.279  62.847  1.00  0.00    -0.154 A  
HETATM   22  C   UNL     1      -9.401   9.238  64.895  1.00  0.00    -0.142 A  
HETATM   23  C   UNL     1      -9.116   9.823  63.669  1.00  0.00    -0.269 A  
HETATM   24  C   UNL     1      -7.763   7.512  64.438  1.00  0.00    -0.124 A  
ENDBRANCH  18  19
ENDBRANCH   8  18
BRANCH  13  25
HETATM   25  N   UNL     1      -6.985   5.843  69.927  1.00  0.00    -0.064 N  
HETATM   26  O   UNL     1      -5.808   4.269  71.107  1.00  0.00    -0.012 OA 
HETATM   27  C   UNL     1      -6.383   5.348  71.077  1.00  0.00    -0.034 C  
HETATM   28  H   UNL     1      -7.791   6.439  70.114  1.00  0.00     0.000 HD 
BRANCH  27  29
HETATM   29  C   UNL     1      -6.577   6.288  72.354  1.00  0.00    -0.067 C  
HETATM   30  C   UNL     1      -7.463   7.555  72.178  1.00  0.00    -0.077 C  
HETATM   31  N   UNL     1      -8.263   7.966  73.366  1.00  0.00    -0.173 NA 
HETATM   32  C   UNL     1      -7.516   8.527  74.488  1.00  0.00    -0.179 C  
HETATM   33  C   UNL     1      -9.231   6.920  73.776  1.00  0.00    -0.180 C  
HETATM   34  C   UNL     1     -10.574   7.176  72.997  1.00  0.00    -0.346 C  
HETATM   35  C   UNL     1     -10.589   6.443  71.712  1.00  0.00    -0.256 A  
HETATM   36  C   UNL     1     -11.081   6.686  70.444  1.00  0.00    -0.322 A  
HETATM   37  N   UNL     1     -10.753   5.619  69.655  1.00  0.00    -0.335 NA 
HETATM   38  H   UNL     1     -10.923   5.562  68.651  1.00  0.00     0.000 HD 
HETATM   39  C   UNL     1     -10.160   4.632  70.410  1.00  0.00    -0.205 A  
HETATM   40  C   UNL     1      -9.708   3.350  70.117  1.00  0.00    -0.125 A  
HETATM   41  C   UNL     1      -9.124   2.639  71.182  1.00  0.00    -0.181 A  
HETATM   42  C   UNL     1      -8.856   3.242  72.420  1.00  0.00    -0.109 A  
HETATM   43  C   UNL     1      -9.189   4.578  72.635  1.00  0.00    -0.145 A  
HETATM   44  C   UNL     1      -9.970   5.190  71.655  1.00  0.00    -0.243 A  
HETATM   45  C   UNL     1      -8.623   5.444  73.737  1.00  0.00    -0.113 C  
HETATM   46  C   UNL     1      -7.069   5.499  73.598  1.00  0.00    -0.086 C  
ENDBRANCH  27  29
ENDBRANCH  13  25
TORSDOF 4
ENDMDL
MODEL       83
REMARK 921   NORMALIZED FREE ENERGY PREDICTED BY IDOCK:   -5.15 KCAL/MOL
REMARK 922        TOTAL FREE ENERGY PREDICTED BY IDOCK:   -7.59 KCAL/MOL
REMARK 923 INTER-LIGAND FREE ENERGY PREDICTED BY IDOCK:   -5.86 KCAL/MOL
REMARK 924 INTRA-LIGAND FREE ENERGY PREDICTED BY IDOCK:   -1.73 KCAL/MOL
REMARK 927      BINDING AFFINITY PREDICTED BY RF-SCORE:    0.00 PKD
ROOT
HETATM    1  C   UNL     1      -9.586   6.801  70.878  1.00  0.00    -0.168 C  
HETATM    2  C   UNL     1      -9.913   5.833  72.017  1.00  0.00    -0.208 C  
HETATM    3  C   UNL     1     -10.185   4.499  71.265  1.00  0.00    -0.167 C  
HETATM    4  C   UNL     1     -10.274   4.857  69.777  1.00  0.00    -0.214 C  
HETATM    5  N   UNL     1     -10.303   6.306  69.739  1.00  0.00    -0.192 N  
HETATM    6  C   UNL     1     -10.091   6.918  68.519  1.00  0.00    -0.161 C  
HETATM    7  O   UNL     1     -10.689   6.581  67.500  1.00  0.00    -0.238 OA 
HETATM    8  C   UNL     1      -9.140   8.161  68.569  1.00  0.00    -0.136 C  
HETATM    9  O   UNL     1      -9.697   9.691  70.696  1.00  0.00    -0.257 OA 
HETATM   10  N   UNL     1      -8.300   8.322  69.859  1.00  0.00    -0.123 N  
HETATM   11  C   UNL     1      -7.750   9.536  70.175  1.00  0.00    -0.154 C  
HETATM   12  H   UNL     1      -8.325   9.331  72.301  1.00  0.00     0.000 HD 
HETATM   13  C   UNL     1      -8.803  10.558  69.684  1.00  0.00     0.067 C  
HETATM   14  O   UNL     1      -6.750   9.631  70.884  1.00  0.00    -0.164 OA 
HETATM   15  O   UNL     1      -8.572   8.415  72.254  1.00  0.00    -0.180 OA 
HETATM   16  C   UNL     1      -7.415  11.344  69.402  1.00  0.00     0.060 C  
HETATM   17  C   UNL     1      -9.171   8.342  70.958  1.00  0.00    -0.168 C  
ENDROOT
BRANCH   8  18
HETATM   18  C   UNL     1      -8.301   8.305  67.291  1.00  0.00    -0.124 C  
BRANCH  18  19
HETATM   19  C   UNL     1      -7.492   7.057  67.108  1.00  0.00    -0.095 A  
HETATM   20  C   UNL     1      -5.402   5.940  67.565  1.00  0.00    -0.005 A  
HETATM   21  C   UNL     1      -5.546   5.207  66.391  1.00  0.00    -0.017 A  
HETATM   22  C   UNL     1      -7.672   6.266  65.970  1.00  0.00    -0.092 A  
HETATM   23  C   UNL     1      -6.695   5.347  65.610  1.00  0.00    -0.052 A  
HETATM   24  C   UNL     1      -6.387   6.841  67.941  1.00  0.00    -0.048 A  
ENDBRANCH  18  19
ENDBRANCH   8  18
BRANCH  13  25
HETATM   25  N   UNL     1      -9.661  11.636  69.158  1.00  0.00    -0.399 N  
HETATM   26  O   UNL     1     -11.555  10.712  68.254  1.00  0.00    -0.393 OA 
HETATM   27  C   UNL     1     -10.988  11.679  68.745  1.00  0.00    -0.226 C  
HETATM   28  H   UNL     1      -9.183  12.534  69.081  1.00  0.00     0.000 HD 
BRANCH  27  29
HETATM   29  C   UNL     1     -11.662  13.117  68.909  1.00  0.00    -0.368 C  
HETATM   30  C   UNL     1     -10.758  14.273  69.428  1.00  0.00    -0.128 C  
HETATM   31  N   UNL     1     -11.051  15.628  68.884  1.00  0.00    -0.270 NA 
HETATM   32  C   UNL     1     -12.285  16.259  69.344  1.00  0.00     0.398 C  
HETATM   33  C   UNL     1     -10.880  15.689  67.412  1.00  0.00    -0.315 C  
HETATM   34  C   UNL     1      -9.385  16.080  67.117  1.00  0.00    -0.222 C  
HETATM   35  C   UNL     1      -8.535  14.875  66.994  1.00  0.00    -0.260 A  
HETATM   36  C   UNL     1      -7.237  14.544  67.334  1.00  0.00    -0.137 A  
HETATM   37  N   UNL     1      -7.031  13.240  66.982  1.00  0.00    -0.401 NA 
HETATM   38  H   UNL     1      -6.185  12.708  67.186  1.00  0.00     0.000 HD 
HETATM   39  C   UNL     1      -8.128  12.747  66.313  1.00  0.00     0.836 A  
HETATM   40  C   UNL     1      -8.404  11.530  65.699  1.00  0.00     0.265 A  
HETATM   41  C   UNL     1      -9.683  11.397  65.127  1.00  0.00    -0.280 A  
HETATM   42  C   UNL     1     -10.682  12.364  65.311  1.00  0.00    -0.322 A  
HETATM   43  C   UNL     1     -10.420  13.510  66.058  1.00  0.00    -0.299 A  
HETATM   44  C   UNL     1      -9.089  13.729  66.416  1.00  0.00    -0.083 A  
HETATM   45  C   UNL     1     -11.474  14.416  66.653  1.00  0.00    -0.372 C  
HETATM   46  C   UNL     1     -12.381  13.583  67.614  1.00  0.00    -0.044 C  
ENDBRANCH  27  29
ENDBRANCH  13  25
TORSDOF 4
ENDMDL
MODEL       84
REMARK 921   NORMALIZED FREE ENERGY PREDICTED BY IDOCK:   -5.11 KCAL/MOL
REMARK 922        TOTAL FREE ENERGY PREDICTED BY IDOCK:   -7.54 KCAL/MOL
REMARK 923 INTER-LIGAND FREE ENERGY PREDICTED BY IDOCK:   -6.79 KCAL/MOL
REMARK 924 INTRA-LIGAND FREE ENERGY PREDICTED BY IDOCK:   -0.74 KCAL/MOL
REMARK 927      BINDING AFFINITY PREDICTED BY RF-SCORE:    0.00 PKD
ROOT
HETATM    1  C   UNL     1     -12.218  12.938  70.602  1.00  0.00    -0.302 C  
HETATM    2  C   UNL     1     -12.745  14.214  71.261  1.00  0.00    -0.434 C  
HETATM    3  C   UNL     1     -12.340  15.318  70.242  1.00  0.00    -0.407 C  
HETATM    4  C   UNL     1     -11.388  14.650  69.244  1.00  0.00    -0.286 C  
HETATM    5  N   UNL     1     -11.092  13.351  69.815  1.00  0.00     0.028 N  
HETATM    6  C   UNL     1     -10.489  12.415  68.999  1.00  0.00     0.001 C  
HETATM    7  O   UNL     1      -9.499  12.673  68.319  1.00  0.00    -0.213 OA 
HETATM    8  C   UNL     1     -11.078  10.969  69.118  1.00  0.00    -0.243 C  
HETATM    9  O   UNL     1     -11.526  10.340  71.683  1.00  0.00    -0.108 OA 
HETATM   10  N   UNL     1     -12.446  10.849  69.833  1.00  0.00    -0.288 N  
HETATM   11  C   UNL     1     -12.859   9.642  70.332  1.00  0.00     0.245 C  
HETATM   12  H   UNL     1     -13.592  10.576  72.198  1.00  0.00     0.000 HD 
HETATM   13  C   UNL     1     -11.551   8.981  70.830  1.00  0.00    -0.265 C  
HETATM   14  O   UNL     1     -14.049   9.376  70.486  1.00  0.00     0.228 OA 
HETATM   15  O   UNL     1     -13.523  11.475  71.898  1.00  0.00    -0.362 OA 
HETATM   16  C   UNL     1     -12.394   7.702  70.302  1.00  0.00     0.441 C  
HETATM   17  C   UNL     1     -12.334  11.426  71.107  1.00  0.00    -0.299 C  
ENDROOT
BRANCH   8  18
HETATM   18  C   UNL     1     -11.036  10.211  67.783  1.00  0.00    -0.293 C  
BRANCH  18  19
HETATM   19  C   UNL     1     -10.964  11.211  66.669  1.00  0.00    -0.289 A  
HETATM   20  C   UNL     1     -12.193  12.762  65.288  1.00  0.00    -0.535 A  
HETATM   21  C   UNL     1     -11.271  12.567  64.262  1.00  0.00    -0.407 A  
HETATM   22  C   UNL     1      -9.999  11.074  65.667  1.00  0.00    -0.299 A  
HETATM   23  C   UNL     1     -10.159  11.747  64.463  1.00  0.00    -0.312 A  
HETATM   24  C   UNL     1     -12.024  12.111  66.500  1.00  0.00    -0.198 A  
ENDBRANCH  18  19
ENDBRANCH   8  18
BRANCH  13  25
HETATM   25  N   UNL     1     -10.373   8.190  71.234  1.00  0.00    -0.195 N  
HETATM   26  O   UNL     1      -8.558   9.581  71.401  1.00  0.00    -0.215 OA 
HETATM   27  C   UNL     1      -9.114   8.537  71.711  1.00  0.00    -0.235 C  
HETATM   28  H   UNL     1     -10.511   7.184  71.146  1.00  0.00     0.000 HD 
BRANCH  27  29
HETATM   29  C   UNL     1      -8.450   7.415  72.633  1.00  0.00    -0.138 C  
HETATM   30  C   UNL     1      -9.198   6.056  72.753  1.00  0.00    -0.142 C  
HETATM   31  N   UNL     1      -8.340   4.846  72.895  1.00  0.00    -0.104 NA 
HETATM   32  C   UNL     1      -7.649   4.687  74.172  1.00  0.00    -0.085 C  
HETATM   33  C   UNL     1      -7.452   4.650  71.723  1.00  0.00    -0.075 C  
HETATM   34  C   UNL     1      -8.226   3.769  70.675  1.00  0.00    -0.072 C  
HETATM   35  C   UNL     1      -8.993   4.615  69.735  1.00  0.00    -0.140 A  
HETATM   36  C   UNL     1     -10.209   4.516  69.084  1.00  0.00     0.119 A  
HETATM   37  N   UNL     1     -10.388   5.656  68.352  1.00  0.00    -0.193 NA 
HETATM   38  H   UNL     1     -11.234   5.888  67.832  1.00  0.00     0.000 HD 
HETATM   39  C   UNL     1      -9.263   6.446  68.418  1.00  0.00    -0.120 A  
HETATM   40  C   UNL     1      -8.906   7.650  67.819  1.00  0.00    -0.125 A  
HETATM   41  C   UNL     1      -7.644   8.167  68.165  1.00  0.00    -0.105 A  
HETATM   42  C   UNL     1      -6.862   7.599  69.181  1.00  0.00    -0.053 A  
HETATM   43  C   UNL     1      -7.314   6.474  69.867  1.00  0.00    -0.086 A  
HETATM   44  C   UNL     1      -8.450   5.847  69.355  1.00  0.00    -0.113 A  
HETATM   45  C   UNL     1      -6.784   6.003  71.203  1.00  0.00    -0.058 C  
HETATM   46  C   UNL     1      -6.968   7.142  72.256  1.00  0.00    -0.064 C  
ENDBRANCH  27  29
ENDBRANCH  13  25
TORSDOF 4
ENDMDL
MODEL       85
REMARK 921   NORMALIZED FREE ENERGY PREDICTED BY IDOCK:   -5.10 KCAL/MOL
REMARK 922        TOTAL FREE ENERGY PREDICTED BY IDOCK:   -7.53 KCAL/MOL
REMARK 923 INTER-LIGAND FREE ENERGY PREDICTED BY IDOCK:   -6.76 KCAL/MOL
REMARK 924 INTRA-LIGAND FREE ENERGY PREDICTED BY IDOCK:   -0.77 KCAL/MOL
REMARK 927      BINDING AFFINITY PREDICTED BY RF-SCORE:    0.00 PKD
ROOT
HETATM    1  C   UNL     1      -9.453  12.193  66.874  1.00  0.00    -0.210 C  
HETATM    2  C   UNL     1      -9.392  13.194  65.720  1.00  0.00     0.143 C  
HETATM    3  C   UNL     1     -10.867  13.676  65.606  1.00  0.00    -0.280 C  
HETATM    4  C   UNL     1     -11.694  12.732  66.486  1.00  0.00    -0.400 C  
HETATM    5  N   UNL     1     -10.786  11.663  66.851  1.00  0.00    -0.263 N  
HETATM    6  C   UNL     1     -11.170  10.818  67.874  1.00  0.00    -0.318 C  
HETATM    7  O   UNL     1     -12.279  10.292  67.913  1.00  0.00     0.689 OA 
HETATM    8  C   UNL     1     -10.036  10.474  68.896  1.00  0.00    -0.204 C  
HETATM    9  O   UNL     1      -7.731   9.985  67.621  1.00  0.00    -0.091 OA 
HETATM   10  N   UNL     1      -8.778  11.375  68.845  1.00  0.00    -0.069 N  
HETATM   11  C   UNL     1      -7.600  10.945  69.396  1.00  0.00    -0.094 C  
HETATM   12  H   UNL     1      -6.432  11.687  67.670  1.00  0.00     0.000 HD 
HETATM   13  C   UNL     1      -7.596   9.422  69.118  1.00  0.00    -0.074 C  
HETATM   14  O   UNL     1      -6.741  11.732  69.787  1.00  0.00    -0.093 OA 
HETATM   15  O   UNL     1      -7.137  12.187  67.275  1.00  0.00    -0.134 OA 
HETATM   16  C   UNL     1      -6.857   9.503  70.557  1.00  0.00    -0.112 C  
HETATM   17  C   UNL     1      -8.267  11.353  67.539  1.00  0.00    -0.130 C  
ENDROOT
BRANCH   8  18
HETATM   18  C   UNL     1     -10.574  10.284  70.322  1.00  0.00    -0.264 C  
BRANCH  18  19
HETATM   19  C   UNL     1     -11.676  11.274  70.551  1.00  0.00    -0.345 A  
HETATM   20  C   UNL     1     -12.283  13.607  70.645  1.00  0.00    -0.434 A  
HETATM   21  C   UNL     1     -13.289  13.301  71.558  1.00  0.00    -0.330 A  
HETATM   22  C   UNL     1     -12.733  10.958  71.408  1.00  0.00    -0.539 A  
HETATM   23  C   UNL     1     -13.533  11.973  71.915  1.00  0.00    -0.305 A  
HETATM   24  C   UNL     1     -11.497  12.593  70.117  1.00  0.00    -0.003 A  
ENDBRANCH  18  19
ENDBRANCH   8  18
BRANCH  13  25
HETATM   25  N   UNL     1      -7.521   7.952  69.027  1.00  0.00    -0.095 N  
HETATM   26  O   UNL     1      -6.958   7.362  66.883  1.00  0.00    -0.076 OA 
HETATM   27  C   UNL     1      -6.999   7.085  68.074  1.00  0.00    -0.083 C  
HETATM   28  H   UNL     1      -7.937   7.474  69.826  1.00  0.00     0.000 HD 
BRANCH  27  29
HETATM   29  C   UNL     1      -6.530   5.682  68.677  1.00  0.00    -0.043 C  
HETATM   30  C   UNL     1      -6.919   5.374  70.152  1.00  0.00    -0.057 C  
HETATM   31  N   UNL     1      -7.207   3.947  70.469  1.00  0.00    -0.040 NA 
HETATM   32  C   UNL     1      -6.061   3.042  70.482  1.00  0.00    -0.019 C  
HETATM   33  C   UNL     1      -8.355   3.422  69.690  1.00  0.00    -0.052 C  
HETATM   34  C   UNL     1      -9.663   3.693  70.521  1.00  0.00    -0.210 C  
HETATM   35  C   UNL     1     -10.250   5.006  70.173  1.00  0.00    -0.329 A  
HETATM   36  C   UNL     1     -10.913   6.004  70.862  1.00  0.00    -0.289 A  
HETATM   37  N   UNL     1     -11.189   7.010  69.980  1.00  0.00    -0.361 NA 
HETATM   38  H   UNL     1     -11.606   7.907  70.230  1.00  0.00     0.000 HD 
HETATM   39  C   UNL     1     -10.824   6.641  68.705  1.00  0.00    -0.267 A  
HETATM   40  C   UNL     1     -10.945   7.255  67.462  1.00  0.00    -0.221 A  
HETATM   41  C   UNL     1     -10.414   6.549  66.367  1.00  0.00     0.001 A  
HETATM   42  C   UNL     1      -9.657   5.380  66.532  1.00  0.00    -0.167 A  
HETATM   43  C   UNL     1      -9.429   4.867  67.807  1.00  0.00    -0.168 A  
HETATM   44  C   UNL     1     -10.152   5.447  68.849  1.00  0.00    -0.265 A  
HETATM   45  C   UNL     1      -8.342   3.877  68.161  1.00  0.00    -0.101 C  
HETATM   46  C   UNL     1      -6.954   4.484  67.784  1.00  0.00    -0.060 C  
ENDBRANCH  27  29
ENDBRANCH  13  25
TORSDOF 4
ENDMDL
MODEL       86
REMARK 921   NORMALIZED FREE ENERGY PREDICTED BY IDOCK:   -5.07 KCAL/MOL
REMARK 922        TOTAL FREE ENERGY PREDICTED BY IDOCK:   -7.49 KCAL/MOL
REMARK 923 INTER-LIGAND FREE ENERGY PREDICTED BY IDOCK:   -5.98 KCAL/MOL
REMARK 924 INTRA-LIGAND FREE ENERGY PREDICTED BY IDOCK:   -1.51 KCAL/MOL
REMARK 927      BINDING AFFINITY PREDICTED BY RF-SCORE:    0.00 PKD
ROOT
HETATM    1  C   UNL     1      -7.252   8.023  70.012  1.00  0.00    -0.061 C  
HETATM    2  C   UNL     1      -7.425   6.977  71.114  1.00  0.00    -0.081 C  
HETATM    3  C   UNL     1      -7.329   5.635  70.333  1.00  0.00    -0.079 C  
HETATM    4  C   UNL     1      -7.394   6.001  68.846  1.00  0.00    -0.085 C  
HETATM    5  N   UNL     1      -7.754   7.405  68.818  1.00  0.00    -0.116 N  
HETATM    6  C   UNL     1      -7.604   8.080  67.622  1.00  0.00    -0.102 C  
HETATM    7  O   UNL     1      -8.036   7.641  66.559  1.00  0.00    -0.102 OA 
HETATM    8  C   UNL     1      -6.973   9.507  67.753  1.00  0.00    -0.080 C  
HETATM    9  O   UNL     1      -8.015  10.813  69.846  1.00  0.00     0.057 OA 
HETATM   10  N   UNL     1      -6.285   9.824  69.102  1.00  0.00    -0.040 N  
HETATM   11  C   UNL     1      -6.053  11.123  69.469  1.00  0.00    -0.081 C  
HETATM   12  H   UNL     1      -6.713  10.738  71.545  1.00  0.00     0.000 HD 
HETATM   13  C   UNL     1      -7.278  11.888  68.911  1.00  0.00    -0.098 C  
HETATM   14  O   UNL     1      -5.155  11.428  70.251  1.00  0.00    -0.068 OA 
HETATM   15  O   UNL     1      -6.737   9.791  71.472  1.00  0.00    -0.318 OA 
HETATM   16  C   UNL     1      -6.093  12.980  68.738  1.00  0.00    -0.075 C  
HETATM   17  C   UNL     1      -7.211   9.616  70.135  1.00  0.00    -0.128 C  
ENDROOT
BRANCH   8  18
HETATM   18  C   UNL     1      -6.103   9.872  66.541  1.00  0.00    -0.064 C  
BRANCH  18  19
HETATM   19  C   UNL     1      -6.988   9.997  65.339  1.00  0.00    -0.127 A  
HETATM   20  C   UNL     1      -9.136  10.707  64.498  1.00  0.00    -0.243 A  
HETATM   21  C   UNL     1      -9.052   9.746  63.494  1.00  0.00    -0.263 A  
HETATM   22  C   UNL     1      -6.871   9.085  64.286  1.00  0.00    -0.083 A  
HETATM   23  C   UNL     1      -7.907   8.957  63.370  1.00  0.00    -0.144 A  
HETATM   24  C   UNL     1      -8.093  10.855  65.401  1.00  0.00     0.015 A  
ENDBRANCH  18  19
ENDBRANCH   8  18
BRANCH  13  25
HETATM   25  N   UNL     1      -8.323  12.753  68.332  1.00  0.00    -0.251 N  
HETATM   26  O   UNL     1      -8.901  14.358  69.865  1.00  0.00     0.593 OA 
HETATM   27  C   UNL     1      -8.846  13.988  68.700  1.00  0.00    -0.104 C  
HETATM   28  H   UNL     1      -8.748  12.367  67.489  1.00  0.00     0.000 HD 
BRANCH  27  29
HETATM   29  C   UNL     1      -9.423  14.829  67.471  1.00  0.00    -0.197 C  
HETATM   30  C   UNL     1      -9.520  14.107  66.096  1.00  0.00    -0.203 C  
HETATM   31  N   UNL     1     -10.665  14.499  65.229  1.00  0.00    -0.349 NA 
HETATM   32  C   UNL     1     -10.601  15.831  64.633  1.00  0.00     0.033 C  
HETATM   33  C   UNL     1     -11.974  14.209  65.865  1.00  0.00    -0.409 C  
HETATM   34  C   UNL     1     -12.391  12.747  65.462  1.00  0.00    -0.495 C  
HETATM   35  C   UNL     1     -11.888  11.762  66.444  1.00  0.00     0.002 A  
HETATM   36  C   UNL     1     -11.402  10.469  66.386  1.00  0.00     0.574 A  
HETATM   37  N   UNL     1     -11.064  10.090  67.654  1.00  0.00    -0.422 NA 
HETATM   38  H   UNL     1     -10.607   9.211  67.898  1.00  0.00     0.000 HD 
HETATM   39  C   UNL     1     -11.428  11.064  68.556  1.00  0.00    -0.309 A  
HETATM   40  C   UNL     1     -11.371  11.149  69.944  1.00  0.00    -0.348 A  
HETATM   41  C   UNL     1     -11.831  12.351  70.512  1.00  0.00    -0.153 A  
HETATM   42  C   UNL     1     -12.166  13.464  69.727  1.00  0.00    -0.307 A  
HETATM   43  C   UNL     1     -12.073  13.395  68.339  1.00  0.00    -0.270 A  
HETATM   44  C   UNL     1     -11.840  12.134  67.792  1.00  0.00    -0.327 A  
HETATM   45  C   UNL     1     -12.022  14.591  67.414  1.00  0.00    -0.367 C  
HETATM   46  C   UNL     1     -10.796  15.480  67.795  1.00  0.00    -0.309 C  
ENDBRANCH  27  29
ENDBRANCH  13  25
TORSDOF 4
ENDMDL
MODEL       87
REMARK 921   NORMALIZED FREE ENERGY PREDICTED BY IDOCK:   -5.05 KCAL/MOL
REMARK 922        TOTAL FREE ENERGY PREDICTED BY IDOCK:   -7.46 KCAL/MOL
REMARK 923 INTER-LIGAND FREE ENERGY PREDICTED BY IDOCK:   -7.41 KCAL/MOL
REMARK 924 INTRA-LIGAND FREE ENERGY PREDICTED BY IDOCK:   -0.06 KCAL/MOL
REMARK 927      BINDING AFFINITY PREDICTED BY RF-SCORE:    0.00 PKD
ROOT
HETATM    1  C   UNL     1     -11.041   5.330  72.547  1.00  0.00    -0.229 C  
HETATM    2  C   UNL     1     -11.885   4.131  72.981  1.00  0.00     0.185 C  
HETATM    3  C   UNL     1     -10.911   3.341  73.901  1.00  0.00    -0.298 C  
HETATM    4  C   UNL     1      -9.529   3.973  73.702  1.00  0.00    -0.102 C  
HETATM    5  N   UNL     1      -9.682   4.871  72.575  1.00  0.00    -0.147 N  
HETATM    6  C   UNL     1      -8.678   5.791  72.348  1.00  0.00    -0.128 C  
HETATM    7  O   UNL     1      -7.491   5.478  72.318  1.00  0.00    -0.092 OA 
HETATM    8  C   UNL     1      -9.181   7.230  71.991  1.00  0.00    -0.132 C  
HETATM    9  O   UNL     1     -11.232   7.116  70.272  1.00  0.00    -0.269 OA 
HETATM   10  N   UNL     1     -10.672   7.522  72.285  1.00  0.00    -0.235 N  
HETATM   11  C   UNL     1     -11.302   8.573  71.673  1.00  0.00    -0.295 C  
HETATM   12  H   UNL     1     -13.109   7.361  71.275  1.00  0.00     0.000 HD 
HETATM   13  C   UNL     1     -10.664   8.616  70.263  1.00  0.00    -0.227 C  
HETATM   14  O   UNL     1     -12.284   9.120  72.170  1.00  0.00    -0.367 OA 
HETATM   15  O   UNL     1     -12.865   6.627  71.827  1.00  0.00    -0.335 OA 
HETATM   16  C   UNL     1     -10.920  10.188  70.565  1.00  0.00    -0.380 C  
HETATM   17  C   UNL     1     -11.452   6.565  71.619  1.00  0.00    -0.297 C  
ENDROOT
BRANCH   8  18
HETATM   18  C   UNL     1      -8.244   8.324  72.526  1.00  0.00    -0.224 C  
BRANCH  18  19
HETATM   19  C   UNL     1      -7.008   8.350  71.680  1.00  0.00    -0.088 A  
HETATM   20  C   UNL     1      -5.200   9.695  70.816  1.00  0.00    -0.045 A  
HETATM   21  C   UNL     1      -5.128   8.867  69.699  1.00  0.00    -0.030 A  
HETATM   22  C   UNL     1      -6.884   7.477  70.596  1.00  0.00    -0.047 A  
HETATM   23  C   UNL     1      -5.948   7.742  69.604  1.00  0.00    -0.027 A  
HETATM   24  C   UNL     1      -6.116   9.421  71.821  1.00  0.00     0.025 A  
ENDBRANCH  18  19
ENDBRANCH   8  18
BRANCH  13  25
HETATM   25  N   UNL     1     -10.057   8.846  68.938  1.00  0.00    -0.192 N  
HETATM   26  O   UNL     1      -8.266  10.259  69.169  1.00  0.00    -0.129 OA 
HETATM   27  C   UNL     1      -8.846   9.392  68.530  1.00  0.00    -0.128 C  
HETATM   28  H   UNL     1     -10.647   8.542  68.164  1.00  0.00     0.000 HD 
BRANCH  27  29
HETATM   29  C   UNL     1      -8.334   8.831  67.125  1.00  0.00    -0.103 C  
HETATM   30  C   UNL     1      -9.403   8.599  66.018  1.00  0.00    -0.218 C  
HETATM   31  N   UNL     1      -8.960   8.843  64.617  1.00  0.00    -0.075 NA 
HETATM   32  C   UNL     1      -8.026   7.872  64.053  1.00  0.00    -0.124 C  
HETATM   33  C   UNL     1      -8.537  10.249  64.402  1.00  0.00    -0.187 C  
HETATM   34  C   UNL     1      -9.806  11.070  63.963  1.00  0.00    -0.365 C  
HETATM   35  C   UNL     1     -10.502  11.639  65.137  1.00  0.00    -0.329 A  
HETATM   36  C   UNL     1     -11.818  11.876  65.486  1.00  0.00    -0.063 A  
HETATM   37  N   UNL     1     -11.830  12.410  66.744  1.00  0.00    -0.562 NA 
HETATM   38  H   UNL     1     -12.672  12.611  67.283  1.00  0.00     0.000 HD 
HETATM   39  C   UNL     1     -10.544  12.636  67.178  1.00  0.00    -0.236 A  
HETATM   40  C   UNL     1     -10.012  13.210  68.328  1.00  0.00    -0.236 A  
HETATM   41  C   UNL     1      -8.609  13.240  68.417  1.00  0.00    -0.130 A  
HETATM   42  C   UNL     1      -7.791  12.579  67.487  1.00  0.00    -0.168 A  
HETATM   43  C   UNL     1      -8.361  11.886  66.422  1.00  0.00     0.005 A  
HETATM   44  C   UNL     1      -9.731  12.063  66.225  1.00  0.00    -0.251 A  
HETATM   45  C   UNL     1      -7.655  10.834  65.596  1.00  0.00    -0.044 C  
HETATM   46  C   UNL     1      -7.176   9.682  66.536  1.00  0.00    -0.090 C  
ENDBRANCH  27  29
ENDBRANCH  13  25
TORSDOF 4
ENDMDL
MODEL       88
REMARK 921   NORMALIZED FREE ENERGY PREDICTED BY IDOCK:   -5.03 KCAL/MOL
REMARK 922        TOTAL FREE ENERGY PREDICTED BY IDOCK:   -7.45 KCAL/MOL
REMARK 923 INTER-LIGAND FREE ENERGY PREDICTED BY IDOCK:   -6.46 KCAL/MOL
REMARK 924 INTRA-LIGAND FREE ENERGY PREDICTED BY IDOCK:   -0.98 KCAL/MOL
REMARK 927      BINDING AFFINITY PREDICTED BY RF-SCORE:    0.00 PKD
ROOT
HETATM    1  C   UNL     1      -6.819  10.728  68.917  1.00  0.00    -0.069 C  
HETATM    2  C   UNL     1      -5.646  11.696  69.079  1.00  0.00    -0.050 C  
HETATM    3  C   UNL     1      -5.784  12.614  67.830  1.00  0.00    -0.110 C  
HETATM    4  C   UNL     1      -6.822  11.946  66.922  1.00  0.00    -0.075 C  
HETATM    5  N   UNL     1      -7.048  10.638  67.503  1.00  0.00    -0.087 N  
HETATM    6  C   UNL     1      -8.145   9.923  67.065  1.00  0.00    -0.110 C  
HETATM    7  O   UNL     1      -8.396   9.765  65.873  1.00  0.00    -0.121 OA 
HETATM    8  C   UNL     1      -8.957   9.214  68.200  1.00  0.00    -0.129 C  
HETATM    9  O   UNL     1      -7.305   8.074  69.974  1.00  0.00    -0.060 OA 
HETATM   10  N   UNL     1      -8.659   9.682  69.644  1.00  0.00    -0.170 N  
HETATM   11  C   UNL     1      -9.001   8.892  70.710  1.00  0.00    -0.209 C  
HETATM   12  H   UNL     1      -7.075   9.288  71.723  1.00  0.00     0.000 HD 
HETATM   13  C   UNL     1      -8.768   7.452  70.192  1.00  0.00    -0.143 C  
HETATM   14  O   UNL     1      -9.211   9.363  71.826  1.00  0.00    -0.233 OA 
HETATM   15  O   UNL     1      -6.799   9.994  71.149  1.00  0.00    -0.336 OA 
HETATM   16  C   UNL     1     -10.050   7.257  71.164  1.00  0.00    -0.190 C  
HETATM   17  C   UNL     1      -7.283   9.542  69.883  1.00  0.00    -0.093 C  
ENDROOT
BRANCH   8  18
HETATM   18  C   UNL     1     -10.461   9.156  67.892  1.00  0.00    -0.293 C  
BRANCH  18  19
HETATM   19  C   UNL     1     -11.074  10.472  68.265  1.00  0.00    -0.340 A  
HETATM   20  C   UNL     1     -10.958  12.872  68.037  1.00  0.00    -0.271 A  
HETATM   21  C   UNL     1     -11.550  13.012  69.289  1.00  0.00    -0.367 A  
HETATM   22  C   UNL     1     -11.736  10.614  69.487  1.00  0.00    -0.356 A  
HETATM   23  C   UNL     1     -11.966  11.884  70.000  1.00  0.00    -0.409 A  
HETATM   24  C   UNL     1     -10.749  11.606  67.510  1.00  0.00    -0.257 A  
ENDBRANCH  18  19
ENDBRANCH   8  18
BRANCH  13  25
HETATM   25  N   UNL     1      -8.704   6.035  69.790  1.00  0.00    -0.129 N  
HETATM   26  O   UNL     1     -10.838   5.230  69.543  1.00  0.00    -0.202 OA 
HETATM   27  C   UNL     1      -9.646   5.149  69.278  1.00  0.00    -0.160 C  
HETATM   28  H   UNL     1      -7.781   5.619  69.913  1.00  0.00     0.000 HD 
BRANCH  27  29
HETATM   29  C   UNL     1      -9.012   3.992  68.379  1.00  0.00    -0.159 C  
HETATM   30  C   UNL     1      -7.461   3.961  68.247  1.00  0.00    -0.059 C  
HETATM   31  N   UNL     1      -6.840   2.612  68.134  1.00  0.00    -0.046 NA 
HETATM   32  C   UNL     1      -7.057   1.901  66.877  1.00  0.00    -0.047 C  
HETATM   33  C   UNL     1      -7.103   1.773  69.329  1.00  0.00    -0.036 C  
HETATM   34  C   UNL     1      -5.945   2.032  70.362  1.00  0.00    -0.018 C  
HETATM   35  C   UNL     1      -6.289   3.142  71.278  1.00  0.00    -0.019 A  
HETATM   36  C   UNL     1      -5.593   4.163  71.897  1.00  0.00    -0.008 A  
HETATM   37  N   UNL     1      -6.486   4.904  72.618  1.00  0.00    -0.041 NA 
HETATM   38  H   UNL     1      -6.262   5.766  73.115  1.00  0.00     0.000 HD 
HETATM   39  C   UNL     1      -7.732   4.321  72.576  1.00  0.00    -0.080 A  
HETATM   40  C   UNL     1      -8.949   4.626  73.179  1.00  0.00    -0.119 A  
HETATM   41  C   UNL     1     -10.028   3.780  72.862  1.00  0.00    -0.207 A  
HETATM   42  C   UNL     1      -9.933   2.793  71.870  1.00  0.00    -0.210 A  
HETATM   43  C   UNL     1      -8.738   2.608  71.179  1.00  0.00    -0.116 A  
HETATM   44  C   UNL     1      -7.625   3.294  71.665  1.00  0.00    -0.052 A  
HETATM   45  C   UNL     1      -8.605   1.881  69.859  1.00  0.00    -0.096 C  
HETATM   46  C   UNL     1      -9.509   2.581  68.796  1.00  0.00    -0.182 C  
ENDBRANCH  27  29
ENDBRANCH  13  25
TORSDOF 4
ENDMDL
MODEL       89
REMARK 921   NORMALIZED FREE ENERGY PREDICTED BY IDOCK:   -4.98 KCAL/MOL
REMARK 922        TOTAL FREE ENERGY PREDICTED BY IDOCK:   -7.39 KCAL/MOL
REMARK 923 INTER-LIGAND FREE ENERGY PREDICTED BY IDOCK:   -6.60 KCAL/MOL
REMARK 924 INTRA-LIGAND FREE ENERGY PREDICTED BY IDOCK:   -0.78 KCAL/MOL
REMARK 927      BINDING AFFINITY PREDICTED BY RF-SCORE:    0.00 PKD
ROOT
HETATM    1  C   UNL     1     -12.376  13.773  70.778  1.00  0.00    -0.379 C  
HETATM    2  C   UNL     1     -13.452  14.238  71.760  1.00  0.00    -0.464 C  
HETATM    3  C   UNL     1     -13.351  15.788  71.672  1.00  0.00    -0.428 C  
HETATM    4  C   UNL     1     -12.069  16.088  70.886  1.00  0.00    -0.295 C  
HETATM    5  N   UNL     1     -11.388  14.814  70.773  1.00  0.00    -0.220 N  
HETATM    6  C   UNL     1     -10.349  14.721  69.869  1.00  0.00     0.043 C  
HETATM    7  O   UNL     1      -9.441  15.549  69.820  1.00  0.00    -0.285 OA 
HETATM    8  C   UNL     1     -10.343  13.411  69.013  1.00  0.00     0.018 C  
HETATM    9  O   UNL     1     -10.912  11.284  70.538  1.00  0.00     0.263 OA 
HETATM   10  N   UNL     1     -11.652  12.585  69.025  1.00  0.00    -0.294 N  
HETATM   11  C   UNL     1     -11.639  11.268  68.651  1.00  0.00    -0.318 C  
HETATM   12  H   UNL     1     -12.961  10.696  70.329  1.00  0.00     0.000 HD 
HETATM   13  C   UNL     1     -10.274  10.751  69.166  1.00  0.00    -0.211 C  
HETATM   14  O   UNL     1     -12.642  10.707  68.213  1.00  0.00     0.477 OA 
HETATM   15  O   UNL     1     -13.200  11.581  70.579  1.00  0.00     0.161 OA 
HETATM   16  C   UNL     1     -10.461   9.901  67.799  1.00  0.00    -0.292 C  
HETATM   17  C   UNL     1     -11.976  12.284  70.357  1.00  0.00    -0.263 C  
ENDROOT
BRANCH   8  18
HETATM   18  C   UNL     1      -9.800  13.643  67.595  1.00  0.00    -0.228 C  
BRANCH  18  19
HETATM   19  C   UNL     1     -10.902  13.381  66.613  1.00  0.00    -0.285 A  
HETATM   20  C   UNL     1     -11.470  12.607  64.400  1.00  0.00    -0.402 A  
HETATM   21  C   UNL     1     -12.593  13.430  64.408  1.00  0.00    -0.254 A  
HETATM   22  C   UNL     1     -12.069  14.149  66.651  1.00  0.00    -0.480 A  
HETATM   23  C   UNL     1     -12.908  14.177  65.545  1.00  0.00    -0.404 A  
HETATM   24  C   UNL     1     -10.642  12.557  65.511  1.00  0.00    -0.304 A  
ENDBRANCH  18  19
ENDBRANCH   8  18
BRANCH  13  25
HETATM   25  N   UNL     1      -8.962  10.161  69.495  1.00  0.00    -0.253 N  
HETATM   26  O   UNL     1      -7.311  11.411  68.508  1.00  0.00    -0.091 OA 
HETATM   27  C   UNL     1      -7.657  10.626  69.380  1.00  0.00    -0.134 C  
HETATM   28  H   UNL     1      -9.026   9.222  69.886  1.00  0.00     0.000 HD 
BRANCH  27  29
HETATM   29  C   UNL     1      -6.655   9.983  70.445  1.00  0.00    -0.132 C  
HETATM   30  C   UNL     1      -7.188   8.796  71.299  1.00  0.00    -0.095 C  
HETATM   31  N   UNL     1      -6.191   7.751  71.663  1.00  0.00    -0.035 NA 
HETATM   32  C   UNL     1      -5.182   8.131  72.648  1.00  0.00    -0.037 C  
HETATM   33  C   UNL     1      -5.616   7.087  70.467  1.00  0.00    -0.024 C  
HETATM   34  C   UNL     1      -6.527   5.854  70.117  1.00  0.00    -0.039 C  
HETATM   35  C   UNL     1      -7.601   6.238  69.175  1.00  0.00    -0.099 A  
HETATM   36  C   UNL     1      -8.923   5.882  68.987  1.00  0.00    -0.122 A  
HETATM   37  N   UNL     1      -9.413   6.619  67.945  1.00  0.00    -0.118 NA 
HETATM   38  H   UNL     1     -10.385   6.617  67.636  1.00  0.00     0.000 HD 
HETATM   39  C   UNL     1      -8.406   7.363  67.374  1.00  0.00    -0.116 A  
HETATM   40  C   UNL     1      -8.354   8.212  66.272  1.00  0.00    -0.119 A  
HETATM   41  C   UNL     1      -7.113   8.822  66.015  1.00  0.00    -0.084 A  
HETATM   42  C   UNL     1      -6.036   8.722  66.909  1.00  0.00    -0.058 A  
HETATM   43  C   UNL     1      -6.167   7.981  68.082  1.00  0.00    -0.046 A  
HETATM   44  C   UNL     1      -7.317   7.202  68.202  1.00  0.00    -0.097 A  
HETATM   45  C   UNL     1      -5.262   8.103  69.288  1.00  0.00    -0.030 C  
HETATM   46  C   UNL     1      -5.298   9.575  69.808  1.00  0.00    -0.033 C  
ENDBRANCH  27  29
ENDBRANCH  13  25
TORSDOF 4
ENDMDL
MODEL       90
REMARK 921   NORMALIZED FREE ENERGY PREDICTED BY IDOCK:   -4.93 KCAL/MOL
REMARK 922        TOTAL FREE ENERGY PREDICTED BY IDOCK:   -7.32 KCAL/MOL
REMARK 923 INTER-LIGAND FREE ENERGY PREDICTED BY IDOCK:   -5.48 KCAL/MOL
REMARK 924 INTRA-LIGAND FREE ENERGY PREDICTED BY IDOCK:   -1.84 KCAL/MOL
REMARK 927      BINDING AFFINITY PREDICTED BY RF-SCORE:    0.00 PKD
ROOT
HETATM    1  C   UNL     1      -7.273   3.661  64.982  1.00  0.00    -0.067 C  
HETATM    2  C   UNL     1      -6.620   2.583  64.116  1.00  0.00    -0.031 C  
HETATM    3  C   UNL     1      -7.606   2.463  62.918  1.00  0.00    -0.057 C  
HETATM    4  C   UNL     1      -8.860   3.249  63.315  1.00  0.00    -0.092 C  
HETATM    5  N   UNL     1      -8.680   3.562  64.719  1.00  0.00    -0.108 N  
HETATM    6  C   UNL     1      -9.515   4.511  65.276  1.00  0.00    -0.171 C  
HETATM    7  O   UNL     1     -10.735   4.481  65.132  1.00  0.00    -0.218 OA 
HETATM    8  C   UNL     1      -8.801   5.537  66.218  1.00  0.00    -0.134 C  
HETATM    9  O   UNL     1      -7.032   4.295  67.800  1.00  0.00    -0.057 OA 
HETATM   10  N   UNL     1      -7.257   5.586  66.123  1.00  0.00    -0.075 N  
HETATM   11  C   UNL     1      -6.521   6.137  67.139  1.00  0.00    -0.050 C  
HETATM   12  H   UNL     1      -5.034   4.502  67.054  1.00  0.00     0.000 HD 
HETATM   13  C   UNL     1      -7.308   5.751  68.415  1.00  0.00    -0.080 C  
HETATM   14  O   UNL     1      -5.401   6.607  66.949  1.00  0.00    -0.012 OA 
HETATM   15  O   UNL     1      -5.341   4.124  66.239  1.00  0.00    -0.012 OA 
HETATM   16  C   UNL     1      -6.728   7.212  68.807  1.00  0.00    -0.067 C  
HETATM   17  C   UNL     1      -6.755   4.296  66.355  1.00  0.00    -0.050 C  
ENDROOT
BRANCH   8  18
HETATM   18  C   UNL     1      -9.445   6.930  66.157  1.00  0.00    -0.054 C  
BRANCH  18  19
HETATM   19  C   UNL     1      -8.580   7.819  65.316  1.00  0.00    -0.065 A  
HETATM   20  C   UNL     1      -7.607  10.013  65.067  1.00  0.00    -0.139 A  
HETATM   21  C   UNL     1      -7.613   9.851  63.685  1.00  0.00    -0.134 A  
HETATM   22  C   UNL     1      -8.514   7.627  63.933  1.00  0.00     0.257 A  
HETATM   23  C   UNL     1      -8.038   8.646  63.120  1.00  0.00    -0.170 A  
HETATM   24  C   UNL     1      -8.060   8.988  65.885  1.00  0.00    -0.108 A  
ENDBRANCH  18  19
ENDBRANCH   8  18
BRANCH  13  25
HETATM   25  N   UNL     1      -8.017   5.557  69.694  1.00  0.00    -0.092 N  
HETATM   26  O   UNL     1     -10.273   5.455  69.291  1.00  0.00    -0.208 OA 
HETATM   27  C   UNL     1      -9.320   5.190  70.011  1.00  0.00    -0.147 C  
HETATM   28  H   UNL     1      -7.433   5.727  70.512  1.00  0.00     0.000 HD 
BRANCH  27  29
HETATM   29  C   UNL     1      -9.451   4.460  71.425  1.00  0.00    -0.220 C  
HETATM   30  C   UNL     1      -8.290   4.661  72.442  1.00  0.00    -0.115 C  
HETATM   31  N   UNL     1      -8.677   4.698  73.880  1.00  0.00    -0.105 NA 
HETATM   32  C   UNL     1      -9.101   3.431  74.470  1.00  0.00    -0.085 C  
HETATM   33  C   UNL     1      -9.600   5.819  74.182  1.00  0.00    -0.160 C  
HETATM   34  C   UNL     1      -8.727   7.072  74.561  1.00  0.00    -0.227 C  
HETATM   35  C   UNL     1      -8.411   7.880  73.363  1.00  0.00    -0.273 A  
HETATM   36  C   UNL     1      -7.329   8.622  72.930  1.00  0.00     0.089 A  
HETATM   37  N   UNL     1      -7.632   9.128  71.697  1.00  0.00    -0.340 NA 
HETATM   38  H   UNL     1      -6.986   9.651  71.106  1.00  0.00     0.000 HD 
HETATM   39  C   UNL     1      -8.934   8.829  71.366  1.00  0.00    -0.238 A  
HETATM   40  C   UNL     1      -9.742   9.155  70.282  1.00  0.00    -0.248 A  
HETATM   41  C   UNL     1     -11.046   8.626  70.296  1.00  0.00    -0.230 A  
HETATM   42  C   UNL     1     -11.457   7.688  71.255  1.00  0.00    -0.293 A  
HETATM   43  C   UNL     1     -10.573   7.269  72.248  1.00  0.00    -0.257 A  
HETATM   44  C   UNL     1      -9.374   7.973  72.352  1.00  0.00    -0.272 A  
HETATM   45  C   UNL     1     -10.737   6.016  73.079  1.00  0.00    -0.279 C  
HETATM   46  C   UNL     1     -10.798   4.777  72.131  1.00  0.00    -0.086 C  
ENDBRANCH  27  29
ENDBRANCH  13  25
TORSDOF 4
ENDMDL
MODEL       91
REMARK 921   NORMALIZED FREE ENERGY PREDICTED BY IDOCK:   -4.92 KCAL/MOL
REMARK 922        TOTAL FREE ENERGY PREDICTED BY IDOCK:   -7.30 KCAL/MOL
REMARK 923 INTER-LIGAND FREE ENERGY PREDICTED BY IDOCK:   -6.27 KCAL/MOL
REMARK 924 INTRA-LIGAND FREE ENERGY PREDICTED BY IDOCK:   -1.04 KCAL/MOL
REMARK 927      BINDING AFFINITY PREDICTED BY RF-SCORE:    0.00 PKD
ROOT
HETATM    1  C   UNL     1      -8.969   6.897  67.151  1.00  0.00    -0.120 C  
HETATM    2  C   UNL     1      -9.239   5.845  66.075  1.00  0.00    -0.143 C  
HETATM    3  C   UNL     1      -7.807   5.472  65.592  1.00  0.00    -0.101 C  
HETATM    4  C   UNL     1      -6.865   6.515  66.205  1.00  0.00    -0.057 C  
HETATM    5  N   UNL     1      -7.737   7.526  66.770  1.00  0.00    -0.100 N  
HETATM    6  C   UNL     1      -7.177   8.442  67.639  1.00  0.00    -0.088 C  
HETATM    7  O   UNL     1      -6.143   9.052  67.377  1.00  0.00    -0.053 OA 
HETATM    8  C   UNL     1      -8.035   8.742  68.913  1.00  0.00    -0.105 C  
HETATM    9  O   UNL     1     -10.623   8.997  68.270  1.00  0.00    -0.214 OA 
HETATM   10  N   UNL     1      -9.181   7.746  69.211  1.00  0.00    -0.146 N  
HETATM   11  C   UNL     1     -10.211   8.108  70.039  1.00  0.00    -0.202 C  
HETATM   12  H   UNL     1     -11.715   7.204  68.693  1.00  0.00     0.000 HD 
HETATM   13  C   UNL     1     -10.416   9.612  69.738  1.00  0.00    -0.238 C  
HETATM   14  O   UNL     1     -10.870   7.275  70.657  1.00  0.00    -0.231 OA 
HETATM   15  O   UNL     1     -11.096   6.743  68.139  1.00  0.00    -0.218 OA 
HETATM   16  C   UNL     1     -10.750   9.538  71.321  1.00  0.00    -0.386 C  
HETATM   17  C   UNL     1     -10.011   7.672  68.082  1.00  0.00    -0.175 C  
ENDROOT
BRANCH   8  18
HETATM   18  C   UNL     1      -7.166   9.035  70.145  1.00  0.00    -0.062 C  
BRANCH  18  19
HETATM   19  C   UNL     1      -6.621  10.426  70.025  1.00  0.00    -0.137 A  
HETATM   20  C   UNL     1      -5.282  12.147  71.057  1.00  0.00    -0.141 A  
HETATM   21  C   UNL     1      -6.038  13.117  70.404  1.00  0.00    -0.049 A  
HETATM   22  C   UNL     1      -7.330  11.396  69.312  1.00  0.00    -0.042 A  
HETATM   23  C   UNL     1      -7.042  12.740  69.509  1.00  0.00     0.277 A  
HETATM   24  C   UNL     1      -5.550  10.803  70.845  1.00  0.00    -0.092 A  
ENDBRANCH  18  19
ENDBRANCH   8  18
BRANCH  13  25
HETATM   25  N   UNL     1     -10.637  11.067  69.637  1.00  0.00    -0.439 N  
HETATM   26  O   UNL     1     -12.461  11.457  68.302  1.00  0.00    -0.314 OA 
HETATM   27  C   UNL     1     -11.702  11.837  69.184  1.00  0.00    -0.325 C  
HETATM   28  H   UNL     1      -9.847  11.621  69.967  1.00  0.00     0.000 HD 
BRANCH  27  29
HETATM   29  C   UNL     1     -11.788  13.276  69.871  1.00  0.00    -0.380 C  
HETATM   30  C   UNL     1     -10.446  14.011  70.156  1.00  0.00     0.877 C  
HETATM   31  N   UNL     1     -10.475  15.495  70.039  1.00  0.00    -0.304 NA 
HETATM   32  C   UNL     1     -11.201  16.215  71.082  1.00  0.00    -0.205 C  
HETATM   33  C   UNL     1     -10.830  15.941  68.669  1.00  0.00    -0.291 C  
HETATM   34  C   UNL     1      -9.496  16.072  67.845  1.00  0.00    -0.210 C  
HETATM   35  C   UNL     1      -9.168  14.801  67.161  1.00  0.00    -0.233 A  
HETATM   36  C   UNL     1      -8.008  14.116  66.855  1.00  0.00     0.187 A  
HETATM   37  N   UNL     1      -8.358  12.957  66.223  1.00  0.00    -0.132 NA 
HETATM   38  H   UNL     1      -7.707  12.221  65.951  1.00  0.00     0.000 HD 
HETATM   39  C   UNL     1      -9.717  12.926  66.005  1.00  0.00    -0.223 A  
HETATM   40  C   UNL     1     -10.559  12.026  65.358  1.00  0.00    -0.319 A  
HETATM   41  C   UNL     1     -11.930  12.342  65.367  1.00  0.00    -0.395 A  
HETATM   42  C   UNL     1     -12.444  13.404  66.126  1.00  0.00    -0.389 A  
HETATM   43  C   UNL     1     -11.588  14.201  66.883  1.00  0.00    -0.410 A  
HETATM   44  C   UNL     1     -10.221  14.017  66.678  1.00  0.00    -0.275 A  
HETATM   45  C   UNL     1     -12.021  15.100  68.020  1.00  0.00    -0.112 C  
HETATM   46  C   UNL     1     -12.737  14.239  69.108  1.00  0.00     0.448 C  
ENDBRANCH  27  29
ENDBRANCH  13  25
TORSDOF 4
ENDMDL
MODEL       92
REMARK 921   NORMALIZED FREE ENERGY PREDICTED BY IDOCK:   -4.90 KCAL/MOL
REMARK 922        TOTAL FREE ENERGY PREDICTED BY IDOCK:   -7.29 KCAL/MOL
REMARK 923 INTER-LIGAND FREE ENERGY PREDICTED BY IDOCK:   -6.62 KCAL/MOL
REMARK 924 INTRA-LIGAND FREE ENERGY PREDICTED BY IDOCK:   -0.66 KCAL/MOL
REMARK 927      BINDING AFFINITY PREDICTED BY RF-SCORE:    0.00 PKD
ROOT
HETATM    1  C   UNL     1      -7.425   9.887  69.091  1.00  0.00    -0.087 C  
HETATM    2  C   UNL     1      -6.587  10.476  70.227  1.00  0.00    -0.138 C  
HETATM    3  C   UNL     1      -6.197  11.877  69.674  1.00  0.00    -0.129 C  
HETATM    4  C   UNL     1      -6.587  11.875  68.192  1.00  0.00    -0.057 C  
HETATM    5  N   UNL     1      -6.927  10.498  67.893  1.00  0.00    -0.077 N  
HETATM    6  C   UNL     1      -7.592  10.246  66.708  1.00  0.00    -0.107 C  
HETATM    7  O   UNL     1      -7.213  10.700  65.631  1.00  0.00    -0.144 OA 
HETATM    8  C   UNL     1      -8.773   9.226  66.827  1.00  0.00    -0.127 C  
HETATM    9  O   UNL     1      -8.081   7.155  68.379  1.00  0.00    -0.121 OA 
HETATM   10  N   UNL     1      -9.265   8.919  68.262  1.00  0.00    -0.140 N  
HETATM   11  C   UNL     1      -9.996   7.789  68.513  1.00  0.00    -0.182 C  
HETATM   12  H   UNL     1      -8.859   7.369  70.363  1.00  0.00     0.000 HD 
HETATM   13  C   UNL     1      -9.391   6.737  67.553  1.00  0.00    -0.124 C  
HETATM   14  O   UNL     1     -10.770   7.714  69.465  1.00  0.00    -0.238 OA 
HETATM   15  O   UNL     1      -8.415   8.208  70.405  1.00  0.00    -0.124 OA 
HETATM   16  C   UNL     1     -10.955   6.312  67.574  1.00  0.00    -0.444 C  
HETATM   17  C   UNL     1      -8.172   8.475  69.022  1.00  0.00    -0.116 C  
ENDROOT
BRANCH   8  18
HETATM   18  C   UNL     1      -9.922   9.550  65.861  1.00  0.00    -0.342 C  
BRANCH  18  19
HETATM   19  C   UNL     1     -10.424  10.930  66.163  1.00  0.00    -0.290 A  
HETATM   20  C   UNL     1     -11.766  12.296  67.631  1.00  0.00    -0.403 A  
HETATM   21  C   UNL     1     -12.015  13.171  66.577  1.00  0.00    -0.459 A  
HETATM   22  C   UNL     1     -10.612  11.848  65.127  1.00  0.00    -0.333 A  
HETATM   23  C   UNL     1     -11.413  12.963  65.334  1.00  0.00    -0.360 A  
HETATM   24  C   UNL     1     -10.947  11.194  67.435  1.00  0.00    -0.347 A  
ENDBRANCH  18  19
ENDBRANCH   8  18
BRANCH  13  25
HETATM   25  N   UNL     1      -8.992   5.676  66.609  1.00  0.00    -0.118 N  
HETATM   26  O   UNL     1     -10.873   4.618  65.832  1.00  0.00    -0.274 OA 
HETATM   27  C   UNL     1      -9.695   4.915  65.682  1.00  0.00    -0.145 C  
HETATM   28  H   UNL     1      -7.997   5.456  66.643  1.00  0.00     0.000 HD 
BRANCH  27  29
HETATM   29  C   UNL     1      -8.802   4.417  64.455  1.00  0.00    -0.148 C  
HETATM   30  C   UNL     1      -7.331   4.922  64.393  1.00  0.00    -0.059 C  
HETATM   31  N   UNL     1      -6.335   3.970  63.828  1.00  0.00    -0.025 NA 
HETATM   32  C   UNL     1      -6.413   3.728  62.390  1.00  0.00    -0.022 C  
HETATM   33  C   UNL     1      -6.240   2.722  64.624  1.00  0.00    -0.019 C  
HETATM   34  C   UNL     1      -5.146   2.942  65.733  1.00  0.00    -0.008 C  
HETATM   35  C   UNL     1      -5.748   3.483  66.972  1.00  0.00    -0.022 A  
HETATM   36  C   UNL     1      -5.356   4.377  67.951  1.00  0.00    -0.012 A  
HETATM   37  N   UNL     1      -6.380   4.491  68.849  1.00  0.00    -0.031 NA 
HETATM   38  H   UNL     1      -6.396   5.142  69.634  1.00  0.00     0.000 HD 
HETATM   39  C   UNL     1      -7.385   3.603  68.541  1.00  0.00    -0.054 A  
HETATM   40  C   UNL     1      -8.590   3.275  69.156  1.00  0.00    -0.113 A  
HETATM   41  C   UNL     1      -9.376   2.307  68.505  1.00  0.00    -0.250 A  
HETATM   42  C   UNL     1      -9.054   1.824  67.228  1.00  0.00    -0.141 A  
HETATM   43  C   UNL     1      -7.913   2.283  66.572  1.00  0.00    -0.077 A  
HETATM   44  C   UNL     1      -7.033   3.060  67.325  1.00  0.00    -0.049 A  
HETATM   45  C   UNL     1      -7.659   2.158  65.087  1.00  0.00    -0.068 C  
HETATM   46  C   UNL     1      -8.810   2.871  64.309  1.00  0.00    -0.101 C  
ENDBRANCH  27  29
ENDBRANCH  13  25
TORSDOF 4
ENDMDL
MODEL       93
REMARK 921   NORMALIZED FREE ENERGY PREDICTED BY IDOCK:   -4.89 KCAL/MOL
REMARK 922        TOTAL FREE ENERGY PREDICTED BY IDOCK:   -7.27 KCAL/MOL
REMARK 923 INTER-LIGAND FREE ENERGY PREDICTED BY IDOCK:   -6.94 KCAL/MOL
REMARK 924 INTRA-LIGAND FREE ENERGY PREDICTED BY IDOCK:   -0.34 KCAL/MOL
REMARK 927      BINDING AFFINITY PREDICTED BY RF-SCORE:    0.00 PKD
ROOT
HETATM    1  C   UNL     1      -6.722   7.872  70.655  1.00  0.00    -0.038 C  
HETATM    2  C   UNL     1      -5.250   7.504  70.848  1.00  0.00    -0.027 C  
HETATM    3  C   UNL     1      -5.225   6.937  72.297  1.00  0.00    -0.036 C  
HETATM    4  C   UNL     1      -6.587   7.279  72.912  1.00  0.00    -0.063 C  
HETATM    5  N   UNL     1      -7.213   8.182  71.967  1.00  0.00    -0.083 N  
HETATM    6  C   UNL     1      -8.564   8.428  72.116  1.00  0.00    -0.192 C  
HETATM    7  O   UNL     1      -9.063   8.735  73.196  1.00  0.00    -0.239 OA 
HETATM    8  C   UNL     1      -9.379   8.426  70.779  1.00  0.00    -0.163 C  
HETATM    9  O   UNL     1      -8.041   9.720  68.854  1.00  0.00    -0.093 OA 
HETATM   10  N   UNL     1      -8.668   7.810  69.551  1.00  0.00    -0.135 N  
HETATM   11  C   UNL     1      -9.105   8.098  68.285  1.00  0.00    -0.135 C  
HETATM   12  H   UNL     1      -7.037   8.355  67.544  1.00  0.00     0.000 HD 
HETATM   13  C   UNL     1      -9.566   9.573  68.381  1.00  0.00    -0.142 C  
HETATM   14  O   UNL     1      -8.908   7.337  67.340  1.00  0.00    -0.120 OA 
HETATM   15  O   UNL     1      -6.607   7.997  68.311  1.00  0.00    -0.053 OA 
HETATM   16  C   UNL     1     -10.625   8.958  67.320  1.00  0.00    -0.304 C  
HETATM   17  C   UNL     1      -7.446   8.475  69.364  1.00  0.00    -0.088 C  
ENDROOT
BRANCH   8  18
HETATM   18  C   UNL     1     -10.807   7.893  70.969  1.00  0.00    -0.253 C  
BRANCH  18  19
HETATM   19  C   UNL     1     -10.729   6.449  71.362  1.00  0.00    -0.290 A  
HETATM   20  C   UNL     1     -10.823   4.859  73.176  1.00  0.00    -0.348 A  
HETATM   21  C   UNL     1      -9.982   4.009  72.464  1.00  0.00    -0.222 A  
HETATM   22  C   UNL     1      -9.947   5.562  70.618  1.00  0.00    -0.270 A  
HETATM   23  C   UNL     1      -9.568   4.347  71.173  1.00  0.00    -0.245 A  
HETATM   24  C   UNL     1     -11.223   6.063  72.615  1.00  0.00    -0.326 A  
ENDBRANCH  18  19
ENDBRANCH   8  18
BRANCH  13  25
HETATM   25  N   UNL     1     -10.151  10.927  68.362  1.00  0.00    -0.176 N  
HETATM   26  O   UNL     1     -12.435  10.755  68.257  1.00  0.00    -0.047 OA 
HETATM   27  C   UNL     1     -11.442  11.407  68.549  1.00  0.00    -0.297 C  
HETATM   28  H   UNL     1      -9.468  11.661  68.172  1.00  0.00     0.000 HD 
BRANCH  27  29
HETATM   29  C   UNL     1     -11.492  12.902  69.110  1.00  0.00    -0.360 C  
HETATM   30  C   UNL     1     -10.176  13.486  69.700  1.00  0.00     0.794 C  
HETATM   31  N   UNL     1      -9.959  14.946  69.498  1.00  0.00    -0.131 NA 
HETATM   32  C   UNL     1     -10.816  15.842  70.270  1.00  0.00    -0.340 C  
HETATM   33  C   UNL     1      -9.884  15.306  68.061  1.00  0.00    -0.216 C  
HETATM   34  C   UNL     1      -8.379  15.194  67.615  1.00  0.00    -0.172 C  
HETATM   35  C   UNL     1      -8.075  13.836  67.114  1.00  0.00    -0.094 A  
HETATM   36  C   UNL     1      -6.986  12.986  67.165  1.00  0.00     0.107 A  
HETATM   37  N   UNL     1      -7.327  11.827  66.526  1.00  0.00    -0.369 NA 
HETATM   38  H   UNL     1      -6.741  10.993  66.478  1.00  0.00     0.000 HD 
HETATM   39  C   UNL     1      -8.575  11.946  65.957  1.00  0.00     0.132 A  
HETATM   40  C   UNL     1      -9.344  11.104  65.160  1.00  0.00    -0.237 A  
HETATM   41  C   UNL     1     -10.612  11.588  64.788  1.00  0.00    -0.362 A  
HETATM   42  C   UNL     1     -11.143  12.771  65.323  1.00  0.00    -0.320 A  
HETATM   43  C   UNL     1     -10.403  13.520  66.236  1.00  0.00    -0.293 A  
HETATM   44  C   UNL     1      -9.070  13.148  66.411  1.00  0.00    -0.069 A  
HETATM   45  C   UNL     1     -10.978  14.565  67.165  1.00  0.00    -0.304 C  
HETATM   46  C   UNL     1     -12.065  13.903  68.070  1.00  0.00    -0.318 C  
ENDBRANCH  27  29
ENDBRANCH  13  25
TORSDOF 4
ENDMDL
MODEL       94
REMARK 921   NORMALIZED FREE ENERGY PREDICTED BY IDOCK:   -4.88 KCAL/MOL
REMARK 922        TOTAL FREE ENERGY PREDICTED BY IDOCK:   -7.26 KCAL/MOL
REMARK 923 INTER-LIGAND FREE ENERGY PREDICTED BY IDOCK:   -6.50 KCAL/MOL
REMARK 924 INTRA-LIGAND FREE ENERGY PREDICTED BY IDOCK:   -0.76 KCAL/MOL
REMARK 927      BINDING AFFINITY PREDICTED BY RF-SCORE:    0.00 PKD
ROOT
HETATM    1  C   UNL     1      -7.149  16.490  68.694  1.00  0.00    -0.175 C  
HETATM    2  C   UNL     1      -5.765  16.935  69.167  1.00  0.00    -0.155 C  
HETATM    3  C   UNL     1      -5.395  18.050  68.147  1.00  0.00    -0.156 C  
HETATM    4  C   UNL     1      -6.438  17.966  67.027  1.00  0.00    -0.167 C  
HETATM    5  N   UNL     1      -7.169  16.741  67.282  1.00  0.00    -0.157 N  
HETATM    6  C   UNL     1      -8.357  16.551  66.603  1.00  0.00    -0.262 C  
HETATM    7  O   UNL     1      -8.454  16.707  65.388  1.00  0.00     0.091 OA 
HETATM    8  C   UNL     1      -9.525  15.984  67.478  1.00  0.00    -0.223 C  
HETATM    9  O   UNL     1      -8.640  14.037  69.090  1.00  0.00     0.081 OA 
HETATM   10  N   UNL     1      -9.321  16.051  69.010  1.00  0.00    -0.226 N  
HETATM   11  C   UNL     1     -10.067  15.257  69.840  1.00  0.00    -0.188 C  
HETATM   12  H   UNL     1      -8.303  14.758  71.078  1.00  0.00     0.000 HD 
HETATM   13  C   UNL     1     -10.241  13.945  69.037  1.00  0.00    -0.059 C  
HETATM   14  O   UNL     1     -10.285  15.564  71.011  1.00  0.00     0.213 OA 
HETATM   15  O   UNL     1      -7.724  15.411  70.701  1.00  0.00     0.796 OA 
HETATM   16  C   UNL     1     -11.652  14.045  69.827  1.00  0.00    -0.344 C  
HETATM   17  C   UNL     1      -8.124  15.394  69.329  1.00  0.00    -0.246 C  
ENDROOT
BRANCH   8  18
HETATM   18  C   UNL     1     -10.896  16.519  67.036  1.00  0.00    -0.113 C  
BRANCH  18  19
HETATM   19  C   UNL     1     -10.873  18.015  67.118  1.00  0.00    -0.183 A  
HETATM   20  C   UNL     1     -10.563  20.082  65.910  1.00  0.00    -0.459 A  
HETATM   21  C   UNL     1     -10.114  20.689  67.080  1.00  0.00    -0.295 A  
HETATM   22  C   UNL     1     -10.494  18.646  68.306  1.00  0.00    -0.315 A  
HETATM   23  C   UNL     1     -10.109  19.979  68.283  1.00  0.00    -0.531 A  
HETATM   24  C   UNL     1     -10.973  18.756  65.933  1.00  0.00     0.023 A  
ENDBRANCH  18  19
ENDBRANCH   8  18
BRANCH  13  25
HETATM   25  N   UNL     1     -10.584  12.692  68.338  1.00  0.00    -0.238 N  
HETATM   26  O   UNL     1      -9.087  12.352  66.634  1.00  0.00    -0.212 OA 
HETATM   27  C   UNL     1      -9.901  11.896  67.426  1.00  0.00    -0.183 C  
HETATM   28  H   UNL     1     -11.511  12.338  68.571  1.00  0.00     0.000 HD 
BRANCH  27  29
HETATM   29  C   UNL     1     -10.334  10.360  67.469  1.00  0.00    -0.268 C  
HETATM   30  C   UNL     1     -10.022   9.495  66.213  1.00  0.00    -0.274 C  
HETATM   31  N   UNL     1      -9.683   8.068  66.467  1.00  0.00    -0.233 NA 
HETATM   32  C   UNL     1     -10.780   7.208  66.904  1.00  0.00    -0.293 C  
HETATM   33  C   UNL     1      -8.463   7.923  67.299  1.00  0.00    -0.121 C  
HETATM   34  C   UNL     1      -7.225   7.867  66.331  1.00  0.00    -0.082 C  
HETATM   35  C   UNL     1      -6.685   9.222  66.081  1.00  0.00    -0.074 A  
HETATM   36  C   UNL     1      -6.117   9.875  65.003  1.00  0.00    -0.100 A  
HETATM   37  N   UNL     1      -5.839  11.156  65.388  1.00  0.00    -0.457 NA 
HETATM   38  H   UNL     1      -5.485  11.886  64.770  1.00  0.00     0.000 HD 
HETATM   39  C   UNL     1      -6.104  11.320  66.728  1.00  0.00    -0.131 A  
HETATM   40  C   UNL     1      -5.937  12.382  67.611  1.00  0.00    -0.128 A  
HETATM   41  C   UNL     1      -6.362  12.163  68.935  1.00  0.00    -0.083 A  
HETATM   42  C   UNL     1      -7.067  11.009  69.308  1.00  0.00    -0.123 A  
HETATM   43  C   UNL     1      -7.348  10.024  68.363  1.00  0.00    -0.077 A  
HETATM   44  C   UNL     1      -6.722  10.154  67.123  1.00  0.00    -0.074 A  
HETATM   45  C   UNL     1      -8.403   8.952  68.518  1.00  0.00    -0.125 C  
HETATM   46  C   UNL     1      -9.794   9.629  68.729  1.00  0.00    -0.173 C  
ENDBRANCH  27  29
ENDBRANCH  13  25
TORSDOF 4
ENDMDL
MODEL       95
REMARK 921   NORMALIZED FREE ENERGY PREDICTED BY IDOCK:   -4.78 KCAL/MOL
REMARK 922        TOTAL FREE ENERGY PREDICTED BY IDOCK:   -7.14 KCAL/MOL
REMARK 923 INTER-LIGAND FREE ENERGY PREDICTED BY IDOCK:   -5.58 KCAL/MOL
REMARK 924 INTRA-LIGAND FREE ENERGY PREDICTED BY IDOCK:   -1.56 KCAL/MOL
REMARK 927      BINDING AFFINITY PREDICTED BY RF-SCORE:    0.00 PKD
ROOT
HETATM    1  C   UNL     1      -8.427   9.266  64.125  1.00  0.00    -0.192 C  
HETATM    2  C   UNL     1      -8.876   8.834  62.728  1.00  0.00     0.036 C  
HETATM    3  C   UNL     1      -7.880   7.688  62.387  1.00  0.00    -0.129 C  
HETATM    4  C   UNL     1      -6.786   7.740  63.460  1.00  0.00    -0.063 C  
HETATM    5  N   UNL     1      -7.024   8.973  64.183  1.00  0.00    -0.093 N  
HETATM    6  C   UNL     1      -6.372   9.145  65.388  1.00  0.00    -0.064 C  
HETATM    7  O   UNL     1      -5.165   8.952  65.518  1.00  0.00    -0.036 OA 
HETATM    8  C   UNL     1      -7.260   9.739  66.532  1.00  0.00    -0.094 C  
HETATM    9  O   UNL     1      -8.788  11.733  65.603  1.00  0.00    -0.050 OA 
HETATM   10  N   UNL     1      -8.788   9.718  66.287  1.00  0.00    -0.144 N  
HETATM   11  C   UNL     1      -9.613  10.538  67.010  1.00  0.00    -0.173 C  
HETATM   12  H   UNL     1     -10.788  11.071  65.213  1.00  0.00     0.000 HD 
HETATM   13  C   UNL     1      -8.776  11.826  67.204  1.00  0.00    -0.169 C  
HETATM   14  O   UNL     1     -10.797  10.267  67.196  1.00  0.00    -0.262 OA 
HETATM   15  O   UNL     1     -10.415  10.407  64.645  1.00  0.00    -0.259 OA 
HETATM   16  C   UNL     1      -9.606  11.752  68.594  1.00  0.00    -0.122 C  
HETATM   17  C   UNL     1      -9.054  10.383  65.081  1.00  0.00    -0.198 C  
ENDROOT
BRANCH   8  18
HETATM   18  C   UNL     1      -6.872   9.194  67.915  1.00  0.00    -0.069 C  
BRANCH  18  19
HETATM   19  C   UNL     1      -7.365   7.783  68.026  1.00  0.00    -0.102 A  
HETATM   20  C   UNL     1      -8.926   6.287  69.097  1.00  0.00    -0.127 A  
HETATM   21  C   UNL     1      -8.025   5.239  68.931  1.00  0.00    -0.086 A  
HETATM   22  C   UNL     1      -6.494   6.716  67.792  1.00  0.00    -0.053 A  
HETATM   23  C   UNL     1      -6.822   5.448  68.252  1.00  0.00    -0.060 A  
HETATM   24  C   UNL     1      -8.613   7.550  68.618  1.00  0.00    -0.129 A  
ENDBRANCH  18  19
ENDBRANCH   8  18
BRANCH  13  25
HETATM   25  N   UNL     1      -8.048  13.057  67.565  1.00  0.00    -0.168 N  
HETATM   26  O   UNL     1      -8.298  14.595  65.882  1.00  0.00     0.872 OA 
HETATM   27  C   UNL     1      -8.061  14.351  67.057  1.00  0.00    -0.065 C  
HETATM   28  H   UNL     1      -7.405  12.934  68.346  1.00  0.00     0.000 HD 
BRANCH  27  29
HETATM   29  C   UNL     1      -7.670  15.464  68.134  1.00  0.00    -0.126 C  
HETATM   30  C   UNL     1      -7.449  16.914  67.613  1.00  0.00    -0.160 C  
HETATM   31  N   UNL     1      -7.852  18.010  68.537  1.00  0.00    -0.297 NA 
HETATM   32  C   UNL     1      -7.014  18.205  69.717  1.00  0.00     0.288 C  
HETATM   33  C   UNL     1      -9.302  17.972  68.852  1.00  0.00    -0.157 C  
HETATM   34  C   UNL     1     -10.051  18.837  67.773  1.00  0.00    -0.417 C  
HETATM   35  C   UNL     1     -10.455  18.008  66.616  1.00  0.00    -0.332 A  
HETATM   36  C   UNL     1     -10.551  18.198  65.250  1.00  0.00     0.401 A  
HETATM   37  N   UNL     1     -10.969  17.024  64.691  1.00  0.00    -0.964 NA 
HETATM   38  H   UNL     1     -11.053  16.853  63.688  1.00  0.00     0.000 HD 
HETATM   39  C   UNL     1     -11.261  16.105  65.673  1.00  0.00     0.107 A  
HETATM   40  C   UNL     1     -11.773  14.812  65.648  1.00  0.00    -0.257 A  
HETATM   41  C   UNL     1     -11.910  14.173  66.894  1.00  0.00    -0.458 A  
HETATM   42  C   UNL     1     -11.403  14.733  68.076  1.00  0.00    -0.332 A  
HETATM   43  C   UNL     1     -10.763  15.970  68.046  1.00  0.00    -0.309 A  
HETATM   44  C   UNL     1     -10.843  16.685  66.851  1.00  0.00    -0.060 A  
HETATM   45  C   UNL     1      -9.849  16.499  69.129  1.00  0.00    -0.254 C  
HETATM   46  C   UNL     1      -8.662  15.504  69.328  1.00  0.00    -0.260 C  
ENDBRANCH  27  29
ENDBRANCH  13  25
TORSDOF 4
ENDMDL
MODEL       96
REMARK 921   NORMALIZED FREE ENERGY PREDICTED BY IDOCK:   -4.72 KCAL/MOL
REMARK 922        TOTAL FREE ENERGY PREDICTED BY IDOCK:   -7.06 KCAL/MOL
REMARK 923 INTER-LIGAND FREE ENERGY PREDICTED BY IDOCK:   -4.94 KCAL/MOL
REMARK 924 INTRA-LIGAND FREE ENERGY PREDICTED BY IDOCK:   -2.12 KCAL/MOL
REMARK 927      BINDING AFFINITY PREDICTED BY RF-SCORE:    0.00 PKD
ROOT
HETATM    1  C   UNL     1      -8.376   6.716  66.242  1.00  0.00    -0.125 C  
HETATM    2  C   UNL     1      -8.583   5.600  65.216  1.00  0.00    -0.141 C  
HETATM    3  C   UNL     1      -7.160   5.424  64.610  1.00  0.00    -0.054 C  
HETATM    4  C   UNL     1      -6.332   6.612  65.113  1.00  0.00    -0.042 C  
HETATM    5  N   UNL     1      -7.290   7.504  65.736  1.00  0.00    -0.069 N  
HETATM    6  C   UNL     1      -6.796   8.520  66.531  1.00  0.00    -0.071 C  
HETATM    7  O   UNL     1      -5.892   9.265  66.161  1.00  0.00    -0.055 OA 
HETATM    8  C   UNL     1      -7.573   8.735  67.872  1.00  0.00    -0.097 C  
HETATM    9  O   UNL     1     -10.216   8.589  67.468  1.00  0.00    -0.206 OA 
HETATM   10  N   UNL     1      -8.528   7.593  68.295  1.00  0.00    -0.125 N  
HETATM   11  C   UNL     1      -9.522   7.828  69.208  1.00  0.00    -0.155 C  
HETATM   12  H   UNL     1     -10.990   6.671  68.025  1.00  0.00     0.000 HD 
HETATM   13  C   UNL     1      -9.973   9.276  68.897  1.00  0.00    -0.181 C  
HETATM   14  O   UNL     1      -9.994   6.929  69.901  1.00  0.00    -0.174 OA 
HETATM   15  O   UNL     1     -10.361   6.287  67.426  1.00  0.00    -0.157 OA 
HETATM   16  C   UNL     1     -10.151   9.207  70.506  1.00  0.00    -0.288 C  
HETATM   17  C   UNL     1      -9.435   7.362  67.250  1.00  0.00    -0.146 C  
ENDROOT
BRANCH   8  18
HETATM   18  C   UNL     1      -6.650   9.191  69.013  1.00  0.00    -0.047 C  
BRANCH  18  19
HETATM   19  C   UNL     1      -6.446   8.040  69.950  1.00  0.00    -0.036 A  
HETATM   20  C   UNL     1      -6.268   7.339  72.253  1.00  0.00    -0.043 A  
HETATM   21  C   UNL     1      -5.447   6.286  71.861  1.00  0.00    -0.027 A  
HETATM   22  C   UNL     1      -5.684   6.939  69.551  1.00  0.00    -0.015 A  
HETATM   23  C   UNL     1      -5.180   6.068  70.508  1.00  0.00    -0.013 A  
HETATM   24  C   UNL     1      -6.794   8.197  71.298  1.00  0.00    -0.054 A  
ENDBRANCH  18  19
ENDBRANCH   8  18
BRANCH  13  25
HETATM   25  N   UNL     1     -10.415  10.679  68.788  1.00  0.00    -0.182 N  
HETATM   26  O   UNL     1     -12.661  10.724  68.328  1.00  0.00     0.294 OA 
HETATM   27  C   UNL     1     -11.667  11.282  68.772  1.00  0.00    -0.338 C  
HETATM   28  H   UNL     1      -9.644  11.342  68.709  1.00  0.00     0.000 HD 
BRANCH  27  29
HETATM   29  C   UNL     1     -11.660  12.783  69.319  1.00  0.00    -0.372 C  
HETATM   30  C   UNL     1     -10.287  13.383  69.738  1.00  0.00     0.967 C  
HETATM   31  N   UNL     1     -10.107  14.841  69.496  1.00  0.00    -0.112 NA 
HETATM   32  C   UNL     1     -10.870  15.740  70.358  1.00  0.00    -0.329 C  
HETATM   33  C   UNL     1     -10.211  15.186  68.057  1.00  0.00    -0.230 C  
HETATM   34  C   UNL     1      -8.772  15.079  67.432  1.00  0.00    -0.208 C  
HETATM   35  C   UNL     1      -8.520  13.717  66.911  1.00  0.00    -0.081 A  
HETATM   36  C   UNL     1      -7.426  12.876  66.837  1.00  0.00     0.267 A  
HETATM   37  N   UNL     1      -7.834  11.708  66.257  1.00  0.00    -0.379 NA 
HETATM   38  H   UNL     1      -7.252  10.877  66.146  1.00  0.00     0.000 HD 
HETATM   39  C   UNL     1      -9.143  11.812  65.843  1.00  0.00    -0.124 A  
HETATM   40  C   UNL     1      -9.997  10.956  65.155  1.00  0.00    -0.341 A  
HETATM   41  C   UNL     1     -11.304  11.427  64.936  1.00  0.00    -0.109 A  
HETATM   42  C   UNL     1     -11.775  12.612  65.520  1.00  0.00    -0.446 A  
HETATM   43  C   UNL     1     -10.936  13.377  66.327  1.00  0.00    -0.296 A  
HETATM   44  C   UNL     1      -9.588  13.016  66.343  1.00  0.00    -0.258 A  
HETATM   45  C   UNL     1     -11.401  14.428  67.310  1.00  0.00    -0.357 C  
HETATM   46  C   UNL     1     -12.364  13.769  68.347  1.00  0.00     0.016 C  
ENDBRANCH  27  29
ENDBRANCH  13  25
TORSDOF 4
ENDMDL
MODEL       97
REMARK 921   NORMALIZED FREE ENERGY PREDICTED BY IDOCK:   -4.59 KCAL/MOL
REMARK 922        TOTAL FREE ENERGY PREDICTED BY IDOCK:   -6.90 KCAL/MOL
REMARK 923 INTER-LIGAND FREE ENERGY PREDICTED BY IDOCK:   -5.68 KCAL/MOL
REMARK 924 INTRA-LIGAND FREE ENERGY PREDICTED BY IDOCK:   -1.22 KCAL/MOL
REMARK 927      BINDING AFFINITY PREDICTED BY RF-SCORE:    0.00 PKD
ROOT
HETATM    1  C   UNL     1     -10.607   5.432  72.847  1.00  0.00    -0.229 C  
HETATM    2  C   UNL     1     -11.477   4.310  73.416  1.00  0.00    -0.267 C  
HETATM    3  C   UNL     1     -10.589   3.733  74.556  1.00  0.00    -0.199 C  
HETATM    4  C   UNL     1      -9.201   4.357  74.375  1.00  0.00    -0.105 C  
HETATM    5  N   UNL     1      -9.252   5.025  73.089  1.00  0.00    -0.122 N  
HETATM    6  C   UNL     1      -8.241   5.916  72.790  1.00  0.00    -0.118 C  
HETATM    7  O   UNL     1      -7.053   5.637  72.933  1.00  0.00    -0.085 OA 
HETATM    8  C   UNL     1      -8.721   7.248  72.124  1.00  0.00    -0.120 C  
HETATM    9  O   UNL     1     -10.590   6.758  70.270  1.00  0.00    -0.201 OA 
HETATM   10  N   UNL     1     -10.236   7.546  72.215  1.00  0.00    -0.197 N  
HETATM   11  C   UNL     1     -10.814   8.447  71.359  1.00  0.00    -0.244 C  
HETATM   12  H   UNL     1     -12.560   7.130  71.026  1.00  0.00     0.000 HD 
HETATM   13  C   UNL     1     -10.040   8.247  70.034  1.00  0.00    -0.196 C  
HETATM   14  O   UNL     1     -11.846   9.049  71.650  1.00  0.00    -0.312 OA 
HETATM   15  O   UNL     1     -12.364   6.519  71.727  1.00  0.00    -0.347 OA 
HETATM   16  C   UNL     1     -10.342   9.838  70.009  1.00  0.00    -0.307 C  
HETATM   17  C   UNL     1     -10.937   6.460  71.669  1.00  0.00    -0.257 C  
ENDROOT
BRANCH   8  18
HETATM   18  C   UNL     1      -7.853   8.449  72.531  1.00  0.00    -0.153 C  
BRANCH  18  19
HETATM   19  C   UNL     1      -6.711   8.562  71.567  1.00  0.00    -0.073 A  
HETATM   20  C   UNL     1      -5.456  10.020  70.111  1.00  0.00    -0.044 A  
HETATM   21  C   UNL     1      -5.145   8.931  69.302  1.00  0.00    -0.036 A  
HETATM   22  C   UNL     1      -6.335   7.459  70.797  1.00  0.00    -0.039 A  
HETATM   23  C   UNL     1      -5.558   7.647  69.661  1.00  0.00    -0.023 A  
HETATM   24  C   UNL     1      -6.212   9.833  71.259  1.00  0.00     0.031 A  
ENDBRANCH  18  19
ENDBRANCH   8  18
BRANCH  13  25
HETATM   25  N   UNL     1      -9.308   8.244  68.753  1.00  0.00    -0.144 N  
HETATM   26  O   UNL     1     -10.777   7.782  67.053  1.00  0.00    -0.347 OA 
HETATM   27  C   UNL     1      -9.718   8.270  67.425  1.00  0.00    -0.174 C  
HETATM   28  H   UNL     1      -8.295   8.217  68.865  1.00  0.00     0.000 HD 
BRANCH  27  29
HETATM   29  C   UNL     1      -8.648   8.930  66.440  1.00  0.00    -0.136 C  
HETATM   30  C   UNL     1      -7.152   8.860  66.863  1.00  0.00    -0.082 C  
HETATM   31  N   UNL     1      -6.164   8.724  65.756  1.00  0.00    -0.055 NA 
HETATM   32  C   UNL     1      -5.970   9.900  64.912  1.00  0.00    -0.097 C  
HETATM   33  C   UNL     1      -6.363   7.476  64.979  1.00  0.00    -0.038 C  
HETATM   34  C   UNL     1      -5.504   6.346  65.656  1.00  0.00    -0.017 C  
HETATM   35  C   UNL     1      -6.288   5.628  66.685  1.00  0.00    -0.039 A  
HETATM   36  C   UNL     1      -6.016   5.058  67.914  1.00  0.00    -0.022 A  
HETATM   37  N   UNL     1      -7.185   4.554  68.411  1.00  0.00    -0.060 NA 
HETATM   38  H   UNL     1      -7.295   4.145  69.339  1.00  0.00     0.000 HD 
HETATM   39  C   UNL     1      -8.192   4.679  67.481  1.00  0.00    -0.101 A  
HETATM   40  C   UNL     1      -9.524   4.278  67.458  1.00  0.00    -0.216 A  
HETATM   41  C   UNL     1     -10.255   4.619  66.305  1.00  0.00    -0.306 A  
HETATM   42  C   UNL     1      -9.729   5.460  65.313  1.00  0.00     0.254 A  
HETATM   43  C   UNL     1      -8.437   5.967  65.437  1.00  0.00    -0.153 A  
HETATM   44  C   UNL     1      -7.655   5.434  66.462  1.00  0.00    -0.088 A  
HETATM   45  C   UNL     1      -7.898   7.158  64.677  1.00  0.00    -0.123 C  
HETATM   46  C   UNL     1      -8.785   8.406  64.984  1.00  0.00    -0.092 C  
ENDBRANCH  27  29
ENDBRANCH  13  25
TORSDOF 4
ENDMDL
MODEL       98
REMARK 921   NORMALIZED FREE ENERGY PREDICTED BY IDOCK:   -4.51 KCAL/MOL
REMARK 922        TOTAL FREE ENERGY PREDICTED BY IDOCK:   -6.81 KCAL/MOL
REMARK 923 INTER-LIGAND FREE ENERGY PREDICTED BY IDOCK:   -4.94 KCAL/MOL
REMARK 924 INTRA-LIGAND FREE ENERGY PREDICTED BY IDOCK:   -1.86 KCAL/MOL
REMARK 927      BINDING AFFINITY PREDICTED BY RF-SCORE:    0.00 PKD
ROOT
HETATM    1  C   UNL     1      -9.123   6.125  66.853  1.00  0.00    -0.127 C  
HETATM    2  C   UNL     1     -10.179   5.229  66.206  1.00  0.00    -0.263 C  
HETATM    3  C   UNL     1      -9.329   4.062  65.624  1.00  0.00    -0.160 C  
HETATM    4  C   UNL     1      -7.866   4.507  65.727  1.00  0.00    -0.095 C  
HETATM    5  N   UNL     1      -7.922   5.907  66.099  1.00  0.00    -0.104 N  
HETATM    6  C   UNL     1      -6.756   6.498  66.544  1.00  0.00    -0.056 C  
HETATM    7  O   UNL     1      -5.692   6.393  65.940  1.00  0.00    -0.020 OA 
HETATM    8  C   UNL     1      -6.930   7.425  67.793  1.00  0.00    -0.076 C  
HETATM    9  O   UNL     1      -9.126   8.938  67.549  1.00  0.00    -0.132 OA 
HETATM   10  N   UNL     1      -8.263   7.281  68.566  1.00  0.00    -0.124 N  
HETATM   11  C   UNL     1      -8.683   8.277  69.407  1.00  0.00    -0.142 C  
HETATM   12  H   UNL     1     -10.763   8.131  68.670  1.00  0.00     0.000 HD 
HETATM   13  C   UNL     1      -8.215   9.575  68.706  1.00  0.00    -0.112 C  
HETATM   14  O   UNL     1      -9.441   8.055  70.350  1.00  0.00    -0.165 OA 
HETATM   15  O   UNL     1     -10.645   7.322  68.185  1.00  0.00    -0.203 OA 
HETATM   16  C   UNL     1      -8.047   9.960  70.271  1.00  0.00    -0.115 C  
HETATM   17  C   UNL     1      -9.322   7.485  67.669  1.00  0.00    -0.137 C  
ENDROOT
BRANCH   8  18
HETATM   18  C   UNL     1      -5.702   7.397  68.716  1.00  0.00    -0.023 C  
BRANCH  18  19
HETATM   19  C   UNL     1      -5.897   6.317  69.736  1.00  0.00    -0.018 A  
HETATM   20  C   UNL     1      -5.728   5.709  72.066  1.00  0.00    -0.022 A  
HETATM   21  C   UNL     1      -5.518   4.383  71.696  1.00  0.00    -0.004 A  
HETATM   22  C   UNL     1      -5.763   4.975  69.370  1.00  0.00    -0.016 A  
HETATM   23  C   UNL     1      -5.566   4.012  70.351  1.00  0.00    -0.013 A  
HETATM   24  C   UNL     1      -5.949   6.670  71.091  1.00  0.00    -0.035 A  
ENDBRANCH  18  19
ENDBRANCH   8  18
BRANCH  13  25
HETATM   25  N   UNL     1      -7.724  10.874  68.209  1.00  0.00    -0.105 N  
HETATM   26  O   UNL     1      -8.829  11.402  66.271  1.00  0.00    -0.191 OA 
HETATM   27  C   UNL     1      -8.195  11.765  67.252  1.00  0.00    -0.163 C  
HETATM   28  H   UNL     1      -6.862  11.181  68.661  1.00  0.00     0.000 HD 
BRANCH  27  29
HETATM   29  C   UNL     1      -7.767  13.280  67.524  1.00  0.00    -0.175 C  
HETATM   30  C   UNL     1      -8.231  14.348  66.491  1.00  0.00     0.479 C  
HETATM   31  N   UNL     1      -8.545  15.696  67.039  1.00  0.00    -0.204 NA 
HETATM   32  C   UNL     1      -7.409  16.492  67.495  1.00  0.00    -0.142 C  
HETATM   33  C   UNL     1      -9.658  15.656  68.020  1.00  0.00    -0.203 C  
HETATM   34  C   UNL     1     -11.003  15.852  67.228  1.00  0.00    -0.234 C  
HETATM   35  C   UNL     1     -11.561  14.551  66.799  1.00  0.00    -0.388 A  
HETATM   36  C   UNL     1     -12.250  14.088  65.694  1.00  0.00    -0.442 A  
HETATM   37  N   UNL     1     -12.474  12.751  65.868  1.00  0.00    -0.534 NA 
HETATM   38  H   UNL     1     -12.896  12.135  65.173  1.00  0.00     0.000 HD 
HETATM   39  C   UNL     1     -12.050  12.356  67.117  1.00  0.00    -0.002 A  
HETATM   40  C   UNL     1     -12.105  11.147  67.804  1.00  0.00     0.347 A  
HETATM   41  C   UNL     1     -11.528  11.136  69.087  1.00  0.00    -0.366 A  
HETATM   42  C   UNL     1     -10.789  12.222  69.580  1.00  0.00     0.089 A  
HETATM   43  C   UNL     1     -10.628  13.368  68.804  1.00  0.00    -0.230 A  
HETATM   44  C   UNL     1     -11.396  13.447  67.643  1.00  0.00    -0.321 A  
HETATM   45  C   UNL     1      -9.567  14.423  69.029  1.00  0.00    -0.059 C  
HETATM   46  C   UNL     1      -8.157  13.756  68.950  1.00  0.00     0.059 C  
ENDBRANCH  27  29
ENDBRANCH  13  25
TORSDOF 4
ENDMDL
MODEL       99
REMARK 921   NORMALIZED FREE ENERGY PREDICTED BY IDOCK:   -4.50 KCAL/MOL
REMARK 922        TOTAL FREE ENERGY PREDICTED BY IDOCK:   -6.79 KCAL/MOL
REMARK 923 INTER-LIGAND FREE ENERGY PREDICTED BY IDOCK:   -5.00 KCAL/MOL
REMARK 924 INTRA-LIGAND FREE ENERGY PREDICTED BY IDOCK:   -1.79 KCAL/MOL
REMARK 927      BINDING AFFINITY PREDICTED BY RF-SCORE:    0.00 PKD
ROOT
HETATM    1  C   UNL     1      -8.756   6.493  69.872  1.00  0.00    -0.140 C  
HETATM    2  C   UNL     1      -8.457   5.380  70.877  1.00  0.00    -0.119 C  
HETATM    3  C   UNL     1      -9.052   4.121  70.183  1.00  0.00    -0.181 C  
HETATM    4  C   UNL     1      -9.879   4.637  69.000  1.00  0.00    -0.154 C  
HETATM    5  N   UNL     1      -9.941   6.074  69.180  1.00  0.00    -0.153 N  
HETATM    6  C   UNL     1     -10.376   6.835  68.113  1.00  0.00    -0.188 C  
HETATM    7  O   UNL     1     -11.400   6.569  67.488  1.00  0.00    -0.284 OA 
HETATM    8  C   UNL     1      -9.544   8.136  67.857  1.00  0.00    -0.155 C  
HETATM    9  O   UNL     1      -8.980   9.367  70.168  1.00  0.00    -0.189 OA 
HETATM   10  N   UNL     1      -8.173   8.217  68.570  1.00  0.00    -0.129 N  
HETATM   11  C   UNL     1      -7.554   9.427  68.737  1.00  0.00    -0.079 C  
HETATM   12  H   UNL     1      -6.984   8.938  70.817  1.00  0.00     0.000 HD 
HETATM   13  C   UNL     1      -8.724  10.411  68.977  1.00  0.00    -0.168 C  
HETATM   14  O   UNL     1      -6.334   9.521  68.864  1.00  0.00    -0.043 OA 
HETATM   15  O   UNL     1      -7.210   8.017  70.772  1.00  0.00    -0.051 OA 
HETATM   16  C   UNL     1      -7.674  11.333  68.157  1.00  0.00    -0.112 C  
HETATM   17  C   UNL     1      -8.376   8.044  69.947  1.00  0.00    -0.121 C  
ENDROOT
BRANCH   8  18
HETATM   18  C   UNL     1      -9.460   8.490  66.365  1.00  0.00    -0.297 C  
BRANCH  18  19
HETATM   19  C   UNL     1      -8.322   7.729  65.757  1.00  0.00    -0.140 A  
HETATM   20  C   UNL     1      -6.451   7.800  64.234  1.00  0.00    -0.056 A  
HETATM   21  C   UNL     1      -6.597   6.435  64.003  1.00  0.00    -0.033 A  
HETATM   22  C   UNL     1      -8.419   6.346  65.582  1.00  0.00    -0.147 A  
HETATM   23  C   UNL     1      -7.561   5.703  64.699  1.00  0.00    -0.085 A  
HETATM   24  C   UNL     1      -7.290   8.442  65.133  1.00  0.00    -0.081 A  
ENDBRANCH  18  19
ENDBRANCH   8  18
BRANCH  13  25
HETATM   25  N   UNL     1      -9.744  11.470  69.098  1.00  0.00    -0.412 N  
HETATM   26  O   UNL     1     -11.102  11.417  67.251  1.00  0.00    -0.270 OA 
HETATM   27  C   UNL     1     -10.931  11.728  68.422  1.00  0.00    -0.231 C  
HETATM   28  H   UNL     1      -9.535  12.153  69.827  1.00  0.00     0.000 HD 
BRANCH  27  29
HETATM   29  C   UNL     1     -12.004  12.523  69.297  1.00  0.00    -0.304 C  
HETATM   30  C   UNL     1     -11.488  13.248  70.573  1.00  0.00     0.401 C  
HETATM   31  N   UNL     1     -12.173  14.523  70.925  1.00  0.00    -0.316 NA 
HETATM   32  C   UNL     1     -13.539  14.407  71.428  1.00  0.00    -0.360 C  
HETATM   33  C   UNL     1     -12.028  15.547  69.862  1.00  0.00    -0.362 C  
HETATM   34  C   UNL     1     -10.719  16.367  70.160  1.00  0.00    -0.209 C  
HETATM   35  C   UNL     1      -9.548  15.757  69.493  1.00  0.00    -0.262 A  
HETATM   36  C   UNL     1      -8.210  15.596  69.800  1.00  0.00     0.059 A  
HETATM   37  N   UNL     1      -7.623  14.911  68.774  1.00  0.00    -0.127 NA 
HETATM   38  H   UNL     1      -6.656  14.585  68.768  1.00  0.00     0.000 HD 
HETATM   39  C   UNL     1      -8.523  14.725  67.749  1.00  0.00    -0.164 A  
HETATM   40  C   UNL     1      -8.422  14.160  66.481  1.00  0.00     0.251 A  
HETATM   41  C   UNL     1      -9.602  14.134  65.717  1.00  0.00    -0.165 A  
HETATM   42  C   UNL     1     -10.846  14.495  66.256  1.00  0.00    -0.317 A  
HETATM   43  C   UNL     1     -10.938  14.920  67.580  1.00  0.00    -0.300 A  
HETATM   44  C   UNL     1      -9.734  15.158  68.243  1.00  0.00    -0.219 A  
HETATM   45  C   UNL     1     -12.215  14.961  68.390  1.00  0.00    -0.053 C  
HETATM   46  C   UNL     1     -12.830  13.527  68.447  1.00  0.00     1.463 C  
ENDBRANCH  27  29
ENDBRANCH  13  25
TORSDOF 4
ENDMDL
MODEL      100
REMARK 921   NORMALIZED FREE ENERGY PREDICTED BY IDOCK:   -4.44 KCAL/MOL
REMARK 922        TOTAL FREE ENERGY PREDICTED BY IDOCK:   -6.71 KCAL/MOL
REMARK 923 INTER-LIGAND FREE ENERGY PREDICTED BY IDOCK:   -5.80 KCAL/MOL
REMARK 924 INTRA-LIGAND FREE ENERGY PREDICTED BY IDOCK:   -0.91 KCAL/MOL
REMARK 927      BINDING AFFINITY PREDICTED BY RF-SCORE:    0.00 PKD
ROOT
HETATM    1  C   UNL     1      -8.098   6.705  70.874  1.00  0.00    -0.119 C  
HETATM    2  C   UNL     1      -7.560   5.881  72.045  1.00  0.00    -0.097 C  
HETATM    3  C   UNL     1      -8.847   5.222  72.620  1.00  0.00    -0.123 C  
HETATM    4  C   UNL     1     -10.027   5.921  71.937  1.00  0.00    -0.171 C  
HETATM    5  N   UNL     1      -9.444   7.046  71.234  1.00  0.00    -0.164 N  
HETATM    6  C   UNL     1     -10.227   7.690  70.295  1.00  0.00    -0.205 C  
HETATM    7  O   UNL     1     -11.377   8.050  70.531  1.00  0.00    -0.269 OA 
HETATM    8  C   UNL     1      -9.485   8.048  68.964  1.00  0.00    -0.151 C  
HETATM    9  O   UNL     1      -7.038   9.010  69.474  1.00  0.00    -0.056 OA 
HETATM   10  N   UNL     1      -8.129   7.341  68.729  1.00  0.00    -0.123 N  
HETATM   11  C   UNL     1      -7.232   7.852  67.828  1.00  0.00    -0.091 C  
HETATM   12  H   UNL     1      -5.534   7.509  69.203  1.00  0.00     0.000 HD 
HETATM   13  C   UNL     1      -7.409   9.384  67.958  1.00  0.00    -0.079 C  
HETATM   14  O   UNL     1      -6.391   7.144  67.276  1.00  0.00    -0.045 OA 
HETATM   15  O   UNL     1      -6.012   6.974  69.826  1.00  0.00    -0.023 OA 
HETATM   16  C   UNL     1      -7.084   9.217  66.380  1.00  0.00    -0.084 C  
HETATM   17  C   UNL     1      -7.294   7.604  69.826  1.00  0.00    -0.081 C  
ENDROOT
BRANCH   8  18
HETATM   18  C   UNL     1     -10.413   7.974  67.742  1.00  0.00    -0.280 C  
BRANCH  18  19
HETATM   19  C   UNL     1     -10.301   6.606  67.140  1.00  0.00    -0.319 A  
HETATM   20  C   UNL     1     -10.067   4.243  67.568  1.00  0.00    -0.011 A  
HETATM   21  C   UNL     1      -9.419   4.093  66.346  1.00  0.00    -0.199 A  
HETATM   22  C   UNL     1      -9.718   6.441  65.881  1.00  0.00     0.201 A  
HETATM   23  C   UNL     1      -9.271   5.186  65.489  1.00  0.00    -0.144 A  
HETATM   24  C   UNL     1     -10.537   5.490  67.953  1.00  0.00    -0.219 A  
ENDBRANCH  18  19
ENDBRANCH   8  18
BRANCH  13  25
HETATM   25  N   UNL     1      -7.560  10.850  67.895  1.00  0.00    -0.093 N  
HETATM   26  O   UNL     1      -9.089  11.514  69.470  1.00  0.00     0.485 OA 
HETATM   27  C   UNL     1      -8.139  11.783  68.748  1.00  0.00    -0.047 C  
HETATM   28  H   UNL     1      -7.158  11.263  67.054  1.00  0.00     0.000 HD 
BRANCH  27  29
HETATM   29  C   UNL     1      -7.491  13.238  68.635  1.00  0.00    -0.099 C  
HETATM   30  C   UNL     1      -7.099  13.736  67.214  1.00  0.00     0.077 C  
HETATM   31  N   UNL     1      -7.249  15.198  66.967  1.00  0.00    -0.163 NA 
HETATM   32  C   UNL     1      -6.291  16.071  67.641  1.00  0.00    -0.162 C  
HETATM   33  C   UNL     1      -8.654  15.649  67.118  1.00  0.00    -0.210 C  
HETATM   34  C   UNL     1      -9.355  15.514  65.716  1.00  0.00    -0.292 C  
HETATM   35  C   UNL     1      -9.980  14.182  65.561  1.00  0.00    -0.323 A  
HETATM   36  C   UNL     1     -10.165  13.293  64.519  1.00  0.00    -0.310 A  
HETATM   37  N   UNL     1     -10.803  12.192  65.015  1.00  0.00    -0.290 NA 
HETATM   38  H   UNL     1     -10.999  11.343  64.484  1.00  0.00     0.000 HD 
HETATM   39  C   UNL     1     -11.144  12.391  66.334  1.00  0.00    -0.301 A  
HETATM   40  C   UNL     1     -11.847  11.631  67.263  1.00  0.00    -0.133 A  
HETATM   41  C   UNL     1     -11.969  12.182  68.552  1.00  0.00    -0.273 A  
HETATM   42  C   UNL     1     -11.282  13.345  68.931  1.00  0.00    -0.320 A  
HETATM   43  C   UNL     1     -10.467  14.006  68.016  1.00  0.00    -0.241 A  
HETATM   44  C   UNL     1     -10.542  13.578  66.691  1.00  0.00    -0.280 A  
HETATM   45  C   UNL     1      -9.393  15.007  68.379  1.00  0.00    -0.193 C  
HETATM   46  C   UNL     1      -8.357  14.325  69.328  1.00  0.00     0.223 C  
ENDBRANCH  27  29
ENDBRANCH  13  25
TORSDOF 4
ENDMDL
MODEL      101
REMARK 921   NORMALIZED FREE ENERGY PREDICTED BY IDOCK:   -4.41 KCAL/MOL
REMARK 922        TOTAL FREE ENERGY PREDICTED BY IDOCK:   -6.68 KCAL/MOL
REMARK 923 INTER-LIGAND FREE ENERGY PREDICTED BY IDOCK:   -7.04 KCAL/MOL
REMARK 924 INTRA-LIGAND FREE ENERGY PREDICTED BY IDOCK:    0.36 KCAL/MOL
REMARK 927      BINDING AFFINITY PREDICTED BY RF-SCORE:    0.00 PKD
ROOT
HETATM    1  C   UNL     1     -10.030  14.396  66.237  1.00  0.00    -0.306 C  
HETATM    2  C   UNL     1     -10.310  15.210  64.973  1.00  0.00    -0.377 C  
HETATM    3  C   UNL     1     -11.855  15.099  64.829  1.00  0.00    -0.291 C  
HETATM    4  C   UNL     1     -12.301  14.023  65.826  1.00  0.00    -0.480 C  
HETATM    5  N   UNL     1     -11.073  13.413  66.297  1.00  0.00    -0.291 N  
HETATM    6  C   UNL     1     -11.147  12.609  67.418  1.00  0.00    -0.273 C  
HETATM    7  O   UNL     1     -11.986  11.719  67.536  1.00  0.00    -0.607 OA 
HETATM    8  C   UNL     1      -9.994  12.826  68.454  1.00  0.00    -0.210 C  
HETATM    9  O   UNL     1      -7.638  13.078  67.206  1.00  0.00    -0.152 OA 
HETATM   10  N   UNL     1      -9.156  14.115  68.278  1.00  0.00    -0.186 N  
HETATM   11  C   UNL     1      -7.917  14.215  68.854  1.00  0.00    -0.051 C  
HETATM   12  H   UNL     1      -7.058  15.133  67.035  1.00  0.00     0.000 HD 
HETATM   13  C   UNL     1      -7.346  12.780  68.756  1.00  0.00    -0.067 C  
HETATM   14  O   UNL     1      -7.419  15.303  69.137  1.00  0.00    -0.147 OA 
HETATM   15  O   UNL     1      -7.886  15.289  66.597  1.00  0.00    -0.113 OA 
HETATM   16  C   UNL     1      -6.728  13.291  70.163  1.00  0.00     0.374 C  
HETATM   17  C   UNL     1      -8.636  14.133  66.975  1.00  0.00    -0.184 C  
ENDROOT
BRANCH   8  18
HETATM   18  C   UNL     1     -10.464  12.615  69.901  1.00  0.00     1.253 C  
BRANCH  18  19
HETATM   19  C   UNL     1     -11.541  13.613  70.203  1.00  0.00    -0.208 A  
HETATM   20  C   UNL     1     -12.059  15.929  70.642  1.00  0.00    -0.367 A  
HETATM   21  C   UNL     1     -13.155  15.532  71.401  1.00  0.00    -0.580 A  
HETATM   22  C   UNL     1     -12.684  13.219  70.903  1.00  0.00    -0.332 A  
HETATM   23  C   UNL     1     -13.485  14.179  71.506  1.00  0.00    -0.419 A  
HETATM   24  C   UNL     1     -11.270  14.975  70.016  1.00  0.00    -0.301 A  
ENDBRANCH  18  19
ENDBRANCH   8  18
BRANCH  13  25
HETATM   25  N   UNL     1      -6.733  11.441  68.835  1.00  0.00    -0.072 N  
HETATM   26  O   UNL     1      -7.895  10.174  70.354  1.00  0.00    -0.202 OA 
HETATM   27  C   UNL     1      -7.155  10.234  69.381  1.00  0.00    -0.094 C  
HETATM   28  H   UNL     1      -5.812  11.390  68.400  1.00  0.00     0.000 HD 
BRANCH  27  29
HETATM   29  C   UNL     1      -6.527   8.953  68.662  1.00  0.00    -0.054 C  
HETATM   30  C   UNL     1      -5.937   7.841  69.576  1.00  0.00    -0.030 C  
HETATM   31  N   UNL     1      -6.077   6.443  69.082  1.00  0.00    -0.028 NA 
HETATM   32  C   UNL     1      -5.249   6.075  67.936  1.00  0.00    -0.004 C  
HETATM   33  C   UNL     1      -7.497   6.045  68.925  1.00  0.00    -0.086 C  
HETATM   34  C   UNL     1      -7.977   5.429  70.291  1.00  0.00    -0.092 C  
HETATM   35  C   UNL     1      -8.545   6.471  71.173  1.00  0.00    -0.130 A  
HETATM   36  C   UNL     1      -8.553   6.716  72.533  1.00  0.00    -0.124 A  
HETATM   37  N   UNL     1      -9.237   7.880  72.747  1.00  0.00    -0.195 NA 
HETATM   38  H   UNL     1      -9.334   8.342  73.651  1.00  0.00     0.000 HD 
HETATM   39  C   UNL     1      -9.776   8.339  71.566  1.00  0.00    -0.191 A  
HETATM   40  C   UNL     1     -10.595   9.418  71.247  1.00  0.00    -0.400 A  
HETATM   41  C   UNL     1     -10.920   9.570  69.887  1.00  0.00    -0.263 A  
HETATM   42  C   UNL     1     -10.322   8.789  68.888  1.00  0.00    -0.229 A  
HETATM   43  C   UNL     1      -9.391   7.809  69.228  1.00  0.00    -0.148 A  
HETATM   44  C   UNL     1      -9.258   7.522  70.586  1.00  0.00    -0.159 A  
HETATM   45  C   UNL     1      -8.404   7.183  68.268  1.00  0.00    -0.124 C  
HETATM   46  C   UNL     1      -7.509   8.304  67.650  1.00  0.00    -0.094 C  
ENDBRANCH  27  29
ENDBRANCH  13  25
TORSDOF 4
ENDMDL
MODEL      102
REMARK 921   NORMALIZED FREE ENERGY PREDICTED BY IDOCK:   -4.33 KCAL/MOL
REMARK 922        TOTAL FREE ENERGY PREDICTED BY IDOCK:   -6.57 KCAL/MOL
REMARK 923 INTER-LIGAND FREE ENERGY PREDICTED BY IDOCK:   -4.63 KCAL/MOL
REMARK 924 INTRA-LIGAND FREE ENERGY PREDICTED BY IDOCK:   -1.95 KCAL/MOL
REMARK 927      BINDING AFFINITY PREDICTED BY RF-SCORE:    0.00 PKD
ROOT
HETATM    1  C   UNL     1     -10.241  12.377  68.813  1.00  0.00    -0.087 C  
HETATM    2  C   UNL     1     -11.172  13.538  68.463  1.00  0.00    -0.310 C  
HETATM    3  C   UNL     1     -12.376  13.313  69.423  1.00  0.00    -0.086 C  
HETATM    4  C   UNL     1     -12.183  11.919  70.031  1.00  0.00    -0.217 C  
HETATM    5  N   UNL     1     -11.099  11.324  69.274  1.00  0.00    -0.241 N  
HETATM    6  C   UNL     1     -10.514  10.182  69.785  1.00  0.00    -0.263 C  
HETATM    7  O   UNL     1     -11.173   9.219  70.169  1.00  0.00    -0.248 OA 
HETATM    8  C   UNL     1      -8.951  10.157  69.702  1.00  0.00    -0.169 C  
HETATM    9  O   UNL     1      -8.115  11.079  67.331  1.00  0.00    -0.118 OA 
HETATM   10  N   UNL     1      -8.264  11.512  69.408  1.00  0.00     0.312 N  
HETATM   11  C   UNL     1      -6.979  11.546  68.936  1.00  0.00    -0.100 C  
HETATM   12  H   UNL     1      -7.476  13.119  67.464  1.00  0.00     0.000 HD 
HETATM   13  C   UNL     1      -6.891  10.303  68.017  1.00  0.00    -0.070 C  
HETATM   14  O   UNL     1      -6.248  12.519  69.110  1.00  0.00    -0.080 OA 
HETATM   15  O   UNL     1      -8.334  13.324  67.817  1.00  0.00    -0.145 OA 
HETATM   16  C   UNL     1      -5.396  10.367  68.640  1.00  0.00    -0.038 C  
HETATM   17  C   UNL     1      -8.797  12.033  68.220  1.00  0.00    -0.182 C  
ENDROOT
BRANCH   8  18
HETATM   18  C   UNL     1      -8.316   9.414  70.887  1.00  0.00    -0.112 C  
BRANCH  18  19
HETATM   19  C   UNL     1      -8.719   7.972  70.816  1.00  0.00    -0.139 A  
HETATM   20  C   UNL     1      -9.428   6.027  72.057  1.00  0.00    -0.161 A  
HETATM   21  C   UNL     1      -8.847   5.209  71.093  1.00  0.00    -0.150 A  
HETATM   22  C   UNL     1      -8.202   7.150  69.812  1.00  0.00    -0.131 A  
HETATM   23  C   UNL     1      -8.261   5.770  69.956  1.00  0.00    -0.115 A  
HETATM   24  C   UNL     1      -9.394   7.406  71.905  1.00  0.00    -0.157 A  
ENDBRANCH  18  19
ENDBRANCH   8  18
BRANCH  13  25
HETATM   25  N   UNL     1      -6.634   9.094  67.213  1.00  0.00    -0.064 N  
HETATM   26  O   UNL     1      -5.142   9.605  65.548  1.00  0.00    -0.037 OA 
HETATM   27  C   UNL     1      -5.665   8.768  66.271  1.00  0.00    -0.050 C  
HETATM   28  H   UNL     1      -7.303   8.344  67.383  1.00  0.00     0.000 HD 
BRANCH  27  29
HETATM   29  C   UNL     1      -5.362   7.202  66.182  1.00  0.00    -0.024 C  
HETATM   30  C   UNL     1      -6.181   6.264  67.115  1.00  0.00    -0.032 C  
HETATM   31  N   UNL     1      -6.507   4.918  66.567  1.00  0.00    -0.040 NA 
HETATM   32  C   UNL     1      -5.394   3.981  66.443  1.00  0.00    -0.013 C  
HETATM   33  C   UNL     1      -7.339   4.999  65.342  1.00  0.00    -0.072 C  
HETATM   34  C   UNL     1      -8.849   4.997  65.785  1.00  0.00    -0.139 C  
HETATM   35  C   UNL     1      -9.339   6.376  66.002  1.00  0.00    -0.053 A  
HETATM   36  C   UNL     1     -10.216   6.984  66.881  1.00  0.00    -0.248 A  
HETATM   37  N   UNL     1     -10.236   8.320  66.597  1.00  0.00    -0.374 NA 
HETATM   38  H   UNL     1     -10.738   9.024  67.138  1.00  0.00     0.000 HD 
HETATM   39  C   UNL     1      -9.481   8.580  65.475  1.00  0.00     0.121 A  
HETATM   40  C   UNL     1      -9.229   9.735  64.741  1.00  0.00    -0.319 A  
HETATM   41  C   UNL     1      -8.362   9.596  63.642  1.00  0.00    -0.172 A  
HETATM   42  C   UNL     1      -7.657   8.409  63.397  1.00  0.00    -0.129 A  
HETATM   43  C   UNL     1      -7.820   7.311  64.239  1.00  0.00    -0.125 A  
HETATM   44  C   UNL     1      -8.849   7.393  65.177  1.00  0.00     0.221 A  
HETATM   45  C   UNL     1      -6.866   6.141  64.332  1.00  0.00    -0.046 C  
HETATM   46  C   UNL     1      -5.450   6.666  64.727  1.00  0.00    -0.026 C  
ENDBRANCH  27  29
ENDBRANCH  13  25
TORSDOF 4
ENDMDL
MODEL      103
REMARK 921   NORMALIZED FREE ENERGY PREDICTED BY IDOCK:   -4.32 KCAL/MOL
REMARK 922        TOTAL FREE ENERGY PREDICTED BY IDOCK:   -6.56 KCAL/MOL
REMARK 923 INTER-LIGAND FREE ENERGY PREDICTED BY IDOCK:   -7.60 KCAL/MOL
REMARK 924 INTRA-LIGAND FREE ENERGY PREDICTED BY IDOCK:    1.04 KCAL/MOL
REMARK 927      BINDING AFFINITY PREDICTED BY RF-SCORE:    0.00 PKD
ROOT
HETATM    1  C   UNL     1      -8.707  15.020  66.832  1.00  0.00    -0.256 C  
HETATM    2  C   UNL     1      -7.978  16.266  66.328  1.00  0.00    -0.208 C  
HETATM    3  C   UNL     1      -9.125  17.311  66.212  1.00  0.00    -0.245 C  
HETATM    4  C   UNL     1     -10.433  16.529  66.378  1.00  0.00    -0.274 C  
HETATM    5  N   UNL     1     -10.047  15.133  66.333  1.00  0.00    -0.261 N  
HETATM    6  C   UNL     1     -10.976  14.197  66.744  1.00  0.00    -0.300 C  
HETATM    7  O   UNL     1     -12.136  14.198  66.338  1.00  0.00    -0.422 OA 
HETATM    8  C   UNL     1     -10.400  13.059  67.651  1.00  0.00    -0.222 C  
HETATM    9  O   UNL     1      -8.044  12.201  66.708  1.00  0.00    -0.147 OA 
HETATM   10  N   UNL     1      -8.996  13.314  68.251  1.00  0.00    -0.189 N  
HETATM   11  C   UNL     1      -8.246  12.267  68.718  1.00  0.00     0.081 C  
HETATM   12  H   UNL     1      -6.407  13.066  67.785  1.00  0.00     0.000 HD 
HETATM   13  C   UNL     1      -8.586  11.108  67.750  1.00  0.00    -0.131 C  
HETATM   14  O   UNL     1      -7.380  12.420  69.578  1.00  0.00     0.208 OA 
HETATM   15  O   UNL     1      -6.764  13.918  67.565  1.00  0.00    -0.179 OA 
HETATM   16  C   UNL     1      -8.382  10.324  69.153  1.00  0.00    -0.154 C  
HETATM   17  C   UNL     1      -8.106  13.586  67.202  1.00  0.00    -0.082 C  
ENDROOT
BRANCH   8  18
HETATM   18  C   UNL     1     -11.416  12.577  68.697  1.00  0.00    -0.348 C  
BRANCH  18  19
HETATM   19  C   UNL     1     -11.554  13.634  69.751  1.00  0.00    -0.322 A  
HETATM   20  C   UNL     1     -12.955  14.567  71.480  1.00  0.00    -0.406 A  
HETATM   21  C   UNL     1     -12.374  15.814  71.267  1.00  0.00    -0.493 A  
HETATM   22  C   UNL     1     -10.918  14.868  69.591  1.00  0.00    -0.294 A  
HETATM   23  C   UNL     1     -11.335  15.957  70.345  1.00  0.00    -0.399 A  
HETATM   24  C   UNL     1     -12.525  13.471  70.746  1.00  0.00    -0.428 A  
ENDBRANCH  18  19
ENDBRANCH   8  18
BRANCH  13  25
HETATM   25  N   UNL     1      -8.910   9.893  66.979  1.00  0.00    -0.134 N  
HETATM   26  O   UNL     1      -7.209   8.374  67.227  1.00  0.00    -0.081 OA 
HETATM   27  C   UNL     1      -8.382   8.607  66.968  1.00  0.00    -0.106 C  
HETATM   28  H   UNL     1      -9.677  10.022  66.320  1.00  0.00     0.000 HD 
BRANCH  27  29
HETATM   29  C   UNL     1      -9.432   7.490  66.520  1.00  0.00    -0.237 C  
HETATM   30  C   UNL     1      -8.866   6.219  65.822  1.00  0.00    -0.111 C  
HETATM   31  N   UNL     1      -9.587   4.945  66.096  1.00  0.00    -0.161 NA 
HETATM   32  C   UNL     1     -10.909   4.805  65.491  1.00  0.00    -0.038 C  
HETATM   33  C   UNL     1      -9.565   4.589  67.536  1.00  0.00    -0.172 C  
HETATM   34  C   UNL     1      -8.281   3.718  67.797  1.00  0.00    -0.091 C  
HETATM   35  C   UNL     1      -7.129   4.570  68.166  1.00  0.00    -0.057 A  
HETATM   36  C   UNL     1      -5.767   4.545  67.932  1.00  0.00    -0.021 A  
HETATM   37  N   UNL     1      -5.218   5.646  68.526  1.00  0.00    -0.003 NA 
HETATM   38  H   UNL     1      -4.240   5.923  68.450  1.00  0.00     0.000 HD 
HETATM   39  C   UNL     1      -6.176   6.328  69.242  1.00  0.00    -0.033 A  
HETATM   40  C   UNL     1      -6.133   7.451  70.064  1.00  0.00    -0.027 A  
HETATM   41  C   UNL     1      -7.360   7.866  70.612  1.00  0.00    -0.061 A  
HETATM   42  C   UNL     1      -8.580   7.294  70.223  1.00  0.00    -0.142 A  
HETATM   43  C   UNL     1      -8.603   6.264  69.284  1.00  0.00    -0.124 A  
HETATM   44  C   UNL     1      -7.370   5.717  68.931  1.00  0.00    -0.082 A  
HETATM   45  C   UNL     1      -9.822   5.835  68.500  1.00  0.00    -0.177 C  
HETATM   46  C   UNL     1     -10.362   7.052  67.684  1.00  0.00    -0.270 C  
ENDBRANCH  27  29
ENDBRANCH  13  25
TORSDOF 4
ENDMDL
MODEL      104
REMARK 921   NORMALIZED FREE ENERGY PREDICTED BY IDOCK:   -4.31 KCAL/MOL
REMARK 922        TOTAL FREE ENERGY PREDICTED BY IDOCK:   -6.56 KCAL/MOL
REMARK 923 INTER-LIGAND FREE ENERGY PREDICTED BY IDOCK:   -5.25 KCAL/MOL
REMARK 924 INTRA-LIGAND FREE ENERGY PREDICTED BY IDOCK:   -1.31 KCAL/MOL
REMARK 927      BINDING AFFINITY PREDICTED BY RF-SCORE:    0.00 PKD
ROOT
HETATM    1  C   UNL     1     -10.326  12.735  65.884  1.00  0.00    -0.283 C  
HETATM    2  C   UNL     1     -11.103  13.743  65.036  1.00  0.00    -0.348 C  
HETATM    3  C   UNL     1     -10.221  15.022  65.129  1.00  0.00    -0.399 C  
HETATM    4  C   UNL     1      -9.184  14.746  66.224  1.00  0.00    -0.243 C  
HETATM    5  N   UNL     1      -9.620  13.518  66.857  1.00  0.00    -0.250 N  
HETATM    6  C   UNL     1      -8.725  12.873  67.688  1.00  0.00    -0.185 C  
HETATM    7  O   UNL     1      -8.105  13.460  68.572  1.00  0.00    -0.150 OA 
HETATM    8  C   UNL     1      -8.671  11.319  67.508  1.00  0.00    -0.138 C  
HETATM    9  O   UNL     1     -11.139  10.311  67.249  1.00  0.00    -0.264 OA 
HETATM   10  N   UNL     1      -9.329  10.760  66.223  1.00  0.00    -0.175 N  
HETATM   11  C   UNL     1      -9.684   9.439  66.149  1.00  0.00    -0.265 C  
HETATM   12  H   UNL     1     -11.618   9.930  65.196  1.00  0.00     0.000 HD 
HETATM   13  C   UNL     1     -10.144   9.099  67.587  1.00  0.00    -0.220 C  
HETATM   14  O   UNL     1      -9.775   8.850  65.074  1.00  0.00     0.210 OA 
HETATM   15  O   UNL     1     -11.419  10.842  65.021  1.00  0.00     0.262 OA 
HETATM   16  C   UNL     1      -9.458   7.709  67.117  1.00  0.00    -0.196 C  
HETATM   17  C   UNL     1     -10.661  11.200  66.178  1.00  0.00    -0.248 C  
ENDROOT
BRANCH   8  18
HETATM   18  C   UNL     1      -7.264  10.753  67.749  1.00  0.00    -0.088 C  
BRANCH  18  19
HETATM   19  C   UNL     1      -6.721  10.252  66.444  1.00  0.00    -0.100 A  
HETATM   20  C   UNL     1      -6.749  10.485  64.043  1.00  0.00     0.101 A  
HETATM   21  C   UNL     1      -6.430   9.137  63.916  1.00  0.00    -0.089 A  
HETATM   22  C   UNL     1      -6.326   8.918  66.316  1.00  0.00    -0.065 A  
HETATM   23  C   UNL     1      -6.188   8.361  65.052  1.00  0.00    -0.052 A  
HETATM   24  C   UNL     1      -6.864  11.052  65.303  1.00  0.00     0.364 A  
ENDBRANCH  18  19
ENDBRANCH   8  18
BRANCH  13  25
HETATM   25  N   UNL     1     -10.494   8.610  68.934  1.00  0.00    -0.267 N  
HETATM   26  O   UNL     1     -10.492  10.377  70.396  1.00  0.00    -0.183 OA 
HETATM   27  C   UNL     1     -10.873   9.251  70.108  1.00  0.00    -0.242 C  
HETATM   28  H   UNL     1     -10.449   7.595  69.022  1.00  0.00     0.000 HD 
BRANCH  27  29
HETATM   29  C   UNL     1     -11.786   8.350  71.061  1.00  0.00    -0.296 C  
HETATM   30  C   UNL     1     -11.990   6.862  70.654  1.00  0.00    -0.348 C  
HETATM   31  N   UNL     1     -12.114   5.887  71.773  1.00  0.00     0.024 NA 
HETATM   32  C   UNL     1     -13.350   5.944  72.548  1.00  0.00     0.879 C  
HETATM   33  C   UNL     1     -10.896   5.851  72.620  1.00  0.00    -0.251 C  
HETATM   34  C   UNL     1      -9.923   4.773  72.016  1.00  0.00    -0.247 C  
HETATM   35  C   UNL     1      -9.007   5.381  71.026  1.00  0.00    -0.156 A  
HETATM   36  C   UNL     1      -8.434   4.980  69.834  1.00  0.00    -0.088 A  
HETATM   37  N   UNL     1      -7.682   6.017  69.358  1.00  0.00    -0.096 NA 
HETATM   38  H   UNL     1      -7.208   6.028  68.455  1.00  0.00     0.000 HD 
HETATM   39  C   UNL     1      -7.658   7.046  70.273  1.00  0.00    -0.087 A  
HETATM   40  C   UNL     1      -7.003   8.273  70.310  1.00  0.00    -0.036 A  
HETATM   41  C   UNL     1      -7.257   9.078  71.436  1.00  0.00    -0.065 A  
HETATM   42  C   UNL     1      -8.239   8.747  72.380  1.00  0.00     0.044 A  
HETATM   43  C   UNL     1      -8.983   7.578  72.236  1.00  0.00    -0.167 A  
HETATM   44  C   UNL     1      -8.559   6.687  71.250  1.00  0.00    -0.126 A  
HETATM   45  C   UNL     1     -10.298   7.298  72.930  1.00  0.00    -0.307 C  
HETATM   46  C   UNL     1     -11.327   8.407  72.544  1.00  0.00    -0.416 C  
ENDBRANCH  27  29
ENDBRANCH  13  25
TORSDOF 4
ENDMDL
MODEL      105
REMARK 921   NORMALIZED FREE ENERGY PREDICTED BY IDOCK:   -4.28 KCAL/MOL
REMARK 922        TOTAL FREE ENERGY PREDICTED BY IDOCK:   -6.51 KCAL/MOL
REMARK 923 INTER-LIGAND FREE ENERGY PREDICTED BY IDOCK:   -5.04 KCAL/MOL
REMARK 924 INTRA-LIGAND FREE ENERGY PREDICTED BY IDOCK:   -1.47 KCAL/MOL
REMARK 927      BINDING AFFINITY PREDICTED BY RF-SCORE:    0.00 PKD
ROOT
HETATM    1  C   UNL     1      -8.981   6.450  69.081  1.00  0.00    -0.129 C  
HETATM    2  C   UNL     1      -8.969   6.094  70.569  1.00  0.00    -0.148 C  
HETATM    3  C   UNL     1      -9.271   4.568  70.558  1.00  0.00    -0.190 C  
HETATM    4  C   UNL     1      -9.705   4.228  69.128  1.00  0.00    -0.156 C  
HETATM    5  N   UNL     1      -9.874   5.508  68.470  1.00  0.00    -0.137 N  
HETATM    6  C   UNL     1      -9.982   5.511  67.093  1.00  0.00    -0.169 C  
HETATM    7  O   UNL     1     -10.749   4.764  66.490  1.00  0.00    -0.217 OA 
HETATM    8  C   UNL     1      -9.161   6.635  66.377  1.00  0.00    -0.152 C  
HETATM    9  O   UNL     1      -9.393   8.958  67.689  1.00  0.00    -0.135 OA 
HETATM   10  N   UNL     1      -8.085   7.343  67.235  1.00  0.00    -0.111 N  
HETATM   11  C   UNL     1      -7.594   8.564  66.855  1.00  0.00    -0.091 C  
HETATM   12  H   UNL     1      -7.685   9.333  68.927  1.00  0.00     0.000 HD 
HETATM   13  C   UNL     1      -8.817   9.274  66.226  1.00  0.00    -0.146 C  
HETATM   14  O   UNL     1      -6.479   8.952  67.201  1.00  0.00    -0.059 OA 
HETATM   15  O   UNL     1      -7.851   8.494  69.342  1.00  0.00    -0.094 OA 
HETATM   16  C   UNL     1      -7.598   9.835  65.318  1.00  0.00    -0.119 C  
HETATM   17  C   UNL     1      -8.701   7.861  68.384  1.00  0.00    -0.131 C  
ENDROOT
BRANCH   8  18
HETATM   18  C   UNL     1      -8.628   6.185  65.008  1.00  0.00    -0.014 C  
BRANCH  18  19
HETATM   19  C   UNL     1      -7.766   4.975  65.206  1.00  0.00    -0.087 A  
HETATM   20  C   UNL     1      -5.599   4.148  65.875  1.00  0.00    -0.014 A  
HETATM   21  C   UNL     1      -5.765   3.053  65.032  1.00  0.00    -0.017 A  
HETATM   22  C   UNL     1      -7.963   3.838  64.419  1.00  0.00    -0.086 A  
HETATM   23  C   UNL     1      -6.959   2.883  64.327  1.00  0.00    -0.045 A  
HETATM   24  C   UNL     1      -6.609   5.092  65.988  1.00  0.00    -0.048 A  
ENDBRANCH  18  19
ENDBRANCH   8  18
BRANCH  13  25
HETATM   25  N   UNL     1      -9.862  10.016  65.495  1.00  0.00    -0.288 N  
HETATM   26  O   UNL     1     -11.551  10.556  66.949  1.00  0.00    -0.086 OA 
HETATM   27  C   UNL     1     -10.949  10.777  65.907  1.00  0.00     0.073 C  
HETATM   28  H   UNL     1      -9.766   9.958  64.482  1.00  0.00     0.000 HD 
BRANCH  27  29
HETATM   29  C   UNL     1     -11.370  11.907  64.860  1.00  0.00    -0.337 C  
HETATM   30  C   UNL     1     -12.546  12.846  65.258  1.00  0.00    -0.439 C  
HETATM   31  N   UNL     1     -12.456  14.252  64.775  1.00  0.00    -0.608 NA 
HETATM   32  C   UNL     1     -12.650  14.458  63.342  1.00  0.00     0.948 C  
HETATM   33  C   UNL     1     -11.259  14.950  65.306  1.00  0.00    -0.369 C  
HETATM   34  C   UNL     1     -11.663  15.625  66.668  1.00  0.00     0.400 C  
HETATM   35  C   UNL     1     -11.422  14.710  67.806  1.00  0.00    -0.359 A  
HETATM   36  C   UNL     1     -12.050  14.443  69.008  1.00  0.00    -0.263 A  
HETATM   37  N   UNL     1     -11.352  13.450  69.635  1.00  0.00    -0.460 NA 
HETATM   38  H   UNL     1     -11.633  12.999  70.506  1.00  0.00     0.000 HD 
HETATM   39  C   UNL     1     -10.214  13.144  68.922  1.00  0.00    -0.005 A  
HETATM   40  C   UNL     1      -9.152  12.274  69.148  1.00  0.00     0.611 A  
HETATM   41  C   UNL     1      -8.165  12.226  68.147  1.00  0.00    -0.168 A  
HETATM   42  C   UNL     1      -8.321  12.881  66.917  1.00  0.00    -0.047 A  
HETATM   43  C   UNL     1      -9.469  13.629  66.662  1.00  0.00    -0.285 A  
HETATM   44  C   UNL     1     -10.319  13.852  67.745  1.00  0.00    -0.240 A  
HETATM   45  C   UNL     1      -9.942  14.049  65.289  1.00  0.00    -0.283 C  
HETATM   46  C   UNL     1     -10.163  12.776  64.412  1.00  0.00    -0.344 C  
ENDBRANCH  27  29
ENDBRANCH  13  25
TORSDOF 4
ENDMDL
MODEL      106
REMARK 921   NORMALIZED FREE ENERGY PREDICTED BY IDOCK:   -4.08 KCAL/MOL
REMARK 922        TOTAL FREE ENERGY PREDICTED BY IDOCK:   -6.28 KCAL/MOL
REMARK 923 INTER-LIGAND FREE ENERGY PREDICTED BY IDOCK:   -5.44 KCAL/MOL
REMARK 924 INTRA-LIGAND FREE ENERGY PREDICTED BY IDOCK:   -0.84 KCAL/MOL
REMARK 927      BINDING AFFINITY PREDICTED BY RF-SCORE:    0.00 PKD
ROOT
HETATM    1  C   UNL     1     -11.644  12.564  65.251  1.00  0.00    -0.364 C  
HETATM    2  C   UNL     1     -13.065  12.671  64.697  1.00  0.00    -0.036 C  
HETATM    3  C   UNL     1     -13.026  11.720  63.466  1.00  0.00    -0.215 C  
HETATM    4  C   UNL     1     -11.550  11.371  63.243  1.00  0.00     0.124 C  
HETATM    5  N   UNL     1     -10.814  12.259  64.120  1.00  0.00    -0.332 N  
HETATM    6  C   UNL     1      -9.482  11.977  64.347  1.00  0.00     0.148 C  
HETATM    7  O   UNL     1      -8.694  11.741  63.434  1.00  0.00     0.310 OA 
HETATM    8  C   UNL     1      -9.028  12.122  65.838  1.00  0.00     0.087 C  
HETATM    9  O   UNL     1     -10.078  14.328  66.935  1.00  0.00    -0.256 OA 
HETATM   10  N   UNL     1     -10.161  12.202  66.889  1.00  0.00    -0.208 N  
HETATM   11  C   UNL     1      -9.910  12.710  68.136  1.00  0.00    -0.226 C  
HETATM   12  H   UNL     1     -11.795  13.867  68.130  1.00  0.00     0.000 HD 
HETATM   13  C   UNL     1      -8.877  13.833  67.876  1.00  0.00    -0.186 C  
HETATM   14  O   UNL     1     -10.589  12.398  69.113  1.00  0.00    -0.110 OA 
HETATM   15  O   UNL     1     -12.170  13.452  67.362  1.00  0.00    -0.326 OA 
HETATM   16  C   UNL     1      -8.402  13.265  69.317  1.00  0.00     0.731 C  
HETATM   17  C   UNL     1     -11.014  13.262  66.544  1.00  0.00    -0.286 C  
ENDROOT
BRANCH   8  18
HETATM   18  C   UNL     1      -7.937  11.108  66.217  1.00  0.00    -0.125 C  
BRANCH  18  19
HETATM   19  C   UNL     1      -8.598   9.877  66.758  1.00  0.00    -0.133 A  
HETATM   20  C   UNL     1      -8.321   7.864  68.060  1.00  0.00    -0.123 A  
HETATM   21  C   UNL     1      -9.328   7.254  67.317  1.00  0.00    -0.156 A  
HETATM   22  C   UNL     1      -9.660   9.290  66.066  1.00  0.00    -0.338 A  
HETATM   23  C   UNL     1     -10.018   7.977  66.342  1.00  0.00    -0.215 A  
HETATM   24  C   UNL     1      -7.976   9.183  67.804  1.00  0.00    -0.101 A  
ENDBRANCH  18  19
ENDBRANCH   8  18
BRANCH  13  25
HETATM   25  N   UNL     1      -7.807  14.844  67.786  1.00  0.00    -0.138 N  
HETATM   26  O   UNL     1      -8.130  16.112  65.903  1.00  0.00    -0.012 OA 
HETATM   27  C   UNL     1      -7.648  15.993  67.021  1.00  0.00    -0.230 C  
HETATM   28  H   UNL     1      -7.024  14.662  68.414  1.00  0.00     0.000 HD 
BRANCH  27  29
HETATM   29  C   UNL     1      -6.724  17.098  67.712  1.00  0.00    -0.162 C  
HETATM   30  C   UNL     1      -6.501  18.428  66.935  1.00  0.00    -0.183 C  
HETATM   31  N   UNL     1      -6.365  19.657  67.765  1.00  0.00    -0.208 NA 
HETATM   32  C   UNL     1      -5.130  19.787  68.534  1.00  0.00    -0.193 C  
HETATM   33  C   UNL     1      -7.582  19.926  68.569  1.00  0.00    -0.250 C  
HETATM   34  C   UNL     1      -8.541  20.823  67.702  1.00  0.00    -0.123 C  
HETATM   35  C   UNL     1      -9.464  19.991  66.899  1.00  0.00    -0.529 A  
HETATM   36  C   UNL     1     -10.030  20.078  65.642  1.00  0.00    -0.159 A  
HETATM   37  N   UNL     1     -10.795  18.963  65.447  1.00  0.00    -0.483 NA 
HETATM   38  H   UNL     1     -11.269  18.725  64.576  1.00  0.00     0.000 HD 
HETATM   39  C   UNL     1     -10.834  18.206  66.596  1.00  0.00    -0.019 A  
HETATM   40  C   UNL     1     -11.505  17.038  66.947  1.00  0.00     0.918 A  
HETATM   41  C   UNL     1     -11.263  16.548  68.243  1.00  0.00    -0.265 A  
HETATM   42  C   UNL     1     -10.277  17.100  69.074  1.00  0.00    -0.315 A  
HETATM   43  C   UNL     1      -9.517  18.183  68.636  1.00  0.00    -0.328 A  
HETATM   44  C   UNL     1      -9.929  18.793  67.452  1.00  0.00    -0.378 A  
HETATM   45  C   UNL     1      -8.200  18.616  69.239  1.00  0.00     0.131 C  
HETATM   46  C   UNL     1      -7.185  17.432  69.157  1.00  0.00    -0.175 C  
ENDBRANCH  27  29
ENDBRANCH  13  25
TORSDOF 4
ENDMDL
MODEL      107
REMARK 921   NORMALIZED FREE ENERGY PREDICTED BY IDOCK:   -4.08 KCAL/MOL
REMARK 922        TOTAL FREE ENERGY PREDICTED BY IDOCK:   -6.27 KCAL/MOL
REMARK 923 INTER-LIGAND FREE ENERGY PREDICTED BY IDOCK:   -5.43 KCAL/MOL
REMARK 924 INTRA-LIGAND FREE ENERGY PREDICTED BY IDOCK:   -0.83 KCAL/MOL
REMARK 927      BINDING AFFINITY PREDICTED BY RF-SCORE:    0.00 PKD
ROOT
HETATM    1  C   UNL     1     -10.525   5.874  72.017  1.00  0.00    -0.214 C  
HETATM    2  C   UNL     1     -11.834   5.662  72.779  1.00  0.00    -0.164 C  
HETATM    3  C   UNL     1     -11.527   4.407  73.646  1.00  0.00    -0.210 C  
HETATM    4  C   UNL     1     -10.204   3.838  73.120  1.00  0.00    -0.157 C  
HETATM    5  N   UNL     1      -9.936   4.571  71.898  1.00  0.00    -0.184 N  
HETATM    6  C   UNL     1      -8.669   4.475  71.359  1.00  0.00    -0.117 C  
HETATM    7  O   UNL     1      -8.105   3.397  71.188  1.00  0.00    -0.060 OA 
HETATM    8  C   UNL     1      -8.071   5.830  70.853  1.00  0.00    -0.119 C  
HETATM    9  O   UNL     1      -9.923   7.249  69.538  1.00  0.00    -0.166 OA 
HETATM   10  N   UNL     1      -8.790   7.113  71.334  1.00  0.00    -0.132 N  
HETATM   11  C   UNL     1      -8.612   8.295  70.667  1.00  0.00    -0.136 C  
HETATM   12  H   UNL     1     -10.767   8.776  70.780  1.00  0.00     0.000 HD 
HETATM   13  C   UNL     1      -8.485   7.867  69.184  1.00  0.00    -0.137 C  
HETATM   14  O   UNL     1      -8.763   9.383  71.219  1.00  0.00    -0.295 OA 
HETATM   15  O   UNL     1     -10.994   8.093  71.399  1.00  0.00    -0.228 OA 
HETATM   16  C   UNL     1      -7.475   9.132  69.256  1.00  0.00    -0.075 C  
HETATM   17  C   UNL     1     -10.144   7.025  70.975  1.00  0.00    -0.195 C  
ENDROOT
BRANCH   8  18
HETATM   18  C   UNL     1      -6.547   5.899  71.037  1.00  0.00    -0.045 C  
BRANCH  18  19
HETATM   19  C   UNL     1      -5.897   5.165  69.903  1.00  0.00    -0.017 A  
HETATM   20  C   UNL     1      -5.791   4.863  67.512  1.00  0.00    -0.022 A  
HETATM   21  C   UNL     1      -5.385   3.545  67.704  1.00  0.00    -0.013 A  
HETATM   22  C   UNL     1      -5.416   3.867  70.095  1.00  0.00    -0.012 A  
HETATM   23  C   UNL     1      -5.168   3.057  68.994  1.00  0.00    -0.012 A  
HETATM   24  C   UNL     1      -6.016   5.682  68.607  1.00  0.00    -0.024 A  
ENDBRANCH  18  19
ENDBRANCH   8  18
BRANCH  13  25
HETATM   25  N   UNL     1      -8.229   7.590  67.758  1.00  0.00    -0.118 N  
HETATM   26  O   UNL     1      -9.923   8.495  66.504  1.00  0.00    -0.259 OA 
HETATM   27  C   UNL     1      -8.769   8.095  66.581  1.00  0.00    -0.139 C  
HETATM   28  H   UNL     1      -7.510   6.884  67.605  1.00  0.00     0.000 HD 
BRANCH  27  29
HETATM   29  C   UNL     1      -7.765   8.033  65.340  1.00  0.00    -0.096 C  
HETATM   30  C   UNL     1      -8.388   8.095  63.916  1.00  0.00     0.009 C  
HETATM   31  N   UNL     1      -7.579   8.791  62.877  1.00  0.00    -0.106 NA 
HETATM   32  C   UNL     1      -6.373   8.103  62.424  1.00  0.00    -0.087 C  
HETATM   33  C   UNL     1      -7.344  10.217  63.214  1.00  0.00    -0.135 C  
HETATM   34  C   UNL     1      -8.529  11.056  62.610  1.00  0.00    -0.213 C  
HETATM   35  C   UNL     1      -9.636  11.186  63.583  1.00  0.00    -0.316 A  
HETATM   36  C   UNL     1     -11.016  11.222  63.509  1.00  0.00    -0.245 A  
HETATM   37  N   UNL     1     -11.502  11.334  64.781  1.00  0.00     0.006 NA 
HETATM   38  H   UNL     1     -12.490  11.306  65.033  1.00  0.00     0.000 HD 
HETATM   39  C   UNL     1     -10.466  11.490  65.675  1.00  0.00    -0.266 A  
HETATM   40  C   UNL     1     -10.416  11.706  67.049  1.00  0.00    -0.258 A  
HETATM   41  C   UNL     1      -9.132  11.791  67.618  1.00  0.00    -0.177 A  
HETATM   42  C   UNL     1      -7.973  11.505  66.882  1.00  0.00    -0.164 A  
HETATM   43  C   UNL     1      -8.066  11.147  65.539  1.00  0.00     0.145 A  
HETATM   44  C   UNL     1      -9.318  11.294  64.941  1.00  0.00    -0.181 A  
HETATM   45  C   UNL     1      -6.979  10.451  64.750  1.00  0.00    -0.032 C  
HETATM   46  C   UNL     1      -6.635   9.094  65.442  1.00  0.00    -0.069 C  
ENDBRANCH  27  29
ENDBRANCH  13  25
TORSDOF 4
ENDMDL
MODEL      108
REMARK 921   NORMALIZED FREE ENERGY PREDICTED BY IDOCK:   -3.98 KCAL/MOL
REMARK 922        TOTAL FREE ENERGY PREDICTED BY IDOCK:   -6.15 KCAL/MOL
REMARK 923 INTER-LIGAND FREE ENERGY PREDICTED BY IDOCK:   -5.14 KCAL/MOL
REMARK 924 INTRA-LIGAND FREE ENERGY PREDICTED BY IDOCK:   -1.01 KCAL/MOL
REMARK 927      BINDING AFFINITY PREDICTED BY RF-SCORE:    0.00 PKD
ROOT
HETATM    1  C   UNL     1      -9.290  13.157  68.305  1.00  0.00    -0.201 C  
HETATM    2  C   UNL     1      -9.639  14.606  68.647  1.00  0.00    -0.219 C  
HETATM    3  C   UNL     1      -8.648  15.415  67.761  1.00  0.00    -0.162 C  
HETATM    4  C   UNL     1      -7.641  14.400  67.210  1.00  0.00    -0.108 C  
HETATM    5  N   UNL     1      -7.904  13.174  67.937  1.00  0.00    -0.135 N  
HETATM    6  C   UNL     1      -7.344  12.009  67.451  1.00  0.00    -0.150 C  
HETATM    7  O   UNL     1      -6.157  11.925  67.146  1.00  0.00    -0.125 OA 
HETATM    8  C   UNL     1      -8.304  10.773  67.455  1.00  0.00    -0.115 C  
HETATM    9  O   UNL     1      -9.704  10.671  69.736  1.00  0.00    -0.074 OA 
HETATM   10  N   UNL     1      -9.808  11.080  67.651  1.00  0.00    -0.171 N  
HETATM   11  C   UNL     1     -10.667  10.093  68.055  1.00  0.00    -0.260 C  
HETATM   12  H   UNL     1     -11.683  11.449  69.476  1.00  0.00     0.000 HD 
HETATM   13  C   UNL     1      -9.816   9.238  69.025  1.00  0.00    -0.166 C  
HETATM   14  O   UNL     1     -11.869  10.132  67.799  1.00  0.00     0.066 OA 
HETATM   15  O   UNL     1     -11.284  12.250  69.158  1.00  0.00    -0.243 OA 
HETATM   16  C   UNL     1     -10.754   8.117  68.324  1.00  0.00    -0.073 C  
HETATM   17  C   UNL     1      -9.963  11.809  68.839  1.00  0.00    -0.034 C  
ENDROOT
BRANCH   8  18
HETATM   18  C   UNL     1      -8.039   9.825  66.275  1.00  0.00    -0.113 C  
BRANCH  18  19
HETATM   19  C   UNL     1      -8.904  10.243  65.125  1.00  0.00    -0.205 A  
HETATM   20  C   UNL     1      -9.378   9.971  62.774  1.00  0.00    -0.290 A  
HETATM   21  C   UNL     1      -9.858  11.277  62.728  1.00  0.00    -0.241 A  
HETATM   22  C   UNL     1      -9.455  11.526  65.094  1.00  0.00    -0.190 A  
HETATM   23  C   UNL     1      -9.925  12.043  63.894  1.00  0.00    -0.343 A  
HETATM   24  C   UNL     1      -8.931   9.442  63.976  1.00  0.00    -0.174 A  
ENDBRANCH  18  19
ENDBRANCH   8  18
BRANCH  13  25
HETATM   25  N   UNL     1      -9.088   8.273  69.871  1.00  0.00    -0.146 N  
HETATM   26  O   UNL     1      -9.173   8.976  72.052  1.00  0.00    -0.373 OA 
HETATM   27  C   UNL     1      -9.031   8.068  71.244  1.00  0.00    -0.139 C  
HETATM   28  H   UNL     1      -8.509   7.623  69.339  1.00  0.00     0.000 HD 
BRANCH  27  29
HETATM   29  C   UNL     1      -8.696   6.560  71.652  1.00  0.00    -0.132 C  
HETATM   30  C   UNL     1      -8.327   5.577  70.503  1.00  0.00    -0.116 C  
HETATM   31  N   UNL     1      -7.328   4.524  70.837  1.00  0.00    -0.050 NA 
HETATM   32  C   UNL     1      -7.779   3.462  71.732  1.00  0.00    -0.054 C  
HETATM   33  C   UNL     1      -6.019   5.102  71.233  1.00  0.00    -0.021 C  
HETATM   34  C   UNL     1      -5.154   5.269  69.930  1.00  0.00    -0.004 C  
HETATM   35  C   UNL     1      -5.364   6.601  69.322  1.00  0.00    -0.014 A  
HETATM   36  C   UNL     1      -5.423   7.100  68.034  1.00  0.00    -0.021 A  
HETATM   37  N   UNL     1      -5.675   8.440  68.114  1.00  0.00    -0.034 NA 
HETATM   38  H   UNL     1      -5.846   9.050  67.314  1.00  0.00     0.000 HD 
HETATM   39  C   UNL     1      -5.667   8.850  69.428  1.00  0.00    -0.035 A  
HETATM   40  C   UNL     1      -5.801  10.091  70.042  1.00  0.00    -0.049 A  
HETATM   41  C   UNL     1      -5.758  10.097  71.448  1.00  0.00     0.031 A  
HETATM   42  C   UNL     1      -5.754   8.911  72.197  1.00  0.00    -0.064 A  
HETATM   43  C   UNL     1      -5.768   7.675  71.552  1.00  0.00    -0.035 A  
HETATM   44  C   UNL     1      -5.577   7.692  70.170  1.00  0.00    -0.023 A  
HETATM   45  C   UNL     1      -6.152   6.364  72.200  1.00  0.00    -0.038 C  
HETATM   46  C   UNL     1      -7.607   6.475  72.756  1.00  0.00    -0.097 C  
ENDBRANCH  27  29
ENDBRANCH  13  25
TORSDOF 4
ENDMDL
MODEL      109
REMARK 921   NORMALIZED FREE ENERGY PREDICTED BY IDOCK:   -3.91 KCAL/MOL
REMARK 922        TOTAL FREE ENERGY PREDICTED BY IDOCK:   -6.06 KCAL/MOL
REMARK 923 INTER-LIGAND FREE ENERGY PREDICTED BY IDOCK:   -6.47 KCAL/MOL
REMARK 924 INTRA-LIGAND FREE ENERGY PREDICTED BY IDOCK:    0.42 KCAL/MOL
REMARK 927      BINDING AFFINITY PREDICTED BY RF-SCORE:    0.00 PKD
ROOT
HETATM    1  C   UNL     1     -10.251  16.019  67.486  1.00  0.00    -0.275 C  
HETATM    2  C   UNL     1     -11.045  17.319  67.350  1.00  0.00     0.086 C  
HETATM    3  C   UNL     1      -9.957  18.410  67.571  1.00  0.00    -0.349 C  
HETATM    4  C   UNL     1      -8.715  17.676  68.087  1.00  0.00    -0.265 C  
HETATM    5  N   UNL     1      -9.163  16.327  68.369  1.00  0.00    -0.197 N  
HETATM    6  C   UNL     1      -8.197  15.361  68.575  1.00  0.00    -0.145 C  
HETATM    7  O   UNL     1      -7.251  15.528  69.342  1.00  0.00    -0.175 OA 
HETATM    8  C   UNL     1      -8.480  13.994  67.867  1.00  0.00    -0.170 C  
HETATM    9  O   UNL     1     -11.056  13.311  68.128  1.00  0.00    -0.239 OA 
HETATM   10  N   UNL     1      -9.574  14.009  66.772  1.00  0.00    -0.276 N  
HETATM   11  C   UNL     1     -10.167  12.841  66.375  1.00  0.00    -0.253 C  
HETATM   12  H   UNL     1     -12.173  13.772  66.360  1.00  0.00     0.000 HD 
HETATM   13  C   UNL     1     -10.243  12.004  67.675  1.00  0.00    -0.199 C  
HETATM   14  O   UNL     1     -10.672  12.714  65.261  1.00  0.00    -0.277 OA 
HETATM   15  O   UNL     1     -11.872  14.669  66.451  1.00  0.00    -0.365 OA 
HETATM   16  C   UNL     1      -9.987  10.861  66.555  1.00  0.00    -0.255 C  
HETATM   17  C   UNL     1     -10.758  14.511  67.332  1.00  0.00    -0.282 C  
ENDROOT
BRANCH   8  18
HETATM   18  C   UNL     1      -7.190  13.296  67.410  1.00  0.00    -0.119 C  
BRANCH  18  19
HETATM   19  C   UNL     1      -6.728  12.384  68.505  1.00  0.00    -0.077 A  
HETATM   20  C   UNL     1      -5.996  12.219  70.799  1.00  0.00     0.144 A  
HETATM   21  C   UNL     1      -5.245  11.094  70.470  1.00  0.00    -0.102 A  
HETATM   22  C   UNL     1      -6.034  11.212  68.194  1.00  0.00    -0.045 A  
HETATM   23  C   UNL     1      -5.288  10.573  69.176  1.00  0.00    -0.038 A  
HETATM   24  C   UNL     1      -6.762  12.846  69.827  1.00  0.00     0.163 A  
ENDBRANCH  18  19
ENDBRANCH   8  18
BRANCH  13  25
HETATM   25  N   UNL     1     -10.269  11.059  68.807  1.00  0.00    -0.192 N  
HETATM   26  O   UNL     1     -10.611   8.938  68.004  1.00  0.00    -0.221 OA 
HETATM   27  C   UNL     1     -10.195   9.673  68.889  1.00  0.00    -0.201 C  
HETATM   28  H   UNL     1     -10.359  11.515  69.715  1.00  0.00     0.000 HD 
BRANCH  27  29
HETATM   29  C   UNL     1      -9.584   9.147  70.268  1.00  0.00    -0.249 C  
HETATM   30  C   UNL     1     -10.146   7.809  70.832  1.00  0.00    -0.187 C  
HETATM   31  N   UNL     1      -9.177   6.950  71.567  1.00  0.00    -0.152 NA 
HETATM   32  C   UNL     1      -8.746   7.432  72.877  1.00  0.00    -0.128 C  
HETATM   33  C   UNL     1      -8.048   6.517  70.707  1.00  0.00    -0.120 C  
HETATM   34  C   UNL     1      -8.461   5.166  70.016  1.00  0.00    -0.098 C  
HETATM   35  C   UNL     1      -9.129   5.415  68.720  1.00  0.00    -0.135 A  
HETATM   36  C   UNL     1     -10.160   4.826  68.011  1.00  0.00    -0.047 A  
HETATM   37  N   UNL     1     -10.341   5.542  66.861  1.00  0.00    -0.236 NA 
HETATM   38  H   UNL     1     -11.087   5.379  66.184  1.00  0.00     0.000 HD 
HETATM   39  C   UNL     1      -9.374   6.515  66.748  1.00  0.00    -0.156 A  
HETATM   40  C   UNL     1      -9.073   7.450  65.763  1.00  0.00    -0.006 A  
HETATM   41  C   UNL     1      -7.992   8.310  66.032  1.00  0.00    -0.098 A  
HETATM   42  C   UNL     1      -7.363   8.344  67.285  1.00  0.00    -0.085 A  
HETATM   43  C   UNL     1      -7.786   7.492  68.304  1.00  0.00    -0.122 A  
HETATM   44  C   UNL     1      -8.695   6.496  67.946  1.00  0.00    -0.116 A  
HETATM   45  C   UNL     1      -7.482   7.682  69.773  1.00  0.00    -0.090 C  
HETATM   46  C   UNL     1      -8.034   9.068  70.236  1.00  0.00    -0.124 C  
ENDBRANCH  27  29
ENDBRANCH  13  25
TORSDOF 4
ENDMDL
MODEL      110
REMARK 921   NORMALIZED FREE ENERGY PREDICTED BY IDOCK:   -3.88 KCAL/MOL
REMARK 922        TOTAL FREE ENERGY PREDICTED BY IDOCK:   -6.02 KCAL/MOL
REMARK 923 INTER-LIGAND FREE ENERGY PREDICTED BY IDOCK:   -5.77 KCAL/MOL
REMARK 924 INTRA-LIGAND FREE ENERGY PREDICTED BY IDOCK:   -0.25 KCAL/MOL
REMARK 927      BINDING AFFINITY PREDICTED BY RF-SCORE:    0.00 PKD
ROOT
HETATM    1  C   UNL     1     -10.523   5.858  72.000  1.00  0.00    -0.214 C  
HETATM    2  C   UNL     1     -11.835   5.675  72.764  1.00  0.00    -0.164 C  
HETATM    3  C   UNL     1     -11.543   4.431  73.653  1.00  0.00    -0.092 C  
HETATM    4  C   UNL     1     -10.228   3.837  73.138  1.00  0.00    -0.157 C  
HETATM    5  N   UNL     1      -9.951   4.546  71.904  1.00  0.00    -0.184 N  
HETATM    6  C   UNL     1      -8.684   4.425  71.367  1.00  0.00    -0.112 C  
HETATM    7  O   UNL     1      -8.134   3.338  71.215  1.00  0.00    -0.061 OA 
HETATM    8  C   UNL     1      -8.070   5.764  70.838  1.00  0.00    -0.119 C  
HETATM    9  O   UNL     1      -9.904   7.182  69.497  1.00  0.00    -0.160 OA 
HETATM   10  N   UNL     1      -8.774   7.064  71.296  1.00  0.00    -0.130 N  
HETATM   11  C   UNL     1      -8.581   8.232  70.608  1.00  0.00    -0.136 C  
HETATM   12  H   UNL     1     -10.730   8.741  70.712  1.00  0.00     0.000 HD 
HETATM   13  C   UNL     1      -8.459   7.777  69.134  1.00  0.00    -0.138 C  
HETATM   14  O   UNL     1      -8.719   9.331  71.142  1.00  0.00    -0.269 OA 
HETATM   15  O   UNL     1     -10.965   8.071  71.343  1.00  0.00    -0.228 OA 
HETATM   16  C   UNL     1      -7.434   9.030  69.184  1.00  0.00    -0.072 C  
HETATM   17  C   UNL     1     -10.128   6.986  70.938  1.00  0.00    -0.193 C  
ENDROOT
BRANCH   8  18
HETATM   18  C   UNL     1      -6.545   5.818  71.021  1.00  0.00    -0.045 C  
BRANCH  18  19
HETATM   19  C   UNL     1      -6.238   6.670  72.215  1.00  0.00    -0.045 A  
HETATM   20  C   UNL     1      -6.638   7.041  74.566  1.00  0.00    -0.087 A  
HETATM   21  C   UNL     1      -6.399   8.401  74.384  1.00  0.00    -0.150 A  
HETATM   22  C   UNL     1      -5.925   8.021  72.049  1.00  0.00    -0.042 A  
HETATM   23  C   UNL     1      -6.013   8.885  73.132  1.00  0.00    -0.053 A  
HETATM   24  C   UNL     1      -6.527   6.171  73.492  1.00  0.00    -0.069 A  
ENDBRANCH  18  19
ENDBRANCH   8  18
BRANCH  13  25
HETATM   25  N   UNL     1      -8.206   7.472  67.713  1.00  0.00    -0.118 N  
HETATM   26  O   UNL     1      -9.864   8.412  66.438  1.00  0.00    -0.253 OA 
HETATM   27  C   UNL     1      -8.724   7.977  66.526  1.00  0.00    -0.146 C  
HETATM   28  H   UNL     1      -7.508   6.741  67.573  1.00  0.00     0.000 HD 
BRANCH  27  29
HETATM   29  C   UNL     1      -7.717   7.866  65.291  1.00  0.00    -0.097 C  
HETATM   30  C   UNL     1      -8.327   7.969  63.863  1.00  0.00     0.043 C  
HETATM   31  N   UNL     1      -7.475   8.625  62.833  1.00  0.00    -0.101 NA 
HETATM   32  C   UNL     1      -6.306   7.874  62.383  1.00  0.00    -0.081 C  
HETATM   33  C   UNL     1      -7.164  10.034  63.179  1.00  0.00    -0.132 C  
HETATM   34  C   UNL     1      -8.299  10.940  62.572  1.00  0.00    -0.250 C  
HETATM   35  C   UNL     1      -9.403  11.126  63.539  1.00  0.00    -0.249 A  
HETATM   36  C   UNL     1     -10.778  11.238  63.458  1.00  0.00    -0.335 A  
HETATM   37  N   UNL     1     -11.265  11.370  64.728  1.00  0.00    -0.189 NA 
HETATM   38  H   UNL     1     -12.254  11.395  64.973  1.00  0.00     0.000 HD 
HETATM   39  C   UNL     1     -10.228  11.465  65.628  1.00  0.00    -0.251 A  
HETATM   40  C   UNL     1     -10.174  11.671  67.003  1.00  0.00    -0.240 A  
HETATM   41  C   UNL     1      -8.891  11.683  67.580  1.00  0.00    -0.158 A  
HETATM   42  C   UNL     1      -7.744  11.337  66.850  1.00  0.00    -0.152 A  
HETATM   43  C   UNL     1      -7.849  10.991  65.504  1.00  0.00     0.121 A  
HETATM   44  C   UNL     1      -9.087  11.210  64.899  1.00  0.00    -0.111 A  
HETATM   45  C   UNL     1      -6.797  10.240  64.719  1.00  0.00    -0.087 C  
HETATM   46  C   UNL     1      -6.532   8.863  65.405  1.00  0.00    -0.067 C  
ENDBRANCH  27  29
ENDBRANCH  13  25
TORSDOF 4
ENDMDL
MODEL      111
REMARK 921   NORMALIZED FREE ENERGY PREDICTED BY IDOCK:   -3.87 KCAL/MOL
REMARK 922        TOTAL FREE ENERGY PREDICTED BY IDOCK:   -6.01 KCAL/MOL
REMARK 923 INTER-LIGAND FREE ENERGY PREDICTED BY IDOCK:   -4.39 KCAL/MOL
REMARK 924 INTRA-LIGAND FREE ENERGY PREDICTED BY IDOCK:   -1.62 KCAL/MOL
REMARK 927      BINDING AFFINITY PREDICTED BY RF-SCORE:    0.00 PKD
ROOT
HETATM    1  C   UNL     1     -10.927  12.776  65.274  1.00  0.00    -0.284 C  
HETATM    2  C   UNL     1     -11.537  12.808  63.872  1.00  0.00    -0.518 C  
HETATM    3  C   UNL     1     -11.241  11.378  63.336  1.00  0.00    -0.252 C  
HETATM    4  C   UNL     1     -10.260  10.744  64.329  1.00  0.00    -0.354 C  
HETATM    5  N   UNL     1      -9.852  11.828  65.201  1.00  0.00    -0.245 N  
HETATM    6  C   UNL     1      -9.195  11.496  66.370  1.00  0.00    -0.208 C  
HETATM    7  O   UNL     1      -8.242  10.721  66.393  1.00  0.00    -0.143 OA 
HETATM    8  C   UNL     1      -9.667  12.292  67.632  1.00  0.00    -0.194 C  
HETATM    9  O   UNL     1     -10.012  14.882  67.042  1.00  0.00    -0.235 OA 
HETATM   10  N   UNL     1     -11.006  13.056  67.493  1.00  0.00    -0.253 N  
HETATM   11  C   UNL     1     -11.314  14.071  68.359  1.00  0.00    -0.291 C  
HETATM   12  H   UNL     1     -12.078  15.344  66.720  1.00  0.00     0.000 HD 
HETATM   13  C   UNL     1      -9.948  14.744  68.639  1.00  0.00    -0.232 C  
HETATM   14  O   UNL     1     -12.476  14.394  68.596  1.00  0.00    -0.115 OA 
HETATM   15  O   UNL     1     -12.086  14.665  66.056  1.00  0.00    -0.317 OA 
HETATM   16  C   UNL     1     -10.700  14.904  70.066  1.00  0.00    -0.165 C  
HETATM   17  C   UNL     1     -10.914  13.919  66.391  1.00  0.00    -0.303 C  
ENDROOT
BRANCH   8  18
HETATM   18  C   UNL     1      -9.594  11.449  68.914  1.00  0.00    -0.087 C  
BRANCH  18  19
HETATM   19  C   UNL     1      -8.152  11.234  69.262  1.00  0.00     0.103 A  
HETATM   20  C   UNL     1      -6.567   9.892  70.491  1.00  0.00    -0.120 A  
HETATM   21  C   UNL     1      -5.724  10.994  70.593  1.00  0.00    -0.122 A  
HETATM   22  C   UNL     1      -7.272  12.318  69.299  1.00  0.00     0.123 A  
HETATM   23  C   UNL     1      -6.062  12.198  69.971  1.00  0.00    -0.138 A  
HETATM   24  C   UNL     1      -7.765  10.000  69.800  1.00  0.00    -0.173 A  
ENDBRANCH  18  19
ENDBRANCH   8  18
BRANCH  13  25
HETATM   25  N   UNL     1      -8.704  15.401  69.085  1.00  0.00    -0.227 N  
HETATM   26  O   UNL     1      -7.562  16.167  67.249  1.00  0.00    -0.149 OA 
HETATM   27  C   UNL     1      -7.789  16.232  68.450  1.00  0.00    -0.168 C  
HETATM   28  H   UNL     1      -8.468  15.204  70.057  1.00  0.00     0.000 HD 
BRANCH  27  29
HETATM   29  C   UNL     1      -7.024  17.218  69.446  1.00  0.00    -0.123 C  
HETATM   30  C   UNL     1      -5.894  18.103  68.845  1.00  0.00    -0.206 C  
HETATM   31  N   UNL     1      -5.731  19.456  69.447  1.00  0.00    -0.226 NA 
HETATM   32  C   UNL     1      -5.180  19.503  70.798  1.00  0.00    -0.224 C  
HETATM   33  C   UNL     1      -6.948  20.290  69.286  1.00  0.00    -0.040 C  
HETATM   34  C   UNL     1      -6.821  21.067  67.924  1.00  0.00    -0.250 C  
HETATM   35  C   UNL     1      -7.414  20.291  66.813  1.00  0.00    -0.333 A  
HETATM   36  C   UNL     1      -7.121  20.102  65.475  1.00  0.00    -0.289 A  
HETATM   37  N   UNL     1      -8.041  19.230  64.964  1.00  0.00     0.852 NA 
HETATM   38  H   UNL     1      -8.021  18.850  64.017  1.00  0.00     0.000 HD 
HETATM   39  C   UNL     1      -8.998  18.937  65.909  1.00  0.00     0.181 A  
HETATM   40  C   UNL     1     -10.161  18.174  65.885  1.00  0.00    -0.239 A  
HETATM   41  C   UNL     1     -10.879  18.098  67.093  1.00  0.00    -0.212 A  
HETATM   42  C   UNL     1     -10.370  18.613  68.294  1.00  0.00    -0.388 A  
HETATM   43  C   UNL     1      -9.129  19.246  68.314  1.00  0.00    -0.394 A  
HETATM   44  C   UNL     1      -8.546  19.514  67.076  1.00  0.00    -0.339 A  
HETATM   45  C   UNL     1      -8.302  19.490  69.557  1.00  0.00     0.249 C  
HETATM   46  C   UNL     1      -7.999  18.123  70.247  1.00  0.00     2.655 C  
ENDBRANCH  27  29
ENDBRANCH  13  25
TORSDOF 4
ENDMDL
MODEL      112
REMARK 921   NORMALIZED FREE ENERGY PREDICTED BY IDOCK:   -3.79 KCAL/MOL
REMARK 922        TOTAL FREE ENERGY PREDICTED BY IDOCK:   -5.91 KCAL/MOL
REMARK 923 INTER-LIGAND FREE ENERGY PREDICTED BY IDOCK:   -5.27 KCAL/MOL
REMARK 924 INTRA-LIGAND FREE ENERGY PREDICTED BY IDOCK:   -0.64 KCAL/MOL
REMARK 927      BINDING AFFINITY PREDICTED BY RF-SCORE:    0.00 PKD
ROOT
HETATM    1  C   UNL     1      -8.905   6.504  67.010  1.00  0.00    -0.116 C  
HETATM    2  C   UNL     1      -9.141   5.603  65.796  1.00  0.00    -0.139 C  
HETATM    3  C   UNL     1      -8.267   4.357  66.119  1.00  0.00    -0.102 C  
HETATM    4  C   UNL     1      -7.396   4.745  67.319  1.00  0.00    -0.077 C  
HETATM    5  N   UNL     1      -7.592   6.172  67.482  1.00  0.00    -0.092 N  
HETATM    6  C   UNL     1      -7.158   6.748  68.660  1.00  0.00    -0.082 C  
HETATM    7  O   UNL     1      -6.036   6.547  69.118  1.00  0.00    -0.020 OA 
HETATM    8  C   UNL     1      -8.153   7.781  69.286  1.00  0.00    -0.127 C  
HETATM    9  O   UNL     1      -9.191   9.362  67.390  1.00  0.00    -0.126 OA 
HETATM   10  N   UNL     1      -9.597   7.759  68.729  1.00  0.00    -0.153 N  
HETATM   11  C   UNL     1     -10.421   8.838  68.907  1.00  0.00    -0.197 C  
HETATM   12  H   UNL     1     -11.155   8.721  66.824  1.00  0.00     0.000 HD 
HETATM   13  C   UNL     1      -9.465  10.052  68.812  1.00  0.00    -0.162 C  
HETATM   14  O   UNL     1     -11.646   8.728  68.906  1.00  0.00     0.625 OA 
HETATM   15  O   UNL     1     -10.778   7.871  66.628  1.00  0.00    -0.223 OA 
HETATM   16  C   UNL     1     -10.542  10.557  69.912  1.00  0.00    -0.261 C  
HETATM   17  C   UNL     1      -9.539   7.934  67.338  1.00  0.00    -0.152 C  
ENDROOT
BRANCH   8  18
HETATM   18  C   UNL     1      -8.109   7.776  70.822  1.00  0.00    -0.102 C  
BRANCH  18  19
HETATM   19  C   UNL     1      -7.256   8.921  71.278  1.00  0.00    -0.111 A  
HETATM   20  C   UNL     1      -5.781  10.709  70.609  1.00  0.00    -0.111 A  
HETATM   21  C   UNL     1      -5.130  10.621  71.837  1.00  0.00     0.015 A  
HETATM   22  C   UNL     1      -6.652   8.885  72.537  1.00  0.00     0.063 A  
HETATM   23  C   UNL     1      -5.585   9.731  72.811  1.00  0.00     0.227 A  
HETATM   24  C   UNL     1      -6.862   9.884  70.340  1.00  0.00    -0.141 A  
ENDBRANCH  18  19
ENDBRANCH   8  18
BRANCH  13  25
HETATM   25  N   UNL     1      -8.655  11.284  68.864  1.00  0.00    -0.333 N  
HETATM   26  O   UNL     1      -8.277  12.022  66.726  1.00  0.00    -0.171 OA 
HETATM   27  C   UNL     1      -8.351  12.261  67.923  1.00  0.00    -0.163 C  
HETATM   28  H   UNL     1      -8.231  11.452  69.776  1.00  0.00     0.000 HD 
BRANCH  27  29
HETATM   29  C   UNL     1      -8.044  13.691  68.565  1.00  0.00    -0.118 C  
HETATM   30  C   UNL     1      -7.703  14.853  67.587  1.00  0.00    -0.179 C  
HETATM   31  N   UNL     1      -8.166  16.209  67.993  1.00  0.00    -0.149 NA 
HETATM   32  C   UNL     1      -7.466  16.823  69.119  1.00  0.00    -0.196 C  
HETATM   33  C   UNL     1      -9.643  16.282  68.116  1.00  0.00    -0.219 C  
HETATM   34  C   UNL     1     -10.222  16.691  66.712  1.00  0.00    -0.301 C  
HETATM   35  C   UNL     1     -10.521  15.496  65.893  1.00  0.00    -0.356 A  
HETATM   36  C   UNL     1     -10.447  15.176  64.551  1.00  0.00     0.180 A  
HETATM   37  N   UNL     1     -10.845  13.877  64.406  1.00  0.00    -0.584 NA 
HETATM   38  H   UNL     1     -10.816  13.352  63.531  1.00  0.00     0.000 HD 
HETATM   39  C   UNL     1     -11.289  13.378  65.609  1.00  0.00    -0.298 A  
HETATM   40  C   UNL     1     -11.848  12.162  65.989  1.00  0.00    -0.328 A  
HETATM   41  C   UNL     1     -12.158  12.020  67.355  1.00  0.00     0.094 A  
HETATM   42  C   UNL     1     -11.772  12.974  68.307  1.00  0.00    -0.390 A  
HETATM   43  C   UNL     1     -11.081  14.118  67.913  1.00  0.00    -0.285 A  
HETATM   44  C   UNL     1     -10.990  14.348  66.540  1.00  0.00    -0.316 A  
HETATM   45  C   UNL     1     -10.281  15.008  68.837  1.00  0.00    -0.235 C  
HETATM   46  C   UNL     1      -9.168  14.159  69.529  1.00  0.00     0.641 C  
ENDBRANCH  27  29
ENDBRANCH  13  25
TORSDOF 4
ENDMDL
MODEL      113
REMARK 921   NORMALIZED FREE ENERGY PREDICTED BY IDOCK:   -3.76 KCAL/MOL
REMARK 922        TOTAL FREE ENERGY PREDICTED BY IDOCK:   -5.87 KCAL/MOL
REMARK 923 INTER-LIGAND FREE ENERGY PREDICTED BY IDOCK:   -5.06 KCAL/MOL
REMARK 924 INTRA-LIGAND FREE ENERGY PREDICTED BY IDOCK:   -0.81 KCAL/MOL
REMARK 927      BINDING AFFINITY PREDICTED BY RF-SCORE:    0.00 PKD
ROOT
HETATM    1  C   UNL     1     -11.958  13.765  70.108  1.00  0.00    -0.334 C  
HETATM    2  C   UNL     1     -12.974  14.571  70.918  1.00  0.00    -0.424 C  
HETATM    3  C   UNL     1     -12.634  16.040  70.531  1.00  0.00     0.047 C  
HETATM    4  C   UNL     1     -11.303  15.984  69.773  1.00  0.00    -0.331 C  
HETATM    5  N   UNL     1     -10.823  14.628  69.951  1.00  0.00    -0.169 N  
HETATM    6  C   UNL     1      -9.788  14.203  69.141  1.00  0.00     0.067 C  
HETATM    7  O   UNL     1      -8.764  14.862  68.979  1.00  0.00    -0.191 OA 
HETATM    8  C   UNL     1      -9.963  12.759  68.563  1.00  0.00    -0.164 C  
HETATM    9  O   UNL     1     -10.887  11.093  70.446  1.00  0.00     0.141 OA 
HETATM   10  N   UNL     1     -11.382  12.152  68.668  1.00  0.00    -0.255 N  
HETATM   11  C   UNL     1     -11.562  10.798  68.563  1.00  0.00    -0.255 C  
HETATM   12  H   UNL     1     -12.997  10.779  70.246  1.00  0.00     0.000 HD 
HETATM   13  C   UNL     1     -10.305  10.205  69.244  1.00  0.00    -0.223 C  
HETATM   14  O   UNL     1     -12.628  10.311  68.191  1.00  0.00     1.563 OA 
HETATM   15  O   UNL     1     -13.103  11.722  70.303  1.00  0.00     0.261 OA 
HETATM   16  C   UNL     1     -10.587   9.130  68.064  1.00  0.00    -0.253 C  
HETATM   17  C   UNL     1     -11.781  12.179  70.012  1.00  0.00    -0.252 C  
ENDROOT
BRANCH   8  18
HETATM   18  C   UNL     1      -9.356  12.616  67.159  1.00  0.00    -0.210 C  
BRANCH  18  19
HETATM   19  C   UNL     1     -10.376  13.055  66.152  1.00  0.00    -0.285 A  
HETATM   20  C   UNL     1     -11.548  12.502  64.116  1.00  0.00    -0.457 A  
HETATM   21  C   UNL     1     -11.675  13.858  63.830  1.00  0.00    -0.241 A  
HETATM   22  C   UNL     1     -10.572  14.416  65.902  1.00  0.00    -0.312 A  
HETATM   23  C   UNL     1     -11.215  14.814  64.738  1.00  0.00    -0.392 A  
HETATM   24  C   UNL     1     -10.928  12.099  65.290  1.00  0.00    -0.349 A  
ENDBRANCH  18  19
ENDBRANCH   8  18
BRANCH  13  25
HETATM   25  N   UNL     1      -9.108   9.511  69.754  1.00  0.00    -0.188 N  
HETATM   26  O   UNL     1      -7.557   9.358  68.071  1.00  0.00    -0.083 OA 
HETATM   27  C   UNL     1      -7.813   9.368  69.267  1.00  0.00    -0.085 C  
HETATM   28  H   UNL     1      -9.260   9.040  70.645  1.00  0.00     0.000 HD 
BRANCH  27  29
HETATM   29  C   UNL     1      -6.721   9.150  70.412  1.00  0.00    -0.058 C  
HETATM   30  C   UNL     1      -7.195   9.300  71.886  1.00  0.00     0.395 C  
HETATM   31  N   UNL     1      -6.531   8.412  72.881  1.00  0.00    -0.094 NA 
HETATM   32  C   UNL     1      -5.138   8.720  73.197  1.00  0.00    -0.060 C  
HETATM   33  C   UNL     1      -6.757   6.976  72.588  1.00  0.00    -0.068 C  
HETATM   34  C   UNL     1      -8.074   6.536  73.329  1.00  0.00    -0.109 C  
HETATM   35  C   UNL     1      -9.258   6.723  72.463  1.00  0.00    -0.146 A  
HETATM   36  C   UNL     1     -10.574   7.099  72.657  1.00  0.00    -0.256 A  
HETATM   37  N   UNL     1     -11.191   7.115  71.438  1.00  0.00    -0.246 NA 
HETATM   38  H   UNL     1     -12.146   7.430  71.272  1.00  0.00     0.000 HD 
HETATM   39  C   UNL     1     -10.337   6.644  70.466  1.00  0.00    -0.199 A  
HETATM   40  C   UNL     1     -10.485   6.399  69.104  1.00  0.00    -0.274 A  
HETATM   41  C   UNL     1      -9.343   5.928  68.431  1.00  0.00    -0.124 A  
HETATM   42  C   UNL     1      -8.085   5.870  69.050  1.00  0.00    -0.103 A  
HETATM   43  C   UNL     1      -7.940   6.262  70.379  1.00  0.00    -0.111 A  
HETATM   44  C   UNL     1      -9.117   6.503  71.089  1.00  0.00    -0.152 A  
HETATM   45  C   UNL     1      -6.627   6.619  71.038  1.00  0.00    -0.053 C  
HETATM   46  C   UNL     1      -5.967   7.801  70.260  1.00  0.00    -0.029 C  
ENDBRANCH  27  29
ENDBRANCH  13  25
TORSDOF 4
ENDMDL
MODEL      114
REMARK 921   NORMALIZED FREE ENERGY PREDICTED BY IDOCK:   -3.75 KCAL/MOL
REMARK 922        TOTAL FREE ENERGY PREDICTED BY IDOCK:   -5.87 KCAL/MOL
REMARK 923 INTER-LIGAND FREE ENERGY PREDICTED BY IDOCK:   -4.15 KCAL/MOL
REMARK 924 INTRA-LIGAND FREE ENERGY PREDICTED BY IDOCK:   -1.72 KCAL/MOL
REMARK 927      BINDING AFFINITY PREDICTED BY RF-SCORE:    0.00 PKD
ROOT
HETATM    1  C   UNL     1     -11.411  14.672  69.099  1.00  0.00    -0.281 C  
HETATM    2  C   UNL     1     -12.544  15.261  69.940  1.00  0.00    -0.213 C  
HETATM    3  C   UNL     1     -11.891  16.534  70.552  1.00  0.00     0.360 C  
HETATM    4  C   UNL     1     -10.391  16.429  70.256  1.00  0.00     0.250 C  
HETATM    5  N   UNL     1     -10.199  15.085  69.747  1.00  0.00    -0.173 N  
HETATM    6  C   UNL     1      -8.999  14.801  69.126  1.00  0.00    -0.078 C  
HETATM    7  O   UNL     1      -7.914  15.086  69.627  1.00  0.00    -0.184 OA 
HETATM    8  C   UNL     1      -9.127  13.963  67.810  1.00  0.00    -0.191 C  
HETATM    9  O   UNL     1     -10.914  11.992  68.115  1.00  0.00    -0.207 OA 
HETATM   10  N   UNL     1     -10.544  13.874  67.196  1.00  0.00    -0.276 N  
HETATM   11  C   UNL     1     -10.847  12.882  66.302  1.00  0.00    -0.275 C  
HETATM   12  H   UNL     1     -12.807  12.511  67.257  1.00  0.00     0.000 HD 
HETATM   13  C   UNL     1     -10.038  11.665  66.812  1.00  0.00    -0.213 C  
HETATM   14  O   UNL     1     -11.743  13.009  65.469  1.00  0.00    -0.333 OA 
HETATM   15  O   UNL     1     -12.801  13.284  67.809  1.00  0.00     0.666 OA 
HETATM   16  C   UNL     1      -9.984  11.454  65.206  1.00  0.00    -0.303 C  
HETATM   17  C   UNL     1     -11.421  13.372  68.169  1.00  0.00    -0.304 C  
ENDROOT
BRANCH   8  18
HETATM   18  C   UNL     1      -8.052  14.333  66.777  1.00  0.00     0.210 C  
BRANCH  18  19
HETATM   19  C   UNL     1      -8.149  15.801  66.493  1.00  0.00    -0.231 A  
HETATM   20  C   UNL     1      -7.241  17.991  66.942  1.00  0.00    -0.225 A  
HETATM   21  C   UNL     1      -8.491  18.552  66.697  1.00  0.00    -0.288 A  
HETATM   22  C   UNL     1      -9.384  16.372  66.173  1.00  0.00    -0.360 A  
HETATM   23  C   UNL     1      -9.554  17.746  66.283  1.00  0.00    -0.256 A  
HETATM   24  C   UNL     1      -7.060  16.623  66.811  1.00  0.00    -0.271 A  
ENDBRANCH  18  19
ENDBRANCH   8  18
BRANCH  13  25
HETATM   25  N   UNL     1      -9.231  10.469  67.117  1.00  0.00    -0.143 N  
HETATM   26  O   UNL     1      -8.110  10.804  69.089  1.00  0.00    -0.152 OA 
HETATM   27  C   UNL     1      -8.575  10.032  68.262  1.00  0.00    -0.115 C  
HETATM   28  H   UNL     1      -9.134   9.832  66.326  1.00  0.00     0.000 HD 
BRANCH  27  29
HETATM   29  C   UNL     1      -8.431   8.444  68.349  1.00  0.00    -0.135 C  
HETATM   30  C   UNL     1      -8.869   7.619  67.103  1.00  0.00    -0.125 C  
HETATM   31  N   UNL     1      -8.089   6.380  66.831  1.00  0.00    -0.108 NA 
HETATM   32  C   UNL     1      -8.293   5.269  67.757  1.00  0.00    -0.098 C  
HETATM   33  C   UNL     1      -6.657   6.666  66.571  1.00  0.00    -0.044 C  
HETATM   34  C   UNL     1      -6.488   6.907  65.026  1.00  0.00    -0.043 C  
HETATM   35  C   UNL     1      -6.657   8.339  64.691  1.00  0.00    -0.065 A  
HETATM   36  C   UNL     1      -7.199   9.048  63.636  1.00  0.00    -0.093 A  
HETATM   37  N   UNL     1      -7.082  10.379  63.920  1.00  0.00    -0.320 NA 
HETATM   38  H   UNL     1      -7.467  11.133  63.351  1.00  0.00     0.000 HD 
HETATM   39  C   UNL     1      -6.370  10.557  65.085  1.00  0.00    -0.064 A  
HETATM   40  C   UNL     1      -5.924  11.684  65.768  1.00  0.00     0.884 A  
HETATM   41  C   UNL     1      -5.229  11.448  66.969  1.00  0.00    -0.088 A  
HETATM   42  C   UNL     1      -5.138  10.169  67.536  1.00  0.00    -0.037 A  
HETATM   43  C   UNL     1      -5.724   9.077  66.899  1.00  0.00    -0.045 A  
HETATM   44  C   UNL     1      -6.202   9.293  65.607  1.00  0.00    -0.063 A  
HETATM   45  C   UNL     1      -6.040   7.755  67.562  1.00  0.00    -0.049 C  
HETATM   46  C   UNL     1      -7.001   8.003  68.767  1.00  0.00    -0.066 C  
ENDBRANCH  27  29
ENDBRANCH  13  25
TORSDOF 4
ENDMDL
MODEL      115
REMARK 921   NORMALIZED FREE ENERGY PREDICTED BY IDOCK:   -3.71 KCAL/MOL
REMARK 922        TOTAL FREE ENERGY PREDICTED BY IDOCK:   -5.81 KCAL/MOL
REMARK 923 INTER-LIGAND FREE ENERGY PREDICTED BY IDOCK:   -6.52 KCAL/MOL
REMARK 924 INTRA-LIGAND FREE ENERGY PREDICTED BY IDOCK:    0.70 KCAL/MOL
REMARK 927      BINDING AFFINITY PREDICTED BY RF-SCORE:    0.00 PKD
ROOT
HETATM    1  C   UNL     1      -7.218   7.684  65.542  1.00  0.00    -0.068 C  
HETATM    2  C   UNL     1      -6.132   6.801  64.924  1.00  0.00    -0.036 C  
HETATM    3  C   UNL     1      -6.257   5.482  65.740  1.00  0.00    -0.034 C  
HETATM    4  C   UNL     1      -7.182   5.797  66.921  1.00  0.00    -0.075 C  
HETATM    5  N   UNL     1      -7.347   7.237  66.898  1.00  0.00    -0.090 N  
HETATM    6  C   UNL     1      -8.358   7.777  67.669  1.00  0.00    -0.121 C  
HETATM    7  O   UNL     1      -8.519   7.478  68.850  1.00  0.00    -0.128 OA 
HETATM    8  C   UNL     1      -9.187   8.902  66.963  1.00  0.00    -0.137 C  
HETATM    9  O   UNL     1      -7.573  10.559  65.613  1.00  0.00    -0.148 OA 
HETATM   10  N   UNL     1      -9.018   9.008  65.428  1.00  0.00    -0.204 N  
HETATM   11  C   UNL     1      -9.369  10.160  64.774  1.00  0.00    -0.268 C  
HETATM   12  H   UNL     1      -7.548  10.097  63.521  1.00  0.00     0.000 HD 
HETATM   13  C   UNL     1      -8.997  11.280  65.775  1.00  0.00    -0.181 C  
HETATM   14  O   UNL     1      -9.685  10.162  63.586  1.00  0.00    -0.280 OA 
HETATM   15  O   UNL     1      -7.288   9.215  63.759  1.00  0.00    -0.098 OA 
HETATM   16  C   UNL     1     -10.321  11.889  65.066  1.00  0.00    -0.330 C  
HETATM   17  C   UNL     1      -7.654   9.168  65.140  1.00  0.00    -0.098 C  
ENDROOT
BRANCH   8  18
HETATM   18  C   UNL     1     -10.659   8.903  67.400  1.00  0.00    -0.305 C  
BRANCH  18  19
HETATM   19  C   UNL     1     -10.716   9.127  68.881  1.00  0.00    -0.167 A  
HETATM   20  C   UNL     1      -9.492   9.776  70.856  1.00  0.00     0.151 A  
HETATM   21  C   UNL     1     -10.332   8.980  71.630  1.00  0.00    -0.420 A  
HETATM   22  C   UNL     1     -11.605   8.389  69.667  1.00  0.00     0.490 A  
HETATM   23  C   UNL     1     -11.406   8.311  71.039  1.00  0.00    -0.299 A  
HETATM   24  C   UNL     1      -9.701   9.877  69.489  1.00  0.00    -0.238 A  
ENDBRANCH  18  19
ENDBRANCH   8  18
BRANCH  13  25
HETATM   25  N   UNL     1      -8.803  12.433  66.675  1.00  0.00    -0.327 N  
HETATM   26  O   UNL     1      -8.245  11.666  68.764  1.00  0.00    -0.134 OA 
HETATM   27  C   UNL     1      -8.233  12.567  67.936  1.00  0.00    -0.165 C  
HETATM   28  H   UNL     1      -9.158  13.309  66.295  1.00  0.00     0.000 HD 
BRANCH  27  29
HETATM   29  C   UNL     1      -7.636  14.022  68.215  1.00  0.00    -0.135 C  
HETATM   30  C   UNL     1      -7.812  15.091  67.098  1.00  0.00    -0.190 C  
HETATM   31  N   UNL     1      -8.001  16.495  67.558  1.00  0.00    -0.154 NA 
HETATM   32  C   UNL     1      -6.830  17.151  68.134  1.00  0.00    -0.176 C  
HETATM   33  C   UNL     1      -9.222  16.653  68.385  1.00  0.00    -0.225 C  
HETATM   34  C   UNL     1     -10.417  16.990  67.418  1.00  0.00    -0.322 C  
HETATM   35  C   UNL     1     -11.093  15.756  66.960  1.00  0.00    -0.152 A  
HETATM   36  C   UNL     1     -11.696  15.337  65.789  1.00  0.00     0.083 A  
HETATM   37  N   UNL     1     -12.125  14.053  65.974  1.00  0.00    -0.417 NA 
HETATM   38  H   UNL     1     -12.538  13.466  65.249  1.00  0.00     0.000 HD 
HETATM   39  C   UNL     1     -11.920  13.665  67.279  1.00  0.00    -0.381 A  
HETATM   40  C   UNL     1     -12.230  12.510  67.991  1.00  0.00     0.109 A  
HETATM   41  C   UNL     1     -11.825  12.483  69.338  1.00  0.00    -0.368 A  
HETATM   42  C   UNL     1     -11.009  13.482  69.889  1.00  0.00     0.258 A  
HETATM   43  C   UNL     1     -10.593  14.557  69.106  1.00  0.00    -0.242 A  
HETATM   44  C   UNL     1     -11.191  14.683  67.852  1.00  0.00    -0.318 A  
HETATM   45  C   UNL     1      -9.432  15.469  69.435  1.00  0.00    -0.278 C  
HETATM   46  C   UNL     1      -8.131  14.616  69.562  1.00  0.00     0.099 C  
ENDBRANCH  27  29
ENDBRANCH  13  25
TORSDOF 4
ENDMDL
MODEL      116
REMARK 921   NORMALIZED FREE ENERGY PREDICTED BY IDOCK:   -3.28 KCAL/MOL
REMARK 922        TOTAL FREE ENERGY PREDICTED BY IDOCK:   -5.29 KCAL/MOL
REMARK 923 INTER-LIGAND FREE ENERGY PREDICTED BY IDOCK:   -4.36 KCAL/MOL
REMARK 924 INTRA-LIGAND FREE ENERGY PREDICTED BY IDOCK:   -0.93 KCAL/MOL
REMARK 927      BINDING AFFINITY PREDICTED BY RF-SCORE:    0.00 PKD
ROOT
HETATM    1  C   UNL     1     -11.975  13.130  65.198  1.00  0.00    -0.394 C  
HETATM    2  C   UNL     1     -13.284  12.914  64.436  1.00  0.00     0.298 C  
HETATM    3  C   UNL     1     -12.990  11.632  63.606  1.00  0.00    -0.062 C  
HETATM    4  C   UNL     1     -11.483  11.379  63.729  1.00  0.00    -0.154 C  
HETATM    5  N   UNL     1     -10.951  12.568  64.365  1.00  0.00    -0.317 N  
HETATM    6  C   UNL     1      -9.666  12.507  64.865  1.00  0.00     0.028 C  
HETATM    7  O   UNL     1      -8.723  12.074  64.206  1.00  0.00     0.809 OA 
HETATM    8  C   UNL     1      -9.482  13.160  66.275  1.00  0.00    -0.185 C  
HETATM    9  O   UNL     1     -10.806  15.484  66.419  1.00  0.00    -0.308 OA 
HETATM   10  N   UNL     1     -10.781  13.456  67.062  1.00  0.00    -0.267 N  
HETATM   11  C   UNL     1     -10.771  14.354  68.096  1.00  0.00    -0.236 C  
HETATM   12  H   UNL     1     -12.679  15.256  67.434  1.00  0.00     0.000 HD 
HETATM   13  C   UNL     1      -9.763  15.435  67.637  1.00  0.00    -0.211 C  
HETATM   14  O   UNL     1     -11.592  14.301  69.010  1.00  0.00    -0.266 OA 
HETATM   15  O   UNL     1     -12.897  14.584  66.798  1.00  0.00     0.220 OA 
HETATM   16  C   UNL     1      -9.515  15.403  69.238  1.00  0.00    -0.261 C  
HETATM   17  C   UNL     1     -11.610  14.261  66.267  1.00  0.00    -0.372 C  
ENDROOT
BRANCH   8  18
HETATM   18  C   UNL     1      -8.426  12.433  67.121  1.00  0.00    -0.185 C  
BRANCH  18  19
HETATM   19  C   UNL     1      -9.001  11.129  67.584  1.00  0.00    -0.140 A  
HETATM   20  C   UNL     1      -9.845   9.866  69.459  1.00  0.00    -0.241 A  
HETATM   21  C   UNL     1      -9.436   8.688  68.840  1.00  0.00    -0.146 A  
HETATM   22  C   UNL     1      -8.660   9.943  66.930  1.00  0.00    -0.131 A  
HETATM   23  C   UNL     1      -8.872   8.725  67.563  1.00  0.00    -0.139 A  
HETATM   24  C   UNL     1      -9.657  11.083  68.821  1.00  0.00    -0.194 A  
ENDBRANCH  18  19
ENDBRANCH   8  18
BRANCH  13  25
HETATM   25  N   UNL     1      -8.741  16.467  67.378  1.00  0.00    -0.180 N  
HETATM   26  O   UNL     1      -7.204  16.442  69.080  1.00  0.00    -0.191 OA 
HETATM   27  C   UNL     1      -7.487  16.719  67.922  1.00  0.00    -0.160 C  
HETATM   28  H   UNL     1      -9.010  17.130  66.652  1.00  0.00     0.000 HD 
BRANCH  27  29
HETATM   29  C   UNL     1      -6.493  17.463  66.918  1.00  0.00    -0.219 C  
HETATM   30  C   UNL     1      -7.046  17.830  65.510  1.00  0.00     0.220 C  
HETATM   31  N   UNL     1      -6.525  19.090  64.910  1.00  0.00    -0.491 NA 
HETATM   32  C   UNL     1      -5.135  19.070  64.464  1.00  0.00    -0.188 C  
HETATM   33  C   UNL     1      -6.856  20.280  65.732  1.00  0.00    -0.259 C  
HETATM   34  C   UNL     1      -8.250  20.826  65.249  1.00  0.00     1.068 C  
HETATM   35  C   UNL     1      -9.356  20.205  66.010  1.00  0.00    -0.304 A  
HETATM   36  C   UNL     1     -10.644  19.795  65.723  1.00  0.00    -0.419 A  
HETATM   37  N   UNL     1     -11.178  19.259  66.860  1.00  0.00    -0.091 NA 
HETATM   38  H   UNL     1     -12.091  18.807  66.919  1.00  0.00     0.000 HD 
HETATM   39  C   UNL     1     -10.308  19.416  67.915  1.00  0.00    -0.430 A  
HETATM   40  C   UNL     1     -10.389  19.115  69.271  1.00  0.00     0.126 A  
HETATM   41  C   UNL     1      -9.251  19.414  70.043  1.00  0.00     0.875 A  
HETATM   42  C   UNL     1      -8.046  19.831  69.459  1.00  0.00     0.262 A  
HETATM   43  C   UNL     1      -7.953  19.984  68.078  1.00  0.00    -0.277 A  
HETATM   44  C   UNL     1      -9.147  19.907  67.361  1.00  0.00    -0.436 A  
HETATM   45  C   UNL     1      -6.658  20.040  67.298  1.00  0.00    -0.237 C  
HETATM   46  C   UNL     1      -5.851  18.728  67.551  1.00  0.00    -0.170 C  
ENDBRANCH  27  29
ENDBRANCH  13  25
TORSDOF 4
ENDMDL
MODEL      117
REMARK 921   NORMALIZED FREE ENERGY PREDICTED BY IDOCK:   -3.26 KCAL/MOL
REMARK 922        TOTAL FREE ENERGY PREDICTED BY IDOCK:   -5.26 KCAL/MOL
REMARK 923 INTER-LIGAND FREE ENERGY PREDICTED BY IDOCK:   -4.25 KCAL/MOL
REMARK 924 INTRA-LIGAND FREE ENERGY PREDICTED BY IDOCK:   -1.01 KCAL/MOL
REMARK 927      BINDING AFFINITY PREDICTED BY RF-SCORE:    0.00 PKD
ROOT
HETATM    1  C   UNL     1      -7.520   5.007  64.773  1.00  0.00    -0.075 C  
HETATM    2  C   UNL     1      -6.758   4.398  63.595  1.00  0.00    -0.043 C  
HETATM    3  C   UNL     1      -7.873   4.207  62.526  1.00  0.00    -0.065 C  
HETATM    4  C   UNL     1      -9.203   4.445  63.250  1.00  0.00    -0.122 C  
HETATM    5  N   UNL     1      -8.861   4.510  64.657  1.00  0.00    -0.146 N  
HETATM    6  C   UNL     1      -9.816   5.003  65.526  1.00  0.00    -0.037 C  
HETATM    7  O   UNL     1     -10.979   4.607  65.520  1.00  0.00    -0.255 OA 
HETATM    8  C   UNL     1      -9.266   5.994  66.605  1.00  0.00    -0.142 C  
HETATM    9  O   UNL     1      -6.949   5.106  67.612  1.00  0.00    -0.062 OA 
HETATM   10  N   UNL     1      -7.849   6.562  66.349  1.00  0.00    -0.102 N  
HETATM   11  C   UNL     1      -7.128   7.106  67.378  1.00  0.00    -0.084 C  
HETATM   12  H   UNL     1      -5.274   6.097  66.717  1.00  0.00     0.000 HD 
HETATM   13  C   UNL     1      -7.514   6.237  68.599  1.00  0.00    -0.088 C  
HETATM   14  O   UNL     1      -6.249   7.944  67.184  1.00  0.00    -0.051 OA 
HETATM   15  O   UNL     1      -5.606   5.812  65.874  1.00  0.00    -0.013 OA 
HETATM   16  C   UNL     1      -7.321   7.697  69.274  1.00  0.00    -0.088 C  
HETATM   17  C   UNL     1      -6.961   5.487  66.191  1.00  0.00    -0.063 C  
ENDROOT
BRANCH   8  18
HETATM   18  C   UNL     1     -10.286   7.084  66.969  1.00  0.00    -0.360 C  
BRANCH  18  19
HETATM   19  C   UNL     1      -9.816   8.387  66.397  1.00  0.00    -0.310 A  
HETATM   20  C   UNL     1      -8.508   9.464  64.678  1.00  0.00    -0.179 A  
HETATM   21  C   UNL     1      -8.277  10.535  65.537  1.00  0.00    -0.162 A  
HETATM   22  C   UNL     1      -9.646   9.496  67.230  1.00  0.00    -0.192 A  
HETATM   23  C   UNL     1      -8.870  10.564  66.801  1.00  0.00    -0.139 A  
HETATM   24  C   UNL     1      -9.302   8.405  65.094  1.00  0.00     0.366 A  
ENDBRANCH  18  19
ENDBRANCH   8  18
BRANCH  13  25
HETATM   25  N   UNL     1      -7.884   5.569  69.862  1.00  0.00    -0.081 N  
HETATM   26  O   UNL     1      -6.180   5.833  71.374  1.00  0.00    -0.036 OA 
HETATM   27  C   UNL     1      -7.363   5.620  71.150  1.00  0.00    -0.085 C  
HETATM   28  H   UNL     1      -8.684   4.944  69.771  1.00  0.00     0.000 HD 
BRANCH  27  29
HETATM   29  C   UNL     1      -8.441   5.304  72.286  1.00  0.00    -0.125 C  
HETATM   30  C   UNL     1      -9.835   4.791  71.823  1.00  0.00    -0.180 C  
HETATM   31  N   UNL     1     -10.507   3.815  72.726  1.00  0.00    -0.161 NA 
HETATM   32  C   UNL     1     -11.015   4.344  73.989  1.00  0.00    -0.198 C  
HETATM   33  C   UNL     1      -9.717   2.571  72.892  1.00  0.00    -0.110 C  
HETATM   34  C   UNL     1     -10.157   1.568  71.762  1.00  0.00    -0.211 C  
HETATM   35  C   UNL     1      -9.322   1.733  70.552  1.00  0.00    -0.176 A  
HETATM   36  C   UNL     1      -9.534   1.657  69.188  1.00  0.00    -0.088 A  
HETATM   37  N   UNL     1      -8.354   1.942  68.562  1.00  0.00    -0.056 NA 
HETATM   38  H   UNL     1      -8.236   2.034  67.553  1.00  0.00     0.000 HD 
HETATM   39  C   UNL     1      -7.346   2.088  69.489  1.00  0.00    -0.043 A  
HETATM   40  C   UNL     1      -5.977   2.313  69.383  1.00  0.00    -0.024 A  
HETATM   41  C   UNL     1      -5.271   2.429  70.594  1.00  0.00    -0.004 A  
HETATM   42  C   UNL     1      -5.925   2.486  71.834  1.00  0.00    -0.013 A  
HETATM   43  C   UNL     1      -7.314   2.404  71.897  1.00  0.00    -0.040 A  
HETATM   44  C   UNL     1      -7.972   2.060  70.716  1.00  0.00    -0.048 A  
HETATM   45  C   UNL     1      -8.154   2.834  73.079  1.00  0.00    -0.066 C  
HETATM   46  C   UNL     1      -7.887   4.344  73.374  1.00  0.00    -0.090 C  
ENDBRANCH  27  29
ENDBRANCH  13  25
TORSDOF 4
ENDMDL
MODEL      118
REMARK 921   NORMALIZED FREE ENERGY PREDICTED BY IDOCK:   -3.20 KCAL/MOL
REMARK 922        TOTAL FREE ENERGY PREDICTED BY IDOCK:   -5.18 KCAL/MOL
REMARK 923 INTER-LIGAND FREE ENERGY PREDICTED BY IDOCK:   -3.66 KCAL/MOL
REMARK 924 INTRA-LIGAND FREE ENERGY PREDICTED BY IDOCK:   -1.53 KCAL/MOL
REMARK 927      BINDING AFFINITY PREDICTED BY RF-SCORE:    0.00 PKD
ROOT
HETATM    1  C   UNL     1      -8.915  10.118  65.627  1.00  0.00    -0.171 C  
HETATM    2  C   UNL     1      -8.628   8.944  64.689  1.00  0.00    -0.169 C  
HETATM    3  C   UNL     1      -8.147   7.833  65.667  1.00  0.00    -0.129 C  
HETATM    4  C   UNL     1      -7.925   8.521  67.018  1.00  0.00    -0.100 C  
HETATM    5  N   UNL     1      -8.030   9.940  66.742  1.00  0.00    -0.115 N  
HETATM    6  C   UNL     1      -8.160  10.794  67.820  1.00  0.00    -0.111 C  
HETATM    7  O   UNL     1      -7.422  10.735  68.800  1.00  0.00    -0.092 OA 
HETATM    8  C   UNL     1      -9.224  11.926  67.630  1.00  0.00    -0.183 C  
HETATM    9  O   UNL     1      -9.058  12.976  65.171  1.00  0.00     0.616 OA 
HETATM   10  N   UNL     1     -10.216  11.738  66.457  1.00  0.00    -0.204 N  
HETATM   11  C   UNL     1     -10.911  12.810  65.963  1.00  0.00    -0.278 C  
HETATM   12  H   UNL     1     -10.562  12.174  63.874  1.00  0.00     0.000 HD 
HETATM   13  C   UNL     1      -9.910  13.985  66.082  1.00  0.00    -0.303 C  
HETATM   14  O   UNL     1     -11.989  12.676  65.388  1.00  0.00    -0.399 OA 
HETATM   15  O   UNL     1     -10.226  11.310  64.083  1.00  0.00    -0.277 OA 
HETATM   16  C   UNL     1     -11.326  14.719  66.369  1.00  0.00    -0.339 C  
HETATM   17  C   UNL     1      -9.481  11.570  65.275  1.00  0.00    -0.184 C  
ENDROOT
BRANCH   8  18
HETATM   18  C   UNL     1      -9.923  12.296  68.947  1.00  0.00     0.046 C  
BRANCH  18  19
HETATM   19  C   UNL     1     -10.707  11.110  69.420  1.00  0.00    -0.220 A  
HETATM   20  C   UNL     1     -12.827  10.313  70.253  1.00  0.00    -0.125 A  
HETATM   21  C   UNL     1     -12.168   9.296  70.937  1.00  0.00    -0.264 A  
HETATM   22  C   UNL     1     -10.054  10.044  70.045  1.00  0.00    -0.289 A  
HETATM   23  C   UNL     1     -10.786   9.143  70.808  1.00  0.00    -0.327 A  
HETATM   24  C   UNL     1     -12.104  11.200  69.470  1.00  0.00    -0.396 A  
ENDBRANCH  18  19
ENDBRANCH   8  18
BRANCH  13  25
HETATM   25  N   UNL     1      -9.105  15.209  66.249  1.00  0.00    -0.385 N  
HETATM   26  O   UNL     1      -6.960  14.623  66.811  1.00  0.00     0.222 OA 
HETATM   27  C   UNL     1      -7.737  15.441  66.338  1.00  0.00     0.614 C  
HETATM   28  H   UNL     1      -9.666  16.058  66.311  1.00  0.00     0.000 HD 
BRANCH  27  29
HETATM   29  C   UNL     1      -7.302  16.892  65.832  1.00  0.00     0.257 C  
HETATM   30  C   UNL     1      -8.429  17.948  65.639  1.00  0.00     0.596 C  
HETATM   31  N   UNL     1      -8.062  19.360  65.938  1.00  0.00    -0.448 NA 
HETATM   32  C   UNL     1      -7.160  20.011  64.992  1.00  0.00    -0.031 C  
HETATM   33  C   UNL     1      -7.654  19.544  67.353  1.00  0.00    -0.251 C  
HETATM   34  C   UNL     1      -8.945  19.882  68.186  1.00  0.00    -0.330 C  
HETATM   35  C   UNL     1      -9.577  18.650  68.708  1.00  0.00    -0.383 A  
HETATM   36  C   UNL     1     -10.872  18.222  68.927  1.00  0.00     0.627 A  
HETATM   37  N   UNL     1     -10.817  16.946  69.412  1.00  0.00    -0.351 NA 
HETATM   38  H   UNL     1     -11.628  16.354  69.591  1.00  0.00     0.000 HD 
HETATM   39  C   UNL     1      -9.509  16.574  69.626  1.00  0.00     0.206 A  
HETATM   40  C   UNL     1      -8.916  15.433  70.157  1.00  0.00     0.520 A  
HETATM   41  C   UNL     1      -7.510  15.420  70.187  1.00  0.00     0.275 A  
HETATM   42  C   UNL     1      -6.743  16.417  69.566  1.00  0.00    -0.202 A  
HETATM   43  C   UNL     1      -7.370  17.476  68.912  1.00  0.00    -0.245 A  
HETATM   44  C   UNL     1      -8.748  17.591  69.092  1.00  0.00     0.102 A  
HETATM   45  C   UNL     1      -6.708  18.378  67.894  1.00  0.00    -0.216 C  
HETATM   46  C   UNL     1      -6.178  17.511  66.709  1.00  0.00    -0.218 C  
ENDBRANCH  27  29
ENDBRANCH  13  25
TORSDOF 4
ENDMDL
MODEL      119
REMARK 921   NORMALIZED FREE ENERGY PREDICTED BY IDOCK:   -3.15 KCAL/MOL
REMARK 922        TOTAL FREE ENERGY PREDICTED BY IDOCK:   -5.13 KCAL/MOL
REMARK 923 INTER-LIGAND FREE ENERGY PREDICTED BY IDOCK:   -6.37 KCAL/MOL
REMARK 924 INTRA-LIGAND FREE ENERGY PREDICTED BY IDOCK:    1.24 KCAL/MOL
REMARK 927      BINDING AFFINITY PREDICTED BY RF-SCORE:    0.00 PKD
ROOT
HETATM    1  C   UNL     1     -12.266  12.722  70.157  1.00  0.00    -0.249 C  
HETATM    2  C   UNL     1     -12.827  14.066  70.623  1.00  0.00    -0.320 C  
HETATM    3  C   UNL     1     -12.660  14.963  69.363  1.00  0.00     0.030 C  
HETATM    4  C   UNL     1     -11.777  14.173  68.390  1.00  0.00    -0.345 C  
HETATM    5  N   UNL     1     -11.290  13.042  69.155  1.00  0.00    -0.273 N  
HETATM    6  C   UNL     1     -10.704  12.003  68.459  1.00  0.00    -0.234 C  
HETATM    7  O   UNL     1      -9.835  12.185  67.611  1.00  0.00    -0.188 OA 
HETATM    8  C   UNL     1     -11.132  10.575  68.938  1.00  0.00    -0.261 C  
HETATM    9  O   UNL     1     -11.198  10.454  71.612  1.00  0.00     0.283 OA 
HETATM   10  N   UNL     1     -12.383  10.509  69.846  1.00  0.00    -0.236 N  
HETATM   11  C   UNL     1     -12.614   9.404  70.622  1.00  0.00     0.052 C  
HETATM   12  H   UNL     1     -13.198  10.646  72.356  1.00  0.00     0.000 HD 
HETATM   13  C   UNL     1     -11.197   8.952  71.051  1.00  0.00    -0.281 C  
HETATM   14  O   UNL     1     -13.745   9.093  70.990  1.00  0.00    -0.200 OA 
HETATM   15  O   UNL     1     -13.254  11.467  71.881  1.00  0.00    -0.485 OA 
HETATM   16  C   UNL     1     -11.971   7.536  70.904  1.00  0.00    -0.278 C  
HETATM   17  C   UNL     1     -12.172  11.340  70.956  1.00  0.00    -0.311 C  
ENDROOT
BRANCH   8  18
HETATM   18  C   UNL     1     -11.182   9.564  67.782  1.00  0.00     0.147 C  
BRANCH  18  19
HETATM   19  C   UNL     1      -9.928   9.703  66.972  1.00  0.00    -0.263 A  
HETATM   20  C   UNL     1      -8.967  10.413  64.875  1.00  0.00    -0.225 A  
HETATM   21  C   UNL     1      -7.954   9.471  65.030  1.00  0.00    -0.119 A  
HETATM   22  C   UNL     1      -8.870   8.811  67.163  1.00  0.00    -0.137 A  
HETATM   23  C   UNL     1      -7.889   8.692  66.187  1.00  0.00    -0.098 A  
HETATM   24  C   UNL     1      -9.936  10.553  65.859  1.00  0.00    -0.313 A  
ENDBRANCH  18  19
ENDBRANCH   8  18
BRANCH  13  25
HETATM   25  N   UNL     1      -9.908   8.344  71.432  1.00  0.00    -0.181 N  
HETATM   26  O   UNL     1      -8.434   8.558  69.688  1.00  0.00    -0.125 OA 
HETATM   27  C   UNL     1      -8.631   8.404  70.886  1.00  0.00    -0.146 C  
HETATM   28  H   UNL     1      -9.965   7.762  72.267  1.00  0.00     0.000 HD 
BRANCH  27  29
HETATM   29  C   UNL     1      -7.467   8.183  71.957  1.00  0.00    -0.115 C  
HETATM   30  C   UNL     1      -7.880   7.643  73.356  1.00  0.00    -0.122 C  
HETATM   31  N   UNL     1      -6.899   6.744  74.027  1.00  0.00    -0.072 NA 
HETATM   32  C   UNL     1      -5.678   7.372  74.524  1.00  0.00    -0.070 C  
HETATM   33  C   UNL     1      -6.643   5.512  73.241  1.00  0.00    -0.069 C  
HETATM   34  C   UNL     1      -7.689   4.427  73.694  1.00  0.00    -0.082 C  
HETATM   35  C   UNL     1      -8.913   4.493  72.866  1.00  0.00    -0.125 A  
HETATM   36  C   UNL     1     -10.265   4.312  73.088  1.00  0.00    -0.159 A  
HETATM   37  N   UNL     1     -10.919   4.542  71.910  1.00  0.00     0.202 NA 
HETATM   38  H   UNL     1     -11.933   4.555  71.798  1.00  0.00     0.000 HD 
HETATM   39  C   UNL     1     -10.012   4.754  70.896  1.00  0.00    -0.213 A  
HETATM   40  C   UNL     1     -10.145   4.963  69.527  1.00  0.00    -0.286 A  
HETATM   41  C   UNL     1      -8.951   5.169  68.812  1.00  0.00    -0.120 A  
HETATM   42  C   UNL     1      -7.715   5.326  69.457  1.00  0.00    -0.073 A  
HETATM   43  C   UNL     1      -7.637   5.256  70.846  1.00  0.00    -0.088 A  
HETATM   44  C   UNL     1      -8.783   4.825  71.514  1.00  0.00    -0.135 A  
HETATM   45  C   UNL     1      -6.487   5.781  71.676  1.00  0.00    -0.049 C  
HETATM   46  C   UNL     1      -6.311   7.308  71.400  1.00  0.00    -0.036 C  
ENDBRANCH  27  29
ENDBRANCH  13  25
TORSDOF 4
ENDMDL
MODEL      120
REMARK 921   NORMALIZED FREE ENERGY PREDICTED BY IDOCK:   -3.15 KCAL/MOL
REMARK 922        TOTAL FREE ENERGY PREDICTED BY IDOCK:   -5.13 KCAL/MOL
REMARK 923 INTER-LIGAND FREE ENERGY PREDICTED BY IDOCK:   -5.21 KCAL/MOL
REMARK 924 INTRA-LIGAND FREE ENERGY PREDICTED BY IDOCK:    0.08 KCAL/MOL
REMARK 927      BINDING AFFINITY PREDICTED BY RF-SCORE:    0.00 PKD
ROOT
HETATM    1  C   UNL     1      -6.842   8.931  69.396  1.00  0.00    -0.049 C  
HETATM    2  C   UNL     1      -5.364   8.537  69.397  1.00  0.00    -0.031 C  
HETATM    3  C   UNL     1      -5.260   7.599  70.634  1.00  0.00    -0.023 C  
HETATM    4  C   UNL     1      -6.581   7.749  71.396  1.00  0.00    -0.041 C  
HETATM    5  N   UNL     1      -7.254   8.869  70.769  1.00  0.00    -0.072 N  
HETATM    6  C   UNL     1      -8.592   9.054  71.056  1.00  0.00    -0.210 C  
HETATM    7  O   UNL     1      -9.026   9.053  72.206  1.00  0.00    -0.360 OA 
HETATM    8  C   UNL     1      -9.483   9.407  69.818  1.00  0.00    -0.202 C  
HETATM    9  O   UNL     1      -8.248  11.186  68.242  1.00  0.00    -0.120 OA 
HETATM   10  N   UNL     1      -8.848   9.154  68.430  1.00  0.00    -0.129 N  
HETATM   11  C   UNL     1      -9.355   9.770  67.317  1.00  0.00    -0.138 C  
HETATM   12  H   UNL     1      -7.332  10.236  66.555  1.00  0.00     0.000 HD 
HETATM   13  C   UNL     1      -9.800  11.160  67.835  1.00  0.00    -0.174 C  
HETATM   14  O   UNL     1      -9.219   9.295  66.191  1.00  0.00    -0.166 OA 
HETATM   15  O   UNL     1      -6.860   9.687  67.171  1.00  0.00    -0.081 OA 
HETATM   16  C   UNL     1     -10.922  10.846  66.709  1.00  0.00    -0.248 C  
HETATM   17  C   UNL     1      -7.635   9.854  68.360  1.00  0.00    -0.083 C  
ENDROOT
BRANCH   8  18
HETATM   18  C   UNL     1     -10.902   8.830  69.937  1.00  0.00    -0.211 C  
BRANCH  18  19
HETATM   19  C   UNL     1     -10.846   7.601  70.793  1.00  0.00    -0.246 A  
HETATM   20  C   UNL     1     -10.520   5.211  70.846  1.00  0.00    -0.258 A  
HETATM   21  C   UNL     1     -11.338   5.132  71.970  1.00  0.00     0.072 A  
HETATM   22  C   UNL     1     -11.605   7.530  71.965  1.00  0.00    -0.326 A  
HETATM   23  C   UNL     1     -11.855   6.294  72.547  1.00  0.00    -0.199 A  
HETATM   24  C   UNL     1     -10.248   6.446  70.276  1.00  0.00    -0.236 A  
ENDBRANCH  18  19
ENDBRANCH   8  18
BRANCH  13  25
HETATM   25  N   UNL     1     -10.374  12.463  68.217  1.00  0.00    -0.222 N  
HETATM   26  O   UNL     1     -12.609  12.478  67.700  1.00  0.00     0.154 OA 
HETATM   27  C   UNL     1     -11.679  12.921  68.361  1.00  0.00    -0.345 C  
HETATM   28  H   UNL     1      -9.671  13.174  68.418  1.00  0.00     0.000 HD 
BRANCH  27  29
HETATM   29  C   UNL     1     -11.825  14.116  69.410  1.00  0.00    -0.378 C  
HETATM   30  C   UNL     1     -10.522  14.633  70.086  1.00  0.00     0.213 C  
HETATM   31  N   UNL     1     -10.478  16.090  70.395  1.00  0.00    -0.126 NA 
HETATM   32  C   UNL     1     -11.339  16.549  71.482  1.00  0.00     0.071 C  
HETATM   33  C   UNL     1     -10.590  16.924  69.172  1.00  0.00    -0.330 C  
HETATM   34  C   UNL     1      -9.136  17.170  68.625  1.00  0.00    -0.268 C  
HETATM   35  C   UNL     1      -8.746  16.116  67.662  1.00  0.00    -0.184 A  
HETATM   36  C   UNL     1      -7.576  15.451  67.347  1.00  0.00    -0.203 A  
HETATM   37  N   UNL     1      -7.860  14.544  66.365  1.00  0.00     0.175 NA 
HETATM   38  H   UNL     1      -7.200  13.861  65.993  1.00  0.00     0.000 HD 
HETATM   39  C   UNL     1      -9.165  14.683  65.951  1.00  0.00    -0.000 A  
HETATM   40  C   UNL     1      -9.922  14.067  64.959  1.00  0.00    -0.216 A  
HETATM   41  C   UNL     1     -11.264  14.477  64.857  1.00  0.00    -0.395 A  
HETATM   42  C   UNL     1     -11.856  15.326  65.803  1.00  0.00     0.184 A  
HETATM   43  C   UNL     1     -11.108  15.812  66.873  1.00  0.00    -0.133 A  
HETATM   44  C   UNL     1      -9.733  15.582  66.826  1.00  0.00    -0.252 A  
HETATM   45  C   UNL     1     -11.688  16.393  68.143  1.00  0.00     0.153 C  
HETATM   46  C   UNL     1     -12.602  15.325  68.823  1.00  0.00     0.425 C  
ENDBRANCH  27  29
ENDBRANCH  13  25
TORSDOF 4
ENDMDL
MODEL      121
REMARK 921   NORMALIZED FREE ENERGY PREDICTED BY IDOCK:   -3.07 KCAL/MOL
REMARK 922        TOTAL FREE ENERGY PREDICTED BY IDOCK:   -5.02 KCAL/MOL
REMARK 923 INTER-LIGAND FREE ENERGY PREDICTED BY IDOCK:   -5.89 KCAL/MOL
REMARK 924 INTRA-LIGAND FREE ENERGY PREDICTED BY IDOCK:    0.87 KCAL/MOL
REMARK 927      BINDING AFFINITY PREDICTED BY RF-SCORE:    0.00 PKD
ROOT
HETATM    1  C   UNL     1      -7.405  13.844  68.144  1.00  0.00    -0.123 C  
HETATM    2  C   UNL     1      -6.719  15.048  68.791  1.00  0.00    -0.099 C  
HETATM    3  C   UNL     1      -5.241  14.891  68.328  1.00  0.00    -0.115 C  
HETATM    4  C   UNL     1      -5.135  13.493  67.707  1.00  0.00    -0.036 C  
HETATM    5  N   UNL     1      -6.387  12.839  68.032  1.00  0.00    -0.085 N  
HETATM    6  C   UNL     1      -6.694  11.673  67.359  1.00  0.00    -0.108 C  
HETATM    7  O   UNL     1      -5.895  10.747  67.247  1.00  0.00    -0.044 OA 
HETATM    8  C   UNL     1      -8.180  11.569  66.878  1.00  0.00    -0.167 C  
HETATM    9  O   UNL     1      -9.853  12.432  68.783  1.00  0.00    -0.129 OA 
HETATM   10  N   UNL     1      -8.993  12.886  66.891  1.00  0.00    -0.220 N  
HETATM   11  C   UNL     1     -10.362  12.852  66.872  1.00  0.00    -0.243 C  
HETATM   12  H   UNL     1     -10.502  14.438  68.407  1.00  0.00     0.000 HD 
HETATM   13  C   UNL     1     -10.711  11.600  67.713  1.00  0.00    -0.204 C  
HETATM   14  O   UNL     1     -11.029  13.788  66.437  1.00  0.00    -0.295 OA 
HETATM   15  O   UNL     1      -9.586  14.688  68.382  1.00  0.00    -0.204 OA 
HETATM   16  C   UNL     1     -11.885  11.593  66.596  1.00  0.00     0.086 C  
HETATM   17  C   UNL     1      -8.947  13.425  68.186  1.00  0.00    -0.188 C  
ENDROOT
BRANCH   8  18
HETATM   18  C   UNL     1      -8.311  10.803  65.553  1.00  0.00    -0.129 C  
BRANCH  18  19
HETATM   19  C   UNL     1      -8.302   9.334  65.849  1.00  0.00    -0.122 A  
HETATM   20  C   UNL     1      -7.150   7.236  65.539  1.00  0.00    -0.064 A  
HETATM   21  C   UNL     1      -8.362   6.562  65.656  1.00  0.00    -0.144 A  
HETATM   22  C   UNL     1      -9.506   8.651  66.042  1.00  0.00    -0.278 A  
HETATM   23  C   UNL     1      -9.534   7.267  65.938  1.00  0.00     0.126 A  
HETATM   24  C   UNL     1      -7.113   8.617  65.666  1.00  0.00    -0.083 A  
ENDBRANCH  18  19
ENDBRANCH   8  18
BRANCH  13  25
HETATM   25  N   UNL     1     -11.179  10.374  68.386  1.00  0.00    -0.394 N  
HETATM   26  O   UNL     1      -9.361   9.139  69.042  1.00  0.00    -0.148 OA 
HETATM   27  C   UNL     1     -10.544   9.422  69.176  1.00  0.00    -0.218 C  
HETATM   28  H   UNL     1     -12.171  10.186  68.243  1.00  0.00     0.000 HD 
BRANCH  27  29
HETATM   29  C   UNL     1     -11.520   8.697  70.211  1.00  0.00    -0.084 C  
HETATM   30  C   UNL     1     -11.781   7.178  70.000  1.00  0.00    -0.060 C  
HETATM   31  N   UNL     1     -11.978   6.369  71.235  1.00  0.00    -0.293 NA 
HETATM   32  C   UNL     1     -13.230   6.581  71.957  1.00  0.00     0.134 C  
HETATM   33  C   UNL     1     -10.786   6.396  72.117  1.00  0.00    -0.227 C  
HETATM   34  C   UNL     1      -9.847   5.207  71.693  1.00  0.00    -0.230 C  
HETATM   35  C   UNL     1      -8.880   5.637  70.659  1.00  0.00    -0.145 A  
HETATM   36  C   UNL     1      -8.296   5.055  69.550  1.00  0.00    -0.088 A  
HETATM   37  N   UNL     1      -7.486   5.986  68.964  1.00  0.00    -0.084 NA 
HETATM   38  H   UNL     1      -6.989   5.855  68.083  1.00  0.00     0.000 HD 
HETATM   39  C   UNL     1      -7.437   7.127  69.733  1.00  0.00    -0.097 A  
HETATM   40  C   UNL     1      -6.728   8.320  69.627  1.00  0.00    -0.037 A  
HETATM   41  C   UNL     1      -6.974   9.279  70.626  1.00  0.00    -0.101 A  
HETATM   42  C   UNL     1      -7.993   9.120  71.576  1.00  0.00     0.076 A  
HETATM   43  C   UNL     1      -8.787   7.974  71.566  1.00  0.00    -0.178 A  
HETATM   44  C   UNL     1      -8.379   6.942  70.721  1.00  0.00    -0.127 A  
HETATM   45  C   UNL     1     -10.130   7.845  72.249  1.00  0.00    -0.297 C  
HETATM   46  C   UNL     1     -11.097   8.934  71.687  1.00  0.00    -0.420 C  
ENDBRANCH  27  29
ENDBRANCH  13  25
TORSDOF 4
ENDMDL
MODEL      122
REMARK 921   NORMALIZED FREE ENERGY PREDICTED BY IDOCK:   -3.06 KCAL/MOL
REMARK 922        TOTAL FREE ENERGY PREDICTED BY IDOCK:   -5.01 KCAL/MOL
REMARK 923 INTER-LIGAND FREE ENERGY PREDICTED BY IDOCK:   -3.53 KCAL/MOL
REMARK 924 INTRA-LIGAND FREE ENERGY PREDICTED BY IDOCK:   -1.48 KCAL/MOL
REMARK 927      BINDING AFFINITY PREDICTED BY RF-SCORE:    0.00 PKD
ROOT
HETATM    1  C   UNL     1     -12.296  14.993  69.854  1.00  0.00    -0.275 C  
HETATM    2  C   UNL     1     -13.660  14.742  70.499  1.00  0.00     0.116 C  
HETATM    3  C   UNL     1     -13.520  15.441  71.882  1.00  0.00    -0.571 C  
HETATM    4  C   UNL     1     -12.034  15.782  72.039  1.00  0.00    -0.479 C  
HETATM    5  N   UNL     1     -11.371  15.098  70.946  1.00  0.00    -0.308 N  
HETATM    6  C   UNL     1     -10.067  15.456  70.663  1.00  0.00     0.408 C  
HETATM    7  O   UNL     1      -9.203  15.535  71.532  1.00  0.00     2.764 OA 
HETATM    8  C   UNL     1      -9.750  15.611  69.139  1.00  0.00    -0.249 C  
HETATM    9  O   UNL     1     -10.871  13.626  67.733  1.00  0.00    -0.247 OA 
HETATM   10  N   UNL     1     -10.972  15.701  68.195  1.00  0.00    -0.301 N  
HETATM   11  C   UNL     1     -10.830  15.448  66.856  1.00  0.00    -0.313 C  
HETATM   12  H   UNL     1     -12.694  14.259  66.802  1.00  0.00     0.000 HD 
HETATM   13  C   UNL     1      -9.766  14.325  66.804  1.00  0.00    -0.275 C  
HETATM   14  O   UNL     1     -11.597  15.921  66.020  1.00  0.00     0.230 OA 
HETATM   15  O   UNL     1     -13.002  14.509  67.665  1.00  0.00     0.973 OA 
HETATM   16  C   UNL     1      -9.429  15.170  65.463  1.00  0.00    -0.106 C  
HETATM   17  C   UNL     1     -11.779  14.572  68.402  1.00  0.00    -0.333 C  
ENDROOT
BRANCH   8  18
HETATM   18  C   UNL     1      -8.708  16.708  68.869  1.00  0.00    -0.238 C  
BRANCH  18  19
HETATM   19  C   UNL     1      -7.357  16.067  68.763  1.00  0.00    -0.165 A  
HETATM   20  C   UNL     1      -5.631  15.268  67.278  1.00  0.00     0.338 A  
HETATM   21  C   UNL     1      -5.247  14.336  68.238  1.00  0.00    -0.113 A  
HETATM   22  C   UNL     1      -6.923  15.183  69.754  1.00  0.00    -0.174 A  
HETATM   23  C   UNL     1      -5.873  14.314  69.487  1.00  0.00    -0.100 A  
HETATM   24  C   UNL     1      -6.663  16.154  67.550  1.00  0.00    -0.198 A  
ENDBRANCH  18  19
ENDBRANCH   8  18
BRANCH  13  25
HETATM   25  N   UNL     1      -8.681  13.346  66.604  1.00  0.00    -0.441 N  
HETATM   26  O   UNL     1      -8.242  12.297  68.595  1.00  0.00    -0.115 OA 
HETATM   27  C   UNL     1      -8.198  12.293  67.373  1.00  0.00    -0.178 C  
HETATM   28  H   UNL     1      -8.185  13.465  65.721  1.00  0.00     0.000 HD 
BRANCH  27  29
HETATM   29  C   UNL     1      -7.524  11.130  66.511  1.00  0.00    -0.131 C  
HETATM   30  C   UNL     1      -6.626  10.109  67.270  1.00  0.00    -0.069 C  
HETATM   31  N   UNL     1      -6.645   8.711  66.756  1.00  0.00    -0.060 NA 
HETATM   32  C   UNL     1      -5.985   8.483  65.473  1.00  0.00    -0.045 C  
HETATM   33  C   UNL     1      -7.997   8.106  66.831  1.00  0.00    -0.104 C  
HETATM   34  C   UNL     1      -8.135   7.410  68.235  1.00  0.00    -0.125 C  
HETATM   35  C   UNL     1      -8.686   8.347  69.239  1.00  0.00    -0.138 A  
HETATM   36  C   UNL     1      -8.493   8.573  70.588  1.00  0.00    -0.146 A  
HETATM   37  N   UNL     1      -9.291   9.619  70.958  1.00  0.00    -0.343 NA 
HETATM   38  H   UNL     1      -9.295  10.052  71.881  1.00  0.00     0.000 HD 
HETATM   39  C   UNL     1     -10.090  10.004  69.904  1.00  0.00    -0.246 A  
HETATM   40  C   UNL     1     -11.101  10.950  69.770  1.00  0.00    -0.328 A  
HETATM   41  C   UNL     1     -11.678  11.066  68.492  1.00  0.00    -0.348 A  
HETATM   42  C   UNL     1     -11.155  10.394  67.377  1.00  0.00    -0.297 A  
HETATM   43  C   UNL     1     -10.046   9.562  67.517  1.00  0.00    -0.257 A  
HETATM   44  C   UNL     1      -9.637   9.284  68.821  1.00  0.00    -0.157 A  
HETATM   45  C   UNL     1      -9.161   9.101  66.381  1.00  0.00    -0.211 C  
HETATM   46  C   UNL     1      -8.562  10.350  65.659  1.00  0.00    -0.175 C  
ENDBRANCH  27  29
ENDBRANCH  13  25
TORSDOF 4
ENDMDL
MODEL      123
REMARK 921   NORMALIZED FREE ENERGY PREDICTED BY IDOCK:   -3.00 KCAL/MOL
REMARK 922        TOTAL FREE ENERGY PREDICTED BY IDOCK:   -4.93 KCAL/MOL
REMARK 923 INTER-LIGAND FREE ENERGY PREDICTED BY IDOCK:   -3.18 KCAL/MOL
REMARK 924 INTRA-LIGAND FREE ENERGY PREDICTED BY IDOCK:   -1.75 KCAL/MOL
REMARK 927      BINDING AFFINITY PREDICTED BY RF-SCORE:    0.00 PKD
ROOT
HETATM    1  C   UNL     1     -10.385  11.965  69.201  1.00  0.00     0.061 C  
HETATM    2  C   UNL     1     -10.109  13.457  69.391  1.00  0.00     0.543 C  
HETATM    3  C   UNL     1      -9.526  13.877  68.011  1.00  0.00    -0.208 C  
HETATM    4  C   UNL     1      -9.250  12.575  67.250  1.00  0.00    -0.190 C  
HETATM    5  N   UNL     1      -9.428  11.521  68.229  1.00  0.00    -0.184 N  
HETATM    6  C   UNL     1      -9.527  10.225  67.762  1.00  0.00    -0.148 C  
HETATM    7  O   UNL     1      -8.729   9.751  66.957  1.00  0.00    -0.133 OA 
HETATM    8  C   UNL     1     -10.644   9.368  68.447  1.00  0.00    -0.204 C  
HETATM    9  O   UNL     1     -10.670   9.788  71.092  1.00  0.00    -0.324 OA 
HETATM   10  N   UNL     1     -11.697  10.154  69.265  1.00  0.00    -0.072 N  
HETATM   11  C   UNL     1     -12.463   9.510  70.201  1.00  0.00     0.431 C  
HETATM   12  H   UNL     1     -12.216  11.160  71.653  1.00  0.00     0.000 HD 
HETATM   13  C   UNL     1     -11.505   8.450  70.797  1.00  0.00    -0.255 C  
HETATM   14  O   UNL     1     -13.568   9.932  70.538  1.00  0.00    -0.092 OA 
HETATM   15  O   UNL     1     -11.834  11.779  71.042  1.00  0.00    -0.051 OA 
HETATM   16  C   UNL     1     -12.929   7.679  70.841  1.00  0.00     0.002 C  
HETATM   17  C   UNL     1     -11.029  10.924  70.228  1.00  0.00     0.016 C  
ENDROOT
BRANCH   8  18
HETATM   18  C   UNL     1     -11.277   8.356  67.480  1.00  0.00     0.652 C  
BRANCH  18  19
HETATM   19  C   UNL     1     -10.521   7.065  67.580  1.00  0.00    -0.320 A  
HETATM   20  C   UNL     1      -9.050   5.515  66.459  1.00  0.00    -0.138 A  
HETATM   21  C   UNL     1      -9.584   4.475  67.213  1.00  0.00    -0.213 A  
HETATM   22  C   UNL     1     -11.002   6.033  68.389  1.00  0.00    -0.340 A  
HETATM   23  C   UNL     1     -10.537   4.738  68.199  1.00  0.00     0.300 A  
HETATM   24  C   UNL     1      -9.493   6.814  66.662  1.00  0.00    -0.205 A  
ENDBRANCH  18  19
ENDBRANCH   8  18
BRANCH  13  25
HETATM   25  N   UNL     1     -10.740   7.324  71.364  1.00  0.00    -0.227 N  
HETATM   26  O   UNL     1     -10.075   7.865  73.491  1.00  0.00    -0.293 OA 
HETATM   27  C   UNL     1     -10.327   7.009  72.654  1.00  0.00    -0.209 C  
HETATM   28  H   UNL     1     -10.456   6.635  70.668  1.00  0.00     0.000 HD 
BRANCH  27  29
HETATM   29  C   UNL     1     -10.151   5.442  72.903  1.00  0.00    -0.204 C  
HETATM   30  C   UNL     1      -9.809   4.558  71.669  1.00  0.00    -0.190 C  
HETATM   31  N   UNL     1      -8.927   3.386  71.926  1.00  0.00    -0.097 NA 
HETATM   32  C   UNL     1      -9.519   2.280  72.674  1.00  0.00    -0.084 C  
HETATM   33  C   UNL     1      -7.596   3.790  72.442  1.00  0.00    -0.066 C  
HETATM   34  C   UNL     1      -6.649   4.015  71.205  1.00  0.00    -0.026 C  
HETATM   35  C   UNL     1      -6.706   5.419  70.742  1.00  0.00    -0.047 A  
HETATM   36  C   UNL     1      -6.650   6.057  69.517  1.00  0.00    -0.044 A  
HETATM   37  N   UNL     1      -6.786   7.399  69.736  1.00  0.00    -0.051 NA 
HETATM   38  H   UNL     1      -6.859   8.105  69.004  1.00  0.00     0.000 HD 
HETATM   39  C   UNL     1      -6.813   7.661  71.088  1.00  0.00    -0.049 A  
HETATM   40  C   UNL     1      -6.869   8.836  71.831  1.00  0.00    -0.060 A  
HETATM   41  C   UNL     1      -6.903   8.686  73.229  1.00  0.00    -0.000 A  
HETATM   42  C   UNL     1      -7.045   7.431  73.839  1.00  0.00    -0.101 A  
HETATM   43  C   UNL     1      -7.134   6.279  73.059  1.00  0.00    -0.079 A  
HETATM   44  C   UNL     1      -6.867   6.427  71.698  1.00  0.00    -0.067 A  
HETATM   45  C   UNL     1      -7.668   4.948  73.538  1.00  0.00    -0.096 C  
HETATM   46  C   UNL     1      -9.135   5.135  74.038  1.00  0.00    -0.118 C  
ENDBRANCH  27  29
ENDBRANCH  13  25
TORSDOF 4
ENDMDL
MODEL      124
REMARK 921   NORMALIZED FREE ENERGY PREDICTED BY IDOCK:   -2.93 KCAL/MOL
REMARK 922        TOTAL FREE ENERGY PREDICTED BY IDOCK:   -4.85 KCAL/MOL
REMARK 923 INTER-LIGAND FREE ENERGY PREDICTED BY IDOCK:   -3.99 KCAL/MOL
REMARK 924 INTRA-LIGAND FREE ENERGY PREDICTED BY IDOCK:   -0.86 KCAL/MOL
REMARK 927      BINDING AFFINITY PREDICTED BY RF-SCORE:    0.00 PKD
ROOT
HETATM    1  C   UNL     1     -11.542  13.046  65.413  1.00  0.00    -0.341 C  
HETATM    2  C   UNL     1     -12.427  12.776  64.196  1.00  0.00    -0.450 C  
HETATM    3  C   UNL     1     -11.974  11.355  63.750  1.00  0.00     0.026 C  
HETATM    4  C   UNL     1     -10.702  11.044  64.546  1.00  0.00    -0.264 C  
HETATM    5  N   UNL     1     -10.342  12.293  65.187  1.00  0.00    -0.280 N  
HETATM    6  C   UNL     1      -9.401  12.246  66.197  1.00  0.00    -0.176 C  
HETATM    7  O   UNL     1      -8.331  11.655  66.075  1.00  0.00    -0.049 OA 
HETATM    8  C   UNL     1      -9.745  13.121  67.449  1.00  0.00    -0.220 C  
HETATM    9  O   UNL     1     -10.709  15.505  66.700  1.00  0.00    -0.306 OA 
HETATM   10  N   UNL     1     -11.207  13.619  67.550  1.00  0.00    -0.284 N  
HETATM   11  C   UNL     1     -11.519  14.679  68.359  1.00  0.00    -0.311 C  
HETATM   12  H   UNL     1     -12.847  15.559  66.824  1.00  0.00     0.000 HD 
HETATM   13  C   UNL     1     -10.286  15.607  68.244  1.00  0.00    -0.223 C  
HETATM   14  O   UNL     1     -12.647  14.830  68.826  1.00  0.00     0.068 OA 
HETATM   15  O   UNL     1     -12.860  14.801  66.252  1.00  0.00     0.194 OA 
HETATM   16  C   UNL     1     -10.737  15.836  69.784  1.00  0.00    -0.317 C  
HETATM   17  C   UNL     1     -11.520  14.321  66.377  1.00  0.00    -0.355 C  
ENDROOT
BRANCH   8  18
HETATM   18  C   UNL     1      -9.239  12.492  68.756  1.00  0.00     0.143 C  
BRANCH  18  19
HETATM   19  C   UNL     1     -10.281  11.541  69.262  1.00  0.00     0.049 A  
HETATM   20  C   UNL     1     -12.209  11.254  70.684  1.00  0.00    -0.489 A  
HETATM   21  C   UNL     1     -11.876   9.913  70.852  1.00  0.00    -0.443 A  
HETATM   22  C   UNL     1      -9.990  10.178  69.371  1.00  0.00    -0.247 A  
HETATM   23  C   UNL     1     -10.785   9.369  70.172  1.00  0.00    -0.282 A  
HETATM   24  C   UNL     1     -11.433  12.061  69.865  1.00  0.00    -0.239 A  
ENDBRANCH  18  19
ENDBRANCH   8  18
BRANCH  13  25
HETATM   25  N   UNL     1      -9.130  16.521  68.321  1.00  0.00    -0.208 N  
HETATM   26  O   UNL     1      -8.248  16.790  66.221  1.00  0.00    -0.293 OA 
HETATM   27  C   UNL     1      -8.400  17.211  67.360  1.00  0.00    -0.190 C  
HETATM   28  H   UNL     1      -8.801  16.680  69.272  1.00  0.00     0.000 HD 
BRANCH  27  29
HETATM   29  C   UNL     1      -7.729  18.552  67.909  1.00  0.00    -0.265 C  
HETATM   30  C   UNL     1      -7.779  18.797  69.445  1.00  0.00     0.130 C  
HETATM   31  N   UNL     1      -6.608  19.504  70.034  1.00  0.00    -0.221 NA 
HETATM   32  C   UNL     1      -6.480  20.924  69.716  1.00  0.00     0.820 C  
HETATM   33  C   UNL     1      -5.345  18.749  69.844  1.00  0.00    -0.220 C  
HETATM   34  C   UNL     1      -5.169  17.789  71.077  1.00  0.00    -0.224 C  
HETATM   35  C   UNL     1      -5.794  16.473  70.818  1.00  0.00     0.268 A  
HETATM   36  C   UNL     1      -6.475  15.538  71.574  1.00  0.00     1.548 A  
HETATM   37  N   UNL     1      -6.837  14.512  70.748  1.00  0.00    -0.208 NA 
HETATM   38  H   UNL     1      -7.419  13.720  71.021  1.00  0.00     0.000 HD 
HETATM   39  C   UNL     1      -6.305  14.701  69.492  1.00  0.00    -0.127 A  
HETATM   40  C   UNL     1      -6.315  13.941  68.327  1.00  0.00    -0.110 A  
HETATM   41  C   UNL     1      -5.661  14.500  67.214  1.00  0.00     0.586 A  
HETATM   42  C   UNL     1      -5.176  15.816  67.221  1.00  0.00     0.122 A  
HETATM   43  C   UNL     1      -5.312  16.607  68.360  1.00  0.00    -0.117 A  
HETATM   44  C   UNL     1      -5.751  15.962  69.517  1.00  0.00    -0.129 A  
HETATM   45  C   UNL     1      -5.201  18.115  68.386  1.00  0.00    -0.162 C  
HETATM   46  C   UNL     1      -6.265  18.724  67.419  1.00  0.00    -0.185 C  
ENDBRANCH  27  29
ENDBRANCH  13  25
TORSDOF 4
ENDMDL
MODEL      125
REMARK 921   NORMALIZED FREE ENERGY PREDICTED BY IDOCK:   -2.92 KCAL/MOL
REMARK 922        TOTAL FREE ENERGY PREDICTED BY IDOCK:   -4.84 KCAL/MOL
REMARK 923 INTER-LIGAND FREE ENERGY PREDICTED BY IDOCK:   -4.69 KCAL/MOL
REMARK 924 INTRA-LIGAND FREE ENERGY PREDICTED BY IDOCK:   -0.15 KCAL/MOL
REMARK 927      BINDING AFFINITY PREDICTED BY RF-SCORE:    0.00 PKD
ROOT
HETATM    1  C   UNL     1     -11.014  13.079  65.481  1.00  0.00    -0.274 C  
HETATM    2  C   UNL     1     -11.757  13.257  64.156  1.00  0.00    -0.470 C  
HETATM    3  C   UNL     1     -11.375  11.967  63.373  1.00  0.00    -0.484 C  
HETATM    4  C   UNL     1     -10.246  11.304  64.169  1.00  0.00    -0.335 C  
HETATM    5  N   UNL     1      -9.864  12.280  65.169  1.00  0.00    -0.208 N  
HETATM    6  C   UNL     1      -9.067  11.850  66.212  1.00  0.00    -0.188 C  
HETATM    7  O   UNL     1      -8.045  11.192  66.033  1.00  0.00    -0.145 OA 
HETATM    8  C   UNL     1      -9.491  12.386  67.621  1.00  0.00    -0.190 C  
HETATM    9  O   UNL     1     -10.143  14.980  67.488  1.00  0.00    -0.227 OA 
HETATM   10  N   UNL     1     -10.905  13.007  67.715  1.00  0.00    -0.235 N  
HETATM   11  C   UNL     1     -11.226  13.837  68.756  1.00  0.00    -0.271 C  
HETATM   12  H   UNL     1     -12.267  15.251  67.412  1.00  0.00     0.000 HD 
HETATM   13  C   UNL     1      -9.912  14.608  69.031  1.00  0.00    -0.193 C  
HETATM   14  O   UNL     1     -12.386  13.987  69.134  1.00  0.00    -0.313 OA 
HETATM   15  O   UNL     1     -12.272  14.684  66.649  1.00  0.00    -0.317 OA 
HETATM   16  C   UNL     1     -10.534  14.463  70.520  1.00  0.00     0.843 C  
HETATM   17  C   UNL     1     -11.005  14.033  66.764  1.00  0.00    -0.297 C  
ENDROOT
BRANCH   8  18
HETATM   18  C   UNL     1      -9.211  11.371  68.739  1.00  0.00    -0.108 C  
BRANCH  18  19
HETATM   19  C   UNL     1      -9.330   9.989  68.170  1.00  0.00    -0.137 A  
HETATM   20  C   UNL     1     -10.831   8.258  67.412  1.00  0.00    -0.105 A  
HETATM   21  C   UNL     1      -9.888   7.297  67.767  1.00  0.00    -0.181 A  
HETATM   22  C   UNL     1      -8.356   9.029  68.455  1.00  0.00    -0.124 A  
HETATM   23  C   UNL     1      -8.640   7.684  68.259  1.00  0.00    -0.124 A  
HETATM   24  C   UNL     1     -10.542   9.604  67.583  1.00  0.00    -0.334 A  
ENDBRANCH  18  19
ENDBRANCH   8  18
BRANCH  13  25
HETATM   25  N   UNL     1      -8.702  15.324  69.476  1.00  0.00    -0.380 N  
HETATM   26  O   UNL     1      -7.481  15.947  67.637  1.00  0.00    -0.130 OA 
HETATM   27  C   UNL     1      -7.768  16.114  68.814  1.00  0.00    -0.200 C  
HETATM   28  H   UNL     1      -8.511  15.219  70.472  1.00  0.00     0.000 HD 
BRANCH  27  29
HETATM   29  C   UNL     1      -7.067  17.198  69.755  1.00  0.00     0.391 C  
HETATM   30  C   UNL     1      -5.719  17.802  69.265  1.00  0.00    -0.213 C  
HETATM   31  N   UNL     1      -5.469  19.225  69.626  1.00  0.00    -0.200 NA 
HETATM   32  C   UNL     1      -5.189  19.497  71.034  1.00  0.00    -0.251 C  
HETATM   33  C   UNL     1      -6.487  20.136  69.048  1.00  0.00    -0.308 C  
HETATM   34  C   UNL     1      -5.980  20.585  67.628  1.00  0.00    -0.279 C  
HETATM   35  C   UNL     1      -6.459  19.660  66.577  1.00  0.00    -0.186 A  
HETATM   36  C   UNL     1      -5.946  19.157  65.397  1.00  0.00    -0.215 A  
HETATM   37  N   UNL     1      -6.872  18.305  64.865  1.00  0.00     0.040 NA 
HETATM   38  H   UNL     1      -6.728  17.732  64.034  1.00  0.00     0.000 HD 
HETATM   39  C   UNL     1      -8.028  18.331  65.613  1.00  0.00     0.370 A  
HETATM   40  C   UNL     1      -9.268  17.716  65.474  1.00  0.00     0.822 A  
HETATM   41  C   UNL     1     -10.210  17.980  66.485  1.00  0.00    -0.383 A  
HETATM   42  C   UNL     1      -9.870  18.680  67.653  1.00  0.00    -0.351 A  
HETATM   43  C   UNL     1      -8.574  19.160  67.829  1.00  0.00    -0.335 A  
HETATM   44  C   UNL     1      -7.727  19.089  66.723  1.00  0.00    -0.256 A  
HETATM   45  C   UNL     1      -7.976  19.570  69.157  1.00  0.00    -0.208 C  
HETATM   46  C   UNL     1      -8.028  18.356  70.138  1.00  0.00     1.996 C  
ENDBRANCH  27  29
ENDBRANCH  13  25
TORSDOF 4
ENDMDL
MODEL      126
REMARK 921   NORMALIZED FREE ENERGY PREDICTED BY IDOCK:   -2.75 KCAL/MOL
REMARK 922        TOTAL FREE ENERGY PREDICTED BY IDOCK:   -4.64 KCAL/MOL
REMARK 923 INTER-LIGAND FREE ENERGY PREDICTED BY IDOCK:   -5.02 KCAL/MOL
REMARK 924 INTRA-LIGAND FREE ENERGY PREDICTED BY IDOCK:    0.38 KCAL/MOL
REMARK 927      BINDING AFFINITY PREDICTED BY RF-SCORE:    0.00 PKD
ROOT
HETATM    1  C   UNL     1     -12.307  14.001  70.682  1.00  0.00    -0.375 C  
HETATM    2  C   UNL     1     -13.520  14.301  71.564  1.00  0.00    -0.426 C  
HETATM    3  C   UNL     1     -13.409  15.837  71.789  1.00  0.00    -0.450 C  
HETATM    4  C   UNL     1     -12.023  16.245  71.275  1.00  0.00    -0.219 C  
HETATM    5  N   UNL     1     -11.331  14.996  71.023  1.00  0.00    -0.297 N  
HETATM    6  C   UNL     1     -10.167  15.048  70.283  1.00  0.00     0.093 C  
HETATM    7  O   UNL     1      -9.264  15.844  70.529  1.00  0.00     0.894 OA 
HETATM    8  C   UNL     1     -10.029  13.924  69.203  1.00  0.00     0.128 C  
HETATM    9  O   UNL     1     -10.820  11.563  70.191  1.00  0.00     0.178 OA 
HETATM   10  N   UNL     1     -11.324  13.146  68.862  1.00  0.00    -0.272 N  
HETATM   11  C   UNL     1     -11.252  11.924  68.250  1.00  0.00    -0.261 C  
HETATM   12  H   UNL     1     -12.813  11.082  69.572  1.00  0.00     0.000 HD 
HETATM   13  C   UNL     1      -9.980  11.281  68.854  1.00  0.00    -0.155 C  
HETATM   14  O   UNL     1     -12.176  11.483  67.568  1.00  0.00    -0.463 OA 
HETATM   15  O   UNL     1     -13.088  11.910  69.948  1.00  0.00     0.571 OA 
HETATM   16  C   UNL     1      -9.957  10.711  67.337  1.00  0.00    -0.213 C  
HETATM   17  C   UNL     1     -11.845  12.608  70.048  1.00  0.00    -0.285 C  
ENDROOT
BRANCH   8  18
HETATM   18  C   UNL     1      -9.278  14.405  67.952  1.00  0.00    -0.195 C  
BRANCH  18  19
HETATM   19  C   UNL     1      -9.491  15.881  67.807  1.00  0.00    -0.216 A  
HETATM   20  C   UNL     1      -8.642  18.085  68.303  1.00  0.00    -0.293 A  
HETATM   21  C   UNL     1      -9.942  18.582  68.281  1.00  0.00    -0.409 A  
HETATM   22  C   UNL     1     -10.787  16.395  67.711  1.00  0.00    -0.306 A  
HETATM   23  C   UNL     1     -11.011  17.744  67.955  1.00  0.00    -0.088 A  
HETATM   24  C   UNL     1      -8.412  16.744  68.035  1.00  0.00    -0.205 A  
ENDBRANCH  18  19
ENDBRANCH   8  18
BRANCH  13  25
HETATM   25  N   UNL     1      -8.732  10.605  69.255  1.00  0.00    -0.321 N  
HETATM   26  O   UNL     1      -6.945  11.769  68.414  1.00  0.00    -0.070 OA 
HETATM   27  C   UNL     1      -7.396  10.989  69.241  1.00  0.00    -0.113 C  
HETATM   28  H   UNL     1      -8.880   9.663  69.618  1.00  0.00     0.000 HD 
BRANCH  27  29
HETATM   29  C   UNL     1      -6.511  10.264  70.355  1.00  0.00    -0.131 C  
HETATM   30  C   UNL     1      -7.179   9.107  71.154  1.00  0.00    -0.073 C  
HETATM   31  N   UNL     1      -6.283   7.989  71.560  1.00  0.00    -0.035 NA 
HETATM   32  C   UNL     1      -5.314   8.284  72.612  1.00  0.00    -0.040 C  
HETATM   33  C   UNL     1      -5.682   7.301  70.391  1.00  0.00    -0.024 C  
HETATM   34  C   UNL     1      -6.655   6.140  69.965  1.00  0.00    -0.044 C  
HETATM   35  C   UNL     1      -7.638   6.612  68.965  1.00  0.00    -0.101 A  
HETATM   36  C   UNL     1      -8.967   6.353  68.689  1.00  0.00    -0.125 A  
HETATM   37  N   UNL     1      -9.337   7.136  67.632  1.00  0.00    -0.127 NA 
HETATM   38  H   UNL     1     -10.285   7.208  67.263  1.00  0.00     0.000 HD 
HETATM   39  C   UNL     1      -8.246   7.814  67.137  1.00  0.00    -0.118 A  
HETATM   40  C   UNL     1      -8.066   8.670  66.055  1.00  0.00    -0.109 A  
HETATM   41  C   UNL     1      -6.771   9.194  65.886  1.00  0.00    -0.079 A  
HETATM   42  C   UNL     1      -5.762   9.006  66.843  1.00  0.00    -0.045 A  
HETATM   43  C   UNL     1      -6.018   8.262  67.993  1.00  0.00    -0.043 A  
HETATM   44  C   UNL     1      -7.226   7.565  68.027  1.00  0.00    -0.090 A  
HETATM   45  C   UNL     1      -5.185   8.304  69.254  1.00  0.00    -0.030 C  
HETATM   46  C   UNL     1      -5.149   9.768  69.796  1.00  0.00    -0.034 C  
ENDBRANCH  27  29
ENDBRANCH  13  25
TORSDOF 4
ENDMDL
MODEL      127
REMARK 921   NORMALIZED FREE ENERGY PREDICTED BY IDOCK:   -2.73 KCAL/MOL
REMARK 922        TOTAL FREE ENERGY PREDICTED BY IDOCK:   -4.60 KCAL/MOL
REMARK 923 INTER-LIGAND FREE ENERGY PREDICTED BY IDOCK:   -4.88 KCAL/MOL
REMARK 924 INTRA-LIGAND FREE ENERGY PREDICTED BY IDOCK:    0.28 KCAL/MOL
REMARK 927      BINDING AFFINITY PREDICTED BY RF-SCORE:    0.00 PKD
ROOT
HETATM    1  C   UNL     1      -7.977  17.713  67.340  1.00  0.00    -0.206 C  
HETATM    2  C   UNL     1      -6.948  18.844  67.371  1.00  0.00    -0.214 C  
HETATM    3  C   UNL     1      -7.727  20.034  66.741  1.00  0.00    -0.335 C  
HETATM    4  C   UNL     1      -9.010  19.440  66.150  1.00  0.00    -0.283 C  
HETATM    5  N   UNL     1      -8.830  18.003  66.224  1.00  0.00    -0.219 N  
HETATM    6  C   UNL     1      -9.942  17.208  66.029  1.00  0.00    -0.253 C  
HETATM    7  O   UNL     1     -10.705  17.363  65.078  1.00  0.00    -0.688 OA 
HETATM    8  C   UNL     1     -10.070  16.010  67.028  1.00  0.00    -0.271 C  
HETATM    9  O   UNL     1      -7.694  14.830  67.399  1.00  0.00    -0.180 OA 
HETATM   10  N   UNL     1      -9.173  16.076  68.287  1.00  0.00    -0.189 N  
HETATM   11  C   UNL     1      -8.913  14.941  69.009  1.00  0.00    -0.174 C  
HETATM   12  H   UNL     1      -6.777  15.473  69.225  1.00  0.00     0.000 HD 
HETATM   13  C   UNL     1      -8.830  13.831  67.933  1.00  0.00    -0.186 C  
HETATM   14  O   UNL     1      -8.617  14.983  70.201  1.00  0.00     0.234 OA 
HETATM   15  O   UNL     1      -6.859  16.364  68.907  1.00  0.00    -0.157 OA 
HETATM   16  C   UNL     1      -9.491  13.039  69.183  1.00  0.00     0.599 C  
HETATM   17  C   UNL     1      -7.839  16.214  67.877  1.00  0.00    -0.141 C  
ENDROOT
BRANCH   8  18
HETATM   18  C   UNL     1     -11.534  15.680  67.357  1.00  0.00    -0.086 C  
BRANCH  18  19
HETATM   19  C   UNL     1     -12.093  14.837  66.251  1.00  0.00    -0.107 A  
HETATM   20  C   UNL     1     -12.959  12.674  65.624  1.00  0.00     0.729 A  
HETATM   21  C   UNL     1     -12.508  12.879  64.323  1.00  0.00    -0.424 A  
HETATM   22  C   UNL     1     -11.709  15.073  64.929  1.00  0.00    -0.336 A  
HETATM   23  C   UNL     1     -11.911  14.091  63.969  1.00  0.00    -0.339 A  
HETATM   24  C   UNL     1     -12.781  13.662  66.580  1.00  0.00     0.047 A  
ENDBRANCH  18  19
ENDBRANCH   8  18
BRANCH  13  25
HETATM   25  N   UNL     1      -8.845  12.664  67.031  1.00  0.00    -0.209 N  
HETATM   26  O   UNL     1     -10.489  11.215  67.707  1.00  0.00    -0.180 OA 
HETATM   27  C   UNL     1      -9.758  11.636  66.822  1.00  0.00    -0.201 C  
HETATM   28  H   UNL     1      -8.016  12.597  66.441  1.00  0.00     0.000 HD 
BRANCH  27  29
HETATM   29  C   UNL     1      -9.703  11.025  65.347  1.00  0.00    -0.279 C  
HETATM   30  C   UNL     1      -8.347  11.115  64.588  1.00  0.00     0.366 C  
HETATM   31  N   UNL     1      -8.032   9.982  63.674  1.00  0.00    -0.150 NA 
HETATM   32  C   UNL     1      -8.822   9.897  62.449  1.00  0.00    -0.247 C  
HETATM   33  C   UNL     1      -7.939   8.690  64.397  1.00  0.00    -0.146 C  
HETATM   34  C   UNL     1      -6.448   8.506  64.863  1.00  0.00    -0.064 C  
HETATM   35  C   UNL     1      -6.239   9.078  66.211  1.00  0.00    -0.064 A  
HETATM   36  C   UNL     1      -5.210   9.742  66.853  1.00  0.00    -0.041 A  
HETATM   37  N   UNL     1      -5.633  10.051  68.115  1.00  0.00    -0.039 NA 
HETATM   38  H   UNL     1      -5.106  10.610  68.787  1.00  0.00     0.000 HD 
HETATM   39  C   UNL     1      -6.872   9.500  68.351  1.00  0.00    -0.062 A  
HETATM   40  C   UNL     1      -7.701   9.458  69.468  1.00  0.00    -0.089 A  
HETATM   41  C   UNL     1      -8.934   8.801  69.303  1.00  0.00    -0.144 A  
HETATM   42  C   UNL     1      -9.381   8.364  68.047  1.00  0.00    -0.146 A  
HETATM   43  C   UNL     1      -8.587   8.551  66.917  1.00  0.00    -0.121 A  
HETATM   44  C   UNL     1      -7.282   8.991  67.139  1.00  0.00    -0.083 A  
HETATM   45  C   UNL     1      -9.085   8.493  65.490  1.00  0.00    -0.150 C  
HETATM   46  C   UNL     1     -10.211   9.558  65.297  1.00  0.00     0.347 C  
ENDBRANCH  27  29
ENDBRANCH  13  25
TORSDOF 4
ENDMDL
MODEL      128
REMARK 921   NORMALIZED FREE ENERGY PREDICTED BY IDOCK:   -2.53 KCAL/MOL
REMARK 922        TOTAL FREE ENERGY PREDICTED BY IDOCK:   -4.36 KCAL/MOL
REMARK 923 INTER-LIGAND FREE ENERGY PREDICTED BY IDOCK:   -5.56 KCAL/MOL
REMARK 924 INTRA-LIGAND FREE ENERGY PREDICTED BY IDOCK:    1.20 KCAL/MOL
REMARK 927      BINDING AFFINITY PREDICTED BY RF-SCORE:    0.00 PKD
ROOT
HETATM    1  C   UNL     1     -12.035  10.767  70.545  1.00  0.00    -0.361 C  
HETATM    2  C   UNL     1     -12.893  11.845  71.209  1.00  0.00    -0.391 C  
HETATM    3  C   UNL     1     -12.776  13.036  70.215  1.00  0.00     0.022 C  
HETATM    4  C   UNL     1     -11.662  12.663  69.231  1.00  0.00    -0.322 C  
HETATM    5  N   UNL     1     -11.044  11.478  69.791  1.00  0.00    -0.150 N  
HETATM    6  C   UNL     1     -10.199  10.751  68.976  1.00  0.00    -0.213 C  
HETATM    7  O   UNL     1      -9.299  11.276  68.324  1.00  0.00    -0.166 OA 
HETATM    8  C   UNL     1     -10.386   9.199  69.061  1.00  0.00    -0.215 C  
HETATM    9  O   UNL     1     -10.700   8.423  71.605  1.00  0.00    -0.231 OA 
HETATM   10  N   UNL     1     -11.686   8.707  69.741  1.00  0.00     0.368 N  
HETATM   11  C   UNL     1     -11.774   7.425  70.214  1.00  0.00    -0.072 C  
HETATM   12  H   UNL     1     -12.763   8.094  72.075  1.00  0.00     0.000 HD 
HETATM   13  C   UNL     1     -10.347   7.124  70.733  1.00  0.00    -0.206 C  
HETATM   14  O   UNL     1     -12.854   6.850  70.336  1.00  0.00     0.019 OA 
HETATM   15  O   UNL     1     -12.930   8.985  71.790  1.00  0.00    -0.332 OA 
HETATM   16  C   UNL     1     -10.811   5.678  70.168  1.00  0.00    -0.356 C  
HETATM   17  C   UNL     1     -11.756   9.268  71.026  1.00  0.00    -0.311 C  
ENDROOT
BRANCH   8  18
HETATM   18  C   UNL     1     -10.119   8.505  67.717  1.00  0.00    -0.266 C  
BRANCH  18  19
HETATM   19  C   UNL     1     -10.040   9.552  66.647  1.00  0.00    -0.321 A  
HETATM   20  C   UNL     1     -11.259  11.172  65.337  1.00  0.00     0.021 A  
HETATM   21  C   UNL     1     -10.340  11.015  64.303  1.00  0.00    -0.430 A  
HETATM   22  C   UNL     1      -9.078   9.452  65.639  1.00  0.00    -0.258 A  
HETATM   23  C   UNL     1      -9.234  10.178  64.466  1.00  0.00    -0.305 A  
HETATM   24  C   UNL     1     -11.093  10.467  66.520  1.00  0.00     0.050 A  
ENDBRANCH  18  19
ENDBRANCH   8  18
BRANCH  13  25
HETATM   25  N   UNL     1      -9.010   6.665  71.154  1.00  0.00    -0.145 N  
HETATM   26  O   UNL     1      -7.618   8.478  71.335  1.00  0.00    -0.087 OA 
HETATM   27  C   UNL     1      -7.889   7.326  71.644  1.00  0.00    -0.091 C  
HETATM   28  H   UNL     1      -8.882   5.657  71.070  1.00  0.00     0.000 HD 
BRANCH  27  29
HETATM   29  C   UNL     1      -6.968   6.416  72.579  1.00  0.00    -0.074 C  
HETATM   30  C   UNL     1      -7.460   4.968  72.871  1.00  0.00    -0.092 C  
HETATM   31  N   UNL     1      -6.399   3.933  73.019  1.00  0.00    -0.019 NA 
HETATM   32  C   UNL     1      -5.588   4.005  74.231  1.00  0.00    -0.004 C  
HETATM   33  C   UNL     1      -5.590   3.782  71.785  1.00  0.00    -0.008 C  
HETATM   34  C   UNL     1      -6.285   2.695  70.885  1.00  0.00    -0.019 C  
HETATM   35  C   UNL     1      -7.262   3.316  69.963  1.00  0.00    -0.041 A  
HETATM   36  C   UNL     1      -8.491   2.961  69.442  1.00  0.00    -0.062 A  
HETATM   37  N   UNL     1      -8.923   3.986  68.648  1.00  0.00    -0.108 NA 
HETATM   38  H   UNL     1      -9.837   4.028  68.196  1.00  0.00     0.000 HD 
HETATM   39  C   UNL     1      -7.949   4.953  68.546  1.00  0.00    -0.085 A  
HETATM   40  C   UNL     1      -7.855   6.140  67.827  1.00  0.00    -0.105 A  
HETATM   41  C   UNL     1      -6.676   6.886  68.010  1.00  0.00    -0.068 A  
HETATM   42  C   UNL     1      -5.726   6.547  68.985  1.00  0.00    -0.017 A  
HETATM   43  C   UNL     1      -5.920   5.429  69.793  1.00  0.00    -0.017 A  
HETATM   44  C   UNL     1      -6.970   4.581  69.441  1.00  0.00    -0.050 A  
HETATM   45  C   UNL     1      -5.209   5.174  71.104  1.00  0.00    -0.004 C  
HETATM   46  C   UNL     1      -5.498   6.357  72.081  1.00  0.00    -0.032 C  
ENDBRANCH  27  29
ENDBRANCH  13  25
TORSDOF 4
ENDMDL
MODEL      129
REMARK 921   NORMALIZED FREE ENERGY PREDICTED BY IDOCK:   -2.41 KCAL/MOL
REMARK 922        TOTAL FREE ENERGY PREDICTED BY IDOCK:   -4.21 KCAL/MOL
REMARK 923 INTER-LIGAND FREE ENERGY PREDICTED BY IDOCK:   -4.14 KCAL/MOL
REMARK 924 INTRA-LIGAND FREE ENERGY PREDICTED BY IDOCK:   -0.07 KCAL/MOL
REMARK 927      BINDING AFFINITY PREDICTED BY RF-SCORE:    0.00 PKD
ROOT
HETATM    1  C   UNL     1      -7.074   6.354  69.740  1.00  0.00    -0.072 C  
HETATM    2  C   UNL     1      -5.817   6.448  70.607  1.00  0.00    -0.023 C  
HETATM    3  C   UNL     1      -6.046   5.329  71.664  1.00  0.00    -0.029 C  
HETATM    4  C   UNL     1      -7.504   4.884  71.505  1.00  0.00    -0.082 C  
HETATM    5  N   UNL     1      -8.100   5.853  70.608  1.00  0.00    -0.116 N  
HETATM    6  C   UNL     1      -9.328   5.544  70.055  1.00  0.00    -0.148 C  
HETATM    7  O   UNL     1     -10.273   5.144  70.730  1.00  0.00    -0.223 OA 
HETATM    8  C   UNL     1      -9.460   5.880  68.532  1.00  0.00    -0.121 C  
HETATM    9  O   UNL     1      -8.371   8.266  67.991  1.00  0.00    -0.126 OA 
HETATM   10  N   UNL     1      -8.137   6.162  67.780  1.00  0.00    -0.112 N  
HETATM   11  C   UNL     1      -8.153   6.831  66.585  1.00  0.00    -0.110 C  
HETATM   12  H   UNL     1      -6.408   8.062  67.160  1.00  0.00     0.000 HD 
HETATM   13  C   UNL     1      -9.301   7.856  66.750  1.00  0.00    -0.184 C  
HETATM   14  O   UNL     1      -7.258   6.694  65.752  1.00  0.00    -0.067 OA 
HETATM   15  O   UNL     1      -6.176   7.559  67.932  1.00  0.00    -0.044 OA 
HETATM   16  C   UNL     1      -9.410   7.479  65.178  1.00  0.00     0.866 C  
HETATM   17  C   UNL     1      -7.463   7.200  68.441  1.00  0.00    -0.106 C  
ENDROOT
BRANCH   8  18
HETATM   18  C   UNL     1     -10.363   4.882  67.791  1.00  0.00    -0.067 C  
BRANCH  18  19
HETATM   19  C   UNL     1      -9.502   3.806  67.202  1.00  0.00    -0.234 A  
HETATM   20  C   UNL     1      -7.474   2.517  67.427  1.00  0.00    -0.061 A  
HETATM   21  C   UNL     1      -7.420   2.375  66.043  1.00  0.00    -0.067 A  
HETATM   22  C   UNL     1      -9.487   3.599  65.821  1.00  0.00    -0.161 A  
HETATM   23  C   UNL     1      -8.442   2.890  65.243  1.00  0.00    -0.100 A  
HETATM   24  C   UNL     1      -8.529   3.203  68.010  1.00  0.00    -0.105 A  
ENDBRANCH  18  19
ENDBRANCH   8  18
BRANCH  13  25
HETATM   25  N   UNL     1     -10.440   8.793  66.728  1.00  0.00    -0.255 N  
HETATM   26  O   UNL     1     -10.524   9.916  68.726  1.00  0.00    -0.196 OA 
HETATM   27  C   UNL     1     -10.804   9.864  67.536  1.00  0.00    -0.243 C  
HETATM   28  H   UNL     1     -11.093   8.620  65.964  1.00  0.00     0.000 HD 
BRANCH  27  29
HETATM   29  C   UNL     1     -11.675  10.967  66.779  1.00  0.00     0.552 C  
HETATM   30  C   UNL     1     -11.855  12.342  67.487  1.00  0.00    -0.261 C  
HETATM   31  N   UNL     1     -11.933  13.533  66.595  1.00  0.00    -0.396 NA 
HETATM   32  C   UNL     1     -13.154  13.672  65.805  1.00  0.00     0.007 C  
HETATM   33  C   UNL     1     -10.698  13.714  65.795  1.00  0.00    -0.280 C  
HETATM   34  C   UNL     1      -9.713  14.615  66.628  1.00  0.00    -0.283 C  
HETATM   35  C   UNL     1      -8.833  13.789  67.483  1.00  0.00    -0.197 A  
HETATM   36  C   UNL     1      -8.278  13.917  68.742  1.00  0.00    -0.028 A  
HETATM   37  N   UNL     1      -7.560  12.784  69.001  1.00  0.00    -0.325 NA 
HETATM   38  H   UNL     1      -7.105  12.571  69.890  1.00  0.00     0.000 HD 
HETATM   39  C   UNL     1      -7.538  11.969  67.892  1.00  0.00    -0.124 A  
HETATM   40  C   UNL     1      -6.910  10.760  67.608  1.00  0.00    -0.073 A  
HETATM   41  C   UNL     1      -7.157  10.215  66.335  1.00  0.00    -0.107 A  
HETATM   42  C   UNL     1      -8.111  10.763  65.465  1.00  0.00    -0.084 A  
HETATM   43  C   UNL     1      -8.832  11.895  65.839  1.00  0.00     0.055 A  
HETATM   44  C   UNL     1      -8.410  12.548  66.997  1.00  0.00    -0.144 A  
HETATM   45  C   UNL     1     -10.125  12.349  65.198  1.00  0.00    -0.276 C  
HETATM   46  C   UNL     1     -11.186  11.210  65.325  1.00  0.00     0.019 C  
ENDBRANCH  27  29
ENDBRANCH  13  25
TORSDOF 4
ENDMDL
MODEL      130
REMARK 921   NORMALIZED FREE ENERGY PREDICTED BY IDOCK:   -2.38 KCAL/MOL
REMARK 922        TOTAL FREE ENERGY PREDICTED BY IDOCK:   -4.17 KCAL/MOL
REMARK 923 INTER-LIGAND FREE ENERGY PREDICTED BY IDOCK:   -3.77 KCAL/MOL
REMARK 924 INTRA-LIGAND FREE ENERGY PREDICTED BY IDOCK:   -0.40 KCAL/MOL
REMARK 927      BINDING AFFINITY PREDICTED BY RF-SCORE:    0.00 PKD
ROOT
HETATM    1  C   UNL     1      -7.827   5.615  64.671  1.00  0.00    -0.113 C  
HETATM    2  C   UNL     1      -7.138   5.137  63.392  1.00  0.00    -0.047 C  
HETATM    3  C   UNL     1      -8.307   5.101  62.365  1.00  0.00    -0.106 C  
HETATM    4  C   UNL     1      -9.595   5.279  63.178  1.00  0.00     0.736 C  
HETATM    5  N   UNL     1      -9.185   5.166  64.564  1.00  0.00     0.052 N  
HETATM    6  C   UNL     1     -10.083   5.570  65.532  1.00  0.00     0.376 C  
HETATM    7  O   UNL     1     -11.256   5.204  65.538  1.00  0.00     0.129 OA 
HETATM    8  C   UNL     1      -9.456   6.411  66.694  1.00  0.00    -0.161 C  
HETATM    9  O   UNL     1      -7.119   5.357  67.469  1.00  0.00    -0.064 OA 
HETATM   10  N   UNL     1      -8.038   6.974  66.436  1.00  0.00    -0.109 N  
HETATM   11  C   UNL     1      -7.254   7.374  67.486  1.00  0.00    -0.094 C  
HETATM   12  H   UNL     1      -5.462   6.412  66.616  1.00  0.00     0.000 HD 
HETATM   13  C   UNL     1      -7.606   6.372  68.612  1.00  0.00    -0.093 C  
HETATM   14  O   UNL     1      -6.362   8.210  67.350  1.00  0.00    -0.054 OA 
HETATM   15  O   UNL     1      -5.841   6.239  65.763  1.00  0.00    -0.023 OA 
HETATM   16  C   UNL     1      -7.340   7.735  69.446  1.00  0.00    -0.086 C  
HETATM   17  C   UNL     1      -7.188   5.908  66.107  1.00  0.00    -0.076 C  
ENDROOT
BRANCH   8  18
HETATM   18  C   UNL     1     -10.427   7.471  67.236  1.00  0.00    -0.391 C  
BRANCH  18  19
HETATM   19  C   UNL     1      -9.965   8.821  66.777  1.00  0.00    -0.338 A  
HETATM   20  C   UNL     1      -8.733  10.055  65.108  1.00  0.00    -0.183 A  
HETATM   21  C   UNL     1      -8.435  11.027  66.058  1.00  0.00    -0.158 A  
HETATM   22  C   UNL     1      -9.729   9.835  67.709  1.00  0.00    -0.167 A  
HETATM   23  C   UNL     1      -8.959  10.933  67.350  1.00  0.00    -0.136 A  
HETATM   24  C   UNL     1      -9.523   8.968  65.456  1.00  0.00    -0.220 A  
ENDBRANCH  18  19
ENDBRANCH   8  18
BRANCH  13  25
HETATM   25  N   UNL     1      -7.934   5.565  69.802  1.00  0.00    -0.088 N  
HETATM   26  O   UNL     1     -10.147   4.970  69.717  1.00  0.00    -0.231 OA 
HETATM   27  C   UNL     1      -9.016   4.759  70.134  1.00  0.00    -0.099 C  
HETATM   28  H   UNL     1      -7.220   5.607  70.530  1.00  0.00     0.000 HD 
BRANCH  27  29
HETATM   29  C   UNL     1      -8.650   3.589  71.158  1.00  0.00    -0.109 C  
HETATM   30  C   UNL     1      -7.197   3.556  71.713  1.00  0.00    -0.046 C  
HETATM   31  N   UNL     1      -7.040   3.071  73.113  1.00  0.00    -0.039 NA 
HETATM   32  C   UNL     1      -7.259   1.643  73.332  1.00  0.00    -0.028 C  
HETATM   33  C   UNL     1      -7.763   3.927  74.085  1.00  0.00    -0.079 C  
HETATM   34  C   UNL     1      -6.779   5.063  74.550  1.00  0.00    -0.072 C  
HETATM   35  C   UNL     1      -6.893   6.253  73.678  1.00  0.00    -0.079 A  
HETATM   36  C   UNL     1      -6.018   7.202  73.185  1.00  0.00    -0.056 A  
HETATM   37  N   UNL     1      -6.730   8.057  72.392  1.00  0.00    -0.071 NA 
HETATM   38  H   UNL     1      -6.325   8.811  71.836  1.00  0.00     0.000 HD 
HETATM   39  C   UNL     1      -8.072   7.755  72.449  1.00  0.00    -0.120 A  
HETATM   40  C   UNL     1      -9.206   8.342  71.897  1.00  0.00    -0.272 A  
HETATM   41  C   UNL     1     -10.431   7.708  72.176  1.00  0.00    -0.270 A  
HETATM   42  C   UNL     1     -10.496   6.468  72.826  1.00  0.00    -0.240 A  
HETATM   43  C   UNL     1      -9.327   5.833  73.241  1.00  0.00    -0.135 A  
HETATM   44  C   UNL     1      -8.151   6.579  73.162  1.00  0.00    -0.106 A  
HETATM   45  C   UNL     1      -9.214   4.364  73.586  1.00  0.00    -0.106 C  
HETATM   46  C   UNL     1      -9.645   3.514  72.349  1.00  0.00    -0.198 C  
ENDBRANCH  27  29
ENDBRANCH  13  25
TORSDOF 4
ENDMDL
MODEL      131
REMARK 921   NORMALIZED FREE ENERGY PREDICTED BY IDOCK:   -2.17 KCAL/MOL
REMARK 922        TOTAL FREE ENERGY PREDICTED BY IDOCK:   -3.92 KCAL/MOL
REMARK 923 INTER-LIGAND FREE ENERGY PREDICTED BY IDOCK:   -2.73 KCAL/MOL
REMARK 924 INTRA-LIGAND FREE ENERGY PREDICTED BY IDOCK:   -1.19 KCAL/MOL
REMARK 927      BINDING AFFINITY PREDICTED BY RF-SCORE:    0.00 PKD
ROOT
HETATM    1  C   UNL     1     -10.301  18.001  68.013  1.00  0.00    -0.387 C  
HETATM    2  C   UNL     1     -11.235  19.149  68.399  1.00  0.00     0.977 C  
HETATM    3  C   UNL     1     -10.261  20.184  69.033  1.00  0.00    -0.214 C  
HETATM    4  C   UNL     1      -8.925  19.457  69.219  1.00  0.00    -0.010 C  
HETATM    5  N   UNL     1      -9.213  18.062  68.947  1.00  0.00    -0.197 N  
HETATM    6  C   UNL     1      -8.142  17.212  68.756  1.00  0.00    -0.252 C  
HETATM    7  O   UNL     1      -7.186  17.173  69.527  1.00  0.00    -0.124 OA 
HETATM    8  C   UNL     1      -8.309  16.209  67.567  1.00  0.00    -0.159 C  
HETATM    9  O   UNL     1     -10.783  15.184  67.535  1.00  0.00    -0.271 OA 
HETATM   10  N   UNL     1      -9.445  16.524  66.565  1.00  0.00    -0.256 N  
HETATM   11  C   UNL     1      -9.928  15.544  65.738  1.00  0.00    -0.359 C  
HETATM   12  H   UNL     1     -12.020  16.168  66.090  1.00  0.00     0.000 HD 
HETATM   13  C   UNL     1      -9.856  14.263  66.604  1.00  0.00    -0.281 C  
HETATM   14  O   UNL     1     -10.466  15.807  64.665  1.00  0.00    -0.436 OA 
HETATM   15  O   UNL     1     -11.813  16.986  66.527  1.00  0.00     1.542 OA 
HETATM   16  C   UNL     1      -9.530  13.688  65.125  1.00  0.00     0.414 C  
HETATM   17  C   UNL     1     -10.650  16.626  67.276  1.00  0.00    -0.281 C  
ENDROOT
BRANCH   8  18
HETATM   18  C   UNL     1      -6.973  15.900  66.873  1.00  0.00    -0.077 C  
BRANCH  18  19
HETATM   19  C   UNL     1      -6.366  17.191  66.412  1.00  0.00    -0.217 A  
HETATM   20  C   UNL     1      -5.129  19.162  67.051  1.00  0.00    -0.148 A  
HETATM   21  C   UNL     1      -5.746  19.872  66.025  1.00  0.00    -0.181 A  
HETATM   22  C   UNL     1      -6.927  17.884  65.337  1.00  0.00     0.261 A  
HETATM   23  C   UNL     1      -6.622  19.226  65.150  1.00  0.00    -0.249 A  
HETATM   24  C   UNL     1      -5.412  17.815  67.226  1.00  0.00    -0.152 A  
ENDBRANCH  18  19
ENDBRANCH   8  18
BRANCH  13  25
HETATM   25  N   UNL     1      -9.729  12.954  67.272  1.00  0.00    -0.216 N  
HETATM   26  O   UNL     1      -7.969  13.029  68.741  1.00  0.00    -0.069 OA 
HETATM   27  C   UNL     1      -9.027  12.523  68.391  1.00  0.00    -0.130 C  
HETATM   28  H   UNL     1     -10.267  12.215  66.820  1.00  0.00     0.000 HD 
BRANCH  27  29
HETATM   29  C   UNL     1      -9.697  11.270  69.122  1.00  0.00     0.008 C  
HETATM   30  C   UNL     1     -10.696  10.412  68.293  1.00  0.00    -0.235 C  
HETATM   31  N   UNL     1     -10.713   8.953  68.593  1.00  0.00    -0.136 NA 
HETATM   32  C   UNL     1     -11.292   8.562  69.875  1.00  0.00     0.057 C  
HETATM   33  C   UNL     1      -9.401   8.313  68.326  1.00  0.00    -0.134 C  
HETATM   34  C   UNL     1      -9.398   7.831  66.828  1.00  0.00    -0.227 C  
HETATM   35  C   UNL     1      -8.871   8.885  65.934  1.00  0.00    -0.215 A  
HETATM   36  C   UNL     1      -9.147   9.320  64.651  1.00  0.00    -0.121 A  
HETATM   37  N   UNL     1      -8.324  10.376  64.379  1.00  0.00    -0.216 NA 
HETATM   38  H   UNL     1      -8.363  10.943  63.532  1.00  0.00     0.000 HD 
HETATM   39  C   UNL     1      -7.436  10.567  65.413  1.00  0.00    -0.089 A  
HETATM   40  C   UNL     1      -6.371  11.441  65.607  1.00  0.00     0.583 A  
HETATM   41  C   UNL     1      -5.701  11.340  66.840  1.00  0.00    -0.107 A  
HETATM   42  C   UNL     1      -6.177  10.529  67.881  1.00  0.00    -0.058 A  
HETATM   43  C   UNL     1      -7.334   9.773  67.706  1.00  0.00    -0.089 A  
HETATM   44  C   UNL     1      -7.847   9.710  66.410  1.00  0.00    -0.101 A  
HETATM   45  C   UNL     1      -8.160   9.182  68.827  1.00  0.00    -0.101 C  
HETATM   46  C   UNL     1      -8.642  10.331  69.768  1.00  0.00    -0.078 C  
ENDBRANCH  27  29
ENDBRANCH  13  25
TORSDOF 4
ENDMDL
MODEL      132
REMARK 921   NORMALIZED FREE ENERGY PREDICTED BY IDOCK:   -2.17 KCAL/MOL
REMARK 922        TOTAL FREE ENERGY PREDICTED BY IDOCK:   -3.91 KCAL/MOL
REMARK 923 INTER-LIGAND FREE ENERGY PREDICTED BY IDOCK:   -6.07 KCAL/MOL
REMARK 924 INTRA-LIGAND FREE ENERGY PREDICTED BY IDOCK:    2.16 KCAL/MOL
REMARK 927      BINDING AFFINITY PREDICTED BY RF-SCORE:    0.00 PKD
ROOT
HETATM    1  C   UNL     1      -8.826  10.860  66.151  1.00  0.00    -0.186 C  
HETATM    2  C   UNL     1      -7.804   9.848  65.632  1.00  0.00    -0.127 C  
HETATM    3  C   UNL     1      -7.983   8.648  66.607  1.00  0.00    -0.096 C  
HETATM    4  C   UNL     1      -8.864   9.157  67.753  1.00  0.00    -0.124 C  
HETATM    5  N   UNL     1      -8.951  10.591  67.555  1.00  0.00    -0.135 N  
HETATM    6  C   UNL     1      -9.914  11.278  68.267  1.00  0.00    -0.195 C  
HETATM    7  O   UNL     1     -10.066  11.136  69.478  1.00  0.00    -0.054 OA 
HETATM    8  C   UNL     1     -10.696  12.352  67.439  1.00  0.00    -0.229 C  
HETATM    9  O   UNL     1      -9.024  13.737  65.871  1.00  0.00     0.216 OA 
HETATM   10  N   UNL     1     -10.555  12.259  65.900  1.00  0.00    -0.249 N  
HETATM   11  C   UNL     1     -10.856  13.340  65.114  1.00  0.00    -0.310 C  
HETATM   12  H   UNL     1      -9.068  13.021  63.852  1.00  0.00     0.000 HD 
HETATM   13  C   UNL     1     -10.403  14.552  65.963  1.00  0.00    -0.309 C  
HETATM   14  O   UNL     1     -11.197  13.214  63.940  1.00  0.00    -0.387 OA 
HETATM   15  O   UNL     1      -8.852  12.161  64.194  1.00  0.00     0.753 OA 
HETATM   16  C   UNL     1     -11.707  15.143  65.203  1.00  0.00    -0.179 C  
HETATM   17  C   UNL     1      -9.191  12.306  65.575  1.00  0.00     0.169 C  
ENDROOT
BRANCH   8  18
HETATM   18  C   UNL     1     -12.157  12.490  67.894  1.00  0.00    -0.120 C  
BRANCH  18  19
HETATM   19  C   UNL     1     -12.181  12.613  69.387  1.00  0.00    -0.116 A  
HETATM   20  C   UNL     1     -12.995  11.684  71.461  1.00  0.00    -0.463 A  
HETATM   21  C   UNL     1     -12.955  12.952  72.035  1.00  0.00    -0.385 A  
HETATM   22  C   UNL     1     -12.069  13.870  69.987  1.00  0.00    -0.411 A  
HETATM   23  C   UNL     1     -12.463  14.038  71.308  1.00  0.00    -0.448 A  
HETATM   24  C   UNL     1     -12.579  11.507  70.149  1.00  0.00    -0.145 A  
ENDBRANCH  18  19
ENDBRANCH   8  18
BRANCH  13  25
HETATM   25  N   UNL     1     -10.128  15.794  66.710  1.00  0.00    -0.264 N  
HETATM   26  O   UNL     1      -8.480  16.968  65.631  1.00  0.00    -0.437 OA 
HETATM   27  C   UNL     1      -9.433  16.957  66.398  1.00  0.00    -0.283 C  
HETATM   28  H   UNL     1     -10.528  15.800  67.648  1.00  0.00     0.000 HD 
BRANCH  27  29
HETATM   29  C   UNL     1      -9.956  18.244  67.186  1.00  0.00    -0.345 C  
HETATM   30  C   UNL     1      -9.771  18.257  68.731  1.00  0.00    -0.330 C  
HETATM   31  N   UNL     1      -9.504  19.586  69.347  1.00  0.00    -0.170 NA 
HETATM   32  C   UNL     1     -10.624  20.524  69.378  1.00  0.00     0.642 C  
HETATM   33  C   UNL     1      -8.249  20.195  68.843  1.00  0.00     0.246 C  
HETATM   34  C   UNL     1      -7.075  19.718  69.775  1.00  0.00    -0.121 C  
HETATM   35  C   UNL     1      -6.470  18.467  69.267  1.00  0.00    -0.272 A  
HETATM   36  C   UNL     1      -5.927  17.331  69.837  1.00  0.00    -0.230 A  
HETATM   37  N   UNL     1      -5.549  16.493  68.827  1.00  0.00    -0.120 NA 
HETATM   38  H   UNL     1      -5.188  15.548  68.957  1.00  0.00     0.000 HD 
HETATM   39  C   UNL     1      -5.726  17.107  67.607  1.00  0.00    -0.129 A  
HETATM   40  C   UNL     1      -5.444  16.728  66.299  1.00  0.00     0.424 A  
HETATM   41  C   UNL     1      -5.803  17.646  65.295  1.00  0.00     0.341 A  
HETATM   42  C   UNL     1      -6.554  18.798  65.575  1.00  0.00    -0.307 A  
HETATM   43  C   UNL     1      -6.949  19.076  66.882  1.00  0.00    -0.209 A  
HETATM   44  C   UNL     1      -6.390  18.282  67.883  1.00  0.00    -0.190 A  
HETATM   45  C   UNL     1      -8.056  20.031  67.267  1.00  0.00    -0.357 C  
HETATM   46  C   UNL     1      -9.389  19.566  66.600  1.00  0.00    -0.430 C  
ENDBRANCH  27  29
ENDBRANCH  13  25
TORSDOF 4
ENDMDL
MODEL      133
REMARK 921   NORMALIZED FREE ENERGY PREDICTED BY IDOCK:   -1.97 KCAL/MOL
REMARK 922        TOTAL FREE ENERGY PREDICTED BY IDOCK:   -3.66 KCAL/MOL
REMARK 923 INTER-LIGAND FREE ENERGY PREDICTED BY IDOCK:   -5.02 KCAL/MOL
REMARK 924 INTRA-LIGAND FREE ENERGY PREDICTED BY IDOCK:    1.35 KCAL/MOL
REMARK 927      BINDING AFFINITY PREDICTED BY RF-SCORE:    0.00 PKD
ROOT
HETATM    1  C   UNL     1      -8.269  14.106  68.664  1.00  0.00    -0.116 C  
HETATM    2  C   UNL     1      -7.570  15.300  69.315  1.00  0.00    -0.213 C  
HETATM    3  C   UNL     1      -6.320  15.500  68.410  1.00  0.00    -0.109 C  
HETATM    4  C   UNL     1      -6.245  14.264  67.506  1.00  0.00     0.035 C  
HETATM    5  N   UNL     1      -7.225  13.342  68.045  1.00  0.00    -0.104 N  
HETATM    6  C   UNL     1      -7.583  12.260  67.265  1.00  0.00    -0.152 C  
HETATM    7  O   UNL     1      -6.753  11.531  66.728  1.00  0.00    -0.140 OA 
HETATM    8  C   UNL     1      -9.118  11.955  67.238  1.00  0.00    -0.178 C  
HETATM    9  O   UNL     1     -10.168  12.173  69.693  1.00  0.00     0.514 OA 
HETATM   10  N   UNL     1     -10.044  13.076  67.770  1.00  0.00    -0.224 N  
HETATM   11  C   UNL     1     -11.326  12.787  68.153  1.00  0.00    -0.288 C  
HETATM   12  H   UNL     1     -11.157  14.055  69.958  1.00  0.00     0.000 HD 
HETATM   13  C   UNL     1     -11.216  11.375  68.777  1.00  0.00    -0.247 C  
HETATM   14  O   UNL     1     -12.214  13.637  68.145  1.00  0.00    -0.322 OA 
HETATM   15  O   UNL     1     -10.340  14.474  69.714  1.00  0.00    -0.033 OA 
HETATM   16  C   UNL     1     -12.681  11.323  68.086  1.00  0.00     2.264 C  
HETATM   17  C   UNL     1      -9.644  13.402  69.075  1.00  0.00     0.310 C  
ENDROOT
BRANCH   8  18
HETATM   18  C   UNL     1      -9.578  11.398  65.883  1.00  0.00    -0.254 C  
BRANCH  18  19
HETATM   19  C   UNL     1     -10.322  12.475  65.152  1.00  0.00    -0.312 A  
HETATM   20  C   UNL     1     -10.543  14.846  64.766  1.00  0.00    -0.336 A  
HETATM   21  C   UNL     1     -11.896  14.667  64.490  1.00  0.00    -0.442 A  
HETATM   22  C   UNL     1     -11.661  12.286  64.800  1.00  0.00    -0.393 A  
HETATM   23  C   UNL     1     -12.447  13.384  64.477  1.00  0.00    -0.359 A  
HETATM   24  C   UNL     1      -9.749  13.750  65.066  1.00  0.00     0.078 A  
ENDBRANCH  18  19
ENDBRANCH   8  18
BRANCH  13  25
HETATM   25  N   UNL     1     -11.274   9.991  69.286  1.00  0.00    -0.367 N  
HETATM   26  O   UNL     1     -10.025   8.638  67.920  1.00  0.00    -0.170 OA 
HETATM   27  C   UNL     1     -10.534   8.847  69.012  1.00  0.00    -0.214 C  
HETATM   28  H   UNL     1     -12.007   9.845  69.980  1.00  0.00     0.000 HD 
BRANCH  27  29
HETATM   29  C   UNL     1     -10.480   7.816  70.231  1.00  0.00    -0.225 C  
HETATM   30  C   UNL     1     -11.193   6.446  70.037  1.00  0.00    -0.411 C  
HETATM   31  N   UNL     1     -10.559   5.277  70.708  1.00  0.00    -0.225 NA 
HETATM   32  C   UNL     1     -10.660   5.232  72.165  1.00  0.00    -0.221 C  
HETATM   33  C   UNL     1      -9.185   5.024  70.211  1.00  0.00    -0.139 C  
HETATM   34  C   UNL     1      -9.289   4.047  68.983  1.00  0.00    -0.237 C  
HETATM   35  C   UNL     1      -9.425   4.799  67.716  1.00  0.00    -0.180 A  
HETATM   36  C   UNL     1     -10.105   4.615  66.528  1.00  0.00    -0.250 A  
HETATM   37  N   UNL     1      -9.851   5.693  65.727  1.00  0.00    -0.372 NA 
HETATM   38  H   UNL     1     -10.286   5.861  64.820  1.00  0.00     0.000 HD 
HETATM   39  C   UNL     1      -8.926   6.521  66.322  1.00  0.00    -0.156 A  
HETATM   40  C   UNL     1      -8.289   7.689  65.914  1.00  0.00    -0.140 A  
HETATM   41  C   UNL     1      -7.401   8.268  66.840  1.00  0.00    -0.084 A  
HETATM   42  C   UNL     1      -7.290   7.799  68.157  1.00  0.00    -0.106 A  
HETATM   43  C   UNL     1      -8.053   6.713  68.580  1.00  0.00    -0.119 A  
HETATM   44  C   UNL     1      -8.747   6.016  67.591  1.00  0.00    -0.104 A  
HETATM   45  C   UNL     1      -8.326   6.357  70.025  1.00  0.00    -0.130 C  
HETATM   46  C   UNL     1      -9.029   7.562  70.725  1.00  0.00    -0.149 C  
ENDBRANCH  27  29
ENDBRANCH  13  25
TORSDOF 4
ENDMDL
MODEL      134
REMARK 921   NORMALIZED FREE ENERGY PREDICTED BY IDOCK:   -1.92 KCAL/MOL
REMARK 922        TOTAL FREE ENERGY PREDICTED BY IDOCK:   -3.60 KCAL/MOL
REMARK 923 INTER-LIGAND FREE ENERGY PREDICTED BY IDOCK:   -1.60 KCAL/MOL
REMARK 924 INTRA-LIGAND FREE ENERGY PREDICTED BY IDOCK:   -2.01 KCAL/MOL
REMARK 927      BINDING AFFINITY PREDICTED BY RF-SCORE:    0.00 PKD
ROOT
HETATM    1  C   UNL     1     -10.319   8.892  67.435  1.00  0.00    -0.269 C  
HETATM    2  C   UNL     1     -10.889   7.672  66.709  1.00  0.00     0.027 C  
HETATM    3  C   UNL     1      -9.610   6.869  66.333  1.00  0.00    -0.152 C  
HETATM    4  C   UNL     1      -8.424   7.800  66.607  1.00  0.00    -0.129 C  
HETATM    5  N   UNL     1      -9.015   9.097  66.871  1.00  0.00    -0.122 N  
HETATM    6  C   UNL     1      -8.208  10.066  67.433  1.00  0.00    -0.118 C  
HETATM    7  O   UNL     1      -7.093  10.332  66.991  1.00  0.00    -0.087 OA 
HETATM    8  C   UNL     1      -8.881  10.892  68.580  1.00  0.00    -0.153 C  
HETATM    9  O   UNL     1     -11.398  11.535  67.930  1.00  0.00    -0.259 OA 
HETATM   10  N   UNL     1     -10.185  10.301  69.168  1.00  0.00    -0.205 N  
HETATM   11  C   UNL     1     -11.047  11.099  69.873  1.00  0.00    -0.162 C  
HETATM   12  H   UNL     1     -12.809  10.221  68.865  1.00  0.00     0.000 HD 
HETATM   13  C   UNL     1     -10.952  12.468  69.156  1.00  0.00    -0.144 C  
HETATM   14  O   UNL     1     -11.817  10.640  70.714  1.00  0.00    -0.323 OA 
HETATM   15  O   UNL     1     -12.346   9.499  68.458  1.00  0.00     1.721 OA 
HETATM   16  C   UNL     1     -11.170  12.911  70.699  1.00  0.00     1.331 C  
HETATM   17  C   UNL     1     -11.098  10.107  68.121  1.00  0.00    -0.230 C  
ENDROOT
BRANCH   8  18
HETATM   18  C   UNL     1      -7.876  11.310  69.664  1.00  0.00     0.409 C  
BRANCH  18  19
HETATM   19  C   UNL     1      -7.325  10.073  70.306  1.00  0.00    -0.152 A  
HETATM   20  C   UNL     1      -7.643   8.385  72.001  1.00  0.00    -0.152 A  
HETATM   21  C   UNL     1      -6.263   8.228  72.092  1.00  0.00    -0.060 A  
HETATM   22  C   UNL     1      -5.944   9.861  70.345  1.00  0.00    -0.075 A  
HETATM   23  C   UNL     1      -5.416   8.944  71.243  1.00  0.00    -0.040 A  
HETATM   24  C   UNL     1      -8.176   9.282  71.087  1.00  0.00    -0.051 A  
ENDBRANCH  18  19
ENDBRANCH   8  18
BRANCH  13  25
HETATM   25  N   UNL     1     -10.868  13.849  68.646  1.00  0.00    -0.255 N  
HETATM   26  O   UNL     1     -12.813  14.361  67.544  1.00  0.00     0.514 OA 
HETATM   27  C   UNL     1     -11.813  14.735  68.142  1.00  0.00    -0.287 C  
HETATM   28  H   UNL     1      -9.923  14.233  68.667  1.00  0.00     0.000 HD 
BRANCH  27  29
HETATM   29  C   UNL     1     -11.429  16.270  68.357  1.00  0.00    -0.243 C  
HETATM   30  C   UNL     1     -10.088  16.574  69.087  1.00  0.00    -0.287 C  
HETATM   31  N   UNL     1      -9.361  17.794  68.641  1.00  0.00    -0.289 NA 
HETATM   32  C   UNL     1      -9.960  19.076  69.005  1.00  0.00    -0.328 C  
HETATM   33  C   UNL     1      -8.969  17.721  67.212  1.00  0.00    -0.246 C  
HETATM   34  C   UNL     1      -7.546  17.053  67.138  1.00  0.00    -0.205 C  
HETATM   35  C   UNL     1      -7.655  15.584  67.007  1.00  0.00    -0.228 A  
HETATM   36  C   UNL     1      -6.939  14.496  67.468  1.00  0.00    -0.164 A  
HETATM   37  N   UNL     1      -7.562  13.364  67.023  1.00  0.00    -0.357 NA 
HETATM   38  H   UNL     1      -7.295  12.413  67.277  1.00  0.00     0.000 HD 
HETATM   39  C   UNL     1      -8.603  13.691  66.184  1.00  0.00     0.775 A  
HETATM   40  C   UNL     1      -9.494  12.935  65.429  1.00  0.00     0.187 A  
HETATM   41  C   UNL     1     -10.456  13.655  64.698  1.00  0.00    -0.442 A  
HETATM   42  C   UNL     1     -10.622  15.039  64.849  1.00  0.00    -0.400 A  
HETATM   43  C   UNL     1      -9.806  15.751  65.726  1.00  0.00    -0.383 A  
HETATM   44  C   UNL     1      -8.717  15.062  66.261  1.00  0.00    -0.063 A  
HETATM   45  C   UNL     1     -10.114  17.127  66.272  1.00  0.00    -0.329 C  
HETATM   46  C   UNL     1     -11.476  17.082  67.034  1.00  0.00     0.828 C  
ENDBRANCH  27  29
ENDBRANCH  13  25
TORSDOF 4
ENDMDL
MODEL      135
REMARK 921   NORMALIZED FREE ENERGY PREDICTED BY IDOCK:   -1.89 KCAL/MOL
REMARK 922        TOTAL FREE ENERGY PREDICTED BY IDOCK:   -3.56 KCAL/MOL
REMARK 923 INTER-LIGAND FREE ENERGY PREDICTED BY IDOCK:   -3.03 KCAL/MOL
REMARK 924 INTRA-LIGAND FREE ENERGY PREDICTED BY IDOCK:   -0.54 KCAL/MOL
REMARK 927      BINDING AFFINITY PREDICTED BY RF-SCORE:    0.00 PKD
ROOT
HETATM    1  C   UNL     1      -7.673  13.680  68.358  1.00  0.00    -0.138 C  
HETATM    2  C   UNL     1      -6.862  14.714  69.141  1.00  0.00    -0.126 C  
HETATM    3  C   UNL     1      -5.651  14.984  68.201  1.00  0.00    -0.131 C  
HETATM    4  C   UNL     1      -5.706  13.905  67.114  1.00  0.00     0.847 C  
HETATM    5  N   UNL     1      -6.715  12.966  67.563  1.00  0.00    -0.154 N  
HETATM    6  C   UNL     1      -7.185  12.044  66.648  1.00  0.00     0.140 C  
HETATM    7  O   UNL     1      -6.434  11.364  65.954  1.00  0.00     0.070 OA 
HETATM    8  C   UNL     1      -8.736  11.835  66.671  1.00  0.00    -0.186 C  
HETATM    9  O   UNL     1      -9.638  11.720  69.190  1.00  0.00     0.080 OA 
HETATM   10  N   UNL     1      -9.556  12.908  67.427  1.00  0.00    -0.198 N  
HETATM   11  C   UNL     1     -10.833  12.635  67.840  1.00  0.00    -0.219 C  
HETATM   12  H   UNL     1     -10.485  13.589  69.805  1.00  0.00     0.000 HD 
HETATM   13  C   UNL     1     -10.783  11.138  68.229  1.00  0.00    -0.196 C  
HETATM   14  O   UNL     1     -11.662  13.525  68.019  1.00  0.00    -0.318 OA 
HETATM   15  O   UNL     1      -9.656  13.994  69.579  1.00  0.00     0.368 OA 
HETATM   16  C   UNL     1     -12.282  11.280  67.631  1.00  0.00     0.727 C  
HETATM   17  C   UNL     1      -9.067  12.999  68.739  1.00  0.00     0.175 C  
ENDROOT
BRANCH   8  18
HETATM   18  C   UNL     1      -9.302  11.527  65.276  1.00  0.00    -0.155 C  
BRANCH  18  19
HETATM   19  C   UNL     1     -10.073  12.721  64.800  1.00  0.00    -0.240 A  
HETATM   20  C   UNL     1     -10.393  15.105  64.995  1.00  0.00    -0.377 A  
HETATM   21  C   UNL     1     -11.727  14.948  64.629  1.00  0.00    -0.406 A  
HETATM   22  C   UNL     1     -11.390  12.574  64.360  1.00  0.00    -0.395 A  
HETATM   23  C   UNL     1     -12.217  13.688  64.283  1.00  0.00    -0.445 A  
HETATM   24  C   UNL     1      -9.557  14.000  65.050  1.00  0.00     0.344 A  
ENDBRANCH  18  19
ENDBRANCH   8  18
BRANCH  13  25
HETATM   25  N   UNL     1     -10.906   9.697  68.519  1.00  0.00    -0.375 N  
HETATM   26  O   UNL     1      -9.016   8.622  67.788  1.00  0.00    -0.135 OA 
HETATM   27  C   UNL     1      -9.993   8.648  68.524  1.00  0.00    -0.183 C  
HETATM   28  H   UNL     1     -11.853   9.412  68.766  1.00  0.00     0.000 HD 
BRANCH  27  29
HETATM   29  C   UNL     1     -10.386   7.464  69.522  1.00  0.00    -0.218 C  
HETATM   30  C   UNL     1      -9.854   6.041  69.185  1.00  0.00    -0.148 C  
HETATM   31  N   UNL     1      -9.521   5.174  70.349  1.00  0.00    -0.159 NA 
HETATM   32  C   UNL     1     -10.650   4.671  71.127  1.00  0.00     0.120 C  
HETATM   33  C   UNL     1      -8.447   5.756  71.191  1.00  0.00    -0.128 C  
HETATM   34  C   UNL     1      -7.068   5.244  70.633  1.00  0.00    -0.060 C  
HETATM   35  C   UNL     1      -6.532   6.170  69.611  1.00  0.00    -0.039 A  
HETATM   36  C   UNL     1      -5.817   6.037  68.436  1.00  0.00    -0.012 A  
HETATM   37  N   UNL     1      -5.638   7.285  67.909  1.00  0.00    -0.024 NA 
HETATM   38  H   UNL     1      -5.210   7.480  67.004  1.00  0.00     0.000 HD 
HETATM   39  C   UNL     1      -6.120   8.241  68.774  1.00  0.00    -0.044 A  
HETATM   40  C   UNL     1      -6.126   9.632  68.752  1.00  0.00    -0.042 A  
HETATM   41  C   UNL     1      -6.751  10.269  69.840  1.00  0.00    -0.125 A  
HETATM   42  C   UNL     1      -7.476   9.552  70.804  1.00  0.00    -0.099 A  
HETATM   43  C   UNL     1      -7.574   8.165  70.718  1.00  0.00    -0.071 A  
HETATM   44  C   UNL     1      -6.761   7.540  69.772  1.00  0.00    -0.043 A  
HETATM   45  C   UNL     1      -8.611   7.325  71.430  1.00  0.00    -0.115 C  
HETATM   46  C   UNL     1     -10.036   7.796  70.998  1.00  0.00    -0.191 C  
ENDBRANCH  27  29
ENDBRANCH  13  25
TORSDOF 4
ENDMDL
MODEL      136
REMARK 921   NORMALIZED FREE ENERGY PREDICTED BY IDOCK:   -1.86 KCAL/MOL
REMARK 922        TOTAL FREE ENERGY PREDICTED BY IDOCK:   -3.54 KCAL/MOL
REMARK 923 INTER-LIGAND FREE ENERGY PREDICTED BY IDOCK:   -4.15 KCAL/MOL
REMARK 924 INTRA-LIGAND FREE ENERGY PREDICTED BY IDOCK:    0.61 KCAL/MOL
REMARK 927      BINDING AFFINITY PREDICTED BY RF-SCORE:    0.00 PKD
ROOT
HETATM    1  C   UNL     1      -9.955   9.660  67.211  1.00  0.00    -0.197 C  
HETATM    2  C   UNL     1      -9.693   8.176  66.953  1.00  0.00    -0.291 C  
HETATM    3  C   UNL     1     -10.550   7.480  68.050  1.00  0.00    -0.217 C  
HETATM    4  C   UNL     1     -11.000   8.590  69.007  1.00  0.00     0.111 C  
HETATM    5  N   UNL     1     -10.241   9.760  68.613  1.00  0.00    -0.183 N  
HETATM    6  C   UNL     1     -10.646  10.983  69.110  1.00  0.00    -0.219 C  
HETATM    7  O   UNL     1     -10.877  11.166  70.303  1.00  0.00     0.027 OA 
HETATM    8  C   UNL     1     -10.649  12.145  68.062  1.00  0.00    -0.210 C  
HETATM    9  O   UNL     1      -8.452  12.043  66.533  1.00  0.00    -0.160 OA 
HETATM   10  N   UNL     1     -10.555  11.721  66.576  1.00  0.00    -0.244 N  
HETATM   11  C   UNL     1     -10.162  12.625  65.625  1.00  0.00    -0.273 C  
HETATM   12  H   UNL     1      -8.859  11.137  64.635  1.00  0.00     0.000 HD 
HETATM   13  C   UNL     1      -9.110  13.495  66.354  1.00  0.00    -0.044 C  
HETATM   14  O   UNL     1     -10.489  12.510  64.445  1.00  0.00    -0.317 OA 
HETATM   15  O   UNL     1      -9.185  10.381  65.110  1.00  0.00    -0.178 OA 
HETATM   16  C   UNL     1      -9.819  14.574  65.375  1.00  0.00    -0.274 C  
HETATM   17  C   UNL     1      -9.407  10.931  66.411  1.00  0.00    -0.176 C  
ENDROOT
BRANCH   8  18
HETATM   18  C   UNL     1     -11.772  13.161  68.320  1.00  0.00    -0.384 C  
BRANCH  18  19
HETATM   19  C   UNL     1     -11.743  13.546  69.768  1.00  0.00    -0.363 A  
HETATM   20  C   UNL     1     -13.051  14.053  71.732  1.00  0.00    -0.449 A  
HETATM   21  C   UNL     1     -12.026  14.874  72.193  1.00  0.00    -0.412 A  
HETATM   22  C   UNL     1     -10.685  14.309  70.268  1.00  0.00     0.406 A  
HETATM   23  C   UNL     1     -10.832  14.977  71.477  1.00  0.00     0.218 A  
HETATM   24  C   UNL     1     -12.899  13.364  70.537  1.00  0.00    -0.094 A  
ENDBRANCH  18  19
ENDBRANCH   8  18
BRANCH  13  25
HETATM   25  N   UNL     1      -8.185  14.472  66.959  1.00  0.00    -0.347 N  
HETATM   26  O   UNL     1      -8.146  16.366  65.667  1.00  0.00     0.080 OA 
HETATM   27  C   UNL     1      -7.969  15.829  66.752  1.00  0.00    -0.238 C  
HETATM   28  H   UNL     1      -7.582  14.069  67.676  1.00  0.00     0.000 HD 
BRANCH  27  29
HETATM   29  C   UNL     1      -7.404  16.589  68.038  1.00  0.00    -0.151 C  
HETATM   30  C   UNL     1      -6.911  18.052  67.843  1.00  0.00    -0.199 C  
HETATM   31  N   UNL     1      -7.126  18.975  68.992  1.00  0.00    -0.328 NA 
HETATM   32  C   UNL     1      -6.292  18.751  70.169  1.00  0.00     0.028 C  
HETATM   33  C   UNL     1      -8.564  19.135  69.319  1.00  0.00     0.026 C  
HETATM   34  C   UNL     1      -9.120  20.337  68.470  1.00  0.00     0.095 C  
HETATM   35  C   UNL     1      -9.644  19.869  67.168  1.00  0.00    -0.508 A  
HETATM   36  C   UNL     1      -9.675  20.367  65.879  1.00  0.00    -0.041 A  
HETATM   37  N   UNL     1     -10.289  19.440  65.085  1.00  0.00     0.101 NA 
HETATM   38  H   UNL     1     -10.381  19.510  64.071  1.00  0.00     0.000 HD 
HETATM   39  C   UNL     1     -10.764  18.398  65.848  1.00  0.00    -0.178 A  
HETATM   40  C   UNL     1     -11.503  17.257  65.551  1.00  0.00     1.175 A  
HETATM   41  C   UNL     1     -11.781  16.398  66.630  1.00  0.00     1.110 A  
HETATM   42  C   UNL     1     -11.206  16.584  67.896  1.00  0.00    -0.155 A  
HETATM   43  C   UNL     1     -10.349  17.659  68.124  1.00  0.00    -0.386 A  
HETATM   44  C   UNL     1     -10.273  18.620  67.116  1.00  0.00    -0.415 A  
HETATM   45  C   UNL     1      -9.378  17.762  69.279  1.00  0.00     0.166 C  
HETATM   46  C   UNL     1      -8.397  16.548  69.232  1.00  0.00    -0.062 C  
ENDBRANCH  27  29
ENDBRANCH  13  25
TORSDOF 4
ENDMDL
MODEL      137
REMARK 921   NORMALIZED FREE ENERGY PREDICTED BY IDOCK:   -1.72 KCAL/MOL
REMARK 922        TOTAL FREE ENERGY PREDICTED BY IDOCK:   -3.36 KCAL/MOL
REMARK 923 INTER-LIGAND FREE ENERGY PREDICTED BY IDOCK:   -2.91 KCAL/MOL
REMARK 924 INTRA-LIGAND FREE ENERGY PREDICTED BY IDOCK:   -0.45 KCAL/MOL
REMARK 927      BINDING AFFINITY PREDICTED BY RF-SCORE:    0.00 PKD
ROOT
HETATM    1  C   UNL     1     -11.850  13.142  66.555  1.00  0.00    -0.400 C  
HETATM    2  C   UNL     1     -13.093  13.839  66.002  1.00  0.00     0.124 C  
HETATM    3  C   UNL     1     -12.890  15.314  66.454  1.00  0.00     1.735 C  
HETATM    4  C   UNL     1     -11.725  15.298  67.449  1.00  0.00    -0.109 C  
HETATM    5  N   UNL     1     -11.474  13.896  67.716  1.00  0.00    -0.304 N  
HETATM    6  C   UNL     1     -10.294  13.566  68.354  1.00  0.00    -0.248 C  
HETATM    7  O   UNL     1      -9.915  14.135  69.375  1.00  0.00     0.042 OA 
HETATM    8  C   UNL     1      -9.556  12.321  67.757  1.00  0.00    -0.200 C  
HETATM    9  O   UNL     1     -11.300  10.369  67.192  1.00  0.00    -0.274 OA 
HETATM   10  N   UNL     1     -10.028  11.857  66.359  1.00  0.00    -0.209 N  
HETATM   11  C   UNL     1      -9.744  10.591  65.921  1.00  0.00    -0.217 C  
HETATM   12  H   UNL     1     -11.784  10.330  65.105  1.00  0.00     0.000 HD 
HETATM   13  C   UNL     1      -9.830   9.728  67.203  1.00  0.00    -0.188 C  
HETATM   14  O   UNL     1      -9.678  10.316  64.724  1.00  0.00    -0.287 OA 
HETATM   15  O   UNL     1     -12.046  11.239  65.189  1.00  0.00     0.283 OA 
HETATM   16  C   UNL     1      -8.642   8.992  66.383  1.00  0.00    -0.136 C  
HETATM   17  C   UNL     1     -11.408  11.612  66.413  1.00  0.00    -0.245 C  
ENDROOT
BRANCH   8  18
HETATM   18  C   UNL     1      -8.028  12.446  67.858  1.00  0.00    -0.155 C  
BRANCH  18  19
HETATM   19  C   UNL     1      -7.653  13.884  67.662  1.00  0.00    -0.188 A  
HETATM   20  C   UNL     1      -6.893  15.917  68.716  1.00  0.00    -0.128 A  
HETATM   21  C   UNL     1      -7.550  16.660  67.739  1.00  0.00    -0.172 A  
HETATM   22  C   UNL     1      -8.248  14.629  66.640  1.00  0.00     0.152 A  
HETATM   23  C   UNL     1      -8.201  16.016  66.685  1.00  0.00    -0.324 A  
HETATM   24  C   UNL     1      -6.916  14.531  68.661  1.00  0.00    -0.103 A  
ENDBRANCH  18  19
ENDBRANCH   8  18
BRANCH  13  25
HETATM   25  N   UNL     1      -9.760   8.815  68.360  1.00  0.00    -0.158 N  
HETATM   26  O   UNL     1     -10.662   9.858  70.193  1.00  0.00    -0.263 OA 
HETATM   27  C   UNL     1     -10.360   8.823  69.614  1.00  0.00    -0.213 C  
HETATM   28  H   UNL     1      -9.147   8.015  68.208  1.00  0.00     0.000 HD 
BRANCH  27  29
HETATM   29  C   UNL     1     -10.547   7.366  70.241  1.00  0.00    -0.241 C  
HETATM   30  C   UNL     1     -10.058   6.157  69.393  1.00  0.00    -0.184 C  
HETATM   31  N   UNL     1      -9.506   5.002  70.155  1.00  0.00    -0.155 NA 
HETATM   32  C   UNL     1     -10.469   4.205  70.911  1.00  0.00     0.444 C  
HETATM   33  C   UNL     1      -8.309   5.376  70.947  1.00  0.00    -0.118 C  
HETATM   34  C   UNL     1      -7.044   5.160  70.038  1.00  0.00    -0.058 C  
HETATM   35  C   UNL     1      -6.717   6.391  69.284  1.00  0.00    -0.049 A  
HETATM   36  C   UNL     1      -6.221   6.675  68.026  1.00  0.00    -0.036 A  
HETATM   37  N   UNL     1      -6.162   8.034  67.895  1.00  0.00    -0.050 NA 
HETATM   38  H   UNL     1      -5.906   8.526  67.039  1.00  0.00     0.000 HD 
HETATM   39  C   UNL     1      -6.498   8.642  69.083  1.00  0.00    -0.043 A  
HETATM   40  C   UNL     1      -6.533   9.970  69.498  1.00  0.00    -0.051 A  
HETATM   41  C   UNL     1      -6.964  10.196  70.818  1.00  0.00     0.150 A  
HETATM   42  C   UNL     1      -7.491   9.169  71.615  1.00  0.00     0.109 A  
HETATM   43  C   UNL     1      -7.579   7.871  71.116  1.00  0.00    -0.080 A  
HETATM   44  C   UNL     1      -6.938   7.626  69.902  1.00  0.00    -0.054 A  
HETATM   45  C   UNL     1      -8.456   6.781  71.690  1.00  0.00    -0.115 C  
HETATM   46  C   UNL     1      -9.944   7.256  71.668  1.00  0.00    -0.192 C  
ENDBRANCH  27  29
ENDBRANCH  13  25
TORSDOF 4
ENDMDL
MODEL      138
REMARK 921   NORMALIZED FREE ENERGY PREDICTED BY IDOCK:   -1.63 KCAL/MOL
REMARK 922        TOTAL FREE ENERGY PREDICTED BY IDOCK:   -3.24 KCAL/MOL
REMARK 923 INTER-LIGAND FREE ENERGY PREDICTED BY IDOCK:   -1.04 KCAL/MOL
REMARK 924 INTRA-LIGAND FREE ENERGY PREDICTED BY IDOCK:   -2.20 KCAL/MOL
REMARK 927      BINDING AFFINITY PREDICTED BY RF-SCORE:    0.00 PKD
ROOT
HETATM    1  C   UNL     1     -10.279  10.254  69.873  1.00  0.00    -0.202 C  
HETATM    2  C   UNL     1     -10.531   9.439  71.142  1.00  0.00    -0.392 C  
HETATM    3  C   UNL     1     -12.082   9.306  71.162  1.00  0.00    -0.389 C  
HETATM    4  C   UNL     1     -12.606  10.270  70.091  1.00  0.00    -0.072 C  
HETATM    5  N   UNL     1     -11.455  11.056  69.693  1.00  0.00    -0.275 N  
HETATM    6  C   UNL     1     -11.561  11.808  68.540  1.00  0.00    -0.321 C  
HETATM    7  O   UNL     1     -12.516  12.549  68.322  1.00  0.00     0.026 OA 
HETATM    8  C   UNL     1     -10.306  11.751  67.607  1.00  0.00    -0.200 C  
HETATM    9  O   UNL     1      -8.051  11.911  69.043  1.00  0.00     0.005 OA 
HETATM   10  N   UNL     1      -9.293  10.618  67.897  1.00  0.00    -0.147 N  
HETATM   11  C   UNL     1      -8.011  10.701  67.423  1.00  0.00    -0.111 C  
HETATM   12  H   UNL     1      -7.172   9.980  69.339  1.00  0.00     0.000 HD 
HETATM   13  C   UNL     1      -7.682  12.211  67.510  1.00  0.00    -0.159 C  
HETATM   14  O   UNL     1      -7.326   9.700  67.223  1.00  0.00    -0.087 OA 
HETATM   15  O   UNL     1      -7.999   9.705  69.717  1.00  0.00    -0.115 OA 
HETATM   16  C   UNL     1      -6.876  11.768  66.176  1.00  0.00     0.545 C  
HETATM   17  C   UNL     1      -8.887  10.716  69.237  1.00  0.00    -0.077 C  
ENDROOT
BRANCH   8  18
HETATM   18  C   UNL     1     -10.681  11.846  66.120  1.00  0.00    -0.318 C  
BRANCH  18  19
HETATM   19  C   UNL     1     -11.112  13.251  65.826  1.00  0.00    -0.296 A  
HETATM   20  C   UNL     1     -12.192  14.726  64.250  1.00  0.00    -0.402 A  
HETATM   21  C   UNL     1     -11.419  15.783  64.722  1.00  0.00    -0.256 A  
HETATM   22  C   UNL     1     -10.392  14.328  66.349  1.00  0.00    -0.287 A  
HETATM   23  C   UNL     1     -10.542  15.591  65.792  1.00  0.00    -0.370 A  
HETATM   24  C   UNL     1     -12.063  13.468  64.821  1.00  0.00    -0.442 A  
ENDBRANCH  18  19
ENDBRANCH   8  18
BRANCH  13  25
HETATM   25  N   UNL     1      -7.282  13.629  67.427  1.00  0.00    -0.302 N  
HETATM   26  O   UNL     1      -5.190  13.872  68.334  1.00  0.00    -0.087 OA 
HETATM   27  C   UNL     1      -6.067  14.284  67.587  1.00  0.00    -0.053 C  
HETATM   28  H   UNL     1      -8.056  14.256  67.207  1.00  0.00     0.000 HD 
BRANCH  27  29
HETATM   29  C   UNL     1      -5.963  15.647  66.761  1.00  0.00     0.930 C  
HETATM   30  C   UNL     1      -7.289  16.256  66.222  1.00  0.00     0.262 C  
HETATM   31  N   UNL     1      -7.357  17.744  66.177  1.00  0.00    -0.343 NA 
HETATM   32  C   UNL     1      -6.532  18.400  65.166  1.00  0.00    -0.045 C  
HETATM   33  C   UNL     1      -7.219  18.350  67.524  1.00  0.00    -0.209 C  
HETATM   34  C   UNL     1      -8.660  18.474  68.144  1.00  0.00    -0.324 C  
HETATM   35  C   UNL     1      -9.011  17.261  68.915  1.00  0.00    -0.173 A  
HETATM   36  C   UNL     1     -10.165  16.534  69.139  1.00  0.00    -0.298 A  
HETATM   37  N   UNL     1      -9.844  15.472  69.937  1.00  0.00    -0.370 NA 
HETATM   38  H   UNL     1     -10.487  14.725  70.199  1.00  0.00     0.000 HD 
HETATM   39  C   UNL     1      -8.529  15.555  70.335  1.00  0.00     1.254 A  
HETATM   40  C   UNL     1      -7.738  14.786  71.183  1.00  0.00     2.447 A  
HETATM   41  C   UNL     1      -6.398  15.191  71.320  1.00  0.00     0.633 A  
HETATM   42  C   UNL     1      -5.842  16.203  70.523  1.00  0.00     0.014 A  
HETATM   43  C   UNL     1      -6.625  16.858  69.576  1.00  0.00    -0.203 A  
HETATM   44  C   UNL     1      -7.996  16.604  69.618  1.00  0.00     0.490 A  
HETATM   45  C   UNL     1      -6.087  17.663  68.414  1.00  0.00    -0.175 C  
HETATM   46  C   UNL     1      -5.182  16.746  67.532  1.00  0.00    -0.154 C  
ENDBRANCH  27  29
ENDBRANCH  13  25
TORSDOF 4
ENDMDL
MODEL      139
REMARK 921   NORMALIZED FREE ENERGY PREDICTED BY IDOCK:   -1.46 KCAL/MOL
REMARK 922        TOTAL FREE ENERGY PREDICTED BY IDOCK:   -3.03 KCAL/MOL
REMARK 923 INTER-LIGAND FREE ENERGY PREDICTED BY IDOCK:   -3.47 KCAL/MOL
REMARK 924 INTRA-LIGAND FREE ENERGY PREDICTED BY IDOCK:    0.43 KCAL/MOL
REMARK 927      BINDING AFFINITY PREDICTED BY RF-SCORE:    0.00 PKD
ROOT
HETATM    1  C   UNL     1     -10.082   3.868  72.541  1.00  0.00    -0.166 C  
HETATM    2  C   UNL     1     -11.062   2.707  72.719  1.00  0.00     0.088 C  
HETATM    3  C   UNL     1     -10.121   1.468  72.761  1.00  0.00    -0.180 C  
HETATM    4  C   UNL     1      -8.738   1.967  72.329  1.00  0.00    -0.065 C  
HETATM    5  N   UNL     1      -8.957   3.315  71.843  1.00  0.00    -0.093 N  
HETATM    6  C   UNL     1      -7.848   4.116  71.656  1.00  0.00    -0.071 C  
HETATM    7  O   UNL     1      -6.856   3.736  71.039  1.00  0.00    -0.031 OA 
HETATM    8  C   UNL     1      -8.012   5.587  72.166  1.00  0.00    -0.107 C  
HETATM    9  O   UNL     1     -10.421   6.553  71.505  1.00  0.00    -0.210 OA 
HETATM   10  N   UNL     1      -9.212   5.851  73.108  1.00  0.00    -0.133 N  
HETATM   11  C   UNL     1      -9.675   7.126  73.294  1.00  0.00    -0.210 C  
HETATM   12  H   UNL     1     -11.781   6.466  73.157  1.00  0.00     0.000 HD 
HETATM   13  C   UNL     1      -9.487   7.793  71.910  1.00  0.00    -0.153 C  
HETATM   14  O   UNL     1     -10.277   7.456  74.314  1.00  0.00    -0.067 OA 
HETATM   15  O   UNL     1     -11.601   5.534  73.206  1.00  0.00    -0.180 OA 
HETATM   16  C   UNL     1      -9.199   9.027  72.919  1.00  0.00     0.929 C  
HETATM   17  C   UNL     1     -10.385   5.435  72.461  1.00  0.00    -0.206 C  
ENDROOT
BRANCH   8  18
HETATM   18  C   UNL     1      -6.696   6.169  72.703  1.00  0.00    -0.069 C  
BRANCH  18  19
HETATM   19  C   UNL     1      -6.107   7.064  71.655  1.00  0.00    -0.037 A  
HETATM   20  C   UNL     1      -5.581   9.334  71.026  1.00  0.00    -0.047 A  
HETATM   21  C   UNL     1      -5.716   8.985  69.685  1.00  0.00    -0.033 A  
HETATM   22  C   UNL     1      -6.168   6.698  70.308  1.00  0.00    -0.032 A  
HETATM   23  C   UNL     1      -5.979   7.662  69.325  1.00  0.00    -0.034 A  
HETATM   24  C   UNL     1      -5.745   8.370  72.010  1.00  0.00    -0.045 A  
ENDBRANCH  18  19
ENDBRANCH   8  18
BRANCH  13  25
HETATM   25  N   UNL     1      -9.253   8.582  70.686  1.00  0.00    -0.155 N  
HETATM   26  O   UNL     1     -10.349   7.588  68.933  1.00  0.00    -0.204 OA 
HETATM   27  C   UNL     1      -9.852   8.589  69.431  1.00  0.00    -0.185 C  
HETATM   28  H   UNL     1      -8.498   9.261  70.779  1.00  0.00     0.000 HD 
BRANCH  27  29
HETATM   29  C   UNL     1      -9.764  10.000  68.689  1.00  0.00    -0.165 C  
HETATM   30  C   UNL     1      -8.358  10.467  68.212  1.00  0.00    -0.122 C  
HETATM   31  N   UNL     1      -8.324  11.260  66.951  1.00  0.00    -0.149 NA 
HETATM   32  C   UNL     1      -8.855  12.618  67.025  1.00  0.00    -0.212 C  
HETATM   33  C   UNL     1      -8.846  10.493  65.794  1.00  0.00    -0.175 C  
HETATM   34  C   UNL     1      -7.638   9.725  65.142  1.00  0.00    -0.125 C  
HETATM   35  C   UNL     1      -7.478   8.381  65.741  1.00  0.00    -0.077 A  
HETATM   36  C   UNL     1      -6.411   7.563  66.060  1.00  0.00    -0.042 A  
HETATM   37  N   UNL     1      -6.909   6.425  66.629  1.00  0.00    -0.064 NA 
HETATM   38  H   UNL     1      -6.342   5.678  67.031  1.00  0.00     0.000 HD 
HETATM   39  C   UNL     1      -8.284   6.432  66.582  1.00  0.00    -0.111 A  
HETATM   40  C   UNL     1      -9.256   5.508  66.955  1.00  0.00    -0.119 A  
HETATM   41  C   UNL     1     -10.593   5.903  66.765  1.00  0.00    -0.368 A  
HETATM   42  C   UNL     1     -10.936   7.209  66.386  1.00  0.00     0.805 A  
HETATM   43  C   UNL     1      -9.941   8.157  66.159  1.00  0.00    -0.017 A  
HETATM   44  C   UNL     1      -8.628   7.686  66.127  1.00  0.00    -0.160 A  
HETATM   45  C   UNL     1     -10.160   9.653  66.133  1.00  0.00    -0.328 C  
HETATM   46  C   UNL     1     -10.759  10.107  67.502  1.00  0.00    -0.347 C  
ENDBRANCH  27  29
ENDBRANCH  13  25
TORSDOF 4
ENDMDL
MODEL      140
REMARK 921   NORMALIZED FREE ENERGY PREDICTED BY IDOCK:   -1.21 KCAL/MOL
REMARK 922        TOTAL FREE ENERGY PREDICTED BY IDOCK:   -2.73 KCAL/MOL
REMARK 923 INTER-LIGAND FREE ENERGY PREDICTED BY IDOCK:   -0.83 KCAL/MOL
REMARK 924 INTRA-LIGAND FREE ENERGY PREDICTED BY IDOCK:   -1.89 KCAL/MOL
REMARK 927      BINDING AFFINITY PREDICTED BY RF-SCORE:    0.00 PKD
ROOT
HETATM    1  C   UNL     1     -11.411  11.886  64.705  1.00  0.00    -0.283 C  
HETATM    2  C   UNL     1     -12.312  12.434  63.598  1.00  0.00    -0.647 C  
HETATM    3  C   UNL     1     -11.999  11.489  62.402  1.00  0.00     1.924 C  
HETATM    4  C   UNL     1     -10.768  10.673  62.812  1.00  0.00     1.015 C  
HETATM    5  N   UNL     1     -10.290  11.298  64.030  1.00  0.00    -0.339 N  
HETATM    6  C   UNL     1      -9.365  10.604  64.785  1.00  0.00    -0.233 C  
HETATM    7  O   UNL     1      -8.357  10.101  64.293  1.00  0.00    -0.158 OA 
HETATM    8  C   UNL     1      -9.627  10.634  66.327  1.00  0.00    -0.185 C  
HETATM    9  O   UNL     1     -10.346  13.091  67.116  1.00  0.00    -0.240 OA 
HETATM   10  N   UNL     1     -11.033  11.107  66.769  1.00  0.00    -0.271 N  
HETATM   11  C   UNL     1     -11.244  11.539  68.051  1.00  0.00    -0.269 C  
HETATM   12  H   UNL     1     -12.469  13.245  67.360  1.00  0.00     0.000 HD 
HETATM   13  C   UNL     1      -9.923  12.258  68.421  1.00  0.00    -0.209 C  
HETATM   14  O   UNL     1     -12.353  11.491  68.579  1.00  0.00    -0.459 OA 
HETATM   15  O   UNL     1     -12.554  12.954  66.459  1.00  0.00    -0.294 OA 
HETATM   16  C   UNL     1     -10.358  11.606  69.839  1.00  0.00     0.895 C  
HETATM   17  C   UNL     1     -11.269  12.376  66.220  1.00  0.00    -0.317 C  
ENDROOT
BRANCH   8  18
HETATM   18  C   UNL     1      -9.193   9.332  67.018  1.00  0.00    -0.169 C  
BRANCH  18  19
HETATM   19  C   UNL     1      -7.927   9.593  67.776  1.00  0.00    -0.105 A  
HETATM   20  C   UNL     1      -6.897   9.773  69.951  1.00  0.00    -0.085 A  
HETATM   21  C   UNL     1      -5.967  10.668  69.428  1.00  0.00    -0.041 A  
HETATM   22  C   UNL     1      -6.948  10.431  67.236  1.00  0.00    -0.086 A  
HETATM   23  C   UNL     1      -5.974  10.973  68.065  1.00  0.00    -0.049 A  
HETATM   24  C   UNL     1      -7.857   9.211  69.122  1.00  0.00    -0.092 A  
ENDBRANCH  18  19
ENDBRANCH   8  18
BRANCH  13  25
HETATM   25  N   UNL     1      -8.684  12.863  68.943  1.00  0.00    -0.349 N  
HETATM   26  O   UNL     1      -7.626  13.985  67.245  1.00  0.00    -0.171 OA 
HETATM   27  C   UNL     1      -7.813  13.826  68.443  1.00  0.00    -0.143 C  
HETATM   28  H   UNL     1      -8.410  12.503  69.856  1.00  0.00     0.000 HD 
BRANCH  27  29
HETATM   29  C   UNL     1      -7.042  14.640  69.580  1.00  0.00    -0.125 C  
HETATM   30  C   UNL     1      -5.857  15.543  69.130  1.00  0.00    -0.106 C  
HETATM   31  N   UNL     1      -5.659  16.799  69.906  1.00  0.00    -0.194 NA 
HETATM   32  C   UNL     1      -5.152  16.648  71.267  1.00  0.00    -0.048 C  
HETATM   33  C   UNL     1      -6.834  17.701  69.820  1.00  0.00     0.219 C  
HETATM   34  C   UNL     1      -6.628  18.639  68.574  1.00  0.00    -0.249 C  
HETATM   35  C   UNL     1      -7.215  18.040  67.355  1.00  0.00    -0.205 A  
HETATM   36  C   UNL     1      -6.886  18.009  66.013  1.00  0.00    -0.297 A  
HETATM   37  N   UNL     1      -7.822  17.252  65.368  1.00  0.00     0.427 NA 
HETATM   38  H   UNL     1      -7.786  16.996  64.381  1.00  0.00     0.000 HD 
HETATM   39  C   UNL     1      -8.822  16.885  66.240  1.00  0.00    -0.279 A  
HETATM   40  C   UNL     1     -10.015  16.186  66.085  1.00  0.00    -0.357 A  
HETATM   41  C   UNL     1     -10.776  15.988  67.252  1.00  0.00    -0.295 A  
HETATM   42  C   UNL     1     -10.287  16.322  68.523  1.00  0.00    -0.261 A  
HETATM   43  C   UNL     1      -9.022  16.890  68.661  1.00  0.00    -0.266 A  
HETATM   44  C   UNL     1      -8.387  17.287  67.484  1.00  0.00    -0.204 A  
HETATM   45  C   UNL     1      -8.229  16.936  69.947  1.00  0.00     1.354 C  
HETATM   46  C   UNL     1      -8.006  15.479  70.463  1.00  0.00     1.417 C  
ENDBRANCH  27  29
ENDBRANCH  13  25
TORSDOF 4
ENDMDL
MODEL      141
REMARK 921   NORMALIZED FREE ENERGY PREDICTED BY IDOCK:   -1.03 KCAL/MOL
REMARK 922        TOTAL FREE ENERGY PREDICTED BY IDOCK:   -2.51 KCAL/MOL
REMARK 923 INTER-LIGAND FREE ENERGY PREDICTED BY IDOCK:   -3.24 KCAL/MOL
REMARK 924 INTRA-LIGAND FREE ENERGY PREDICTED BY IDOCK:    0.73 KCAL/MOL
REMARK 927      BINDING AFFINITY PREDICTED BY RF-SCORE:    0.00 PKD
ROOT
HETATM    1  C   UNL     1      -5.895   5.024  71.165  1.00  0.00    -0.017 C  
HETATM    2  C   UNL     1      -5.133   3.788  71.647  1.00  0.00     0.000 C  
HETATM    3  C   UNL     1      -5.746   3.536  73.055  1.00  0.00    -0.004 C  
HETATM    4  C   UNL     1      -6.583   4.776  73.385  1.00  0.00    -0.065 C  
HETATM    5  N   UNL     1      -6.253   5.741  72.355  1.00  0.00    -0.043 N  
HETATM    6  C   UNL     1      -7.069   6.847  72.229  1.00  0.00    -0.073 C  
HETATM    7  O   UNL     1      -7.395   7.539  73.190  1.00  0.00    -0.072 OA 
HETATM    8  C   UNL     1      -7.426   7.230  70.753  1.00  0.00    -0.079 C  
HETATM    9  O   UNL     1      -5.267   7.039  69.179  1.00  0.00    -0.013 OA 
HETATM   10  N   UNL     1      -7.135   6.152  69.682  1.00  0.00    -0.070 N  
HETATM   11  C   UNL     1      -7.036   6.501  68.361  1.00  0.00    -0.083 C  
HETATM   12  H   UNL     1      -5.267   5.207  68.069  1.00  0.00     0.000 HD 
HETATM   13  C   UNL     1      -6.373   7.899  68.398  1.00  0.00    -0.049 C  
HETATM   14  O   UNL     1      -7.258   5.697  67.458  1.00  0.00    -0.073 OA 
HETATM   15  O   UNL     1      -5.334   4.750  68.899  1.00  0.00    -0.007 OA 
HETATM   16  C   UNL     1      -7.367   8.032  67.126  1.00  0.00    -0.091 C  
HETATM   17  C   UNL     1      -5.781   5.792  69.768  1.00  0.00    -0.019 C  
ENDROOT
BRANCH   8  18
HETATM   18  C   UNL     1      -8.837   7.825  70.630  1.00  0.00    -0.144 C  
BRANCH  18  19
HETATM   19  C   UNL     1      -9.789   6.956  71.394  1.00  0.00    -0.184 A  
HETATM   20  C   UNL     1     -10.801   6.496  73.536  1.00  0.00    -0.211 A  
HETATM   21  C   UNL     1     -10.931   5.157  73.179  1.00  0.00    -0.368 A  
HETATM   22  C   UNL     1      -9.989   5.628  71.008  1.00  0.00    -0.248 A  
HETATM   23  C   UNL     1     -10.554   4.730  71.904  1.00  0.00    -0.150 A  
HETATM   24  C   UNL     1     -10.260   7.402  72.636  1.00  0.00    -0.274 A  
ENDBRANCH  18  19
ENDBRANCH   8  18
BRANCH  13  25
HETATM   25  N   UNL     1      -5.859   9.278  68.294  1.00  0.00    -0.038 N  
HETATM   26  O   UNL     1      -6.435  10.139  66.247  1.00  0.00    -0.075 OA 
HETATM   27  C   UNL     1      -6.117  10.324  67.414  1.00  0.00    -0.054 C  
HETATM   28  H   UNL     1      -5.177   9.512  69.014  1.00  0.00     0.000 HD 
BRANCH  27  29
HETATM   29  C   UNL     1      -5.888  11.768  68.055  1.00  0.00    -0.046 C  
HETATM   30  C   UNL     1      -5.909  12.988  67.089  1.00  0.00     0.307 C  
HETATM   31  N   UNL     1      -6.464  14.254  67.644  1.00  0.00    -0.258 NA 
HETATM   32  C   UNL     1      -5.647  14.938  68.643  1.00  0.00    -0.092 C  
HETATM   33  C   UNL     1      -7.883  14.111  68.051  1.00  0.00    -0.146 C  
HETATM   34  C   UNL     1      -8.778  14.464  66.806  1.00  0.00    -0.187 C  
HETATM   35  C   UNL     1      -9.066  13.257  66.001  1.00  0.00     0.202 A  
HETATM   36  C   UNL     1      -9.214  12.980  64.655  1.00  0.00     1.173 A  
HETATM   37  N   UNL     1      -9.451  11.641  64.524  1.00  0.00    -0.421 NA 
HETATM   38  H   UNL     1      -9.524  11.145  63.636  1.00  0.00     0.000 HD 
HETATM   39  C   UNL     1      -9.577  11.056  65.764  1.00  0.00    -0.222 A  
HETATM   40  C   UNL     1      -9.879   9.764  66.184  1.00  0.00    -0.329 A  
HETATM   41  C   UNL     1      -9.891   9.550  67.574  1.00  0.00    -0.213 A  
HETATM   42  C   UNL     1      -9.460  10.528  68.481  1.00  0.00    -0.164 A  
HETATM   43  C   UNL     1      -9.023  11.768  68.019  1.00  0.00    -0.176 A  
HETATM   44  C   UNL     1      -9.236  12.039  66.668  1.00  0.00    -0.211 A  
HETATM   45  C   UNL     1      -8.187  12.744  68.816  1.00  0.00     0.117 C  
HETATM   46  C   UNL     1      -6.854  12.048  69.239  1.00  0.00    -0.066 C  
ENDBRANCH  27  29
ENDBRANCH  13  25
TORSDOF 4
ENDMDL
MODEL      142
REMARK 921   NORMALIZED FREE ENERGY PREDICTED BY IDOCK:   -0.90 KCAL/MOL
REMARK 922        TOTAL FREE ENERGY PREDICTED BY IDOCK:   -2.35 KCAL/MOL
REMARK 923 INTER-LIGAND FREE ENERGY PREDICTED BY IDOCK:   -4.92 KCAL/MOL
REMARK 924 INTRA-LIGAND FREE ENERGY PREDICTED BY IDOCK:    2.57 KCAL/MOL
REMARK 927      BINDING AFFINITY PREDICTED BY RF-SCORE:    0.00 PKD
ROOT
HETATM    1  C   UNL     1      -8.011  14.866  68.749  1.00  0.00    -0.156 C  
HETATM    2  C   UNL     1      -7.656  16.349  68.867  1.00  0.00    -0.220 C  
HETATM    3  C   UNL     1      -9.052  17.034  68.903  1.00  0.00    -0.208 C  
HETATM    4  C   UNL     1     -10.069  15.951  68.525  1.00  0.00    -0.217 C  
HETATM    5  N   UNL     1      -9.274  14.828  68.070  1.00  0.00    -0.190 N  
HETATM    6  C   UNL     1      -9.907  13.608  67.938  1.00  0.00    -0.237 C  
HETATM    7  O   UNL     1     -10.973  13.479  67.340  1.00  0.00    -0.265 OA 
HETATM    8  C   UNL     1      -9.091  12.388  68.482  1.00  0.00    -0.067 C  
HETATM    9  O   UNL     1      -6.515  12.583  67.776  1.00  0.00    -0.089 OA 
HETATM   10  N   UNL     1      -7.889  12.726  69.395  1.00  0.00     0.571 N  
HETATM   11  C   UNL     1      -6.898  11.803  69.602  1.00  0.00     0.026 C  
HETATM   12  H   UNL     1      -5.317  13.333  69.385  1.00  0.00     0.000 HD 
HETATM   13  C   UNL     1      -6.786  11.072  68.242  1.00  0.00    -0.059 C  
HETATM   14  O   UNL     1      -6.197  11.817  70.612  1.00  0.00    -0.292 OA 
HETATM   15  O   UNL     1      -5.896  14.086  69.414  1.00  0.00    -0.085 OA 
HETATM   16  C   UNL     1      -6.474   9.878  69.293  1.00  0.00    -0.048 C  
HETATM   17  C   UNL     1      -7.036  13.600  68.703  1.00  0.00    -0.105 C  
ENDROOT
BRANCH   8  18
HETATM   18  C   UNL     1      -9.998  11.297  69.073  1.00  0.00    -0.124 C  
BRANCH  18  19
HETATM   19  C   UNL     1     -11.130  11.960  69.797  1.00  0.00    -0.025 A  
HETATM   20  C   UNL     1     -11.898  13.957  70.914  1.00  0.00    -0.204 A  
HETATM   21  C   UNL     1     -12.741  13.182  71.704  1.00  0.00    -0.320 A  
HETATM   22  C   UNL     1     -12.032  11.192  70.538  1.00  0.00    -0.475 A  
HETATM   23  C   UNL     1     -12.831  11.804  71.496  1.00  0.00    -0.450 A  
HETATM   24  C   UNL     1     -11.116  13.353  69.940  1.00  0.00     0.161 A  
ENDBRANCH  18  19
ENDBRANCH   8  18
BRANCH  13  25
HETATM   25  N   UNL     1      -6.657  10.216  67.047  1.00  0.00    -0.072 N  
HETATM   26  O   UNL     1      -5.824  11.469  65.316  1.00  0.00     0.292 OA 
HETATM   27  C   UNL     1      -5.999  10.374  65.833  1.00  0.00    -0.105 C  
HETATM   28  H   UNL     1      -7.151   9.328  67.129  1.00  0.00     0.000 HD 
BRANCH  27  29
HETATM   29  C   UNL     1      -5.564   8.993  65.159  1.00  0.00    -0.050 C  
HETATM   30  C   UNL     1      -5.944   7.683  65.908  1.00  0.00    -0.038 C  
HETATM   31  N   UNL     1      -6.270   6.509  65.052  1.00  0.00    -0.037 NA 
HETATM   32  C   UNL     1      -5.151   5.892  64.344  1.00  0.00    -0.013 C  
HETATM   33  C   UNL     1      -7.443   6.761  64.179  1.00  0.00    -0.094 C  
HETATM   34  C   UNL     1      -8.732   6.327  64.970  1.00  0.00     0.090 C  
HETATM   35  C   UNL     1      -9.283   7.458  65.748  1.00  0.00     0.063 A  
HETATM   36  C   UNL     1      -9.909   7.602  66.972  1.00  0.00    -0.215 A  
HETATM   37  N   UNL     1     -10.166   8.931  67.159  1.00  0.00    -0.245 NA 
HETATM   38  H   UNL     1     -10.552   9.336  68.011  1.00  0.00     0.000 HD 
HETATM   39  C   UNL     1      -9.828   9.645  66.031  1.00  0.00    -0.274 A  
HETATM   40  C   UNL     1      -9.946  10.986  65.680  1.00  0.00    -0.299 A  
HETATM   41  C   UNL     1      -9.450  11.342  64.412  1.00  0.00    -0.157 A  
HETATM   42  C   UNL     1      -8.726  10.442  63.617  1.00  0.00    -0.202 A  
HETATM   43  C   UNL     1      -8.498   9.141  64.062  1.00  0.00    -0.195 A  
HETATM   44  C   UNL     1      -9.190   8.745  65.207  1.00  0.00    -0.099 A  
HETATM   45  C   UNL     1      -7.436   8.213  63.516  1.00  0.00    -0.121 C  
HETATM   46  C   UNL     1      -6.035   8.882  63.683  1.00  0.00    -0.076 C  
ENDBRANCH  27  29
ENDBRANCH  13  25
TORSDOF 4
ENDMDL
MODEL      143
REMARK 921   NORMALIZED FREE ENERGY PREDICTED BY IDOCK:   -0.45 KCAL/MOL
REMARK 922        TOTAL FREE ENERGY PREDICTED BY IDOCK:   -1.79 KCAL/MOL
REMARK 923 INTER-LIGAND FREE ENERGY PREDICTED BY IDOCK:   -4.14 KCAL/MOL
REMARK 924 INTRA-LIGAND FREE ENERGY PREDICTED BY IDOCK:    2.35 KCAL/MOL
REMARK 927      BINDING AFFINITY PREDICTED BY RF-SCORE:    0.00 PKD
ROOT
HETATM    1  C   UNL     1      -9.264  10.392  65.007  1.00  0.00    -0.214 C  
HETATM    2  C   UNL     1      -8.345   9.340  64.384  1.00  0.00    -0.175 C  
HETATM    3  C   UNL     1      -8.383   8.189  65.431  1.00  0.00    -0.163 C  
HETATM    4  C   UNL     1      -9.070   8.765  66.674  1.00  0.00    -0.158 C  
HETATM    5  N   UNL     1      -9.172  10.189  66.424  1.00  0.00    -0.155 N  
HETATM    6  C   UNL     1     -10.006  10.925  67.243  1.00  0.00    -0.186 C  
HETATM    7  O   UNL     1      -9.969  10.840  68.468  1.00  0.00    -0.164 OA 
HETATM    8  C   UNL     1     -10.896  11.974  66.495  1.00  0.00    -0.277 C  
HETATM    9  O   UNL     1      -9.474  13.257  64.624  1.00  0.00     0.284 OA 
HETATM   10  N   UNL     1     -10.996  11.809  64.960  1.00  0.00    -0.306 N  
HETATM   11  C   UNL     1     -11.405  12.858  64.180  1.00  0.00    -0.393 C  
HETATM   12  H   UNL     1      -9.838  12.451  62.673  1.00  0.00     0.000 HD 
HETATM   13  C   UNL     1     -10.813  14.099  64.889  1.00  0.00    -0.411 C  
HETATM   14  O   UNL     1     -11.926  12.684  63.079  1.00  0.00    -0.375 OA 
HETATM   15  O   UNL     1      -9.580  11.604  63.018  1.00  0.00    -0.392 OA 
HETATM   16  C   UNL     1     -12.213  14.677  64.313  1.00  0.00    -0.432 C  
HETATM   17  C   UNL     1      -9.699  11.817  64.426  1.00  0.00    -0.143 C  
ENDROOT
BRANCH   8  18
HETATM   18  C   UNL     1     -12.267  12.157  67.164  1.00  0.00     0.336 C  
BRANCH  18  19
HETATM   19  C   UNL     1     -12.140  13.200  68.233  1.00  0.00    -0.217 A  
HETATM   20  C   UNL     1     -12.226  13.661  70.601  1.00  0.00    -0.434 A  
HETATM   21  C   UNL     1     -12.624  14.966  70.324  1.00  0.00    -0.361 A  
HETATM   22  C   UNL     1     -12.465  14.530  67.956  1.00  0.00     0.236 A  
HETATM   23  C   UNL     1     -12.714  15.409  69.002  1.00  0.00     0.494 A  
HETATM   24  C   UNL     1     -11.953  12.787  69.559  1.00  0.00    -0.338 A  
ENDBRANCH  18  19
ENDBRANCH   8  18
BRANCH  13  25
HETATM   25  N   UNL     1     -10.412  15.368  65.526  1.00  0.00    -0.350 N  
HETATM   26  O   UNL     1      -8.192  15.255  66.089  1.00  0.00     0.126 OA 
HETATM   27  C   UNL     1      -9.177  15.931  65.827  1.00  0.00    -0.206 C  
HETATM   28  H   UNL     1     -11.202  15.951  65.800  1.00  0.00     0.000 HD 
BRANCH  27  29
HETATM   29  C   UNL     1      -9.196  17.528  65.865  1.00  0.00     0.056 C  
HETATM   30  C   UNL     1     -10.274  18.207  66.758  1.00  0.00    -0.372 C  
HETATM   31  N   UNL     1      -9.875  19.484  67.411  1.00  0.00    -0.339 NA 
HETATM   32  C   UNL     1      -9.733  20.644  66.535  1.00  0.00    -0.071 C  
HETATM   33  C   UNL     1      -8.725  19.306  68.332  1.00  0.00    -0.357 C  
HETATM   34  C   UNL     1      -9.299  18.957  69.754  1.00  0.00     0.674 C  
HETATM   35  C   UNL     1      -9.441  17.494  69.924  1.00  0.00     1.196 A  
HETATM   36  C   UNL     1     -10.338  16.656  70.559  1.00  0.00     0.811 A  
HETATM   37  N   UNL     1      -9.944  15.368  70.332  1.00  0.00    -0.348 NA 
HETATM   38  H   UNL     1     -10.465  14.539  70.619  1.00  0.00     0.000 HD 
HETATM   39  C   UNL     1      -8.742  15.349  69.661  1.00  0.00    -0.134 A  
HETATM   40  C   UNL     1      -7.893  14.325  69.254  1.00  0.00     0.085 A  
HETATM   41  C   UNL     1      -6.737  14.717  68.555  1.00  0.00    -0.098 A  
HETATM   42  C   UNL     1      -6.532  16.041  68.140  1.00  0.00    -0.132 A  
HETATM   43  C   UNL     1      -7.476  17.022  68.438  1.00  0.00    -0.213 A  
HETATM   44  C   UNL     1      -8.491  16.661  69.324  1.00  0.00    -0.011 A  
HETATM   45  C   UNL     1      -7.584  18.360  67.742  1.00  0.00    -0.238 C  
HETATM   46  C   UNL     1      -7.805  18.126  66.214  1.00  0.00    -0.280 C  
ENDBRANCH  27  29
ENDBRANCH  13  25
TORSDOF 4
ENDMDL
MODEL      144
REMARK 921   NORMALIZED FREE ENERGY PREDICTED BY IDOCK:    0.13 KCAL/MOL
REMARK 922        TOTAL FREE ENERGY PREDICTED BY IDOCK:   -1.08 KCAL/MOL
REMARK 923 INTER-LIGAND FREE ENERGY PREDICTED BY IDOCK:   -5.39 KCAL/MOL
REMARK 924 INTRA-LIGAND FREE ENERGY PREDICTED BY IDOCK:    4.31 KCAL/MOL
REMARK 927      BINDING AFFINITY PREDICTED BY RF-SCORE:    0.00 PKD
ROOT
HETATM    1  C   UNL     1      -9.132  10.888  65.261  1.00  0.00    -0.197 C  
HETATM    2  C   UNL     1      -8.571   9.964  64.180  1.00  0.00    -0.201 C  
HETATM    3  C   UNL     1      -8.073   8.739  65.001  1.00  0.00    -0.144 C  
HETATM    4  C   UNL     1      -8.122   9.163  66.473  1.00  0.00    -0.107 C  
HETATM    5  N   UNL     1      -8.383  10.589  66.447  1.00  0.00    -0.139 N  
HETATM    6  C   UNL     1      -8.765  11.192  67.630  1.00  0.00    -0.129 C  
HETATM    7  O   UNL     1      -8.158  11.019  68.684  1.00  0.00    -0.134 OA 
HETATM    8  C   UNL     1      -9.940  12.217  67.489  1.00  0.00    -0.199 C  
HETATM    9  O   UNL     1      -9.603  13.747  65.317  1.00  0.00    -0.061 OA 
HETATM   10  N   UNL     1     -10.738  12.159  66.164  1.00  0.00    -0.263 N  
HETATM   11  C   UNL     1     -11.503  13.226  65.774  1.00  0.00    -0.323 C  
HETATM   12  H   UNL     1     -10.804  13.061  63.681  1.00  0.00     0.000 HD 
HETATM   13  C   UNL     1     -10.695  14.456  66.255  1.00  0.00    -0.307 C  
HETATM   14  O   UNL     1     -12.469  13.093  65.025  1.00  0.00    -0.437 OA 
HETATM   15  O   UNL     1     -10.384  12.215  63.779  1.00  0.00    -0.369 OA 
HETATM   16  C   UNL     1     -12.222  14.959  66.452  1.00  0.00     0.110 C  
HETATM   17  C   UNL     1      -9.840  12.312  65.097  1.00  0.00    -0.158 C  
ENDROOT
BRANCH   8  18
HETATM   18  C   UNL     1     -10.846  12.239  68.729  1.00  0.00    -0.266 C  
BRANCH  18  19
HETATM   19  C   UNL     1     -11.207  10.827  69.081  1.00  0.00    -0.323 A  
HETATM   20  C   UNL     1     -12.011   9.334  70.798  1.00  0.00    -0.269 A  
HETATM   21  C   UNL     1     -11.305   8.289  70.209  1.00  0.00    -0.129 A  
HETATM   22  C   UNL     1     -10.561   9.762  68.449  1.00  0.00    -0.264 A  
HETATM   23  C   UNL     1     -10.605   8.496  69.018  1.00  0.00    -0.173 A  
HETATM   24  C   UNL     1     -11.990  10.594  70.219  1.00  0.00    -0.425 A  
ENDBRANCH  18  19
ENDBRANCH   8  18
BRANCH  13  25
HETATM   25  N   UNL     1     -10.091  15.702  66.763  1.00  0.00    -0.265 N  
HETATM   26  O   UNL     1      -7.954  15.266  67.471  1.00  0.00    -0.146 OA 
HETATM   27  C   UNL     1      -8.786  16.069  67.072  1.00  0.00    -0.211 C  
HETATM   28  H   UNL     1     -10.770  16.447  66.919  1.00  0.00     0.000 HD 
BRANCH  27  29
HETATM   29  C   UNL     1      -8.511  17.635  66.923  1.00  0.00    -0.261 C  
HETATM   30  C   UNL     1      -8.516  18.486  68.225  1.00  0.00    -0.318 C  
HETATM   31  N   UNL     1      -7.570  19.637  68.260  1.00  0.00    -0.309 NA 
HETATM   32  C   UNL     1      -7.900  20.773  67.402  1.00  0.00    -0.241 C  
HETATM   33  C   UNL     1      -6.157  19.204  68.134  1.00  0.00    -0.217 C  
HETATM   34  C   UNL     1      -5.608  18.930  69.583  1.00  0.00    -0.232 C  
HETATM   35  C   UNL     1      -5.826  17.520  69.975  1.00  0.00    -0.234 A  
HETATM   36  C   UNL     1      -6.136  16.859  71.148  1.00  0.00     1.336 A  
HETATM   37  N   UNL     1      -6.234  15.525  70.866  1.00  0.00     0.294 NA 
HETATM   38  H   UNL     1      -6.529  14.809  71.529  1.00  0.00     0.000 HD 
HETATM   39  C   UNL     1      -5.880  15.288  69.557  1.00  0.00    -0.108 A  
HETATM   40  C   UNL     1      -5.748  14.129  68.799  1.00  0.00    -0.082 A  
HETATM   41  C   UNL     1      -5.379  14.305  67.453  1.00  0.00     0.390 A  
HETATM   42  C   UNL     1      -5.313  15.574  66.860  1.00  0.00     0.921 A  
HETATM   43  C   UNL     1      -5.594  16.714  67.612  1.00  0.00    -0.162 A  
HETATM   44  C   UNL     1      -5.730  16.534  68.988  1.00  0.00    -0.138 A  
HETATM   45  C   UNL     1      -5.939  18.068  67.034  1.00  0.00    -0.162 C  
HETATM   46  C   UNL     1      -7.207  17.932  66.132  1.00  0.00    -0.339 C  
ENDBRANCH  27  29
ENDBRANCH  13  25
TORSDOF 4
ENDMDL
MODEL      145
REMARK 921   NORMALIZED FREE ENERGY PREDICTED BY IDOCK:    0.43 KCAL/MOL
REMARK 922        TOTAL FREE ENERGY PREDICTED BY IDOCK:   -0.71 KCAL/MOL
REMARK 923 INTER-LIGAND FREE ENERGY PREDICTED BY IDOCK:   -0.73 KCAL/MOL
REMARK 924 INTRA-LIGAND FREE ENERGY PREDICTED BY IDOCK:    0.02 KCAL/MOL
REMARK 927      BINDING AFFINITY PREDICTED BY RF-SCORE:    0.00 PKD
ROOT
HETATM    1  C   UNL     1      -8.278  10.767  65.112  1.00  0.00    -0.034 C  
HETATM    2  C   UNL     1      -7.653  11.167  63.775  1.00  0.00     0.881 C  
HETATM    3  C   UNL     1      -8.832  11.869  63.042  1.00  0.00     0.660 C  
HETATM    4  C   UNL     1     -10.087  11.575  63.871  1.00  0.00    -0.345 C  
HETATM    5  N   UNL     1      -9.674  10.579  64.840  1.00  0.00    -0.273 N  
HETATM    6  C   UNL     1     -10.519  10.334  65.906  1.00  0.00    -0.097 C  
HETATM    7  O   UNL     1     -11.721  10.127  65.760  1.00  0.00     1.674 OA 
HETATM    8  C   UNL     1      -9.800  10.201  67.290  1.00  0.00    -0.183 C  
HETATM    9  O   UNL     1      -7.566   8.742  67.059  1.00  0.00    -0.087 OA 
HETATM   10  N   UNL     1      -8.338  10.703  67.348  1.00  0.00    -0.118 N  
HETATM   11  C   UNL     1      -7.507  10.291  68.356  1.00  0.00    -0.090 C  
HETATM   12  H   UNL     1      -5.826   9.986  66.953  1.00  0.00     0.000 HD 
HETATM   13  C   UNL     1      -7.940   8.828  68.617  1.00  0.00    -0.107 C  
HETATM   14  O   UNL     1      -6.541  10.961  68.717  1.00  0.00    -0.054 OA 
HETATM   15  O   UNL     1      -6.229  10.420  66.211  1.00  0.00    -0.076 OA 
HETATM   16  C   UNL     1      -7.536   9.328  70.104  1.00  0.00    -0.098 C  
HETATM   17  C   UNL     1      -7.598  10.037  66.361  1.00  0.00    -0.104 C  
ENDROOT
BRANCH   8  18
HETATM   18  C   UNL     1     -10.659  10.735  68.446  1.00  0.00    -0.228 C  
BRANCH  18  19
HETATM   19  C   UNL     1     -10.432  12.212  68.566  1.00  0.00    -0.248 A  
HETATM   20  C   UNL     1     -11.116  14.409  67.840  1.00  0.00    -0.288 A  
HETATM   21  C   UNL     1      -9.826  14.878  68.069  1.00  0.00    -0.216 A  
HETATM   22  C   UNL     1      -9.158  12.701  68.867  1.00  0.00     0.311 A  
HETATM   23  C   UNL     1      -8.856  14.032  68.611  1.00  0.00    -0.104 A  
HETATM   24  C   UNL     1     -11.429  13.086  68.117  1.00  0.00    -0.356 A  
ENDBRANCH  18  19
ENDBRANCH   8  18
BRANCH  13  25
HETATM   25  N   UNL     1      -8.330   7.472  69.048  1.00  0.00    -0.128 N  
HETATM   26  O   UNL     1      -8.972   6.258  67.212  1.00  0.00    -0.114 OA 
HETATM   27  C   UNL     1      -8.553   6.285  68.361  1.00  0.00    -0.114 C  
HETATM   28  H   UNL     1      -8.462   7.390  70.056  1.00  0.00     0.000 HD 
BRANCH  27  29
HETATM   29  C   UNL     1      -8.280   4.978  69.239  1.00  0.00    -0.083 C  
HETATM   30  C   UNL     1      -8.791   3.621  68.675  1.00  0.00    -0.113 C  
HETATM   31  N   UNL     1      -7.956   2.427  68.982  1.00  0.00    -0.048 NA 
HETATM   32  C   UNL     1      -7.969   1.966  70.367  1.00  0.00    -0.041 C  
HETATM   33  C   UNL     1      -6.587   2.543  68.420  1.00  0.00    -0.029 C  
HETATM   34  C   UNL     1      -6.612   1.939  66.967  1.00  0.00    -0.034 C  
HETATM   35  C   UNL     1      -6.926   2.982  65.965  1.00  0.00    -0.057 A  
HETATM   36  C   UNL     1      -7.635   3.029  64.780  1.00  0.00    -0.076 A  
HETATM   37  N   UNL     1      -7.588   4.313  64.314  1.00  0.00    -0.071 NA 
HETATM   38  H   UNL     1      -8.091   4.655  63.495  1.00  0.00     0.000 HD 
HETATM   39  C   UNL     1      -6.766   5.079  65.108  1.00  0.00    -0.048 A  
HETATM   40  C   UNL     1      -6.332   6.399  65.040  1.00  0.00    -0.034 A  
HETATM   41  C   UNL     1      -5.492   6.832  66.082  1.00  0.00    -0.018 A  
HETATM   42  C   UNL     1      -5.240   6.040  67.212  1.00  0.00    -0.005 A  
HETATM   43  C   UNL     1      -5.809   4.773  67.320  1.00  0.00    -0.022 A  
HETATM   44  C   UNL     1      -6.445   4.277  66.181  1.00  0.00    -0.041 A  
HETATM   45  C   UNL     1      -5.947   3.993  68.608  1.00  0.00    -0.027 C  
HETATM   46  C   UNL     1      -6.784   4.830  69.627  1.00  0.00    -0.047 C  
ENDBRANCH  27  29
ENDBRANCH  13  25
TORSDOF 4
ENDMDL
MODEL      146
REMARK 921   NORMALIZED FREE ENERGY PREDICTED BY IDOCK:    0.56 KCAL/MOL
REMARK 922        TOTAL FREE ENERGY PREDICTED BY IDOCK:   -0.54 KCAL/MOL
REMARK 923 INTER-LIGAND FREE ENERGY PREDICTED BY IDOCK:   -2.42 KCAL/MOL
REMARK 924 INTRA-LIGAND FREE ENERGY PREDICTED BY IDOCK:    1.88 KCAL/MOL
REMARK 927      BINDING AFFINITY PREDICTED BY RF-SCORE:    0.00 PKD
ROOT
HETATM    1  C   UNL     1     -10.090   9.924  66.419  1.00  0.00    -0.240 C  
HETATM    2  C   UNL     1     -10.525   8.620  65.748  1.00  0.00     1.331 C  
HETATM    3  C   UNL     1      -9.737   7.543  66.549  1.00  0.00    -0.238 C  
HETATM    4  C   UNL     1      -8.720   8.306  67.405  1.00  0.00    -0.124 C  
HETATM    5  N   UNL     1      -8.770   9.673  66.923  1.00  0.00    -0.130 N  
HETATM    6  C   UNL     1      -8.172  10.647  67.698  1.00  0.00    -0.107 C  
HETATM    7  O   UNL     1      -7.032  10.530  68.140  1.00  0.00    -0.071 OA 
HETATM    8  C   UNL     1      -9.004  11.965  67.846  1.00  0.00    -0.179 C  
HETATM    9  O   UNL     1     -10.080  12.671  65.497  1.00  0.00    -0.273 OA 
HETATM   10  N   UNL     1     -10.492  11.880  67.429  1.00  0.00    -0.213 N  
HETATM   11  C   UNL     1     -11.195  13.021  67.147  1.00  0.00    -0.286 C  
HETATM   12  H   UNL     1     -12.140  12.096  65.375  1.00  0.00     0.000 HD 
HETATM   13  C   UNL     1     -10.149  13.942  66.473  1.00  0.00    -0.286 C  
HETATM   14  O   UNL     1     -12.418  13.075  67.257  1.00  0.00    -0.209 OA 
HETATM   15  O   UNL     1     -11.862  11.207  65.561  1.00  0.00     0.213 OA 
HETATM   16  C   UNL     1     -11.062  15.008  67.285  1.00  0.00    -0.334 C  
HETATM   17  C   UNL     1     -10.558  11.420  66.105  1.00  0.00    -0.265 C  
ENDROOT
BRANCH   8  18
HETATM   18  C   UNL     1      -8.808  12.627  69.218  1.00  0.00     0.964 C  
BRANCH  18  19
HETATM   19  C   UNL     1      -7.399  13.133  69.306  1.00  0.00     0.227 A  
HETATM   20  C   UNL     1      -5.603  13.811  70.768  1.00  0.00    -0.180 A  
HETATM   21  C   UNL     1      -5.126  14.662  69.775  1.00  0.00    -0.092 A  
HETATM   22  C   UNL     1      -6.877  13.930  68.284  1.00  0.00    -0.108 A  
HETATM   23  C   UNL     1      -5.745  14.698  68.524  1.00  0.00    -0.099 A  
HETATM   24  C   UNL     1      -6.719  13.023  70.525  1.00  0.00     1.026 A  
ENDBRANCH  18  19
ENDBRANCH   8  18
BRANCH  13  25
HETATM   25  N   UNL     1      -9.231  14.961  65.930  1.00  0.00    -0.502 N  
HETATM   26  O   UNL     1     -10.238  17.018  66.050  1.00  0.00    -0.346 OA 
HETATM   27  C   UNL     1      -9.215  16.350  65.982  1.00  0.00    -0.293 C  
HETATM   28  H   UNL     1      -8.448  14.565  65.410  1.00  0.00     0.000 HD 
BRANCH  27  29
HETATM   29  C   UNL     1      -7.750  16.976  65.872  1.00  0.00     0.054 C  
HETATM   30  C   UNL     1      -7.646  18.520  65.707  1.00  0.00    -0.038 C  
HETATM   31  N   UNL     1      -6.471  19.170  66.352  1.00  0.00    -0.185 NA 
HETATM   32  C   UNL     1      -5.171  18.921  65.734  1.00  0.00    -0.144 C  
HETATM   33  C   UNL     1      -6.462  18.977  67.823  1.00  0.00    -0.210 C  
HETATM   34  C   UNL     1      -7.260  20.169  68.469  1.00  0.00    -0.236 C  
HETATM   35  C   UNL     1      -8.695  19.835  68.606  1.00  0.00    -0.237 A  
HETATM   36  C   UNL     1      -9.885  20.530  68.501  1.00  0.00     0.152 A  
HETATM   37  N   UNL     1     -10.907  19.648  68.714  1.00  0.00    -0.140 NA 
HETATM   38  H   UNL     1     -11.898  19.870  68.621  1.00  0.00     0.000 HD 
HETATM   39  C   UNL     1     -10.407  18.416  69.071  1.00  0.00    -0.046 A  
HETATM   40  C   UNL     1     -11.003  17.217  69.450  1.00  0.00     0.301 A  
HETATM   41  C   UNL     1     -10.131  16.148  69.722  1.00  0.00    -0.162 A  
HETATM   42  C   UNL     1      -8.754  16.227  69.464  1.00  0.00     0.103 A  
HETATM   43  C   UNL     1      -8.205  17.398  68.945  1.00  0.00    -0.170 A  
HETATM   44  C   UNL     1      -9.043  18.512  68.901  1.00  0.00    -0.203 A  
HETATM   45  C   UNL     1      -6.857  17.496  68.268  1.00  0.00    -0.200 C  
HETATM   46  C   UNL     1      -6.829  16.532  67.040  1.00  0.00    -0.248 C  
ENDBRANCH  27  29
ENDBRANCH  13  25
TORSDOF 4
ENDMDL
MODEL      147
REMARK 921   NORMALIZED FREE ENERGY PREDICTED BY IDOCK:    1.00 KCAL/MOL
REMARK 922        TOTAL FREE ENERGY PREDICTED BY IDOCK:    0.00 KCAL/MOL
REMARK 923 INTER-LIGAND FREE ENERGY PREDICTED BY IDOCK:   -3.42 KCAL/MOL
REMARK 924 INTRA-LIGAND FREE ENERGY PREDICTED BY IDOCK:    3.42 KCAL/MOL
REMARK 927      BINDING AFFINITY PREDICTED BY RF-SCORE:    0.00 PKD
ROOT
HETATM    1  C   UNL     1      -8.483   7.073  66.847  1.00  0.00    -0.119 C  
HETATM    2  C   UNL     1      -9.022   5.649  66.706  1.00  0.00    -0.116 C  
HETATM    3  C   UNL     1      -8.762   5.331  65.205  1.00  0.00    -0.146 C  
HETATM    4  C   UNL     1      -8.368   6.660  64.549  1.00  0.00     0.063 C  
HETATM    5  N   UNL     1      -8.638   7.671  65.552  1.00  0.00    -0.127 N  
HETATM    6  C   UNL     1      -8.111   8.931  65.349  1.00  0.00    -0.119 C  
HETATM    7  O   UNL     1      -8.230   9.531  64.284  1.00  0.00    -0.136 OA 
HETATM    8  C   UNL     1      -7.481   9.588  66.623  1.00  0.00    -0.093 C  
HETATM    9  O   UNL     1      -9.032   9.174  68.766  1.00  0.00    -0.135 OA 
HETATM   10  N   UNL     1      -7.207   8.638  67.813  1.00  0.00    -0.086 N  
HETATM   11  C   UNL     1      -7.034   9.144  69.074  1.00  0.00    -0.063 C  
HETATM   12  H   UNL     1      -8.294   7.562  69.968  1.00  0.00     0.000 HD 
HETATM   13  C   UNL     1      -8.003  10.351  69.123  1.00  0.00    -0.141 C  
HETATM   14  O   UNL     1      -6.393   8.543  69.933  1.00  0.00    -0.034 OA 
HETATM   15  O   UNL     1      -8.340   7.015  69.193  1.00  0.00    -0.123 OA 
HETATM   16  C   UNL     1      -6.770  10.872  70.036  1.00  0.00    -0.128 C  
HETATM   17  C   UNL     1      -8.406   7.992  68.152  1.00  0.00    -0.127 C  
ENDROOT
BRANCH   8  18
HETATM   18  C   UNL     1      -6.276  10.478  66.283  1.00  0.00    -0.105 C  
BRANCH  18  19
HETATM   19  C   UNL     1      -6.367  11.734  67.096  1.00  0.00    -0.145 A  
HETATM   20  C   UNL     1      -7.469  13.863  67.375  1.00  0.00    -0.147 A  
HETATM   21  C   UNL     1      -6.315  14.375  67.962  1.00  0.00    -0.163 A  
HETATM   22  C   UNL     1      -5.237  12.226  67.753  1.00  0.00    -0.080 A  
HETATM   23  C   UNL     1      -5.210  13.548  68.178  1.00  0.00    -0.106 A  
HETATM   24  C   UNL     1      -7.508  12.537  66.971  1.00  0.00    -0.009 A  
ENDBRANCH  18  19
ENDBRANCH   8  18
BRANCH  13  25
HETATM   25  N   UNL     1      -8.789  11.591  69.264  1.00  0.00    -0.293 N  
HETATM   26  O   UNL     1     -10.496  11.573  67.733  1.00  0.00    -0.180 OA 
HETATM   27  C   UNL     1     -10.034  11.985  68.788  1.00  0.00    -0.073 C  
HETATM   28  H   UNL     1      -8.324  12.305  69.825  1.00  0.00     0.000 HD 
BRANCH  27  29
HETATM   29  C   UNL     1     -10.756  13.070  69.711  1.00  0.00     0.570 C  
HETATM   30  C   UNL     1     -10.182  14.517  69.693  1.00  0.00     0.122 C  
HETATM   31  N   UNL     1     -11.174  15.617  69.854  1.00  0.00    -0.300 NA 
HETATM   32  C   UNL     1     -11.767  15.767  71.180  1.00  0.00    -0.428 C  
HETATM   33  C   UNL     1     -12.179  15.628  68.762  1.00  0.00     0.048 C  
HETATM   34  C   UNL     1     -11.619  16.533  67.603  1.00  0.00     0.356 C  
HETATM   35  C   UNL     1     -10.833  15.733  66.639  1.00  0.00    -0.241 A  
HETATM   36  C   UNL     1      -9.701  15.942  65.873  1.00  0.00    -0.351 A  
HETATM   37  N   UNL     1      -9.440  14.791  65.185  1.00  0.00    -0.270 NA 
HETATM   38  H   UNL     1      -8.619  14.634  64.600  1.00  0.00     0.000 HD 
HETATM   39  C   UNL     1     -10.443  13.872  65.396  1.00  0.00    -0.345 A  
HETATM   40  C   UNL     1     -10.691  12.598  64.893  1.00  0.00    -0.327 A  
HETATM   41  C   UNL     1     -11.841  11.951  65.381  1.00  0.00    -0.149 A  
HETATM   42  C   UNL     1     -12.600  12.478  66.436  1.00  0.00     0.756 A  
HETATM   43  C   UNL     1     -12.239  13.691  67.020  1.00  0.00    -0.373 A  
HETATM   44  C   UNL     1     -11.243  14.422  66.373  1.00  0.00    -0.345 A  
HETATM   45  C   UNL     1     -12.708  14.173  68.375  1.00  0.00     0.875 C  
HETATM   46  C   UNL     1     -12.287  13.133  69.461  1.00  0.00    -0.087 C  
ENDBRANCH  27  29
ENDBRANCH  13  25
TORSDOF 4
ENDMDL
MODEL      148
REMARK 921   NORMALIZED FREE ENERGY PREDICTED BY IDOCK:    1.43 KCAL/MOL
REMARK 922        TOTAL FREE ENERGY PREDICTED BY IDOCK:    0.53 KCAL/MOL
REMARK 923 INTER-LIGAND FREE ENERGY PREDICTED BY IDOCK:    1.45 KCAL/MOL
REMARK 924 INTRA-LIGAND FREE ENERGY PREDICTED BY IDOCK:   -0.92 KCAL/MOL
REMARK 927      BINDING AFFINITY PREDICTED BY RF-SCORE:    0.00 PKD
ROOT
HETATM    1  C   UNL     1     -12.065  13.754  65.763  1.00  0.00    -0.429 C  
HETATM    2  C   UNL     1     -12.997  13.539  64.569  1.00  0.00     0.129 C  
HETATM    3  C   UNL     1     -12.516  12.173  64.000  1.00  0.00    -0.541 C  
HETATM    4  C   UNL     1     -11.198  11.853  64.714  1.00  0.00    -0.297 C  
HETATM    5  N   UNL     1     -10.852  13.066  65.429  1.00  0.00    -0.280 N  
HETATM    6  C   UNL     1      -9.864  12.982  66.391  1.00  0.00    -0.270 C  
HETATM    7  O   UNL     1      -8.781  12.442  66.179  1.00  0.00     0.007 OA 
HETATM    8  C   UNL     1     -10.179  13.750  67.718  1.00  0.00    -0.241 C  
HETATM    9  O   UNL     1     -11.260  16.143  67.191  1.00  0.00    -0.131 OA 
HETATM   10  N   UNL     1     -11.651  14.183  67.920  1.00  0.00    -0.318 N  
HETATM   11  C   UNL     1     -11.962  15.170  68.817  1.00  0.00    -0.250 C  
HETATM   12  H   UNL     1     -13.390  16.108  67.412  1.00  0.00     0.000 HD 
HETATM   13  C   UNL     1     -10.768  16.150  68.718  1.00  0.00    -0.294 C  
HETATM   14  O   UNL     1     -13.071  15.244  69.343  1.00  0.00     0.423 OA 
HETATM   15  O   UNL     1     -13.404  15.393  66.786  1.00  0.00     2.883 OA 
HETATM   16  C   UNL     1     -11.155  16.250  70.288  1.00  0.00    -0.340 C  
HETATM   17  C   UNL     1     -12.043  14.956  66.816  1.00  0.00     0.022 C  
ENDROOT
BRANCH   8  18
HETATM   18  C   UNL     1      -9.592  13.048  68.951  1.00  0.00     0.215 C  
BRANCH  18  19
HETATM   19  C   UNL     1     -10.231  11.698  69.081  1.00  0.00     0.007 A  
HETATM   20  C   UNL     1     -11.727  10.306  70.365  1.00  0.00    -0.404 A  
HETATM   21  C   UNL     1     -11.019   9.180  69.955  1.00  0.00    -0.240 A  
HETATM   22  C   UNL     1      -9.568  10.562  68.610  1.00  0.00    -0.171 A  
HETATM   23  C   UNL     1      -9.959   9.306  69.054  1.00  0.00    -0.187 A  
HETATM   24  C   UNL     1     -11.355  11.561  69.905  1.00  0.00    -0.267 A  
ENDBRANCH  18  19
ENDBRANCH   8  18
BRANCH  13  25
HETATM   25  N   UNL     1      -9.643  17.099  68.811  1.00  0.00    -0.273 N  
HETATM   26  O   UNL     1      -9.602  18.399  66.922  1.00  0.00    -0.283 OA 
HETATM   27  C   UNL     1      -9.305  18.244  68.099  1.00  0.00    -0.296 C  
HETATM   28  H   UNL     1      -8.977  16.868  69.548  1.00  0.00     0.000 HD 
BRANCH  27  29
HETATM   29  C   UNL     1      -8.441  19.289  68.942  1.00  0.00    -0.335 C  
HETATM   30  C   UNL     1      -8.039  18.878  70.389  1.00  0.00     2.312 C  
HETATM   31  N   UNL     1      -6.715  19.367  70.865  1.00  0.00     0.522 NA 
HETATM   32  C   UNL     1      -6.613  20.797  71.141  1.00  0.00     1.095 C  
HETATM   33  C   UNL     1      -5.598  18.853  70.036  1.00  0.00    -0.234 C  
HETATM   34  C   UNL     1      -5.126  17.487  70.659  1.00  0.00    -0.267 C  
HETATM   35  C   UNL     1      -5.863  16.350  70.064  1.00  0.00    -0.190 A  
HETATM   36  C   UNL     1      -6.347  15.140  70.523  1.00  0.00     0.035 A  
HETATM   37  N   UNL     1      -6.980  14.519  69.483  1.00  0.00    -0.198 NA 
HETATM   38  H   UNL     1      -7.498  13.643  69.554  1.00  0.00     0.000 HD 
HETATM   39  C   UNL     1      -6.818  15.246  68.325  1.00  0.00    -0.119 A  
HETATM   40  C   UNL     1      -7.196  15.031  67.003  1.00  0.00     0.130 A  
HETATM   41  C   UNL     1      -6.858  16.045  66.087  1.00  0.00     1.614 A  
HETATM   42  C   UNL     1      -6.327  17.274  66.503  1.00  0.00    -0.263 A  
HETATM   43  C   UNL     1      -6.094  17.516  67.855  1.00  0.00    -0.152 A  
HETATM   44  C   UNL     1      -6.217  16.423  68.713  1.00  0.00    -0.132 A  
HETATM   45  C   UNL     1      -5.906  18.884  68.471  1.00  0.00    -0.213 C  
HETATM   46  C   UNL     1      -7.170  19.755  68.181  1.00  0.00    -0.329 C  
ENDBRANCH  27  29
ENDBRANCH  13  25
TORSDOF 4
ENDMDL
MODEL      149
REMARK 921   NORMALIZED FREE ENERGY PREDICTED BY IDOCK:    2.29 KCAL/MOL
REMARK 922        TOTAL FREE ENERGY PREDICTED BY IDOCK:    1.59 KCAL/MOL
REMARK 923 INTER-LIGAND FREE ENERGY PREDICTED BY IDOCK:    1.76 KCAL/MOL
REMARK 924 INTRA-LIGAND FREE ENERGY PREDICTED BY IDOCK:   -0.17 KCAL/MOL
REMARK 927      BINDING AFFINITY PREDICTED BY RF-SCORE:    0.00 PKD
ROOT
HETATM    1  C   UNL     1      -8.429  13.619  69.277  1.00  0.00     0.620 C  
HETATM    2  C   UNL     1      -8.129  14.279  70.624  1.00  0.00     2.508 C  
HETATM    3  C   UNL     1      -6.934  15.217  70.286  1.00  0.00     0.142 C  
HETATM    4  C   UNL     1      -6.466  14.824  68.881  1.00  0.00    -0.089 C  
HETATM    5  N   UNL     1      -7.179  13.600  68.573  1.00  0.00    -0.103 N  
HETATM    6  C   UNL     1      -7.176  13.170  67.261  1.00  0.00    -0.032 C  
HETATM    7  O   UNL     1      -6.146  13.089  66.596  1.00  0.00     0.342 OA 
HETATM    8  C   UNL     1      -8.561  12.662  66.739  1.00  0.00    -0.098 C  
HETATM    9  O   UNL     1      -9.770  11.145  68.585  1.00  0.00    -0.190 OA 
HETATM   10  N   UNL     1      -9.791  13.031  67.602  1.00  0.00    -0.207 N  
HETATM   11  C   UNL     1     -10.962  12.334  67.467  1.00  0.00    -0.254 C  
HETATM   12  H   UNL     1     -11.257  12.252  69.658  1.00  0.00     0.000 HD 
HETATM   13  C   UNL     1     -10.499  10.885  67.180  1.00  0.00    -0.237 C  
HETATM   14  O   UNL     1     -12.050  12.829  67.756  1.00  0.00    -0.314 OA 
HETATM   15  O   UNL     1     -10.577  12.877  69.877  1.00  0.00     0.602 OA 
HETATM   16  C   UNL     1     -11.849  10.988  66.290  1.00  0.00     1.177 C  
HETATM   17  C   UNL     1      -9.574  12.567  68.908  1.00  0.00     0.226 C  
ENDROOT
BRANCH   8  18
HETATM   18  C   UNL     1      -8.769  12.966  65.247  1.00  0.00     1.681 C  
BRANCH  18  19
HETATM   19  C   UNL     1      -9.895  13.945  65.112  1.00  0.00    -0.135 A  
HETATM   20  C   UNL     1     -11.904  14.533  63.911  1.00  0.00    -0.022 A  
HETATM   21  C   UNL     1     -11.671  15.876  64.195  1.00  0.00    -0.028 A  
HETATM   22  C   UNL     1      -9.704  15.284  65.460  1.00  0.00    -0.313 A  
HETATM   23  C   UNL     1     -10.589  16.248  64.994  1.00  0.00    -0.257 A  
HETATM   24  C   UNL     1     -11.037  13.565  64.395  1.00  0.00    -0.397 A  
ENDBRANCH  18  19
ENDBRANCH   8  18
BRANCH  13  25
HETATM   25  N   UNL     1     -10.198   9.497  66.782  1.00  0.00    -0.244 N  
HETATM   26  O   UNL     1      -8.220   8.852  67.747  1.00  0.00    -0.109 OA 
HETATM   27  C   UNL     1      -9.296   8.548  67.250  1.00  0.00    -0.149 C  
HETATM   28  H   UNL     1     -10.769   9.165  66.005  1.00  0.00     0.000 HD 
BRANCH  27  29
HETATM   29  C   UNL     1      -9.772   7.042  67.012  1.00  0.00    -0.216 C  
HETATM   30  C   UNL     1      -8.805   5.910  67.464  1.00  0.00    -0.106 C  
HETATM   31  N   UNL     1      -9.446   4.665  67.973  1.00  0.00    -0.138 NA 
HETATM   32  C   UNL     1     -10.115   3.828  66.980  1.00  0.00     0.397 C  
HETATM   33  C   UNL     1     -10.275   4.916  69.177  1.00  0.00    -0.116 C  
HETATM   34  C   UNL     1      -9.350   4.751  70.439  1.00  0.00    -0.216 C  
HETATM   35  C   UNL     1      -8.727   6.040  70.812  1.00  0.00    -0.135 A  
HETATM   36  C   UNL     1      -7.505   6.434  71.323  1.00  0.00    -0.089 A  
HETATM   37  N   UNL     1      -7.513   7.796  71.428  1.00  0.00    -0.073 NA 
HETATM   38  H   UNL     1      -6.712   8.365  71.705  1.00  0.00     0.000 HD 
HETATM   39  C   UNL     1      -8.756   8.292  71.107  1.00  0.00    -0.147 A  
HETATM   40  C   UNL     1      -9.305   9.571  71.115  1.00  0.00     0.022 A  
HETATM   41  C   UNL     1     -10.640   9.676  70.684  1.00  0.00    -0.386 A  
HETATM   42  C   UNL     1     -11.327   8.592  70.119  1.00  0.00    -0.072 A  
HETATM   43  C   UNL     1     -10.699   7.355  69.990  1.00  0.00    -0.258 A  
HETATM   44  C   UNL     1      -9.467   7.213  70.629  1.00  0.00    -0.161 A  
HETATM   45  C   UNL     1     -11.156   6.242  69.074  1.00  0.00    -0.446 C  
HETATM   46  C   UNL     1     -11.181   6.767  67.603  1.00  0.00    -0.220 C  
ENDBRANCH  27  29
ENDBRANCH  13  25
TORSDOF 4
ENDMDL
MODEL      150
REMARK 921   NORMALIZED FREE ENERGY PREDICTED BY IDOCK:    2.99 KCAL/MOL
REMARK 922        TOTAL FREE ENERGY PREDICTED BY IDOCK:    2.45 KCAL/MOL
REMARK 923 INTER-LIGAND FREE ENERGY PREDICTED BY IDOCK:   -1.73 KCAL/MOL
REMARK 924 INTRA-LIGAND FREE ENERGY PREDICTED BY IDOCK:    4.18 KCAL/MOL
REMARK 927      BINDING AFFINITY PREDICTED BY RF-SCORE:    0.00 PKD
ROOT
HETATM    1  C   UNL     1      -9.124   8.750  66.458  1.00  0.00    -0.162 C  
HETATM    2  C   UNL     1     -10.013   7.558  66.100  1.00  0.00     0.155 C  
HETATM    3  C   UNL     1      -9.209   6.859  64.967  1.00  0.00     0.801 C  
HETATM    4  C   UNL     1      -8.093   7.832  64.572  1.00  0.00    -0.108 C  
HETATM    5  N   UNL     1      -8.412   9.070  65.254  1.00  0.00    -0.156 N  
HETATM    6  C   UNL     1      -7.429  10.039  65.316  1.00  0.00    -0.137 C  
HETATM    7  O   UNL     1      -6.796  10.399  64.327  1.00  0.00    -0.093 OA 
HETATM    8  C   UNL     1      -7.289  10.737  66.710  1.00  0.00    -0.129 C  
HETATM    9  O   UNL     1      -9.699  11.285  67.741  1.00  0.00    -0.169 OA 
HETATM   10  N   UNL     1      -7.987  10.032  67.897  1.00  0.00    -0.104 N  
HETATM   11  C   UNL     1      -8.261  10.725  69.046  1.00  0.00    -0.138 C  
HETATM   12  H   UNL     1     -10.276   9.828  69.201  1.00  0.00     0.000 HD 
HETATM   13  C   UNL     1      -8.612  12.147  68.545  1.00  0.00    -0.079 C  
HETATM   14  O   UNL     1      -8.379  10.162  70.133  1.00  0.00    -0.125 OA 
HETATM   15  O   UNL     1     -10.146   9.164  68.534  1.00  0.00    -0.178 OA 
HETATM   16  C   UNL     1      -7.869  12.460  69.950  1.00  0.00     1.900 C  
HETATM   17  C   UNL     1      -9.343   9.866  67.581  1.00  0.00    -0.140 C  
ENDROOT
BRANCH   8  18
HETATM   18  C   UNL     1      -5.836  11.129  67.021  1.00  0.00    -0.079 C  
BRANCH  18  19
HETATM   19  C   UNL     1      -5.848  12.341  67.903  1.00  0.00    -0.079 A  
HETATM   20  C   UNL     1      -5.457  14.718  68.045  1.00  0.00    -0.130 A  
HETATM   21  C   UNL     1      -5.138  14.577  69.392  1.00  0.00    -0.086 A  
HETATM   22  C   UNL     1      -5.601  12.212  69.272  1.00  0.00    -0.069 A  
HETATM   23  C   UNL     1      -5.239  13.330  70.013  1.00  0.00    -0.092 A  
HETATM   24  C   UNL     1      -5.843  13.608  67.307  1.00  0.00     0.407 A  
ENDBRANCH  18  19
ENDBRANCH   8  18
BRANCH  13  25
HETATM   25  N   UNL     1      -8.848  13.565  68.216  1.00  0.00    -0.184 N  
HETATM   26  O   UNL     1      -8.964  14.776  70.160  1.00  0.00     0.436 OA 
HETATM   27  C   UNL     1      -8.759  14.739  68.954  1.00  0.00    -0.161 C  
HETATM   28  H   UNL     1      -9.136  13.715  67.249  1.00  0.00     0.000 HD 
BRANCH  27  29
HETATM   29  C   UNL     1      -8.436  16.028  68.068  1.00  0.00    -0.164 C  
HETATM   30  C   UNL     1      -8.233  15.810  66.540  1.00  0.00    -0.243 C  
HETATM   31  N   UNL     1      -8.697  16.914  65.654  1.00  0.00    -0.363 NA 
HETATM   32  C   UNL     1      -7.908  18.142  65.680  1.00  0.00     0.285 C  
HETATM   33  C   UNL     1     -10.156  17.156  65.779  1.00  0.00    -0.172 C  
HETATM   34  C   UNL     1     -10.887  16.237  64.733  1.00  0.00    -0.245 C  
HETATM   35  C   UNL     1     -11.228  14.925  65.326  1.00  0.00    -0.369 A  
HETATM   36  C   UNL     1     -11.279  13.620  64.872  1.00  0.00    -0.342 A  
HETATM   37  N   UNL     1     -11.647  12.825  65.921  1.00  0.00    -0.360 NA 
HETATM   38  H   UNL     1     -11.689  11.806  65.894  1.00  0.00     0.000 HD 
HETATM   39  C   UNL     1     -11.950  13.597  67.020  1.00  0.00    -0.406 A  
HETATM   40  C   UNL     1     -12.428  13.298  68.293  1.00  0.00     0.376 A  
HETATM   41  C   UNL     1     -12.593  14.389  69.166  1.00  0.00     0.176 A  
HETATM   42  C   UNL     1     -12.145  15.677  68.839  1.00  0.00    -0.183 A  
HETATM   43  C   UNL     1     -11.535  15.916  67.609  1.00  0.00    -0.070 A  
HETATM   44  C   UNL     1     -11.591  14.881  66.676  1.00  0.00    -0.265 A  
HETATM   45  C   UNL     1     -10.675  17.118  67.288  1.00  0.00    -0.208 C  
HETATM   46  C   UNL     1      -9.471  17.166  68.281  1.00  0.00    -0.276 C  
ENDBRANCH  27  29
ENDBRANCH  13  25
TORSDOF 4
ENDMDL
MODEL      151
REMARK 921   NORMALIZED FREE ENERGY PREDICTED BY IDOCK:    3.74 KCAL/MOL
REMARK 922        TOTAL FREE ENERGY PREDICTED BY IDOCK:    3.37 KCAL/MOL
REMARK 923 INTER-LIGAND FREE ENERGY PREDICTED BY IDOCK:    1.23 KCAL/MOL
REMARK 924 INTRA-LIGAND FREE ENERGY PREDICTED BY IDOCK:    2.14 KCAL/MOL
REMARK 927      BINDING AFFINITY PREDICTED BY RF-SCORE:    0.00 PKD
ROOT
HETATM    1  C   UNL     1      -9.981  14.850  68.747  1.00  0.00    -0.228 C  
HETATM    2  C   UNL     1      -9.872  16.240  69.376  1.00  0.00    -0.217 C  
HETATM    3  C   UNL     1     -10.913  17.066  68.566  1.00  0.00    -0.247 C  
HETATM    4  C   UNL     1     -11.322  16.189  67.377  1.00  0.00     0.061 C  
HETATM    5  N   UNL     1     -10.393  15.076  67.391  1.00  0.00    -0.237 N  
HETATM    6  C   UNL     1     -10.698  13.978  66.611  1.00  0.00    -0.281 C  
HETATM    7  O   UNL     1     -11.025  14.077  65.431  1.00  0.00    -0.302 OA 
HETATM    8  C   UNL     1     -10.457  12.596  67.307  1.00  0.00    -0.228 C  
HETATM    9  O   UNL     1      -8.145  12.610  68.659  1.00  0.00    -0.111 OA 
HETATM   10  N   UNL     1     -10.265  12.632  68.842  1.00  0.00    -0.063 N  
HETATM   11  C   UNL     1      -9.674  11.579  69.488  1.00  0.00     0.675 C  
HETATM   12  H   UNL     1      -8.464  12.930  70.753  1.00  0.00     0.000 HD 
HETATM   13  C   UNL     1      -8.605  11.083  68.484  1.00  0.00    -0.158 C  
HETATM   14  O   UNL     1      -9.892  11.339  70.674  1.00  0.00     2.298 OA 
HETATM   15  O   UNL     1      -8.923  13.729  70.521  1.00  0.00     3.284 OA 
HETATM   16  C   UNL     1      -9.078   9.699  69.182  1.00  0.00    -0.154 C  
HETATM   17  C   UNL     1      -9.209  13.507  69.138  1.00  0.00     0.530 C  
ENDROOT
BRANCH   8  18
HETATM   18  C   UNL     1     -11.472  11.533  66.860  1.00  0.00    -0.261 C  
BRANCH  18  19
HETATM   19  C   UNL     1     -11.336  11.337  65.380  1.00  0.00     0.027 A  
HETATM   20  C   UNL     1      -9.876  10.687  63.572  1.00  0.00    -0.384 A  
HETATM   21  C   UNL     1     -10.582  11.522  62.711  1.00  0.00     0.167 A  
HETATM   22  C   UNL     1     -12.090  12.116  64.499  1.00  0.00    -0.416 A  
HETATM   23  C   UNL     1     -11.707  12.213  63.168  1.00  0.00    -0.295 A  
HETATM   24  C   UNL     1     -10.269  10.568  64.897  1.00  0.00    -0.371 A  
ENDBRANCH  18  19
ENDBRANCH   8  18
BRANCH  13  25
HETATM   25  N   UNL     1      -7.636  10.436  67.580  1.00  0.00    -0.093 N  
HETATM   26  O   UNL     1      -7.046   8.398  68.449  1.00  0.00    -0.077 OA 
HETATM   27  C   UNL     1      -7.150   9.137  67.480  1.00  0.00    -0.079 C  
HETATM   28  H   UNL     1      -7.242  11.071  66.886  1.00  0.00     0.000 HD 
BRANCH  27  29
HETATM   29  C   UNL     1      -6.683   8.742  66.005  1.00  0.00    -0.068 C  
HETATM   30  C   UNL     1      -5.593   7.639  65.874  1.00  0.00    -0.033 C  
HETATM   31  N   UNL     1      -5.700   6.750  64.684  1.00  0.00    -0.031 NA 
HETATM   32  C   UNL     1      -5.380   7.353  63.393  1.00  0.00    -0.034 C  
HETATM   33  C   UNL     1      -6.970   5.984  64.670  1.00  0.00    -0.052 C  
HETATM   34  C   UNL     1      -6.727   4.636  65.443  1.00  0.00    -0.052 C  
HETATM   35  C   UNL     1      -7.033   4.787  66.883  1.00  0.00    -0.060 A  
HETATM   36  C   UNL     1      -6.510   4.288  68.061  1.00  0.00    -0.038 A  
HETATM   37  N   UNL     1      -7.220   4.827  69.097  1.00  0.00    -0.052 NA 
HETATM   38  H   UNL     1      -7.002   4.693  70.085  1.00  0.00     0.000 HD 
HETATM   39  C   UNL     1      -8.270   5.576  68.617  1.00  0.00    -0.102 A  
HETATM   40  C   UNL     1      -9.310   6.266  69.232  1.00  0.00    -0.139 A  
HETATM   41  C   UNL     1     -10.195   6.948  68.377  1.00  0.00    -0.191 A  
HETATM   42  C   UNL     1      -9.953   7.070  67.001  1.00  0.00    -0.273 A  
HETATM   43  C   UNL     1      -8.820   6.489  66.435  1.00  0.00    -0.149 A  
HETATM   44  C   UNL     1      -8.086   5.630  67.253  1.00  0.00    -0.102 A  
HETATM   45  C   UNL     1      -8.239   6.858  65.088  1.00  0.00    -0.115 C  
HETATM   46  C   UNL     1      -7.880   8.377  65.084  1.00  0.00    -0.118 C  
ENDBRANCH  27  29
ENDBRANCH  13  25
TORSDOF 4
ENDMDL
MODEL      152
REMARK 921   NORMALIZED FREE ENERGY PREDICTED BY IDOCK:    4.37 KCAL/MOL
REMARK 922        TOTAL FREE ENERGY PREDICTED BY IDOCK:    4.16 KCAL/MOL
REMARK 923 INTER-LIGAND FREE ENERGY PREDICTED BY IDOCK:    4.96 KCAL/MOL
REMARK 924 INTRA-LIGAND FREE ENERGY PREDICTED BY IDOCK:   -0.80 KCAL/MOL
REMARK 927      BINDING AFFINITY PREDICTED BY RF-SCORE:    0.00 PKD
ROOT
HETATM    1  C   UNL     1     -10.152  10.097  66.967  1.00  0.00    -0.223 C  
HETATM    2  C   UNL     1     -11.367   9.184  67.135  1.00  0.00     1.090 C  
HETATM    3  C   UNL     1     -11.460   8.479  65.751  1.00  0.00     5.937 C  
HETATM    4  C   UNL     1     -10.497   9.229  64.824  1.00  0.00     2.617 C  
HETATM    5  N   UNL     1     -10.098  10.407  65.567  1.00  0.00    -0.287 N  
HETATM    6  C   UNL     1      -9.013  11.123  65.100  1.00  0.00    -0.093 C  
HETATM    7  O   UNL     1      -8.904  11.461  63.924  1.00  0.00     0.089 OA 
HETATM    8  C   UNL     1      -8.011  11.587  66.209  1.00  0.00     0.019 C  
HETATM    9  O   UNL     1      -9.330  12.508  68.350  1.00  0.00    -0.202 OA 
HETATM   10  N   UNL     1      -8.159  10.903  67.589  1.00  0.00    -0.114 N  
HETATM   11  C   UNL     1      -7.624  11.484  68.707  1.00  0.00    -0.129 C  
HETATM   12  H   UNL     1      -9.430  11.035  69.902  1.00  0.00     0.000 HD 
HETATM   13  C   UNL     1      -7.808  13.001  68.459  1.00  0.00    -0.105 C  
HETATM   14  O   UNL     1      -7.311  10.825  69.696  1.00  0.00    -0.145 OA 
HETATM   15  O   UNL     1      -9.831  10.451  69.268  1.00  0.00    -0.212 OA 
HETATM   16  C   UNL     1      -6.402  12.961  69.263  1.00  0.00    -0.108 C  
HETATM   17  C   UNL     1      -9.478  11.078  68.033  1.00  0.00    -0.166 C  
ENDROOT
BRANCH   8  18
HETATM   18  C   UNL     1      -6.558  11.610  65.709  1.00  0.00     0.949 C  
BRANCH  18  19
HETATM   19  C   UNL     1      -5.927  10.287  66.020  1.00  0.00    -0.089 A  
HETATM   20  C   UNL     1      -5.889   7.923  65.536  1.00  0.00    -0.038 A  
HETATM   21  C   UNL     1      -5.446   7.672  66.832  1.00  0.00    -0.028 A  
HETATM   22  C   UNL     1      -5.410  10.040  67.295  1.00  0.00    -0.041 A  
HETATM   23  C   UNL     1      -5.178   8.732  67.700  1.00  0.00    -0.034 A  
HETATM   24  C   UNL     1      -6.099   9.229  65.118  1.00  0.00    -0.064 A  
ENDBRANCH  18  19
ENDBRANCH   8  18
BRANCH  13  25
HETATM   25  N   UNL     1      -7.811  14.467  68.297  1.00  0.00    -0.123 N  
HETATM   26  O   UNL     1      -7.700  15.450  70.367  1.00  0.00     0.360 OA 
HETATM   27  C   UNL     1      -7.519  15.519  69.159  1.00  0.00    -0.191 C  
HETATM   28  H   UNL     1      -8.083  14.772  67.363  1.00  0.00     0.000 HD 
BRANCH  27  29
HETATM   29  C   UNL     1      -6.999  16.831  68.411  1.00  0.00    -0.170 C  
HETATM   30  C   UNL     1      -7.008  16.815  66.855  1.00  0.00    -0.222 C  
HETATM   31  N   UNL     1      -7.292  18.117  66.188  1.00  0.00    -0.321 NA 
HETATM   32  C   UNL     1      -6.242  19.129  66.268  1.00  0.00    -0.174 C  
HETATM   33  C   UNL     1      -8.635  18.642  66.538  1.00  0.00    -0.297 C  
HETATM   34  C   UNL     1      -9.660  18.075  65.488  1.00  0.00     0.766 C  
HETATM   35  C   UNL     1     -10.233  16.790  65.946  1.00  0.00    -0.345 A  
HETATM   36  C   UNL     1     -10.629  15.613  65.339  1.00  0.00    -0.415 A  
HETATM   37  N   UNL     1     -11.062  14.762  66.316  1.00  0.00    -0.338 NA 
HETATM   38  H   UNL     1     -11.340  13.792  66.163  1.00  0.00     0.000 HD 
HETATM   39  C   UNL     1     -11.067  15.399  67.536  1.00  0.00    -0.315 A  
HETATM   40  C   UNL     1     -11.469  15.015  68.811  1.00  0.00    -0.337 A  
HETATM   41  C   UNL     1     -11.290  15.966  69.833  1.00  0.00    -0.348 A  
HETATM   42  C   UNL     1     -10.592  17.163  69.618  1.00  0.00     0.008 A  
HETATM   43  C   UNL     1     -10.071  17.455  68.359  1.00  0.00    -0.347 A  
HETATM   44  C   UNL     1     -10.457  16.614  67.316  1.00  0.00    -0.313 A  
HETATM   45  C   UNL     1      -8.994  18.481  68.084  1.00  0.00    -0.326 C  
HETATM   46  C   UNL     1      -7.717  18.116  68.906  1.00  0.00    -0.213 C  
ENDBRANCH  27  29
ENDBRANCH  13  25
TORSDOF 4
ENDMDL
MODEL      153
REMARK 921   NORMALIZED FREE ENERGY PREDICTED BY IDOCK:    4.59 KCAL/MOL
REMARK 922        TOTAL FREE ENERGY PREDICTED BY IDOCK:    4.43 KCAL/MOL
REMARK 923 INTER-LIGAND FREE ENERGY PREDICTED BY IDOCK:    2.66 KCAL/MOL
REMARK 924 INTRA-LIGAND FREE ENERGY PREDICTED BY IDOCK:    1.76 KCAL/MOL
REMARK 927      BINDING AFFINITY PREDICTED BY RF-SCORE:    0.00 PKD
ROOT
HETATM    1  C   UNL     1     -11.320  16.029  70.349  1.00  0.00    -0.391 C  
HETATM    2  C   UNL     1     -12.475  15.966  71.350  1.00  0.00    -0.459 C  
HETATM    3  C   UNL     1     -11.740  15.772  72.708  1.00  0.00    -0.515 C  
HETATM    4  C   UNL     1     -10.280  15.459  72.363  1.00  0.00     3.085 C  
HETATM    5  N   UNL     1     -10.268  15.246  70.929  1.00  0.00     0.290 N  
HETATM    6  C   UNL     1      -9.041  15.230  70.295  1.00  0.00     0.716 C  
HETATM    7  O   UNL     1      -8.097  14.559  70.703  1.00  0.00     1.304 OA 
HETATM    8  C   UNL     1      -8.996  16.017  68.943  1.00  0.00    -0.239 C  
HETATM    9  O   UNL     1     -11.198  15.538  67.495  1.00  0.00    -0.322 OA 
HETATM   10  N   UNL     1     -10.177  16.982  68.678  1.00  0.00    -0.300 N  
HETATM   11  C   UNL     1     -10.444  17.412  67.405  1.00  0.00    -0.336 C  
HETATM   12  H   UNL     1     -12.620  17.129  67.681  1.00  0.00     0.000 HD 
HETATM   13  C   UNL     1     -10.100  16.187  66.523  1.00  0.00    -0.291 C  
HETATM   14  O   UNL     1     -11.028  18.471  67.186  1.00  0.00    -0.333 OA 
HETATM   15  O   UNL     1     -12.588  16.995  68.621  1.00  0.00     1.652 OA 
HETATM   16  C   UNL     1      -9.664  17.422  65.568  1.00  0.00     0.378 C  
HETATM   17  C   UNL     1     -11.374  16.256  68.767  1.00  0.00    -0.329 C  
ENDROOT
BRANCH   8  18
HETATM   18  C   UNL     1      -7.628  16.670  68.694  1.00  0.00    -0.214 C  
BRANCH  18  19
HETATM   19  C   UNL     1      -6.557  15.691  69.071  1.00  0.00    -0.130 A  
HETATM   20  C   UNL     1      -5.739  13.433  68.842  1.00  0.00    -0.074 A  
HETATM   21  C   UNL     1      -5.145  13.529  70.098  1.00  0.00    -0.094 A  
HETATM   22  C   UNL     1      -5.898  15.813  70.297  1.00  0.00    -0.126 A  
HETATM   23  C   UNL     1      -5.199  14.729  70.811  1.00  0.00    -0.129 A  
HETATM   24  C   UNL     1      -6.417  14.521  68.314  1.00  0.00    -0.118 A  
ENDBRANCH  18  19
ENDBRANCH   8  18
BRANCH  13  25
HETATM   25  N   UNL     1      -9.698  15.144  65.560  1.00  0.00    -0.377 N  
HETATM   26  O   UNL     1      -8.520  13.517  66.667  1.00  0.00    -0.038 OA 
HETATM   27  C   UNL     1      -9.203  13.854  65.709  1.00  0.00     0.300 C  
HETATM   28  H   UNL     1      -9.804  15.428  64.586  1.00  0.00     0.000 HD 
BRANCH  27  29
HETATM   29  C   UNL     1      -9.553  12.890  64.485  1.00  0.00     0.292 C  
HETATM   30  C   UNL     1      -8.641  11.647  64.273  1.00  0.00     0.860 C  
HETATM   31  N   UNL     1      -9.311  10.426  63.745  1.00  0.00    -0.265 NA 
HETATM   32  C   UNL     1      -9.735  10.471  62.348  1.00  0.00    -0.038 C  
HETATM   33  C   UNL     1     -10.368   9.928  64.659  1.00  0.00     0.666 C  
HETATM   34  C   UNL     1      -9.699   8.920  65.664  1.00  0.00    -0.107 C  
HETATM   35  C   UNL     1      -9.220   9.619  66.877  1.00  0.00    -0.172 A  
HETATM   36  C   UNL     1      -8.140   9.489  67.729  1.00  0.00    -0.106 A  
HETATM   37  N   UNL     1      -8.231  10.469  68.676  1.00  0.00    -0.122 NA 
HETATM   38  H   UNL     1      -7.526  10.659  69.389  1.00  0.00     0.000 HD 
HETATM   39  C   UNL     1      -9.410  11.165  68.530  1.00  0.00    -0.190 A  
HETATM   40  C   UNL     1     -10.008  12.191  69.254  1.00  0.00     0.444 A  
HETATM   41  C   UNL     1     -11.238  12.664  68.761  1.00  0.00    -0.325 A  
HETATM   42  C   UNL     1     -11.752  12.250  67.523  1.00  0.00    -0.402 A  
HETATM   43  C   UNL     1     -11.053  11.325  66.749  1.00  0.00    -0.314 A  
HETATM   44  C   UNL     1      -9.964  10.702  67.357  1.00  0.00    -0.213 A  
HETATM   45  C   UNL     1     -11.273  11.092  65.271  1.00  0.00     0.104 C  
HETATM   46  C   UNL     1     -11.036  12.430  64.501  1.00  0.00    -0.355 C  
ENDBRANCH  27  29
ENDBRANCH  13  25
TORSDOF 4
ENDMDL
MODEL      154
REMARK 921   NORMALIZED FREE ENERGY PREDICTED BY IDOCK:    5.36 KCAL/MOL
REMARK 922        TOTAL FREE ENERGY PREDICTED BY IDOCK:    5.37 KCAL/MOL
REMARK 923 INTER-LIGAND FREE ENERGY PREDICTED BY IDOCK:    2.91 KCAL/MOL
REMARK 924 INTRA-LIGAND FREE ENERGY PREDICTED BY IDOCK:    2.46 KCAL/MOL
REMARK 927      BINDING AFFINITY PREDICTED BY RF-SCORE:    0.00 PKD
ROOT
HETATM    1  C   UNL     1     -10.330   7.935  68.499  1.00  0.00    -0.200 C  
HETATM    2  C   UNL     1     -11.263   7.002  69.272  1.00  0.00    -0.114 C  
HETATM    3  C   UNL     1     -11.400   5.783  68.315  1.00  0.00     0.531 C  
HETATM    4  C   UNL     1     -10.785   6.217  66.980  1.00  0.00    -0.350 C  
HETATM    5  N   UNL     1     -10.560   7.643  67.113  1.00  0.00    -0.340 N  
HETATM    6  C   UNL     1      -9.752   8.254  66.175  1.00  0.00    -0.119 C  
HETATM    7  O   UNL     1      -9.902   8.088  64.967  1.00  0.00     1.334 OA 
HETATM    8  C   UNL     1      -8.727   9.279  66.765  1.00  0.00    -0.127 C  
HETATM    9  O   UNL     1      -9.884  10.795  68.646  1.00  0.00    -0.169 OA 
HETATM   10  N   UNL     1      -8.504   9.213  68.295  1.00  0.00    -0.124 N  
HETATM   11  C   UNL     1      -7.954  10.278  68.958  1.00  0.00    -0.125 C  
HETATM   12  H   UNL     1      -9.408  10.099  70.615  1.00  0.00     0.000 HD 
HETATM   13  C   UNL     1      -8.517  11.510  68.208  1.00  0.00    -0.159 C  
HETATM   14  O   UNL     1      -7.352  10.142  70.021  1.00  0.00    -0.146 OA 
HETATM   15  O   UNL     1      -9.755   9.253  70.358  1.00  0.00    -0.207 OA 
HETATM   16  C   UNL     1      -7.034  12.017  68.622  1.00  0.00    -0.096 C  
HETATM   17  C   UNL     1      -9.746   9.358  68.932  1.00  0.00    -0.164 C  
ENDROOT
BRANCH   8  18
HETATM   18  C   UNL     1      -7.411   9.310  65.973  1.00  0.00    -0.095 C  
BRANCH  18  19
HETATM   19  C   UNL     1      -7.145   7.936  65.437  1.00  0.00    -0.060 A  
HETATM   20  C   UNL     1      -7.343   5.562  65.825  1.00  0.00    -0.073 A  
HETATM   21  C   UNL     1      -6.210   5.348  65.044  1.00  0.00    -0.033 A  
HETATM   22  C   UNL     1      -6.055   7.713  64.593  1.00  0.00    -0.038 A  
HETATM   23  C   UNL     1      -5.585   6.420  64.404  1.00  0.00    -0.025 A  
HETATM   24  C   UNL     1      -7.830   6.849  65.996  1.00  0.00    -0.104 A  
ENDBRANCH  18  19
ENDBRANCH   8  18
BRANCH  13  25
HETATM   25  N   UNL     1      -8.881  12.760  67.514  1.00  0.00    -0.176 N  
HETATM   26  O   UNL     1      -7.005  13.647  66.536  1.00  0.00     0.995 OA 
HETATM   27  C   UNL     1      -8.224  13.553  66.580  1.00  0.00     0.584 C  
HETATM   28  H   UNL     1      -9.802  13.113  67.771  1.00  0.00     0.000 HD 
BRANCH  27  29
HETATM   29  C   UNL     1      -9.214  14.372  65.630  1.00  0.00     0.319 C  
HETATM   30  C   UNL     1     -10.732  14.044  65.730  1.00  0.00    -0.293 C  
HETATM   31  N   UNL     1     -11.664  15.187  65.520  1.00  0.00    -0.147 NA 
HETATM   32  C   UNL     1     -11.766  15.698  64.155  1.00  0.00    -0.075 C  
HETATM   33  C   UNL     1     -11.473  16.257  66.529  1.00  0.00     0.609 C  
HETATM   34  C   UNL     1     -12.411  15.938  67.751  1.00  0.00     1.486 C  
HETATM   35  C   UNL     1     -11.712  15.105  68.754  1.00  0.00    -0.366 A  
HETATM   36  C   UNL     1     -12.071  14.082  69.611  1.00  0.00    -0.355 A  
HETATM   37  N   UNL     1     -10.951  13.688  70.287  1.00  0.00    -0.119 NA 
HETATM   38  H   UNL     1     -10.907  12.898  70.931  1.00  0.00     0.000 HD 
HETATM   39  C   UNL     1      -9.892  14.510  69.976  1.00  0.00     0.661 A  
HETATM   40  C   UNL     1      -8.578  14.584  70.425  1.00  0.00     1.765 A  
HETATM   41  C   UNL     1      -7.773  15.575  69.832  1.00  0.00     0.078 A  
HETATM   42  C   UNL     1      -8.211  16.330  68.735  1.00  0.00    -0.227 A  
HETATM   43  C   UNL     1      -9.487  16.130  68.212  1.00  0.00    -0.208 A  
HETATM   44  C   UNL     1     -10.343  15.315  68.953  1.00  0.00    -0.243 A  
HETATM   45  C   UNL     1      -9.938  16.570  66.837  1.00  0.00    -0.273 C  
HETATM   46  C   UNL     1      -9.021  15.908  65.761  1.00  0.00    -0.095 C  
ENDBRANCH  27  29
ENDBRANCH  13  25
TORSDOF 4
ENDMDL
MODEL      155
REMARK 921   NORMALIZED FREE ENERGY PREDICTED BY IDOCK:    5.81 KCAL/MOL
REMARK 922        TOTAL FREE ENERGY PREDICTED BY IDOCK:    5.93 KCAL/MOL
REMARK 923 INTER-LIGAND FREE ENERGY PREDICTED BY IDOCK:    7.06 KCAL/MOL
REMARK 924 INTRA-LIGAND FREE ENERGY PREDICTED BY IDOCK:   -1.13 KCAL/MOL
REMARK 927      BINDING AFFINITY PREDICTED BY RF-SCORE:    0.00 PKD
ROOT
HETATM    1  C   UNL     1     -10.670  10.871  67.907  1.00  0.00    -0.231 C  
HETATM    2  C   UNL     1     -11.473   9.630  67.513  1.00  0.00     0.846 C  
HETATM    3  C   UNL     1     -10.392   8.711  66.874  1.00  0.00    -0.355 C  
HETATM    4  C   UNL     1      -9.144   9.582  66.693  1.00  0.00    -0.148 C  
HETATM    5  N   UNL     1      -9.583  10.935  66.973  1.00  0.00    -0.172 N  
HETATM    6  C   UNL     1      -8.611  11.896  67.170  1.00  0.00    -0.172 C  
HETATM    7  O   UNL     1      -7.665  12.044  66.400  1.00  0.00     0.077 OA 
HETATM    8  C   UNL     1      -8.887  12.868  68.365  1.00  0.00    -0.120 C  
HETATM    9  O   UNL     1     -11.458  13.616  68.402  1.00  0.00    -0.270 OA 
HETATM   10  N   UNL     1      -9.982  12.424  69.364  1.00  0.00     0.576 N  
HETATM   11  C   UNL     1     -10.569  13.340  70.196  1.00  0.00     1.456 C  
HETATM   12  H   UNL     1     -12.580  12.493  69.840  1.00  0.00     0.000 HD 
HETATM   13  C   UNL     1     -10.637  14.627  69.338  1.00  0.00    -0.196 C  
HETATM   14  O   UNL     1     -11.075  13.014  71.268  1.00  0.00     2.443 OA 
HETATM   15  O   UNL     1     -12.285  11.706  69.398  1.00  0.00    -0.271 OA 
HETATM   16  C   UNL     1     -10.376  15.225  70.821  1.00  0.00     0.198 C  
HETATM   17  C   UNL     1     -11.168  12.195  68.651  1.00  0.00    -0.269 C  
ENDROOT
BRANCH   8  18
HETATM   18  C   UNL     1      -7.593  13.317  69.062  1.00  0.00     0.119 C  
BRANCH  18  19
HETATM   19  C   UNL     1      -6.936  12.114  69.668  1.00  0.00     0.194 A  
HETATM   20  C   UNL     1      -7.240   9.861  70.478  1.00  0.00    -0.099 A  
HETATM   21  C   UNL     1      -6.178  10.043  71.359  1.00  0.00     0.198 A  
HETATM   22  C   UNL     1      -5.823  12.269  70.499  1.00  0.00    -0.118 A  
HETATM   23  C   UNL     1      -5.451  11.235  71.348  1.00  0.00     0.112 A  
HETATM   24  C   UNL     1      -7.600  10.882  69.611  1.00  0.00     0.012 A  
ENDBRANCH  18  19
ENDBRANCH   8  18
BRANCH  13  25
HETATM   25  N   UNL     1     -10.655  15.946  68.678  1.00  0.00    -0.239 N  
HETATM   26  O   UNL     1     -12.811  16.459  68.088  1.00  0.00     1.799 OA 
HETATM   27  C   UNL     1     -11.676  16.831  68.353  1.00  0.00     0.416 C  
HETATM   28  H   UNL     1      -9.730  16.275  68.405  1.00  0.00     0.000 HD 
BRANCH  27  29
HETATM   29  C   UNL     1     -11.204  18.356  68.291  1.00  0.00     0.720 C  
HETATM   30  C   UNL     1      -9.695  18.645  68.543  1.00  0.00    -0.370 C  
HETATM   31  N   UNL     1      -9.110  19.783  67.780  1.00  0.00    -0.326 NA 
HETATM   32  C   UNL     1      -9.533  21.121  68.185  1.00  0.00     0.592 C  
HETATM   33  C   UNL     1      -9.182  19.569  66.314  1.00  0.00    -0.365 C  
HETATM   34  C   UNL     1      -7.871  18.821  65.872  1.00  0.00    -0.101 C  
HETATM   35  C   UNL     1      -8.054  17.353  65.923  1.00  0.00    -0.050 A  
HETATM   36  C   UNL     1      -7.259  16.270  66.245  1.00  0.00     0.373 A  
HETATM   37  N   UNL     1      -8.019  15.141  66.124  1.00  0.00     0.140 NA 
HETATM   38  H   UNL     1      -7.711  14.201  66.374  1.00  0.00     0.000 HD 
HETATM   39  C   UNL     1      -9.260  15.453  65.616  1.00  0.00    -0.004 A  
HETATM   40  C   UNL     1     -10.361  14.686  65.247  1.00  0.00    -0.425 A  
HETATM   41  C   UNL     1     -11.483  15.395  64.780  1.00  0.00    -0.337 A  
HETATM   42  C   UNL     1     -11.557  16.794  64.840  1.00  0.00     0.586 A  
HETATM   43  C   UNL     1     -10.490  17.530  65.352  1.00  0.00     0.041 A  
HETATM   44  C   UNL     1      -9.308  16.830  65.592  1.00  0.00     0.151 A  
HETATM   45  C   UNL     1     -10.578  18.962  65.831  1.00  0.00    -0.438 C  
HETATM   46  C   UNL     1     -11.637  19.056  66.975  1.00  0.00     1.087 C  
ENDBRANCH  27  29
ENDBRANCH  13  25
TORSDOF 4
ENDMDL
MODEL      156
REMARK 921   NORMALIZED FREE ENERGY PREDICTED BY IDOCK:    5.91 KCAL/MOL
REMARK 922        TOTAL FREE ENERGY PREDICTED BY IDOCK:    6.06 KCAL/MOL
REMARK 923 INTER-LIGAND FREE ENERGY PREDICTED BY IDOCK:    6.06 KCAL/MOL
REMARK 924 INTRA-LIGAND FREE ENERGY PREDICTED BY IDOCK:   -0.00 KCAL/MOL
REMARK 927      BINDING AFFINITY PREDICTED BY RF-SCORE:    0.00 PKD
ROOT
HETATM    1  C   UNL     1      -9.476  12.794  69.503  1.00  0.00     1.511 C  
HETATM    2  C   UNL     1      -9.225  14.076  70.298  1.00  0.00     2.540 C  
HETATM    3  C   UNL     1      -8.255  14.868  69.374  1.00  0.00    -0.084 C  
HETATM    4  C   UNL     1      -7.808  13.888  68.283  1.00  0.00    -0.146 C  
HETATM    5  N   UNL     1      -8.291  12.592  68.718  1.00  0.00     0.051 N  
HETATM    6  C   UNL     1      -8.288  11.565  67.796  1.00  0.00    -0.136 C  
HETATM    7  O   UNL     1      -7.304  11.300  67.108  1.00  0.00    -0.114 OA 
HETATM    8  C   UNL     1      -9.579  10.680  67.799  1.00  0.00    -0.157 C  
HETATM    9  O   UNL     1     -10.357  10.153  70.307  1.00  0.00    -0.267 OA 
HETATM   10  N   UNL     1     -10.801  11.264  68.548  1.00  0.00    -0.190 N  
HETATM   11  C   UNL     1     -11.823  10.443  68.945  1.00  0.00     0.024 C  
HETATM   12  H   UNL     1     -11.960  11.436  70.916  1.00  0.00     0.000 HD 
HETATM   13  C   UNL     1     -11.109   9.125  69.331  1.00  0.00    -0.008 C  
HETATM   14  O   UNL     1     -12.965  10.864  69.116  1.00  0.00     0.026 OA 
HETATM   15  O   UNL     1     -11.400  12.173  70.701  1.00  0.00     0.449 OA 
HETATM   16  C   UNL     1     -12.506   8.582  68.716  1.00  0.00     4.552 C  
HETATM   17  C   UNL     1     -10.418  11.555  69.866  1.00  0.00     0.668 C  
ENDROOT
BRANCH   8  18
HETATM   18  C   UNL     1      -9.933  10.161  66.397  1.00  0.00    -0.295 C  
BRANCH  18  19
HETATM   19  C   UNL     1      -9.182   8.886  66.158  1.00  0.00    -0.273 A  
HETATM   20  C   UNL     1      -9.308   6.479  66.038  1.00  0.00    -0.039 A  
HETATM   21  C   UNL     1      -7.974   6.398  66.426  1.00  0.00    -0.110 A  
HETATM   22  C   UNL     1      -7.823   8.805  66.472  1.00  0.00    -0.103 A  
HETATM   23  C   UNL     1      -7.223   7.560  66.613  1.00  0.00    -0.083 A  
HETATM   24  C   UNL     1      -9.905   7.721  65.873  1.00  0.00     0.346 A  
ENDBRANCH  18  19
ENDBRANCH   8  18
BRANCH  13  25
HETATM   25  N   UNL     1     -10.573   7.781  69.616  1.00  0.00    -0.243 N  
HETATM   26  O   UNL     1     -10.418   7.502  71.888  1.00  0.00    -0.199 OA 
HETATM   27  C   UNL     1     -10.508   7.010  70.771  1.00  0.00    -0.212 C  
HETATM   28  H   UNL     1     -10.168   7.324  68.800  1.00  0.00     0.000 HD 
BRANCH  27  29
HETATM   29  C   UNL     1     -10.489   5.438  70.489  1.00  0.00    -0.335 C  
HETATM   30  C   UNL     1      -9.466   4.914  69.440  1.00  0.00    -0.152 C  
HETATM   31  N   UNL     1      -8.891   3.565  69.701  1.00  0.00    -0.082 NA 
HETATM   32  C   UNL     1      -9.795   2.431  69.528  1.00  0.00     0.359 C  
HETATM   33  C   UNL     1      -8.135   3.517  70.977  1.00  0.00    -0.065 C  
HETATM   34  C   UNL     1      -6.642   3.905  70.665  1.00  0.00    -0.032 C  
HETATM   35  C   UNL     1      -6.435   5.364  70.795  1.00  0.00    -0.035 A  
HETATM   36  C   UNL     1      -5.671   6.314  70.144  1.00  0.00    -0.014 A  
HETATM   37  N   UNL     1      -5.933   7.527  70.716  1.00  0.00    -0.034 NA 
HETATM   38  H   UNL     1      -5.566   8.420  70.385  1.00  0.00     0.000 HD 
HETATM   39  C   UNL     1      -6.762   7.372  71.804  1.00  0.00    -0.053 A  
HETATM   40  C   UNL     1      -7.267   8.256  72.752  1.00  0.00    -0.136 A  
HETATM   41  C   UNL     1      -8.124   7.704  73.722  1.00  0.00    -0.205 A  
HETATM   42  C   UNL     1      -8.581   6.380  73.643  1.00  0.00    -0.129 A  
HETATM   43  C   UNL     1      -8.170   5.559  72.596  1.00  0.00    -0.113 A  
HETATM   44  C   UNL     1      -7.148   6.050  71.783  1.00  0.00    -0.086 A  
HETATM   45  C   UNL     1      -8.863   4.283  72.173  1.00  0.00    -0.130 C  
HETATM   46  C   UNL     1     -10.343   4.606  71.793  1.00  0.00    -0.208 C  
ENDBRANCH  27  29
ENDBRANCH  13  25
TORSDOF 4
ENDMDL
MODEL      157
REMARK 921   NORMALIZED FREE ENERGY PREDICTED BY IDOCK:    7.00 KCAL/MOL
REMARK 922        TOTAL FREE ENERGY PREDICTED BY IDOCK:    7.40 KCAL/MOL
REMARK 923 INTER-LIGAND FREE ENERGY PREDICTED BY IDOCK:    3.16 KCAL/MOL
REMARK 924 INTRA-LIGAND FREE ENERGY PREDICTED BY IDOCK:    4.25 KCAL/MOL
REMARK 927      BINDING AFFINITY PREDICTED BY RF-SCORE:    0.00 PKD
ROOT
HETATM    1  C   UNL     1      -6.970   8.759  72.286  1.00  0.00     0.039 C  
HETATM    2  C   UNL     1      -7.213   9.775  73.402  1.00  0.00     2.398 C  
HETATM    3  C   UNL     1      -6.335   9.226  74.564  1.00  0.00     0.073 C  
HETATM    4  C   UNL     1      -5.893   7.822  74.137  1.00  0.00    -0.073 C  
HETATM    5  N   UNL     1      -6.672   7.524  72.952  1.00  0.00    -0.064 N  
HETATM    6  C   UNL     1      -6.280   6.446  72.182  1.00  0.00    -0.042 C  
HETATM    7  O   UNL     1      -6.041   5.342  72.666  1.00  0.00    -0.026 OA 
HETATM    8  C   UNL     1      -6.304   6.704  70.638  1.00  0.00    -0.040 C  
HETATM    9  O   UNL     1      -8.513   8.048  69.938  1.00  0.00    -0.123 OA 
HETATM   10  N   UNL     1      -6.406   8.184  70.197  1.00  0.00    -0.032 N  
HETATM   11  C   UNL     1      -6.820   8.499  68.931  1.00  0.00    -0.061 C  
HETATM   12  H   UNL     1      -8.110  10.135  69.674  1.00  0.00     0.000 HD 
HETATM   13  C   UNL     1      -7.877   7.416  68.608  1.00  0.00    -0.122 C  
HETATM   14  O   UNL     1      -6.502   9.555  68.387  1.00  0.00    -0.052 OA 
HETATM   15  O   UNL     1      -7.769  10.141  70.561  1.00  0.00    -0.232 OA 
HETATM   16  C   UNL     1      -7.193   7.660  67.159  1.00  0.00    -0.090 C  
HETATM   17  C   UNL     1      -7.543   8.749  70.794  1.00  0.00    -0.094 C  
ENDROOT
BRANCH   8  18
HETATM   18  C   UNL     1      -5.194   5.939  69.902  1.00  0.00    -0.008 C  
BRANCH  18  19
HETATM   19  C   UNL     1      -5.431   4.470  70.075  1.00  0.00    -0.012 A  
HETATM   20  C   UNL     1      -5.126   2.546  71.500  1.00  0.00     0.000 A  
HETATM   21  C   UNL     1      -5.126   1.724  70.377  1.00  0.00    -0.004 A  
HETATM   22  C   UNL     1      -5.506   3.637  68.956  1.00  0.00    -0.013 A  
HETATM   23  C   UNL     1      -5.346   2.266  69.109  1.00  0.00    -0.013 A  
HETATM   24  C   UNL     1      -5.310   3.913  71.355  1.00  0.00    -0.004 A  
ENDBRANCH  18  19
ENDBRANCH   8  18
BRANCH  13  25
HETATM   25  N   UNL     1      -8.811   6.381  68.126  1.00  0.00    -0.115 N  
HETATM   26  O   UNL     1      -9.197   6.702  65.889  1.00  0.00    -0.099 OA 
HETATM   27  C   UNL     1      -9.184   5.955  66.857  1.00  0.00    -0.124 C  
HETATM   28  H   UNL     1      -9.278   5.874  68.878  1.00  0.00     0.000 HD 
BRANCH  27  29
HETATM   29  C   UNL     1      -9.656   4.429  66.808  1.00  0.00    -0.216 C  
HETATM   30  C   UNL     1     -10.193   3.892  65.450  1.00  0.00    -0.042 C  
HETATM   31  N   UNL     1      -9.902   2.463  65.149  1.00  0.00     0.205 NA 
HETATM   32  C   UNL     1     -10.631   1.473  65.938  1.00  0.00     2.852 C  
HETATM   33  C   UNL     1      -8.445   2.192  65.078  1.00  0.00    -0.095 C  
HETATM   34  C   UNL     1      -7.986   2.421  63.590  1.00  0.00    -0.073 C  
HETATM   35  C   UNL     1      -7.562   3.822  63.375  1.00  0.00    -0.059 A  
HETATM   36  C   UNL     1      -7.649   4.732  62.339  1.00  0.00    -0.055 A  
HETATM   37  N   UNL     1      -7.085   5.903  62.759  1.00  0.00    -0.047 NA 
HETATM   38  H   UNL     1      -7.079   6.772  62.225  1.00  0.00     0.000 HD 
HETATM   39  C   UNL     1      -6.526   5.742  64.007  1.00  0.00    -0.033 A  
HETATM   40  C   UNL     1      -5.791   6.581  64.839  1.00  0.00    -0.030 A  
HETATM   41  C   UNL     1      -5.408   6.044  66.081  1.00  0.00    -0.013 A  
HETATM   42  C   UNL     1      -5.880   4.802  66.531  1.00  0.00    -0.022 A  
HETATM   43  C   UNL     1      -6.736   4.047  65.733  1.00  0.00    -0.045 A  
HETATM   44  C   UNL     1      -6.915   4.487  64.422  1.00  0.00    -0.046 A  
HETATM   45  C   UNL     1      -7.610   2.916  66.229  1.00  0.00    -0.076 C  
HETATM   46  C   UNL     1      -8.566   3.458  67.338  1.00  0.00    -0.119 C  
ENDBRANCH  27  29
ENDBRANCH  13  25
TORSDOF 4
ENDMDL
MODEL      158
REMARK 921   NORMALIZED FREE ENERGY PREDICTED BY IDOCK:    8.75 KCAL/MOL
REMARK 922        TOTAL FREE ENERGY PREDICTED BY IDOCK:    9.56 KCAL/MOL
REMARK 923 INTER-LIGAND FREE ENERGY PREDICTED BY IDOCK:    2.47 KCAL/MOL
REMARK 924 INTRA-LIGAND FREE ENERGY PREDICTED BY IDOCK:    7.09 KCAL/MOL
REMARK 927      BINDING AFFINITY PREDICTED BY RF-SCORE:    0.00 PKD
ROOT
HETATM    1  C   UNL     1      -7.945  14.910  68.915  1.00  0.00    -0.163 C  
HETATM    2  C   UNL     1      -7.763  16.420  68.746  1.00  0.00    -0.214 C  
HETATM    3  C   UNL     1      -9.078  16.993  69.347  1.00  0.00     0.223 C  
HETATM    4  C   UNL     1     -10.014  15.795  69.548  1.00  0.00    -0.283 C  
HETATM    5  N   UNL     1      -9.362  14.690  68.875  1.00  0.00    -0.189 N  
HETATM    6  C   UNL     1      -9.830  13.416  69.133  1.00  0.00     0.372 C  
HETATM    7  O   UNL     1     -11.024  13.131  69.085  1.00  0.00    -0.225 OA 
HETATM    8  C   UNL     1      -8.713  12.342  69.350  1.00  0.00     1.186 C  
HETATM    9  O   UNL     1      -6.747  12.647  67.557  1.00  0.00    -0.130 OA 
HETATM   10  N   UNL     1      -7.286  12.885  69.602  1.00  0.00     0.483 N  
HETATM   11  C   UNL     1      -6.198  12.075  69.417  1.00  0.00    -0.109 C  
HETATM   12  H   UNL     1      -5.073  13.685  68.400  1.00  0.00     0.000 HD 
HETATM   13  C   UNL     1      -6.596  11.190  68.211  1.00  0.00    -0.058 C  
HETATM   14  O   UNL     1      -5.135  12.270  70.004  1.00  0.00    -0.074 OA 
HETATM   15  O   UNL     1      -5.672  14.387  68.625  1.00  0.00    -0.080 OA 
HETATM   16  C   UNL     1      -5.712  10.165  69.101  1.00  0.00    -0.037 C  
HETATM   17  C   UNL     1      -6.937  13.729  68.537  1.00  0.00    -0.103 C  
ENDROOT
BRANCH   8  18
HETATM   18  C   UNL     1      -9.128  11.266  70.365  1.00  0.00     3.236 C  
BRANCH  18  19
HETATM   19  C   UNL     1     -10.449  10.697  69.944  1.00  0.00    -0.136 A  
HETATM   20  C   UNL     1     -12.265  10.811  68.359  1.00  0.00     0.421 A  
HETATM   21  C   UNL     1     -13.135  10.328  69.333  1.00  0.00     1.533 A  
HETATM   22  C   UNL     1     -11.307  10.141  70.896  1.00  0.00    -0.420 A  
HETATM   23  C   UNL     1     -12.650   9.964  70.591  1.00  0.00    -0.250 A  
HETATM   24  C   UNL     1     -10.918  10.966  68.652  1.00  0.00    -0.274 A  
ENDBRANCH  18  19
ENDBRANCH   8  18
BRANCH  13  25
HETATM   25  N   UNL     1      -6.894  10.205  67.154  1.00  0.00    -0.081 N  
HETATM   26  O   UNL     1      -8.482  11.073  65.746  1.00  0.00    -0.169 OA 
HETATM   27  C   UNL     1      -7.563  10.288  65.939  1.00  0.00    -0.134 C  
HETATM   28  H   UNL     1      -6.535   9.272  67.356  1.00  0.00     0.000 HD 
BRANCH  27  29
HETATM   29  C   UNL     1      -7.065   9.221  64.860  1.00  0.00    -0.101 C  
HETATM   30  C   UNL     1      -5.828   8.354  65.235  1.00  0.00    -0.044 C  
HETATM   31  N   UNL     1      -5.821   6.961  64.709  1.00  0.00    -0.035 NA 
HETATM   32  C   UNL     1      -5.611   6.810  63.272  1.00  0.00    -0.035 C  
HETATM   33  C   UNL     1      -6.966   6.166  65.216  1.00  0.00    -0.056 C  
HETATM   34  C   UNL     1      -6.519   5.480  66.559  1.00  0.00    -0.047 C  
HETATM   35  C   UNL     1      -6.823   6.343  67.722  1.00  0.00    -0.070 A  
HETATM   36  C   UNL     1      -6.217   6.617  68.934  1.00  0.00    -0.027 A  
HETATM   37  N   UNL     1      -6.982   7.541  69.587  1.00  0.00    -0.052 NA 
HETATM   38  H   UNL     1      -6.733   7.983  70.472  1.00  0.00     0.000 HD 
HETATM   39  C   UNL     1      -8.137   7.789  68.880  1.00  0.00    -0.126 A  
HETATM   40  C   UNL     1      -9.257   8.576  69.129  1.00  0.00    -0.150 A  
HETATM   41  C   UNL     1     -10.244   8.586  68.126  1.00  0.00    -0.254 A  
HETATM   42  C   UNL     1     -10.042   7.980  66.878  1.00  0.00    -0.362 A  
HETATM   43  C   UNL     1      -8.845   7.320  66.605  1.00  0.00    -0.151 A  
HETATM   44  C   UNL     1      -7.982   7.125  67.684  1.00  0.00    -0.114 A  
HETATM   45  C   UNL     1      -8.343   6.974  65.221  1.00  0.00    -0.100 C  
HETATM   46  C   UNL     1      -8.209   8.285  64.383  1.00  0.00    -0.130 C  
ENDBRANCH  27  29
ENDBRANCH  13  25
TORSDOF 4
ENDMDL
MODEL      159
REMARK 921   NORMALIZED FREE ENERGY PREDICTED BY IDOCK:   10.13 KCAL/MOL
REMARK 922        TOTAL FREE ENERGY PREDICTED BY IDOCK:   11.27 KCAL/MOL
REMARK 923 INTER-LIGAND FREE ENERGY PREDICTED BY IDOCK:    3.19 KCAL/MOL
REMARK 924 INTRA-LIGAND FREE ENERGY PREDICTED BY IDOCK:    8.08 KCAL/MOL
REMARK 927      BINDING AFFINITY PREDICTED BY RF-SCORE:    0.00 PKD
ROOT
HETATM    1  C   UNL     1      -6.821  16.734  67.744  1.00  0.00    -0.139 C  
HETATM    2  C   UNL     1      -5.838  17.719  68.378  1.00  0.00    -0.164 C  
HETATM    3  C   UNL     1      -6.221  19.068  67.703  1.00  0.00    -0.209 C  
HETATM    4  C   UNL     1      -7.173  18.716  66.555  1.00  0.00    -0.228 C  
HETATM    5  N   UNL     1      -7.117  17.271  66.447  1.00  0.00    -0.255 N  
HETATM    6  C   UNL     1      -8.090  16.647  65.690  1.00  0.00     0.903 C  
HETATM    7  O   UNL     1      -8.381  17.019  64.556  1.00  0.00     4.709 OA 
HETATM    8  C   UNL     1      -8.684  15.350  66.333  1.00  0.00    -0.272 C  
HETATM    9  O   UNL     1      -6.743  13.856  67.415  1.00  0.00    -0.233 OA 
HETATM   10  N   UNL     1      -8.387  15.139  67.837  1.00  0.00    -0.145 N  
HETATM   11  C   UNL     1      -8.511  13.894  68.396  1.00  0.00    -0.159 C  
HETATM   12  H   UNL     1      -6.631  14.133  69.536  1.00  0.00     0.000 HD 
HETATM   13  C   UNL     1      -8.050  12.937  67.270  1.00  0.00    -0.163 C  
HETATM   14  O   UNL     1      -8.734  13.739  69.595  1.00  0.00     0.856 OA 
HETATM   15  O   UNL     1      -6.526  15.062  69.370  1.00  0.00    -0.115 OA 
HETATM   16  C   UNL     1      -9.210  12.069  67.995  1.00  0.00    -0.192 C  
HETATM   17  C   UNL     1      -6.998  15.170  68.025  1.00  0.00    -0.133 C  
ENDROOT
BRANCH   8  18
HETATM   18  C   UNL     1     -10.169  15.156  65.987  1.00  0.00    -0.325 C  
BRANCH  18  19
HETATM   19  C   UNL     1     -10.962  15.188  67.258  1.00  0.00    -0.327 A  
HETATM   20  C   UNL     1     -12.118  13.888  68.931  1.00  0.00    -0.355 A  
HETATM   21  C   UNL     1     -12.966  14.965  69.172  1.00  0.00     0.873 A  
HETATM   22  C   UNL     1     -11.765  16.293  67.554  1.00  0.00     0.451 A  
HETATM   23  C   UNL     1     -12.769  16.177  68.506  1.00  0.00     1.780 A  
HETATM   24  C   UNL     1     -11.097  14.007  67.999  1.00  0.00    -0.282 A  
ENDBRANCH  18  19
ENDBRANCH   8  18
BRANCH  13  25
HETATM   25  N   UNL     1      -7.752  11.912  66.252  1.00  0.00    -0.362 N  
HETATM   26  O   UNL     1      -6.040  10.585  67.004  1.00  0.00    -0.053 OA 
HETATM   27  C   UNL     1      -7.012  10.735  66.277  1.00  0.00    -0.134 C  
HETATM   28  H   UNL     1      -8.177  12.106  65.345  1.00  0.00     0.000 HD 
BRANCH  27  29
HETATM   29  C   UNL     1      -7.511   9.644  65.222  1.00  0.00    -0.113 C  
HETATM   30  C   UNL     1      -6.913   8.213  65.341  1.00  0.00    -0.063 C  
HETATM   31  N   UNL     1      -7.824   7.090  64.982  1.00  0.00    -0.119 NA 
HETATM   32  C   UNL     1      -8.144   6.942  63.565  1.00  0.00     0.004 C  
HETATM   33  C   UNL     1      -9.021   7.040  65.858  1.00  0.00    -0.062 C  
HETATM   34  C   UNL     1      -8.672   6.135  67.097  1.00  0.00    -0.106 C  
HETATM   35  C   UNL     1      -8.110   6.942  68.202  1.00  0.00    -0.119 A  
HETATM   36  C   UNL     1      -7.144   6.752  69.171  1.00  0.00    -0.088 A  
HETATM   37  N   UNL     1      -7.052   7.901  69.905  1.00  0.00    -0.060 NA 
HETATM   38  H   UNL     1      -6.364   8.070  70.639  1.00  0.00     0.000 HD 
HETATM   39  C   UNL     1      -8.019   8.797  69.510  1.00  0.00    -0.096 A  
HETATM   40  C   UNL     1      -8.395  10.057  69.965  1.00  0.00    -0.137 A  
HETATM   41  C   UNL     1      -9.446  10.681  69.267  1.00  0.00    -0.152 A  
HETATM   42  C   UNL     1      -9.971  10.148  68.081  1.00  0.00    -0.170 A  
HETATM   43  C   UNL     1      -9.471   8.952  67.569  1.00  0.00    -0.172 A  
HETATM   44  C   UNL     1      -8.599   8.239  68.392  1.00  0.00    -0.133 A  
HETATM   45  C   UNL     1      -9.654   8.476  66.146  1.00  0.00    -0.276 C  
HETATM   46  C   UNL     1      -9.060   9.540  65.170  1.00  0.00    -0.281 C  
ENDBRANCH  27  29
ENDBRANCH  13  25
TORSDOF 4
ENDMDL
MODEL      160
REMARK 921   NORMALIZED FREE ENERGY PREDICTED BY IDOCK:   10.35 KCAL/MOL
REMARK 922        TOTAL FREE ENERGY PREDICTED BY IDOCK:   11.53 KCAL/MOL
REMARK 923 INTER-LIGAND FREE ENERGY PREDICTED BY IDOCK:    9.74 KCAL/MOL
REMARK 924 INTRA-LIGAND FREE ENERGY PREDICTED BY IDOCK:    1.78 KCAL/MOL
REMARK 927      BINDING AFFINITY PREDICTED BY RF-SCORE:    0.00 PKD
ROOT
HETATM    1  C   UNL     1      -7.341  10.149  71.615  1.00  0.00     2.125 C  
HETATM    2  C   UNL     1      -6.557  10.265  72.922  1.00  0.00     2.543 C  
HETATM    3  C   UNL     1      -6.078  11.745  72.905  1.00  0.00     3.319 C  
HETATM    4  C   UNL     1      -6.371  12.272  71.495  1.00  0.00     2.441 C  
HETATM    5  N   UNL     1      -6.744  11.103  70.725  1.00  0.00     0.718 N  
HETATM    6  C   UNL     1      -7.340  11.309  69.496  1.00  0.00     0.032 C  
HETATM    7  O   UNL     1      -6.876  12.080  68.660  1.00  0.00    -0.078 OA 
HETATM    8  C   UNL     1      -8.565  10.380  69.201  1.00  0.00    -0.164 C  
HETATM    9  O   UNL     1      -8.055   7.868  69.976  1.00  0.00    -0.113 OA 
HETATM   10  N   UNL     1      -9.160   9.632  70.417  1.00  0.00    -0.238 N  
HETATM   11  C   UNL     1      -9.949   8.528  70.229  1.00  0.00    -0.183 C  
HETATM   12  H   UNL     1      -8.951   7.436  71.873  1.00  0.00     0.000 HD 
HETATM   13  C   UNL     1      -9.324   7.833  68.995  1.00  0.00    -0.150 C  
HETATM   14  O   UNL     1     -10.786   8.178  71.060  1.00  0.00    -0.212 OA 
HETATM   15  O   UNL     1      -8.478   8.183  72.222  1.00  0.00    -0.139 OA 
HETATM   16  C   UNL     1     -10.901   7.519  68.795  1.00  0.00    -0.047 C  
HETATM   17  C   UNL     1      -8.137   8.892  71.029  1.00  0.00    -0.170 C  
ENDROOT
BRANCH   8  18
HETATM   18  C   UNL     1      -9.636  11.081  68.351  1.00  0.00    -0.181 C  
BRANCH  18  19
HETATM   19  C   UNL     1     -10.909  11.138  69.141  1.00  0.00    -0.284 A  
HETATM   20  C   UNL     1     -11.924  11.656  71.268  1.00  0.00     0.287 A  
HETATM   21  C   UNL     1     -12.921  10.720  71.012  1.00  0.00    -0.425 A  
HETATM   22  C   UNL     1     -11.951  10.254  68.852  1.00  0.00     0.193 A  
HETATM   23  C   UNL     1     -12.952  10.041  69.792  1.00  0.00     0.757 A  
HETATM   24  C   UNL     1     -10.936  11.889  70.323  1.00  0.00     0.855 A  
ENDBRANCH  18  19
ENDBRANCH   8  18
BRANCH  13  25
HETATM   25  N   UNL     1      -8.906   7.137  67.764  1.00  0.00    -0.124 N  
HETATM   26  O   UNL     1      -6.631   7.318  67.537  1.00  0.00    -0.052 OA 
HETATM   27  C   UNL     1      -7.670   6.726  67.278  1.00  0.00    -0.109 C  
HETATM   28  H   UNL     1      -9.682   6.911  67.142  1.00  0.00     0.000 HD 
BRANCH  27  29
HETATM   29  C   UNL     1      -7.755   5.463  66.305  1.00  0.00    -0.099 C  
HETATM   30  C   UNL     1      -8.901   5.449  65.253  1.00  0.00    -0.130 C  
HETATM   31  N   UNL     1      -8.585   4.805  63.947  1.00  0.00    -0.135 NA 
HETATM   32  C   UNL     1      -8.448   3.351  63.958  1.00  0.00    -0.090 C  
HETATM   33  C   UNL     1      -7.475   5.489  63.241  1.00  0.00    -0.060 C  
HETATM   34  C   UNL     1      -8.101   6.616  62.339  1.00  0.00    -0.088 C  
HETATM   35  C   UNL     1      -8.191   7.896  63.076  1.00  0.00    -0.050 A  
HETATM   36  C   UNL     1      -9.084   8.950  63.117  1.00  0.00     0.436 A  
HETATM   37  N   UNL     1      -8.627   9.852  64.036  1.00  0.00    -0.173 NA 
HETATM   38  H   UNL     1      -9.128  10.692  64.328  1.00  0.00     0.000 HD 
HETATM   39  C   UNL     1      -7.395   9.465  64.512  1.00  0.00    -0.105 A  
HETATM   40  C   UNL     1      -6.487  10.045  65.392  1.00  0.00    -0.106 A  
HETATM   41  C   UNL     1      -5.315   9.310  65.651  1.00  0.00    -0.040 A  
HETATM   42  C   UNL     1      -5.145   7.997  65.189  1.00  0.00    -0.028 A  
HETATM   43  C   UNL     1      -6.141   7.387  64.428  1.00  0.00    -0.037 A  
HETATM   44  C   UNL     1      -7.181   8.207  63.993  1.00  0.00    -0.091 A  
HETATM   45  C   UNL     1      -6.269   5.897  64.204  1.00  0.00    -0.025 C  
HETATM   46  C   UNL     1      -6.408   5.181  65.585  1.00  0.00    -0.035 C  
ENDBRANCH  27  29
ENDBRANCH  13  25
TORSDOF 4
ENDMDL
MODEL      161
REMARK 921   NORMALIZED FREE ENERGY PREDICTED BY IDOCK:   10.94 KCAL/MOL
REMARK 922        TOTAL FREE ENERGY PREDICTED BY IDOCK:   12.26 KCAL/MOL
REMARK 923 INTER-LIGAND FREE ENERGY PREDICTED BY IDOCK:   12.68 KCAL/MOL
REMARK 924 INTRA-LIGAND FREE ENERGY PREDICTED BY IDOCK:   -0.42 KCAL/MOL
REMARK 927      BINDING AFFINITY PREDICTED BY RF-SCORE:    0.00 PKD
ROOT
HETATM    1  C   UNL     1     -11.287  11.826  66.430  1.00  0.00    -0.297 C  
HETATM    2  C   UNL     1     -12.616  11.349  65.842  1.00  0.00     3.127 C  
HETATM    3  C   UNL     1     -12.279   9.910  65.356  1.00  0.00     7.909 C  
HETATM    4  C   UNL     1     -10.754   9.777  65.439  1.00  0.00     0.988 C  
HETATM    5  N   UNL     1     -10.272  11.118  65.704  1.00  0.00    -0.247 N  
HETATM    6  C   UNL     1      -8.961  11.257  66.115  1.00  0.00    -0.202 C  
HETATM    7  O   UNL     1      -8.026  10.716  65.529  1.00  0.00    -0.160 OA 
HETATM    8  C   UNL     1      -8.749  12.269  67.290  1.00  0.00    -0.188 C  
HETATM    9  O   UNL     1     -10.219  14.476  66.914  1.00  0.00    -0.259 OA 
HETATM   10  N   UNL     1     -10.022  12.694  68.059  1.00  0.00    -0.214 N  
HETATM   11  C   UNL     1     -10.020  13.833  68.820  1.00  0.00    -0.112 C  
HETATM   12  H   UNL     1     -12.017  14.428  68.077  1.00  0.00     0.000 HD 
HETATM   13  C   UNL     1      -9.112  14.805  68.028  1.00  0.00    -0.179 C  
HETATM   14  O   UNL     1     -10.787  13.981  69.770  1.00  0.00    -0.067 OA 
HETATM   15  O   UNL     1     -12.221  13.601  67.656  1.00  0.00    -0.326 OA 
HETATM   16  C   UNL     1      -8.781  15.210  69.562  1.00  0.00    -0.131 C  
HETATM   17  C   UNL     1     -10.945  13.216  67.140  1.00  0.00    -0.268 C  
ENDROOT
BRANCH   8  18
HETATM   18  C   UNL     1      -7.603  11.847  68.223  1.00  0.00    -0.116 C  
BRANCH  18  19
HETATM   19  C   UNL     1      -8.047  10.653  69.013  1.00  0.00    -0.148 A  
HETATM   20  C   UNL     1      -8.013   8.247  69.193  1.00  0.00    -0.112 A  
HETATM   21  C   UNL     1      -9.242   8.287  69.848  1.00  0.00    -0.154 A  
HETATM   22  C   UNL     1      -9.242  10.697  69.736  1.00  0.00     0.242 A  
HETATM   23  C   UNL     1      -9.840   9.513  70.145  1.00  0.00    -0.288 A  
HETATM   24  C   UNL     1      -7.400   9.429  68.804  1.00  0.00    -0.074 A  
ENDBRANCH  18  19
ENDBRANCH   8  18
BRANCH  13  25
HETATM   25  N   UNL     1      -8.178  15.783  67.441  1.00  0.00    -0.161 N  
HETATM   26  O   UNL     1      -6.045  14.952  67.568  1.00  0.00    -0.307 OA 
HETATM   27  C   UNL     1      -6.850  15.706  67.038  1.00  0.00     0.026 C  
HETATM   28  H   UNL     1      -8.591  16.705  67.302  1.00  0.00     0.000 HD 
BRANCH  27  29
HETATM   29  C   UNL     1      -6.473  16.737  65.878  1.00  0.00     0.959 C  
HETATM   30  C   UNL     1      -7.591  17.707  65.396  1.00  0.00     1.027 C  
HETATM   31  N   UNL     1      -7.144  19.063  64.974  1.00  0.00    -0.311 NA 
HETATM   32  C   UNL     1      -6.402  19.140  63.718  1.00  0.00     0.993 C  
HETATM   33  C   UNL     1      -6.493  19.807  66.080  1.00  0.00    -0.197 C  
HETATM   34  C   UNL     1      -7.612  20.602  66.848  1.00  0.00    -0.290 C  
HETATM   35  C   UNL     1      -8.174  19.793  67.952  1.00  0.00    -0.336 A  
HETATM   36  C   UNL     1      -9.423  19.635  68.523  1.00  0.00    -0.358 A  
HETATM   37  N   UNL     1      -9.316  18.702  69.516  1.00  0.00     0.282 NA 
HETATM   38  H   UNL     1     -10.098  18.332  70.056  1.00  0.00     0.000 HD 
HETATM   39  C   UNL     1      -8.000  18.334  69.684  1.00  0.00     0.758 A  
HETATM   40  C   UNL     1      -7.352  17.489  70.580  1.00  0.00     2.867 A  
HETATM   41  C   UNL     1      -5.962  17.351  70.411  1.00  0.00     0.104 A  
HETATM   42  C   UNL     1      -5.291  17.893  69.305  1.00  0.00    -0.191 A  
HETATM   43  C   UNL     1      -5.995  18.615  68.343  1.00  0.00    -0.199 A  
HETATM   44  C   UNL     1      -7.318  18.933  68.648  1.00  0.00    -0.343 A  
HETATM   45  C   UNL     1      -5.497  18.909  66.946  1.00  0.00    -0.151 C  
HETATM   46  C   UNL     1      -5.201  17.562  66.213  1.00  0.00    -0.220 C  
ENDBRANCH  27  29
ENDBRANCH  13  25
TORSDOF 4
ENDMDL
MODEL      162
REMARK 921   NORMALIZED FREE ENERGY PREDICTED BY IDOCK:   12.30 KCAL/MOL
REMARK 922        TOTAL FREE ENERGY PREDICTED BY IDOCK:   13.94 KCAL/MOL
REMARK 923 INTER-LIGAND FREE ENERGY PREDICTED BY IDOCK:   14.41 KCAL/MOL
REMARK 924 INTRA-LIGAND FREE ENERGY PREDICTED BY IDOCK:   -0.47 KCAL/MOL
REMARK 927      BINDING AFFINITY PREDICTED BY RF-SCORE:    0.00 PKD
ROOT
HETATM    1  C   UNL     1      -8.495   4.817  64.999  1.00  0.00    -0.137 C  
HETATM    2  C   UNL     1      -8.198   3.849  63.853  1.00  0.00    -0.091 C  
HETATM    3  C   UNL     1      -8.748   4.608  62.611  1.00  0.00    -0.125 C  
HETATM    4  C   UNL     1      -9.554   5.792  63.157  1.00  0.00     1.525 C  
HETATM    5  N   UNL     1      -9.652   5.556  64.584  1.00  0.00     0.572 N  
HETATM    6  C   UNL     1     -10.075   6.604  65.379  1.00  0.00     1.773 C  
HETATM    7  O   UNL     1     -11.076   7.267  65.117  1.00  0.00     5.720 OA 
HETATM    8  C   UNL     1      -9.265   6.785  66.705  1.00  0.00    -0.150 C  
HETATM    9  O   UNL     1      -8.788   4.413  67.854  1.00  0.00    -0.103 OA 
HETATM   10  N   UNL     1      -7.915   6.033  66.786  1.00  0.00    -0.101 N  
HETATM   11  C   UNL     1      -7.326   5.802  68.001  1.00  0.00    -0.073 C  
HETATM   12  H   UNL     1      -6.801   3.728  67.440  1.00  0.00     0.000 HD 
HETATM   13  C   UNL     1      -8.523   5.554  68.950  1.00  0.00    -0.101 C  
HETATM   14  O   UNL     1      -6.113   5.638  68.114  1.00  0.00    -0.017 OA 
HETATM   15  O   UNL     1      -7.006   3.815  66.516  1.00  0.00    -0.056 OA 
HETATM   16  C   UNL     1      -7.472   6.309  69.925  1.00  0.00    -0.084 C  
HETATM   17  C   UNL     1      -8.150   4.670  66.553  1.00  0.00    -0.103 C  
ENDROOT
BRANCH   8  18
HETATM   18  C   UNL     1      -9.150   8.260  67.121  1.00  0.00    -0.162 C  
BRANCH  18  19
HETATM   19  C   UNL     1      -8.156   8.932  66.223  1.00  0.00    -0.110 A  
HETATM   20  C   UNL     1      -7.302   9.130  63.974  1.00  0.00    -0.100 A  
HETATM   21  C   UNL     1      -6.057   9.481  64.486  1.00  0.00    -0.082 A  
HETATM   22  C   UNL     1      -6.927   9.358  66.733  1.00  0.00    -0.081 A  
HETATM   23  C   UNL     1      -5.878   9.625  65.864  1.00  0.00    -0.055 A  
HETATM   24  C   UNL     1      -8.360   8.886  64.838  1.00  0.00    -0.181 A  
ENDBRANCH  18  19
ENDBRANCH   8  18
BRANCH  13  25
HETATM   25  N   UNL     1      -9.568   5.419  69.982  1.00  0.00    -0.158 N  
HETATM   26  O   UNL     1     -11.033   7.173  69.799  1.00  0.00    -0.244 OA 
HETATM   27  C   UNL     1     -10.802   6.031  70.171  1.00  0.00    -0.339 C  
HETATM   28  H   UNL     1      -9.339   4.736  70.705  1.00  0.00     0.000 HD 
BRANCH  27  29
HETATM   29  C   UNL     1     -11.847   5.129  70.974  1.00  0.00     2.055 C  
HETATM   30  C   UNL     1     -11.342   3.755  71.503  1.00  0.00     2.581 C  
HETATM   31  N   UNL     1     -11.922   3.298  72.797  1.00  0.00     0.895 NA 
HETATM   32  C   UNL     1     -13.322   2.881  72.769  1.00  0.00     2.528 C  
HETATM   33  C   UNL     1     -11.615   4.231  73.908  1.00  0.00     0.329 C  
HETATM   34  C   UNL     1     -10.254   3.777  74.554  1.00  0.00    -0.248 C  
HETATM   35  C   UNL     1      -9.108   4.448  73.902  1.00  0.00    -0.104 A  
HETATM   36  C   UNL     1      -7.813   4.093  73.573  1.00  0.00    -0.085 A  
HETATM   37  N   UNL     1      -7.232   5.158  72.945  1.00  0.00    -0.087 NA 
HETATM   38  H   UNL     1      -6.303   5.151  72.524  1.00  0.00     0.000 HD 
HETATM   39  C   UNL     1      -8.081   6.242  72.961  1.00  0.00    -0.107 A  
HETATM   40  C   UNL     1      -7.956   7.558  72.526  1.00  0.00    -0.121 A  
HETATM   41  C   UNL     1      -9.085   8.379  72.702  1.00  0.00    -0.311 A  
HETATM   42  C   UNL     1     -10.318   7.867  73.129  1.00  0.00    -0.357 A  
HETATM   43  C   UNL     1     -10.451   6.510  73.418  1.00  0.00    -0.295 A  
HETATM   44  C   UNL     1      -9.273   5.765  73.460  1.00  0.00    -0.131 A  
HETATM   45  C   UNL     1     -11.765   5.767  73.504  1.00  0.00     0.738 C  
HETATM   46  C   UNL     1     -12.518   5.901  72.142  1.00  0.00     0.190 C  
ENDBRANCH  27  29
ENDBRANCH  13  25
TORSDOF 4
ENDMDL
MODEL      163
REMARK 921   NORMALIZED FREE ENERGY PREDICTED BY IDOCK:   12.82 KCAL/MOL
REMARK 922        TOTAL FREE ENERGY PREDICTED BY IDOCK:   14.58 KCAL/MOL
REMARK 923 INTER-LIGAND FREE ENERGY PREDICTED BY IDOCK:   13.50 KCAL/MOL
REMARK 924 INTRA-LIGAND FREE ENERGY PREDICTED BY IDOCK:    1.08 KCAL/MOL
REMARK 927      BINDING AFFINITY PREDICTED BY RF-SCORE:    0.00 PKD
ROOT
HETATM    1  C   UNL     1     -11.182  13.312  70.475  1.00  0.00     0.914 C  
HETATM    2  C   UNL     1     -11.887  14.550  71.029  1.00  0.00    -0.350 C  
HETATM    3  C   UNL     1     -13.202  13.962  71.619  1.00  0.00    -0.446 C  
HETATM    4  C   UNL     1     -13.284  12.515  71.119  1.00  0.00     0.102 C  
HETATM    5  N   UNL     1     -12.232  12.397  70.128  1.00  0.00    -0.271 N  
HETATM    6  C   UNL     1     -11.880  11.127  69.716  1.00  0.00    -0.349 C  
HETATM    7  O   UNL     1     -12.713  10.293  69.367  1.00  0.00     0.050 OA 
HETATM    8  C   UNL     1     -10.339  10.885  69.593  1.00  0.00    -0.038 C  
HETATM    9  O   UNL     1      -9.140  12.986  68.445  1.00  0.00    -0.191 OA 
HETATM   10  N   UNL     1      -9.429  11.936  70.272  1.00  0.00     3.350 N  
HETATM   11  C   UNL     1      -8.113  12.045  69.909  1.00  0.00     2.068 C  
HETATM   12  H   UNL     1      -8.216  14.255  69.903  1.00  0.00     0.000 HD 
HETATM   13  C   UNL     1      -8.122  11.748  68.390  1.00  0.00    -0.150 C  
HETATM   14  O   UNL     1      -7.264  12.500  70.674  1.00  0.00     1.639 OA 
HETATM   15  O   UNL     1      -9.064  14.320  70.326  1.00  0.00     1.372 OA 
HETATM   16  C   UNL     1      -6.705  11.109  68.849  1.00  0.00    -0.077 C  
HETATM   17  C   UNL     1      -9.755  13.202  69.764  1.00  0.00     1.925 C  
ENDROOT
BRANCH   8  18
HETATM   18  C   UNL     1      -9.946   9.442  69.944  1.00  0.00    -0.237 C  
BRANCH  18  19
HETATM   19  C   UNL     1     -10.818   8.970  71.068  1.00  0.00    -0.345 A  
HETATM   20  C   UNL     1     -10.897   7.882  73.221  1.00  0.00    -0.192 A  
HETATM   21  C   UNL     1     -12.182   7.428  72.936  1.00  0.00     0.355 A  
HETATM   22  C   UNL     1     -12.135   8.578  70.815  1.00  0.00    -0.075 A  
HETATM   23  C   UNL     1     -12.811   7.801  71.747  1.00  0.00    -0.352 A  
HETATM   24  C   UNL     1     -10.227   8.679  72.304  1.00  0.00    -0.372 A  
ENDBRANCH  18  19
ENDBRANCH   8  18
BRANCH  13  25
HETATM   25  N   UNL     1      -7.972  11.368  66.973  1.00  0.00    -0.151 N  
HETATM   26  O   UNL     1      -8.288  13.223  65.662  1.00  0.00     1.605 OA 
HETATM   27  C   UNL     1      -7.816  12.103  65.804  1.00  0.00     1.313 C  
HETATM   28  H   UNL     1      -7.986  10.359  66.820  1.00  0.00     0.000 HD 
BRANCH  27  29
HETATM   29  C   UNL     1      -7.030  11.318  64.656  1.00  0.00     1.316 C  
HETATM   30  C   UNL     1      -6.569   9.866  64.973  1.00  0.00    -0.110 C  
HETATM   31  N   UNL     1      -6.574   8.912  63.829  1.00  0.00    -0.088 NA 
HETATM   32  C   UNL     1      -5.548   9.117  62.810  1.00  0.00    -0.081 C  
HETATM   33  C   UNL     1      -7.932   8.728  63.261  1.00  0.00    -0.160 C  
HETATM   34  C   UNL     1      -8.619   7.542  64.031  1.00  0.00     0.420 C  
HETATM   35  C   UNL     1      -9.366   8.036  65.209  1.00  0.00     0.485 A  
HETATM   36  C   UNL     1      -9.618   7.569  66.485  1.00  0.00    -0.173 A  
HETATM   37  N   UNL     1     -10.367   8.509  67.136  1.00  0.00    -0.289 NA 
HETATM   38  H   UNL     1     -10.634   8.463  68.119  1.00  0.00     0.000 HD 
HETATM   39  C   UNL     1     -10.709   9.526  66.274  1.00  0.00     0.204 A  
HETATM   40  C   UNL     1     -11.496  10.665  66.408  1.00  0.00     0.664 A  
HETATM   41  C   UNL     1     -11.587  11.494  65.274  1.00  0.00     0.001 A  
HETATM   42  C   UNL     1     -10.798  11.283  64.134  1.00  0.00    -0.407 A  
HETATM   43  C   UNL     1      -9.908  10.213  64.087  1.00  0.00    -0.226 A  
HETATM   44  C   UNL     1     -10.002   9.278  65.118  1.00  0.00     0.349 A  
HETATM   45  C   UNL     1      -8.749  10.092  63.122  1.00  0.00    -0.211 C  
HETATM   46  C   UNL     1      -7.799  11.318  63.307  1.00  0.00     0.706 C  
ENDBRANCH  27  29
ENDBRANCH  13  25
TORSDOF 4
ENDMDL
MODEL      164
REMARK 921   NORMALIZED FREE ENERGY PREDICTED BY IDOCK:   13.20 KCAL/MOL
REMARK 922        TOTAL FREE ENERGY PREDICTED BY IDOCK:   15.04 KCAL/MOL
REMARK 923 INTER-LIGAND FREE ENERGY PREDICTED BY IDOCK:   14.49 KCAL/MOL
REMARK 924 INTRA-LIGAND FREE ENERGY PREDICTED BY IDOCK:    0.55 KCAL/MOL
REMARK 927      BINDING AFFINITY PREDICTED BY RF-SCORE:    0.00 PKD
ROOT
HETATM    1  C   UNL     1     -11.118   8.180  71.060  1.00  0.00    -0.253 C  
HETATM    2  C   UNL     1     -11.248   7.606  72.471  1.00  0.00    -0.399 C  
HETATM    3  C   UNL     1     -12.628   6.888  72.423  1.00  0.00     0.096 C  
HETATM    4  C   UNL     1     -13.297   7.335  71.119  1.00  0.00    -0.181 C  
HETATM    5  N   UNL     1     -12.463   8.408  70.615  1.00  0.00     0.138 N  
HETATM    6  C   UNL     1     -12.658   8.811  69.308  1.00  0.00     3.359 C  
HETATM    7  O   UNL     1     -13.772   9.062  68.855  1.00  0.00     6.520 OA 
HETATM    8  C   UNL     1     -11.341   9.058  68.499  1.00  0.00     0.571 C  
HETATM    9  O   UNL     1      -9.545  10.367  69.992  1.00  0.00    -0.061 OA 
HETATM   10  N   UNL     1     -10.043   8.491  69.122  1.00  0.00    -0.197 N  
HETATM   11  C   UNL     1      -8.822   8.968  68.724  1.00  0.00    -0.137 C  
HETATM   12  H   UNL     1      -8.081   9.032  70.807  1.00  0.00     0.000 HD 
HETATM   13  C   UNL     1      -9.082  10.471  68.459  1.00  0.00    -0.154 C  
HETATM   14  O   UNL     1      -7.799   8.293  68.819  1.00  0.00    -0.111 OA 
HETATM   15  O   UNL     1      -8.799   8.540  71.188  1.00  0.00    -0.147 OA 
HETATM   16  C   UNL     1      -7.977  10.116  67.328  1.00  0.00    -0.110 C  
HETATM   17  C   UNL     1      -9.910   9.007  70.419  1.00  0.00    -0.202 C  
ENDROOT
BRANCH   8  18
HETATM   18  C   UNL     1     -11.495   8.697  67.013  1.00  0.00     1.998 C  
BRANCH  18  19
HETATM   19  C   UNL     1     -10.767   7.412  66.757  1.00  0.00    -0.202 A  
HETATM   20  C   UNL     1      -9.096   6.288  65.427  1.00  0.00     0.160 A  
HETATM   21  C   UNL     1      -9.764   5.082  65.621  1.00  0.00    -0.124 A  
HETATM   22  C   UNL     1     -11.394   6.190  67.013  1.00  0.00     0.017 A  
HETATM   23  C   UNL     1     -10.895   5.028  66.439  1.00  0.00    -0.116 A  
HETATM   24  C   UNL     1      -9.577   7.447  66.019  1.00  0.00     0.070 A  
ENDBRANCH  18  19
ENDBRANCH   8  18
BRANCH  13  25
HETATM   25  N   UNL     1      -9.216  11.883  68.057  1.00  0.00    -0.184 N  
HETATM   26  O   UNL     1      -7.505  12.420  66.626  1.00  0.00     0.093 OA 
HETATM   27  C   UNL     1      -8.631  12.644  67.051  1.00  0.00    -0.181 C  
HETATM   28  H   UNL     1      -9.871  12.409  68.634  1.00  0.00     0.000 HD 
BRANCH  27  29
HETATM   29  C   UNL     1      -9.538  13.866  66.565  1.00  0.00    -0.299 C  
HETATM   30  C   UNL     1     -10.477  14.520  67.620  1.00  0.00    -0.246 C  
HETATM   31  N   UNL     1     -10.696  15.987  67.482  1.00  0.00    -0.317 NA 
HETATM   32  C   UNL     1     -11.511  16.417  66.349  1.00  0.00     0.721 C  
HETATM   33  C   UNL     1      -9.435  16.755  67.617  1.00  0.00    -0.234 C  
HETATM   34  C   UNL     1      -9.243  17.100  69.140  1.00  0.00    -0.042 C  
HETATM   35  C   UNL     1      -8.471  16.043  69.830  1.00  0.00     0.328 A  
HETATM   36  C   UNL     1      -8.491  15.467  71.086  1.00  0.00     3.362 A  
HETATM   37  N   UNL     1      -7.528  14.498  71.119  1.00  0.00     1.197 NA 
HETATM   38  H   UNL     1      -7.370  13.859  71.898  1.00  0.00     0.000 HD 
HETATM   39  C   UNL     1      -6.800  14.509  69.950  1.00  0.00    -0.097 A  
HETATM   40  C   UNL     1      -5.694  13.790  69.508  1.00  0.00    -0.095 A  
HETATM   41  C   UNL     1      -5.244  14.080  68.207  1.00  0.00    -0.111 A  
HETATM   42  C   UNL     1      -5.964  14.916  67.340  1.00  0.00     0.192 A  
HETATM   43  C   UNL     1      -7.152  15.508  67.765  1.00  0.00    -0.179 A  
HETATM   44  C   UNL     1      -7.454  15.394  69.121  1.00  0.00    -0.189 A  
HETATM   45  C   UNL     1      -8.204  16.091  66.848  1.00  0.00    -0.277 C  
HETATM   46  C   UNL     1      -8.706  14.980  65.873  1.00  0.00     0.517 C  
ENDBRANCH  27  29
ENDBRANCH  13  25
TORSDOF 4
ENDMDL
MODEL      165
REMARK 921   NORMALIZED FREE ENERGY PREDICTED BY IDOCK:   13.29 KCAL/MOL
REMARK 922        TOTAL FREE ENERGY PREDICTED BY IDOCK:   15.16 KCAL/MOL
REMARK 923 INTER-LIGAND FREE ENERGY PREDICTED BY IDOCK:   16.57 KCAL/MOL
REMARK 924 INTRA-LIGAND FREE ENERGY PREDICTED BY IDOCK:   -1.41 KCAL/MOL
REMARK 927      BINDING AFFINITY PREDICTED BY RF-SCORE:    0.00 PKD
ROOT
HETATM    1  C   UNL     1      -7.726   9.755  67.087  1.00  0.00    -0.095 C  
HETATM    2  C   UNL     1      -8.057   8.460  66.345  1.00  0.00    -0.104 C  
HETATM    3  C   UNL     1      -6.751   8.177  65.549  1.00  0.00    -0.052 C  
HETATM    4  C   UNL     1      -5.897   9.444  65.665  1.00  0.00    -0.054 C  
HETATM    5  N   UNL     1      -6.770  10.435  66.261  1.00  0.00    -0.104 N  
HETATM    6  C   UNL     1      -6.190  11.589  66.750  1.00  0.00    -0.140 C  
HETATM    7  O   UNL     1      -5.390  12.253  66.096  1.00  0.00     0.160 OA 
HETATM    8  C   UNL     1      -6.739  12.057  68.139  1.00  0.00    -0.064 C  
HETATM    9  O   UNL     1      -9.405  11.822  68.230  1.00  0.00    -0.184 OA 
HETATM   10  N   UNL     1      -7.565  11.015  68.930  1.00  0.00    -0.126 N  
HETATM   11  C   UNL     1      -8.401  11.418  69.938  1.00  0.00     1.508 C  
HETATM   12  H   UNL     1     -10.000  10.045  69.269  1.00  0.00     0.000 HD 
HETATM   13  C   UNL     1      -8.953  12.775  69.438  1.00  0.00     1.308 C  
HETATM   14  O   UNL     1      -8.714  10.669  70.861  1.00  0.00     1.597 OA 
HETATM   15  O   UNL     1      -9.465   9.555  68.655  1.00  0.00    -0.140 OA 
HETATM   16  C   UNL     1      -8.856  13.020  71.037  1.00  0.00    10.526 C  
HETATM   17  C   UNL     1      -8.625  10.579  68.121  1.00  0.00    -0.123 C  
ENDROOT
BRANCH   8  18
HETATM   18  C   UNL     1      -5.657  12.732  68.996  1.00  0.00    -0.070 C  
BRANCH  18  19
HETATM   19  C   UNL     1      -5.883  14.214  68.968  1.00  0.00    -0.089 A  
HETATM   20  C   UNL     1      -5.383  16.295  67.852  1.00  0.00    -0.132 A  
HETATM   21  C   UNL     1      -5.566  16.974  69.053  1.00  0.00    -0.150 A  
HETATM   22  C   UNL     1      -6.140  14.905  70.154  1.00  0.00    -0.157 A  
HETATM   23  C   UNL     1      -5.974  16.283  70.196  1.00  0.00    -0.126 A  
HETATM   24  C   UNL     1      -5.571  14.921  67.800  1.00  0.00    -0.080 A  
ENDBRANCH  18  19
ENDBRANCH   8  18
BRANCH  13  25
HETATM   25  N   UNL     1      -9.460  14.128  69.141  1.00  0.00    -0.401 N  
HETATM   26  O   UNL     1     -11.741  14.039  68.914  1.00  0.00    -0.295 OA 
HETATM   27  C   UNL     1     -10.732  14.689  69.153  1.00  0.00    -0.255 C  
HETATM   28  H   UNL     1      -8.729  14.785  68.872  1.00  0.00     0.000 HD 
BRANCH  27  29
HETATM   29  C   UNL     1     -10.734  16.261  69.436  1.00  0.00    -0.318 C  
HETATM   30  C   UNL     1      -9.371  17.005  69.331  1.00  0.00     0.155 C  
HETATM   31  N   UNL     1      -9.426  18.405  68.825  1.00  0.00    -0.320 NA 
HETATM   32  C   UNL     1     -10.008  19.397  69.725  1.00  0.00     0.269 C  
HETATM   33  C   UNL     1      -9.969  18.480  67.447  1.00  0.00    -0.330 C  
HETATM   34  C   UNL     1      -8.761  18.348  66.447  1.00  0.00    -0.263 C  
HETATM   35  C   UNL     1      -8.521  16.932  66.091  1.00  0.00    -0.281 A  
HETATM   36  C   UNL     1      -7.408  16.156  65.827  1.00  0.00     2.134 A  
HETATM   37  N   UNL     1      -7.833  14.881  65.581  1.00  0.00     2.506 NA 
HETATM   38  H   UNL     1      -7.220  14.080  65.432  1.00  0.00     0.000 HD 
HETATM   39  C   UNL     1      -9.209  14.833  65.563  1.00  0.00     0.424 A  
HETATM   40  C   UNL     1     -10.125  13.819  65.299  1.00  0.00    -0.312 A  
HETATM   41  C   UNL     1     -11.484  14.166  65.407  1.00  0.00    -0.325 A  
HETATM   42  C   UNL     1     -11.896  15.407  65.915  1.00  0.00     0.319 A  
HETATM   43  C   UNL     1     -10.951  16.351  66.309  1.00  0.00     0.052 A  
HETATM   44  C   UNL     1      -9.623  16.079  65.980  1.00  0.00    -0.385 A  
HETATM   45  C   UNL     1     -11.231  17.532  67.211  1.00  0.00     0.342 C  
HETATM   46  C   UNL     1     -11.786  17.014  68.576  1.00  0.00     0.745 C  
ENDBRANCH  27  29
ENDBRANCH  13  25
TORSDOF 4
ENDMDL
MODEL      166
REMARK 921   NORMALIZED FREE ENERGY PREDICTED BY IDOCK:   13.68 KCAL/MOL
REMARK 922        TOTAL FREE ENERGY PREDICTED BY IDOCK:   15.64 KCAL/MOL
REMARK 923 INTER-LIGAND FREE ENERGY PREDICTED BY IDOCK:    4.19 KCAL/MOL
REMARK 924 INTRA-LIGAND FREE ENERGY PREDICTED BY IDOCK:   11.45 KCAL/MOL
REMARK 927      BINDING AFFINITY PREDICTED BY RF-SCORE:    0.00 PKD
ROOT
HETATM    1  C   UNL     1      -7.423   9.093  64.588  1.00  0.00    -0.104 C  
HETATM    2  C   UNL     1      -7.102   8.490  63.220  1.00  0.00    -0.090 C  
HETATM    3  C   UNL     1      -6.573   7.073  63.584  1.00  0.00    -0.044 C  
HETATM    4  C   UNL     1      -6.366   7.072  65.103  1.00  0.00    -0.037 C  
HETATM    5  N   UNL     1      -6.524   8.455  65.507  1.00  0.00    -0.049 N  
HETATM    6  C   UNL     1      -6.676   8.716  66.854  1.00  0.00    -0.065 C  
HETATM    7  O   UNL     1      -5.929   8.241  67.706  1.00  0.00    -0.044 OA 
HETATM    8  C   UNL     1      -7.781   9.770  67.194  1.00  0.00    -0.095 C  
HETATM    9  O   UNL     1      -7.674  11.835  65.491  1.00  0.00     0.710 OA 
HETATM   10  N   UNL     1      -8.776  10.105  66.056  1.00  0.00    -0.137 N  
HETATM   11  C   UNL     1      -9.513  11.258  66.101  1.00  0.00    -0.208 C  
HETATM   12  H   UNL     1      -9.158  11.663  63.956  1.00  0.00     0.000 HD 
HETATM   13  C   UNL     1      -8.555  12.283  66.755  1.00  0.00    -0.149 C  
HETATM   14  O   UNL     1     -10.590  11.364  65.518  1.00  0.00    -0.268 OA 
HETATM   15  O   UNL     1      -8.789  10.812  63.750  1.00  0.00    -0.177 OA 
HETATM   16  C   UNL     1      -9.994  12.753  67.333  1.00  0.00    -0.212 C  
HETATM   17  C   UNL     1      -8.044  10.524  64.935  1.00  0.00    -0.086 C  
ENDROOT
BRANCH   8  18
HETATM   18  C   UNL     1      -8.483   9.471  68.528  1.00  0.00    -0.119 C  
BRANCH  18  19
HETATM   19  C   UNL     1      -7.480   9.596  69.633  1.00  0.00    -0.102 A  
HETATM   20  C   UNL     1      -5.455  10.671  70.387  1.00  0.00    -0.074 A  
HETATM   21  C   UNL     1      -5.159   9.553  71.163  1.00  0.00    -0.042 A  
HETATM   22  C   UNL     1      -7.221   8.508  70.470  1.00  0.00    -0.045 A  
HETATM   23  C   UNL     1      -6.057   8.485  71.228  1.00  0.00    -0.042 A  
HETATM   24  C   UNL     1      -6.628  10.708  69.648  1.00  0.00    -0.106 A  
ENDBRANCH  18  19
ENDBRANCH   8  18
BRANCH  13  25
HETATM   25  N   UNL     1      -7.792  13.323  67.472  1.00  0.00    -0.163 N  
HETATM   26  O   UNL     1      -5.907  12.380  68.376  1.00  0.00    -0.053 OA 
HETATM   27  C   UNL     1      -6.498  13.374  67.975  1.00  0.00    -0.131 C  
HETATM   28  H   UNL     1      -8.324  14.179  67.630  1.00  0.00     0.000 HD 
BRANCH  27  29
HETATM   29  C   UNL     1      -5.897  14.853  68.042  1.00  0.00    -0.155 C  
HETATM   30  C   UNL     1      -6.440  15.890  67.017  1.00  0.00     0.059 C  
HETATM   31  N   UNL     1      -6.532  17.297  67.495  1.00  0.00    -0.136 NA 
HETATM   32  C   UNL     1      -5.267  18.003  67.683  1.00  0.00    -0.138 C  
HETATM   33  C   UNL     1      -7.453  17.437  68.649  1.00  0.00    -0.263 C  
HETATM   34  C   UNL     1      -8.894  17.715  68.083  1.00  0.00    -0.269 C  
HETATM   35  C   UNL     1      -9.632  16.450  67.866  1.00  0.00    -0.228 A  
HETATM   36  C   UNL     1     -10.543  15.986  66.937  1.00  0.00    -0.300 A  
HETATM   37  N   UNL     1     -10.850  14.694  67.258  1.00  0.00    -0.298 NA 
HETATM   38  H   UNL     1     -11.440  14.078  66.699  1.00  0.00     0.000 HD 
HETATM   39  C   UNL     1     -10.249  14.343  68.446  1.00  0.00    -0.243 A  
HETATM   40  C   UNL     1     -10.288  13.196  69.232  1.00  0.00     0.270 A  
HETATM   41  C   UNL     1      -9.496  13.212  70.395  1.00  0.00     4.889 A  
HETATM   42  C   UNL     1      -8.589  14.248  70.662  1.00  0.00     3.043 A  
HETATM   43  C   UNL     1      -8.467  15.318  69.777  1.00  0.00     0.003 A  
HETATM   44  C   UNL     1      -9.418  15.396  68.760  1.00  0.00    -0.211 A  
HETATM   45  C   UNL     1      -7.295  16.272  69.728  1.00  0.00     0.221 C  
HETATM   46  C   UNL     1      -5.985  15.462  69.468  1.00  0.00    -0.126 C  
ENDBRANCH  27  29
ENDBRANCH  13  25
TORSDOF 4
ENDMDL
MODEL      167
REMARK 921   NORMALIZED FREE ENERGY PREDICTED BY IDOCK:   14.42 KCAL/MOL
REMARK 922        TOTAL FREE ENERGY PREDICTED BY IDOCK:   16.56 KCAL/MOL
REMARK 923 INTER-LIGAND FREE ENERGY PREDICTED BY IDOCK:    8.80 KCAL/MOL
REMARK 924 INTRA-LIGAND FREE ENERGY PREDICTED BY IDOCK:    7.76 KCAL/MOL
REMARK 927      BINDING AFFINITY PREDICTED BY RF-SCORE:    0.00 PKD
ROOT
HETATM    1  C   UNL     1      -8.632  16.205  68.247  1.00  0.00    -0.182 C  
HETATM    2  C   UNL     1      -8.783  17.689  67.910  1.00  0.00    -0.245 C  
HETATM    3  C   UNL     1     -10.191  18.028  68.480  1.00  0.00    -0.392 C  
HETATM    4  C   UNL     1     -10.843  16.687  68.834  1.00  0.00    -0.321 C  
HETATM    5  N   UNL     1      -9.967  15.680  68.269  1.00  0.00    -0.212 N  
HETATM    6  C   UNL     1     -10.147  14.373  68.676  1.00  0.00    -0.242 C  
HETATM    7  O   UNL     1     -11.251  13.833  68.691  1.00  0.00    -0.250 OA 
HETATM    8  C   UNL     1      -8.823  13.596  68.979  1.00  0.00     0.333 C  
HETATM    9  O   UNL     1      -6.974  14.117  67.113  1.00  0.00    -0.146 OA 
HETATM   10  N   UNL     1      -7.548  14.459  69.133  1.00  0.00    -0.107 N  
HETATM   11  C   UNL     1      -6.309  13.888  69.008  1.00  0.00    -0.099 C  
HETATM   12  H   UNL     1      -5.564  15.579  67.793  1.00  0.00     0.000 HD 
HETATM   13  C   UNL     1      -6.508  12.809  67.917  1.00  0.00    -0.120 C  
HETATM   14  O   UNL     1      -5.313  14.373  69.542  1.00  0.00    -0.090 OA 
HETATM   15  O   UNL     1      -6.300  16.156  67.956  1.00  0.00    -0.117 OA 
HETATM   16  C   UNL     1      -5.420  12.105  68.890  1.00  0.00    -0.050 C  
HETATM   17  C   UNL     1      -7.392  15.234  67.973  1.00  0.00    -0.124 C  
ENDROOT
BRANCH   8  18
HETATM   18  C   UNL     1      -8.991  12.577  70.117  1.00  0.00     4.237 C  
BRANCH  18  19
HETATM   19  C   UNL     1      -8.017  11.459  69.903  1.00  0.00     1.151 A  
HETATM   20  C   UNL     1      -7.678   9.240  69.017  1.00  0.00    -0.075 A  
HETATM   21  C   UNL     1      -6.680   9.023  69.963  1.00  0.00    -0.044 A  
HETATM   22  C   UNL     1      -6.964  11.267  70.801  1.00  0.00     1.727 A  
HETATM   23  C   UNL     1      -6.302  10.047  70.834  1.00  0.00    -0.030 A  
HETATM   24  C   UNL     1      -8.325  10.466  68.965  1.00  0.00    -0.150 A  
ENDBRANCH  18  19
ENDBRANCH   8  18
BRANCH  13  25
HETATM   25  N   UNL     1      -6.586  11.670  66.982  1.00  0.00    -0.136 N  
HETATM   26  O   UNL     1      -8.788  11.107  66.669  1.00  0.00    -0.156 OA 
HETATM   27  C   UNL     1      -7.632  11.099  66.266  1.00  0.00    -0.075 C  
HETATM   28  H   UNL     1      -5.690  11.209  66.829  1.00  0.00     0.000 HD 
BRANCH  27  29
HETATM   29  C   UNL     1      -7.166  10.378  64.919  1.00  0.00    -0.051 C  
HETATM   30  C   UNL     1      -6.882   8.850  64.990  1.00  0.00    -0.073 C  
HETATM   31  N   UNL     1      -7.212   8.065  63.769  1.00  0.00    -0.087 NA 
HETATM   32  C   UNL     1      -6.344   8.269  62.612  1.00  0.00    -0.087 C  
HETATM   33  C   UNL     1      -8.656   8.134  63.433  1.00  0.00     0.231 C  
HETATM   34  C   UNL     1      -9.380   6.953  64.180  1.00  0.00     2.141 C  
HETATM   35  C   UNL     1      -9.846   7.379  65.517  1.00  0.00     1.151 A  
HETATM   36  C   UNL     1      -9.957   6.784  66.760  1.00  0.00    -0.178 A  
HETATM   37  N   UNL     1     -10.444   7.717  67.631  1.00  0.00    -0.299 NA 
HETATM   38  H   UNL     1     -10.554   7.576  68.635  1.00  0.00     0.000 HD 
HETATM   39  C   UNL     1     -10.764   8.875  66.959  1.00  0.00    -0.110 A  
HETATM   40  C   UNL     1     -11.341  10.078  67.353  1.00  0.00     0.233 A  
HETATM   41  C   UNL     1     -11.488  11.055  66.350  1.00  0.00     0.279 A  
HETATM   42  C   UNL     1     -10.932  10.897  65.072  1.00  0.00    -0.035 A  
HETATM   43  C   UNL     1     -10.230   9.737  64.752  1.00  0.00     0.441 A  
HETATM   44  C   UNL     1     -10.296   8.694  65.676  1.00  0.00     1.274 A  
HETATM   45  C   UNL     1      -9.272   9.597  63.590  1.00  0.00    -0.159 C  
HETATM   46  C   UNL     1      -8.133  10.656  63.736  1.00  0.00     0.044 C  
ENDBRANCH  27  29
ENDBRANCH  13  25
TORSDOF 4
ENDMDL
MODEL      168
REMARK 921   NORMALIZED FREE ENERGY PREDICTED BY IDOCK:   16.21 KCAL/MOL
REMARK 922        TOTAL FREE ENERGY PREDICTED BY IDOCK:   18.76 KCAL/MOL
REMARK 923 INTER-LIGAND FREE ENERGY PREDICTED BY IDOCK:   15.91 KCAL/MOL
REMARK 924 INTRA-LIGAND FREE ENERGY PREDICTED BY IDOCK:    2.85 KCAL/MOL
REMARK 927      BINDING AFFINITY PREDICTED BY RF-SCORE:    0.00 PKD
ROOT
HETATM    1  C   UNL     1      -7.211  14.773  69.568  1.00  0.00    -0.160 C  
HETATM    2  C   UNL     1      -6.475  15.866  70.344  1.00  0.00     0.277 C  
HETATM    3  C   UNL     1      -6.843  17.155  69.553  1.00  0.00    -0.092 C  
HETATM    4  C   UNL     1      -7.507  16.684  68.254  1.00  0.00    -0.182 C  
HETATM    5  N   UNL     1      -7.292  15.251  68.218  1.00  0.00    -0.108 N  
HETATM    6  C   UNL     1      -8.027  14.516  67.309  1.00  0.00    -0.191 C  
HETATM    7  O   UNL     1      -8.120  14.833  66.125  1.00  0.00     0.648 OA 
HETATM    8  C   UNL     1      -8.611  13.177  67.872  1.00  0.00    -0.185 C  
HETATM    9  O   UNL     1      -6.792  11.912  69.377  1.00  0.00    -0.106 OA 
HETATM   10  N   UNL     1      -8.603  13.027  69.413  1.00  0.00     0.963 N  
HETATM   11  C   UNL     1      -8.716  11.788  69.985  1.00  0.00     2.783 C  
HETATM   12  H   UNL     1      -7.136  12.241  71.465  1.00  0.00     0.000 HD 
HETATM   13  C   UNL     1      -7.948  10.861  69.012  1.00  0.00    -0.131 C  
HETATM   14  O   UNL     1      -9.160  11.635  71.122  1.00  0.00     7.056 OA 
HETATM   15  O   UNL     1      -7.090  13.173  71.286  1.00  0.00     2.394 OA 
HETATM   16  C   UNL     1      -9.141   9.893  69.528  1.00  0.00    -0.237 C  
HETATM   17  C   UNL     1      -7.290  13.205  69.871  1.00  0.00     1.000 C  
ENDROOT
BRANCH   8  18
HETATM   18  C   UNL     1      -9.970  12.825  67.248  1.00  0.00    -0.219 C  
BRANCH  18  19
HETATM   19  C   UNL     1     -10.891  13.995  67.419  1.00  0.00    -0.288 A  
HETATM   20  C   UNL     1     -11.826  15.974  66.403  1.00  0.00     1.025 A  
HETATM   21  C   UNL     1     -11.963  16.548  67.664  1.00  0.00     0.998 A  
HETATM   22  C   UNL     1     -11.099  14.542  68.688  1.00  0.00    -0.272 A  
HETATM   23  C   UNL     1     -11.628  15.820  68.807  1.00  0.00    -0.401 A  
HETATM   24  C   UNL     1     -11.321  14.688  66.281  1.00  0.00    -0.347 A  
ENDBRANCH  18  19
ENDBRANCH   8  18
BRANCH  13  25
HETATM   25  N   UNL     1      -7.355   9.852  68.115  1.00  0.00    -0.079 N  
HETATM   26  O   UNL     1      -8.752   8.037  68.000  1.00  0.00    -0.125 OA 
HETATM   27  C   UNL     1      -7.860   8.710  67.503  1.00  0.00    -0.102 C  
HETATM   28  H   UNL     1      -6.374  10.028  67.900  1.00  0.00     0.000 HD 
BRANCH  27  29
HETATM   29  C   UNL     1      -7.117   8.335  66.140  1.00  0.00    -0.065 C  
HETATM   30  C   UNL     1      -6.312   7.003  66.111  1.00  0.00    -0.050 C  
HETATM   31  N   UNL     1      -6.295   6.276  64.811  1.00  0.00    -0.033 NA 
HETATM   32  C   UNL     1      -5.512   6.884  63.738  1.00  0.00    -0.028 C  
HETATM   33  C   UNL     1      -7.654   5.868  64.381  1.00  0.00    -0.087 C  
HETATM   34  C   UNL     1      -7.940   4.442  64.980  1.00  0.00    -0.097 C  
HETATM   35  C   UNL     1      -8.579   4.544  66.310  1.00  0.00    -0.113 A  
HETATM   36  C   UNL     1      -8.518   3.828  67.491  1.00  0.00    -0.096 A  
HETATM   37  N   UNL     1      -9.338   4.442  68.397  1.00  0.00    -0.138 NA 
HETATM   38  H   UNL     1      -9.429   4.173  69.376  1.00  0.00     0.000 HD 
HETATM   39  C   UNL     1     -10.022   5.475  67.797  1.00  0.00    -0.155 A  
HETATM   40  C   UNL     1     -11.003   6.355  68.242  1.00  0.00    -0.396 A  
HETATM   41  C   UNL     1     -11.448   7.312  67.311  1.00  0.00     0.641 A  
HETATM   42  C   UNL     1     -10.825   7.485  66.067  1.00  0.00     2.123 A  
HETATM   43  C   UNL     1      -9.745   6.681  65.707  1.00  0.00     0.410 A  
HETATM   44  C   UNL     1      -9.472   5.596  66.540  1.00  0.00    -0.165 A  
HETATM   45  C   UNL     1      -8.756   7.001  64.609  1.00  0.00     0.396 C  
HETATM   46  C   UNL     1      -8.074   8.371  64.917  1.00  0.00    -0.149 C  
ENDBRANCH  27  29
ENDBRANCH  13  25
TORSDOF 4
ENDMDL
MODEL      169
REMARK 921   NORMALIZED FREE ENERGY PREDICTED BY IDOCK:   18.31 KCAL/MOL
REMARK 922        TOTAL FREE ENERGY PREDICTED BY IDOCK:   21.35 KCAL/MOL
REMARK 923 INTER-LIGAND FREE ENERGY PREDICTED BY IDOCK:   19.91 KCAL/MOL
REMARK 924 INTRA-LIGAND FREE ENERGY PREDICTED BY IDOCK:    1.45 KCAL/MOL
REMARK 927      BINDING AFFINITY PREDICTED BY RF-SCORE:    0.00 PKD
ROOT
HETATM    1  C   UNL     1      -9.444  15.523  70.408  1.00  0.00     0.738 C  
HETATM    2  C   UNL     1      -9.299  16.148  71.796  1.00  0.00     6.302 C  
HETATM    3  C   UNL     1      -7.939  16.896  71.695  1.00  0.00     9.664 C  
HETATM    4  C   UNL     1      -7.286  16.421  70.392  1.00  0.00     1.709 C  
HETATM    5  N   UNL     1      -8.104  15.312  69.942  1.00  0.00    -0.027 N  
HETATM    6  C   UNL     1      -7.926  14.870  68.646  1.00  0.00    -0.144 C  
HETATM    7  O   UNL     1      -6.816  14.630  68.177  1.00  0.00    -0.099 OA 
HETATM    8  C   UNL     1      -9.253  14.565  67.873  1.00  0.00    -0.196 C  
HETATM    9  O   UNL     1     -10.986  13.265  69.447  1.00  0.00    -0.149 OA 
HETATM   10  N   UNL     1     -10.551  15.122  68.504  1.00  0.00    -0.232 N  
HETATM   11  C   UNL     1     -11.768  14.603  68.149  1.00  0.00    -0.330 C  
HETATM   12  H   UNL     1     -12.464  14.592  70.249  1.00  0.00     0.000 HD 
HETATM   13  C   UNL     1     -11.478  13.099  67.930  1.00  0.00    -0.308 C  
HETATM   14  O   UNL     1     -12.805  15.256  68.243  1.00  0.00     0.904 OA 
HETATM   15  O   UNL     1     -11.751  15.113  70.597  1.00  0.00    -0.268 OA 
HETATM   16  C   UNL     1     -12.614  13.389  66.811  1.00  0.00     0.036 C  
HETATM   17  C   UNL     1     -10.645  14.647  69.821  1.00  0.00    -0.046 C  
ENDROOT
BRANCH   8  18
HETATM   18  C   UNL     1      -9.139  14.878  66.373  1.00  0.00    -0.293 C  
BRANCH  18  19
HETATM   19  C   UNL     1      -9.262  16.360  66.185  1.00  0.00    -0.365 A  
HETATM   20  C   UNL     1     -10.618  18.164  65.331  1.00  0.00     0.174 A  
HETATM   21  C   UNL     1      -9.467  18.917  65.115  1.00  0.00     2.166 A  
HETATM   22  C   UNL     1      -8.116  17.145  66.039  1.00  0.00    -0.183 A  
HETATM   23  C   UNL     1      -8.220  18.419  65.497  1.00  0.00     0.800 A  
HETATM   24  C   UNL     1     -10.521  16.901  65.894  1.00  0.00    -0.294 A  
ENDBRANCH  18  19
ENDBRANCH   8  18
BRANCH  13  25
HETATM   25  N   UNL     1     -11.318  11.677  67.572  1.00  0.00    -0.290 N  
HETATM   26  O   UNL     1      -9.291  10.933  68.345  1.00  0.00    -0.157 OA 
HETATM   27  C   UNL     1     -10.434  10.687  67.986  1.00  0.00    -0.196 C  
HETATM   28  H   UNL     1     -11.994  11.354  66.880  1.00  0.00     0.000 HD 
BRANCH  27  29
HETATM   29  C   UNL     1     -11.033   9.210  67.877  1.00  0.00    -0.035 C  
HETATM   30  C   UNL     1     -10.881   8.478  66.512  1.00  0.00     0.594 C  
HETATM   31  N   UNL     1     -10.689   7.003  66.577  1.00  0.00    -0.031 NA 
HETATM   32  C   UNL     1     -11.852   6.215  66.979  1.00  0.00     1.813 C  
HETATM   33  C   UNL     1      -9.454   6.631  67.309  1.00  0.00    -0.133 C  
HETATM   34  C   UNL     1      -8.278   6.565  66.265  1.00  0.00    -0.119 C  
HETATM   35  C   UNL     1      -7.605   7.877  66.141  1.00  0.00    -0.083 A  
HETATM   36  C   UNL     1      -7.022   8.594  65.114  1.00  0.00    -0.072 A  
HETATM   37  N   UNL     1      -6.584   9.782  65.627  1.00  0.00    -0.082 NA 
HETATM   38  H   UNL     1      -6.183  10.542  65.077  1.00  0.00     0.000 HD 
HETATM   39  C   UNL     1      -6.764   9.808  66.991  1.00  0.00    -0.075 A  
HETATM   40  C   UNL     1      -6.437  10.731  67.979  1.00  0.00    -0.062 A  
HETATM   41  C   UNL     1      -6.817  10.397  69.292  1.00  0.00    -0.073 A  
HETATM   42  C   UNL     1      -7.627   9.286  69.572  1.00  0.00    -0.081 A  
HETATM   43  C   UNL     1      -8.062   8.459  68.538  1.00  0.00    -0.123 A  
HETATM   44  C   UNL     1      -7.487   8.673  67.286  1.00  0.00    -0.089 A  
HETATM   45  C   UNL     1      -9.220   7.491  68.633  1.00  0.00    -0.144 C  
HETATM   46  C   UNL     1     -10.515   8.279  69.007  1.00  0.00    -0.212 C  
ENDBRANCH  27  29
ENDBRANCH  13  25
TORSDOF 4
ENDMDL
MODEL      170
REMARK 921   NORMALIZED FREE ENERGY PREDICTED BY IDOCK:   18.75 KCAL/MOL
REMARK 922        TOTAL FREE ENERGY PREDICTED BY IDOCK:   21.90 KCAL/MOL
REMARK 923 INTER-LIGAND FREE ENERGY PREDICTED BY IDOCK:   22.05 KCAL/MOL
REMARK 924 INTRA-LIGAND FREE ENERGY PREDICTED BY IDOCK:   -0.15 KCAL/MOL
REMARK 927      BINDING AFFINITY PREDICTED BY RF-SCORE:    0.00 PKD
ROOT
HETATM    1  C   UNL     1      -6.791  16.274  68.033  1.00  0.00    -0.131 C  
HETATM    2  C   UNL     1      -5.529  17.059  68.395  1.00  0.00    -0.131 C  
HETATM    3  C   UNL     1      -5.335  17.983  67.158  1.00  0.00    -0.144 C  
HETATM    4  C   UNL     1      -6.304  17.472  66.086  1.00  0.00    -0.220 C  
HETATM    5  N   UNL     1      -6.806  16.213  66.600  1.00  0.00    -0.012 N  
HETATM    6  C   UNL     1      -7.914  15.666  65.983  1.00  0.00     0.986 C  
HETATM    7  O   UNL     1      -7.995  15.542  64.763  1.00  0.00     5.372 OA 
HETATM    8  C   UNL     1      -8.988  15.088  66.963  1.00  0.00    -0.234 C  
HETATM    9  O   UNL     1      -7.819  13.724  68.949  1.00  0.00    -0.100 OA 
HETATM   10  N   UNL     1      -8.855  15.513  68.445  1.00  0.00    -0.178 N  
HETATM   11  C   UNL     1      -9.472  14.786  69.429  1.00  0.00     0.013 C  
HETATM   12  H   UNL     1      -7.692  14.897  70.737  1.00  0.00     0.000 HD 
HETATM   13  C   UNL     1      -9.373  13.325  68.925  1.00  0.00     0.252 C  
HETATM   14  O   UNL     1      -9.784  15.286  70.508  1.00  0.00     0.173 OA 
HETATM   15  O   UNL     1      -7.230  15.552  70.227  1.00  0.00     0.103 OA 
HETATM   16  C   UNL     1     -10.806  13.324  69.682  1.00  0.00     0.214 C  
HETATM   17  C   UNL     1      -7.569  15.173  68.892  1.00  0.00    -0.148 C  
ENDROOT
BRANCH   8  18
HETATM   18  C   UNL     1     -10.417  15.252  66.424  1.00  0.00    -0.307 C  
BRANCH  18  19
HETATM   19  C   UNL     1     -10.634  16.694  66.079  1.00  0.00    -0.238 A  
HETATM   20  C   UNL     1      -9.787  18.620  64.897  1.00  0.00     3.048 A  
HETATM   21  C   UNL     1     -10.403  19.452  65.827  1.00  0.00    -0.431 A  
HETATM   22  C   UNL     1     -11.315  17.531  66.967  1.00  0.00     0.738 A  
HETATM   23  C   UNL     1     -11.192  18.909  66.843  1.00  0.00     0.233 A  
HETATM   24  C   UNL     1      -9.927  17.244  65.002  1.00  0.00     1.317 A  
ENDBRANCH  18  19
ENDBRANCH   8  18
BRANCH  13  25
HETATM   25  N   UNL     1      -9.455  11.912  68.510  1.00  0.00    -0.312 N  
HETATM   26  O   UNL     1      -7.353  10.996  68.551  1.00  0.00    -0.088 OA 
HETATM   27  C   UNL     1      -8.566  10.846  68.589  1.00  0.00    -0.153 C  
HETATM   28  H   UNL     1     -10.346  11.667  68.078  1.00  0.00     0.000 HD 
BRANCH  27  29
HETATM   29  C   UNL     1      -9.284   9.421  68.661  1.00  0.00    -0.131 C  
HETATM   30  C   UNL     1     -10.769   9.347  68.204  1.00  0.00    -0.178 C  
HETATM   31  N   UNL     1     -11.189   8.080  67.541  1.00  0.00     0.373 NA 
HETATM   32  C   UNL     1     -11.294   6.903  68.399  1.00  0.00     0.143 C  
HETATM   33  C   UNL     1     -10.429   7.824  66.293  1.00  0.00     0.567 C  
HETATM   34  C   UNL     1     -11.209   8.503  65.107  1.00  0.00     7.770 C  
HETATM   35  C   UNL     1     -10.750   9.894  64.898  1.00  0.00     1.336 A  
HETATM   36  C   UNL     1     -11.347  11.085  64.530  1.00  0.00     0.315 A  
HETATM   37  N   UNL     1     -10.385  12.056  64.536  1.00  0.00    -0.283 NA 
HETATM   38  H   UNL     1     -10.558  13.049  64.378  1.00  0.00     0.000 HD 
HETATM   39  C   UNL     1      -9.150  11.502  64.786  1.00  0.00     0.127 A  
HETATM   40  C   UNL     1      -7.862  12.026  64.835  1.00  0.00     2.595 A  
HETATM   41  C   UNL     1      -6.834  11.119  65.154  1.00  0.00     0.653 A  
HETATM   42  C   UNL     1      -7.104   9.806  65.567  1.00  0.00    -0.108 A  
HETATM   43  C   UNL     1      -8.419   9.353  65.648  1.00  0.00    -0.145 A  
HETATM   44  C   UNL     1      -9.399  10.187  65.110  1.00  0.00    -0.290 A  
HETATM   45  C   UNL     1      -8.869   8.137  66.427  1.00  0.00    -0.182 C  
HETATM   46  C   UNL     1      -8.476   8.315  67.928  1.00  0.00    -0.132 C  
ENDBRANCH  27  29
ENDBRANCH  13  25
TORSDOF 4
ENDMDL
MODEL      171
REMARK 921   NORMALIZED FREE ENERGY PREDICTED BY IDOCK:   19.23 KCAL/MOL
REMARK 922        TOTAL FREE ENERGY PREDICTED BY IDOCK:   22.49 KCAL/MOL
REMARK 923 INTER-LIGAND FREE ENERGY PREDICTED BY IDOCK:   12.06 KCAL/MOL
REMARK 924 INTRA-LIGAND FREE ENERGY PREDICTED BY IDOCK:   10.44 KCAL/MOL
REMARK 927      BINDING AFFINITY PREDICTED BY RF-SCORE:    0.00 PKD
ROOT
HETATM    1  C   UNL     1      -9.784  14.804  65.750  1.00  0.00    -0.313 C  
HETATM    2  C   UNL     1     -10.517  15.995  65.130  1.00  0.00    -0.331 C  
HETATM    3  C   UNL     1      -9.805  17.214  65.785  1.00  0.00    -0.091 C  
HETATM    4  C   UNL     1      -8.939  16.646  66.915  1.00  0.00    -0.222 C  
HETATM    5  N   UNL     1      -9.337  15.258  67.036  1.00  0.00    -0.215 N  
HETATM    6  C   UNL     1      -8.526  14.420  67.776  1.00  0.00    -0.173 C  
HETATM    7  O   UNL     1      -8.127  14.714  68.900  1.00  0.00    -0.151 OA 
HETATM    8  C   UNL     1      -8.275  13.017  67.131  1.00  0.00    -0.127 C  
HETATM    9  O   UNL     1     -10.543  12.029  66.104  1.00  0.00    -0.247 OA 
HETATM   10  N   UNL     1      -8.649  12.879  65.635  1.00  0.00     1.098 N  
HETATM   11  C   UNL     1      -8.841  11.640  65.084  1.00  0.00     0.294 C  
HETATM   12  H   UNL     1     -10.634  12.320  63.983  1.00  0.00     0.000 HD 
HETATM   13  C   UNL     1      -9.492  10.824  66.228  1.00  0.00    -0.181 C  
HETATM   14  O   UNL     1      -8.690  11.433  63.882  1.00  0.00     0.172 OA 
HETATM   15  O   UNL     1     -10.509  13.248  64.145  1.00  0.00    -0.414 OA 
HETATM   16  C   UNL     1      -8.591   9.701  65.484  1.00  0.00    -0.162 C  
HETATM   17  C   UNL     1      -9.995  13.243  65.478  1.00  0.00    -0.207 C  
ENDROOT
BRANCH   8  18
HETATM   18  C   UNL     1      -6.873  12.473  67.445  1.00  0.00    -0.145 C  
BRANCH  18  19
HETATM   19  C   UNL     1      -6.968  10.988  67.628  1.00  0.00    -0.083 A  
HETATM   20  C   UNL     1      -7.855   9.188  68.969  1.00  0.00    -0.090 A  
HETATM   21  C   UNL     1      -6.776   8.391  68.599  1.00  0.00    -0.059 A  
HETATM   22  C   UNL     1      -5.926  10.162  67.198  1.00  0.00    -0.051 A  
HETATM   23  C   UNL     1      -5.829   8.867  67.691  1.00  0.00    -0.043 A  
HETATM   24  C   UNL     1      -7.970  10.474  68.461  1.00  0.00    -0.118 A  
ENDBRANCH  18  19
ENDBRANCH   8  18
BRANCH  13  25
HETATM   25  N   UNL     1     -10.003   9.903  67.260  1.00  0.00    -0.186 N  
HETATM   26  O   UNL     1     -12.269   9.668  66.998  1.00  0.00     3.519 OA 
HETATM   27  C   UNL     1     -11.208   9.228  67.418  1.00  0.00     0.519 C  
HETATM   28  H   UNL     1      -9.337   9.726  68.011  1.00  0.00     0.000 HD 
BRANCH  27  29
HETATM   29  C   UNL     1     -11.076   7.873  68.254  1.00  0.00     0.303 C  
HETATM   30  C   UNL     1      -9.685   7.552  68.876  1.00  0.00    -0.151 C  
HETATM   31  N   UNL     1      -9.701   6.838  70.183  1.00  0.00    -0.168 NA 
HETATM   32  C   UNL     1     -10.117   5.439  70.153  1.00  0.00    -0.252 C  
HETATM   33  C   UNL     1     -10.381   7.625  71.241  1.00  0.00    -0.198 C  
HETATM   34  C   UNL     1      -9.298   8.527  71.940  1.00  0.00    -0.337 C  
HETATM   35  C   UNL     1      -9.190   9.842  71.272  1.00  0.00     0.839 A  
HETATM   36  C   UNL     1      -8.166  10.726  70.991  1.00  0.00     3.958 A  
HETATM   37  N   UNL     1      -8.698  11.784  70.310  1.00  0.00     2.479 NA 
HETATM   38  H   UNL     1      -8.158  12.551  69.910  1.00  0.00     0.000 HD 
HETATM   39  C   UNL     1     -10.068  11.667  70.243  1.00  0.00     2.417 A  
HETATM   40  C   UNL     1     -11.072  12.484  69.732  1.00  0.00     0.110 A  
HETATM   41  C   UNL     1     -12.386  11.992  69.835  1.00  0.00    -0.143 A  
HETATM   42  C   UNL     1     -12.659  10.686  70.268  1.00  0.00    -0.333 A  
HETATM   43  C   UNL     1     -11.617   9.838  70.637  1.00  0.00    -0.389 A  
HETATM   44  C   UNL     1     -10.353  10.417  70.747  1.00  0.00     0.588 A  
HETATM   45  C   UNL     1     -11.721   8.333  70.741  1.00  0.00    -0.213 C  
HETATM   46  C   UNL     1     -12.160   7.753  69.359  1.00  0.00     1.551 C  
ENDBRANCH  27  29
ENDBRANCH  13  25
TORSDOF 4
ENDMDL
MODEL      172
REMARK 921   NORMALIZED FREE ENERGY PREDICTED BY IDOCK:   20.30 KCAL/MOL
REMARK 922        TOTAL FREE ENERGY PREDICTED BY IDOCK:   23.81 KCAL/MOL
REMARK 923 INTER-LIGAND FREE ENERGY PREDICTED BY IDOCK:    5.70 KCAL/MOL
REMARK 924 INTRA-LIGAND FREE ENERGY PREDICTED BY IDOCK:   18.11 KCAL/MOL
REMARK 927      BINDING AFFINITY PREDICTED BY RF-SCORE:    0.00 PKD
ROOT
HETATM    1  C   UNL     1      -9.942  14.891  68.967  1.00  0.00    -0.235 C  
HETATM    2  C   UNL     1      -9.827  16.248  69.662  1.00  0.00    -0.086 C  
HETATM    3  C   UNL     1     -10.712  17.166  68.770  1.00  0.00    -0.289 C  
HETATM    4  C   UNL     1     -11.028  16.358  67.507  1.00  0.00    -0.184 C  
HETATM    5  N   UNL     1     -10.176  15.188  67.584  1.00  0.00    -0.239 N  
HETATM    6  C   UNL     1     -10.451  14.138  66.729  1.00  0.00    -0.277 C  
HETATM    7  O   UNL     1     -10.628  14.299  65.524  1.00  0.00    -0.306 OA 
HETATM    8  C   UNL     1     -10.376  12.722  67.390  1.00  0.00    -0.222 C  
HETATM    9  O   UNL     1      -8.245  12.542  69.003  1.00  0.00     0.153 OA 
HETATM   10  N   UNL     1     -10.367  12.693  68.938  1.00  0.00    -0.102 N  
HETATM   11  C   UNL     1      -9.921  11.583  69.604  1.00  0.00     0.731 C  
HETATM   12  H   UNL     1      -8.792  12.811  71.056  1.00  0.00     0.000 HD 
HETATM   13  C   UNL     1      -8.771  11.054  68.712  1.00  0.00    -0.145 C  
HETATM   14  O   UNL     1     -10.292  11.317  70.745  1.00  0.00     1.889 OA 
HETATM   15  O   UNL     1      -9.172  13.644  70.805  1.00  0.00     4.575 OA 
HETATM   16  C   UNL     1      -9.406   9.681  69.292  1.00  0.00    -0.184 C  
HETATM   17  C   UNL     1      -9.303  13.488  69.391  1.00  0.00     0.928 C  
ENDROOT
BRANCH   8  18
HETATM   18  C   UNL     1     -11.392  11.742  66.784  1.00  0.00    -0.385 C  
BRANCH  18  19
HETATM   19  C   UNL     1     -11.822  10.780  67.850  1.00  0.00     0.139 A  
HETATM   20  C   UNL     1     -13.009  10.498  69.932  1.00  0.00     0.205 A  
HETATM   21  C   UNL     1     -12.178   9.427  70.252  1.00  0.00     0.169 A  
HETATM   22  C   UNL     1     -11.039   9.659  68.138  1.00  0.00    -0.109 A  
HETATM   23  C   UNL     1     -11.214   8.989  69.342  1.00  0.00     0.102 A  
HETATM   24  C   UNL     1     -12.853  11.154  68.721  1.00  0.00     1.619 A  
ENDBRANCH  18  19
ENDBRANCH   8  18
BRANCH  13  25
HETATM   25  N   UNL     1      -7.742  10.378  67.901  1.00  0.00    -0.089 N  
HETATM   26  O   UNL     1      -7.451   8.243  68.688  1.00  0.00    -0.093 OA 
HETATM   27  C   UNL     1      -7.356   9.048  67.771  1.00  0.00    -0.084 C  
HETATM   28  H   UNL     1      -7.203  11.015  67.315  1.00  0.00     0.000 HD 
BRANCH  27  29
HETATM   29  C   UNL     1      -6.721   8.703  66.347  1.00  0.00    -0.070 C  
HETATM   30  C   UNL     1      -5.740   7.497  66.278  1.00  0.00    -0.036 C  
HETATM   31  N   UNL     1      -5.761   6.707  65.015  1.00  0.00    -0.030 NA 
HETATM   32  C   UNL     1      -5.196   7.357  63.835  1.00  0.00    -0.029 C  
HETATM   33  C   UNL     1      -7.086   6.091  64.763  1.00  0.00    -0.060 C  
HETATM   34  C   UNL     1      -7.096   4.675  65.447  1.00  0.00    -0.063 C  
HETATM   35  C   UNL     1      -7.593   4.762  66.838  1.00  0.00    -0.087 A  
HETATM   36  C   UNL     1      -7.301   4.129  68.032  1.00  0.00    -0.064 A  
HETATM   37  N   UNL     1      -8.096   4.673  69.001  1.00  0.00    -0.077 NA 
HETATM   38  H   UNL     1      -8.040   4.450  69.995  1.00  0.00     0.000 HD 
HETATM   39  C   UNL     1      -8.984   5.566  68.444  1.00  0.00    -0.110 A  
HETATM   40  C   UNL     1     -10.028   6.324  68.964  1.00  0.00    -0.175 A  
HETATM   41  C   UNL     1     -10.705   7.157  68.054  1.00  0.00    -0.232 A  
HETATM   42  C   UNL     1     -10.253   7.344  66.740  1.00  0.00    -0.313 A  
HETATM   43  C   UNL     1      -9.114   6.679  66.289  1.00  0.00    -0.168 A  
HETATM   44  C   UNL     1      -8.598   5.691  67.127  1.00  0.00    -0.109 A  
HETATM   45  C   UNL     1      -8.308   7.071  65.072  1.00  0.00    -0.051 C  
HETATM   46  C   UNL     1      -7.801   8.538  65.243  1.00  0.00    -0.106 C  
ENDBRANCH  27  29
ENDBRANCH  13  25
TORSDOF 4
ENDMDL
MODEL      173
REMARK 921   NORMALIZED FREE ENERGY PREDICTED BY IDOCK:   21.09 KCAL/MOL
REMARK 922        TOTAL FREE ENERGY PREDICTED BY IDOCK:   24.78 KCAL/MOL
REMARK 923 INTER-LIGAND FREE ENERGY PREDICTED BY IDOCK:   17.45 KCAL/MOL
REMARK 924 INTRA-LIGAND FREE ENERGY PREDICTED BY IDOCK:    7.34 KCAL/MOL
REMARK 927      BINDING AFFINITY PREDICTED BY RF-SCORE:    0.00 PKD
ROOT
HETATM    1  C   UNL     1     -10.428   3.850  70.837  1.00  0.00     0.677 C  
HETATM    2  C   UNL     1     -10.829   2.389  71.041  1.00  0.00     2.216 C  
HETATM    3  C   UNL     1     -10.245   2.066  72.447  1.00  0.00    -0.230 C  
HETATM    4  C   UNL     1      -9.332   3.243  72.810  1.00  0.00    -0.097 C  
HETATM    5  N   UNL     1      -9.223   4.025  71.595  1.00  0.00    -0.119 N  
HETATM    6  C   UNL     1      -8.697   5.298  71.698  1.00  0.00    -0.134 C  
HETATM    7  O   UNL     1      -7.650   5.532  72.298  1.00  0.00    -0.097 OA 
HETATM    8  C   UNL     1      -9.460   6.388  70.874  1.00  0.00    -0.175 C  
HETATM    9  O   UNL     1     -10.107   5.458  68.447  1.00  0.00    -0.161 OA 
HETATM   10  N   UNL     1     -10.865   5.993  70.362  1.00  0.00    -0.295 N  
HETATM   11  C   UNL     1     -11.445   6.688  69.333  1.00  0.00    -0.225 C  
HETATM   12  H   UNL     1     -12.152   4.827  68.370  1.00  0.00     0.000 HD 
HETATM   13  C   UNL     1     -10.252   7.056  68.418  1.00  0.00    -0.179 C  
HETATM   14  O   UNL     1     -12.665   6.737  69.188  1.00  0.00     2.284 OA 
HETATM   15  O   UNL     1     -11.962   4.252  69.102  1.00  0.00     8.603 OA 
HETATM   16  C   UNL     1     -11.215   8.348  68.250  1.00  0.00     0.547 C  
HETATM   17  C   UNL     1     -10.749   4.817  69.605  1.00  0.00     0.682 C  
ENDROOT
BRANCH   8  18
HETATM   18  C   UNL     1      -9.443   7.760  71.566  1.00  0.00    -0.174 C  
BRANCH  18  19
HETATM   19  C   UNL     1     -10.736   7.938  72.303  1.00  0.00    -0.344 A  
HETATM   20  C   UNL     1     -12.447   6.874  73.632  1.00  0.00     3.399 A  
HETATM   21  C   UNL     1     -13.379   7.789  73.151  1.00  0.00     1.526 A  
HETATM   22  C   UNL     1     -11.655   8.901  71.881  1.00  0.00    -0.442 A  
HETATM   23  C   UNL     1     -12.977   8.821  72.300  1.00  0.00    -0.462 A  
HETATM   24  C   UNL     1     -11.121   6.965  73.235  1.00  0.00    -0.186 A  
ENDBRANCH  18  19
ENDBRANCH   8  18
BRANCH  13  25
HETATM   25  N   UNL     1      -9.199   7.574  67.524  1.00  0.00    -0.127 N  
HETATM   26  O   UNL     1     -10.164   8.304  65.576  1.00  0.00     0.891 OA 
HETATM   27  C   UNL     1      -9.230   8.341  66.365  1.00  0.00    -0.195 C  
HETATM   28  H   UNL     1      -8.256   7.316  67.815  1.00  0.00     0.000 HD 
BRANCH  27  29
HETATM   29  C   UNL     1      -7.909   9.209  66.139  1.00  0.00    -0.103 C  
HETATM   30  C   UNL     1      -7.993  10.383  65.120  1.00  0.00    -0.134 C  
HETATM   31  N   UNL     1      -7.171  11.584  65.435  1.00  0.00     0.865 NA 
HETATM   32  C   UNL     1      -5.725  11.437  65.291  1.00  0.00     0.861 C  
HETATM   33  C   UNL     1      -7.568  12.212  66.720  1.00  0.00     0.055 C  
HETATM   34  C   UNL     1      -8.690  13.270  66.411  1.00  0.00     0.198 C  
HETATM   35  C   UNL     1     -10.034  12.658  66.493  1.00  0.00    -0.256 A  
HETATM   36  C   UNL     1     -11.230  12.809  65.817  1.00  0.00    -0.307 A  
HETATM   37  N   UNL     1     -12.125  11.921  66.344  1.00  0.00    -0.451 NA 
HETATM   38  H   UNL     1     -13.067  11.760  65.986  1.00  0.00     0.000 HD 
HETATM   39  C   UNL     1     -11.574  11.275  67.427  1.00  0.00    -0.130 A  
HETATM   40  C   UNL     1     -12.070  10.347  68.338  1.00  0.00     0.682 A  
HETATM   41  C   UNL     1     -11.166   9.894  69.317  1.00  0.00    -0.174 A  
HETATM   42  C   UNL     1      -9.803  10.222  69.279  1.00  0.00    -0.244 A  
HETATM   43  C   UNL     1      -9.307  11.039  68.266  1.00  0.00    -0.172 A  
HETATM   44  C   UNL     1     -10.252  11.660  67.448  1.00  0.00    -0.226 A  
HETATM   45  C   UNL     1      -7.849  11.152  67.880  1.00  0.00    -0.111 C  
HETATM   46  C   UNL     1      -7.317   9.742  67.472  1.00  0.00    -0.090 C  
ENDBRANCH  27  29
ENDBRANCH  13  25
TORSDOF 4
ENDMDL
MODEL      174
REMARK 921   NORMALIZED FREE ENERGY PREDICTED BY IDOCK:   22.02 KCAL/MOL
REMARK 922        TOTAL FREE ENERGY PREDICTED BY IDOCK:   25.93 KCAL/MOL
REMARK 923 INTER-LIGAND FREE ENERGY PREDICTED BY IDOCK:   22.74 KCAL/MOL
REMARK 924 INTRA-LIGAND FREE ENERGY PREDICTED BY IDOCK:    3.19 KCAL/MOL
REMARK 927      BINDING AFFINITY PREDICTED BY RF-SCORE:    0.00 PKD
ROOT
HETATM    1  C   UNL     1     -10.957  12.581  64.883  1.00  0.00    -0.300 C  
HETATM    2  C   UNL     1     -11.623  13.292  63.705  1.00  0.00    -0.376 C  
HETATM    3  C   UNL     1     -11.291  14.788  63.975  1.00  0.00     0.266 C  
HETATM    4  C   UNL     1     -10.724  14.849  65.397  1.00  0.00    -0.377 C  
HETATM    5  N   UNL     1     -10.962  13.533  65.956  1.00  0.00    -0.276 N  
HETATM    6  C   UNL     1     -10.300  13.204  67.123  1.00  0.00    -0.247 C  
HETATM    7  O   UNL     1     -10.284  13.944  68.103  1.00  0.00    -0.235 OA 
HETATM    8  C   UNL     1      -9.698  11.759  67.146  1.00  0.00    -0.183 C  
HETATM    9  O   UNL     1     -11.428   9.997  66.109  1.00  0.00     0.798 OA 
HETATM   10  N   UNL     1      -9.603  11.040  65.779  1.00  0.00    -0.211 N  
HETATM   11  C   UNL     1      -9.469   9.678  65.725  1.00  0.00    -0.246 C  
HETATM   12  H   UNL     1     -10.939   9.520  64.079  1.00  0.00     0.000 HD 
HETATM   13  C   UNL     1     -10.314   9.176  66.920  1.00  0.00    -0.251 C  
HETATM   14  O   UNL     1      -8.952   9.114  64.762  1.00  0.00    -0.194 OA 
HETATM   15  O   UNL     1     -10.984  10.450  63.891  1.00  0.00     0.637 OA 
HETATM   16  C   UNL     1      -9.103   8.100  66.890  1.00  0.00    -0.185 C  
HETATM   17  C   UNL     1     -10.880  11.015  65.199  1.00  0.00    -0.112 C  
ENDROOT
BRANCH   8  18
HETATM   18  C   UNL     1      -8.390  11.685  67.949  1.00  0.00    -0.143 C  
BRANCH  18  19
HETATM   19  C   UNL     1      -7.275  11.333  67.011  1.00  0.00    -0.129 A  
HETATM   20  C   UNL     1      -6.657  10.830  64.733  1.00  0.00     0.240 A  
HETATM   21  C   UNL     1      -5.603  10.050  65.200  1.00  0.00    -0.084 A  
HETATM   22  C   UNL     1      -6.172  10.612  67.476  1.00  0.00    -0.056 A  
HETATM   23  C   UNL     1      -5.342   9.966  66.569  1.00  0.00    -0.044 A  
HETATM   24  C   UNL     1      -7.474  11.496  65.635  1.00  0.00     0.686 A  
ENDBRANCH  18  19
ENDBRANCH   8  18
BRANCH  13  25
HETATM   25  N   UNL     1     -10.982   8.571  68.089  1.00  0.00    -0.457 N  
HETATM   26  O   UNL     1     -12.513  10.058  68.928  1.00  0.00     0.530 OA 
HETATM   27  C   UNL     1     -12.124   8.904  68.807  1.00  0.00     2.590 C  
HETATM   28  H   UNL     1     -10.508   7.740  68.441  1.00  0.00     0.000 HD 
BRANCH  27  29
HETATM   29  C   UNL     1     -12.826   7.651  69.507  1.00  0.00     3.193 C  
HETATM   30  C   UNL     1     -11.897   6.599  70.179  1.00  0.00    -0.284 C  
HETATM   31  N   UNL     1     -12.433   5.940  71.403  1.00  0.00     0.647 NA 
HETATM   32  C   UNL     1     -13.525   4.990  71.204  1.00  0.00     7.597 C  
HETATM   33  C   UNL     1     -12.698   6.912  72.491  1.00  0.00     0.361 C  
HETATM   34  C   UNL     1     -11.385   7.048  73.346  1.00  0.00     0.155 C  
HETATM   35  C   UNL     1     -10.521   8.130  72.823  1.00  0.00    -0.385 A  
HETATM   36  C   UNL     1      -9.160   8.333  72.699  1.00  0.00    -0.257 A  
HETATM   37  N   UNL     1      -8.969   9.545  72.098  1.00  0.00     0.556 NA 
HETATM   38  H   UNL     1      -8.064   9.919  71.813  1.00  0.00     0.000 HD 
HETATM   39  C   UNL     1     -10.174  10.190  71.933  1.00  0.00     3.036 A  
HETATM   40  C   UNL     1     -10.525  11.445  71.446  1.00  0.00     5.646 A  
HETATM   41  C   UNL     1     -11.902  11.736  71.414  1.00  0.00     0.884 A  
HETATM   42  C   UNL     1     -12.874  10.765  71.694  1.00  0.00    -0.562 A  
HETATM   43  C   UNL     1     -12.491   9.470  72.039  1.00  0.00    -0.427 A  
HETATM   44  C   UNL     1     -11.133   9.268  72.288  1.00  0.00     0.215 A  
HETATM   45  C   UNL     1     -13.392   8.257  71.982  1.00  0.00    -0.336 C  
HETATM   46  C   UNL     1     -13.920   8.079  70.523  1.00  0.00     1.060 C  
ENDBRANCH  27  29
ENDBRANCH  13  25
TORSDOF 4
ENDMDL
MODEL      175
REMARK 921   NORMALIZED FREE ENERGY PREDICTED BY IDOCK:   23.53 KCAL/MOL
REMARK 922        TOTAL FREE ENERGY PREDICTED BY IDOCK:   27.79 KCAL/MOL
REMARK 923 INTER-LIGAND FREE ENERGY PREDICTED BY IDOCK:   -2.42 KCAL/MOL
REMARK 924 INTRA-LIGAND FREE ENERGY PREDICTED BY IDOCK:   30.21 KCAL/MOL
REMARK 927      BINDING AFFINITY PREDICTED BY RF-SCORE:    0.00 PKD
ROOT
HETATM    1  C   UNL     1      -8.228  10.189  65.284  1.00  0.00    -0.157 C  
HETATM    2  C   UNL     1      -7.895   9.523  63.948  1.00  0.00    -0.133 C  
HETATM    3  C   UNL     1      -6.362   9.280  64.058  1.00  0.00    -0.090 C  
HETATM    4  C   UNL     1      -5.894  10.062  65.291  1.00  0.00    -0.091 C  
HETATM    5  N   UNL     1      -7.030  10.873  65.678  1.00  0.00    -0.013 N  
HETATM    6  C   UNL     1      -6.999  11.466  66.925  1.00  0.00    -0.140 C  
HETATM    7  O   UNL     1      -6.028  12.102  67.329  1.00  0.00    -0.128 OA 
HETATM    8  C   UNL     1      -8.345  11.384  67.720  1.00  0.00    -0.127 C  
HETATM    9  O   UNL     1     -10.426  11.887  66.111  1.00  0.00    -0.224 OA 
HETATM   10  N   UNL     1      -9.389  10.374  67.188  1.00  0.00    -0.156 N  
HETATM   11  C   UNL     1     -10.706  10.491  67.546  1.00  0.00    -0.276 C  
HETATM   12  H   UNL     1     -11.384  10.079  65.481  1.00  0.00     0.000 HD 
HETATM   13  C   UNL     1     -10.932  12.020  67.628  1.00  0.00    -0.238 C  
HETATM   14  O   UNL     1     -11.467   9.525  67.547  1.00  0.00     0.263 OA 
HETATM   15  O   UNL     1     -10.541   9.793  65.150  1.00  0.00     0.304 OA 
HETATM   16  C   UNL     1     -11.896  11.474  68.810  1.00  0.00    -0.394 C  
HETATM   17  C   UNL     1      -9.647  10.668  65.841  1.00  0.00    -0.205 C  
ENDROOT
BRANCH   8  18
HETATM   18  C   UNL     1      -8.120  11.265  69.236  1.00  0.00     0.103 C  
BRANCH  18  19
HETATM   19  C   UNL     1      -6.905  10.419  69.472  1.00  0.00    -0.093 A  
HETATM   20  C   UNL     1      -5.881   8.256  69.168  1.00  0.00    -0.035 A  
HETATM   21  C   UNL     1      -5.133   8.456  70.324  1.00  0.00    -0.022 A  
HETATM   22  C   UNL     1      -6.099  10.650  70.590  1.00  0.00    -0.075 A  
HETATM   23  C   UNL     1      -5.219   9.665  71.018  1.00  0.00    -0.046 A  
HETATM   24  C   UNL     1      -6.743   9.247  68.723  1.00  0.00    -0.053 A  
ENDBRANCH  18  19
ENDBRANCH   8  18
BRANCH  13  25
HETATM   25  N   UNL     1     -11.251  13.441  67.859  1.00  0.00    -0.263 N  
HETATM   26  O   UNL     1     -12.799  13.596  69.545  1.00  0.00     0.149 OA 
HETATM   27  C   UNL     1     -11.907  14.112  68.885  1.00  0.00    -0.347 C  
HETATM   28  H   UNL     1     -10.924  14.057  67.115  1.00  0.00     0.000 HD 
BRANCH  27  29
HETATM   29  C   UNL     1     -11.434  15.627  69.062  1.00  0.00    -0.369 C  
HETATM   30  C   UNL     1      -9.905  15.886  69.189  1.00  0.00    -0.247 C  
HETATM   31  N   UNL     1      -9.403  17.156  68.595  1.00  0.00    -0.266 NA 
HETATM   32  C   UNL     1      -9.766  18.386  69.294  1.00  0.00    -0.002 C  
HETATM   33  C   UNL     1      -9.646  17.224  67.133  1.00  0.00    -0.257 C  
HETATM   34  C   UNL     1      -8.400  16.594  66.409  1.00  0.00    -0.353 C  
HETATM   35  C   UNL     1      -8.587  15.141  66.199  1.00  0.00     0.155 A  
HETATM   36  C   UNL     1      -7.768  14.028  66.215  1.00  0.00     2.111 A  
HETATM   37  N   UNL     1      -8.545  12.932  65.969  1.00  0.00    -0.046 NA 
HETATM   38  H   UNL     1      -8.217  11.966  65.998  1.00  0.00     0.000 HD 
HETATM   39  C   UNL     1      -9.834  13.317  65.676  1.00  0.00    -0.162 A  
HETATM   40  C   UNL     1     -10.976  12.618  65.297  1.00  0.00    -0.320 A  
HETATM   41  C   UNL     1     -12.139  13.386  65.105  1.00  0.00    -0.442 A  
HETATM   42  C   UNL     1     -12.195  14.747  65.440  1.00  0.00    -0.126 A  
HETATM   43  C   UNL     1     -11.071  15.387  65.957  1.00  0.00    -0.233 A  
HETATM   44  C   UNL     1      -9.875  14.672  65.921  1.00  0.00    -0.358 A  
HETATM   45  C   UNL     1     -11.092  16.700  66.707  1.00  0.00     0.218 C  
HETATM   46  C   UNL     1     -12.012  16.559  67.961  1.00  0.00     0.758 C  
ENDBRANCH  27  29
ENDBRANCH  13  25
TORSDOF 4
ENDMDL
MODEL      176
REMARK 921   NORMALIZED FREE ENERGY PREDICTED BY IDOCK:   24.28 KCAL/MOL
REMARK 922        TOTAL FREE ENERGY PREDICTED BY IDOCK:   28.72 KCAL/MOL
REMARK 923 INTER-LIGAND FREE ENERGY PREDICTED BY IDOCK:   23.88 KCAL/MOL
REMARK 924 INTRA-LIGAND FREE ENERGY PREDICTED BY IDOCK:    4.83 KCAL/MOL
REMARK 927      BINDING AFFINITY PREDICTED BY RF-SCORE:    0.00 PKD
ROOT
HETATM    1  C   UNL     1     -12.230  15.080  65.910  1.00  0.00     0.230 C  
HETATM    2  C   UNL     1     -13.194  15.459  64.785  1.00  0.00     1.453 C  
HETATM    3  C   UNL     1     -12.897  14.382  63.702  1.00  0.00     0.984 C  
HETATM    4  C   UNL     1     -11.622  13.662  64.154  1.00  0.00    -0.352 C  
HETATM    5  N   UNL     1     -11.117  14.448  65.263  1.00  0.00    -0.324 N  
HETATM    6  C   UNL     1     -10.138  13.882  66.055  1.00  0.00    -0.313 C  
HETATM    7  O   UNL     1      -9.134  13.352  65.585  1.00  0.00     0.295 OA 
HETATM    8  C   UNL     1     -10.338  14.096  67.593  1.00  0.00    -0.241 C  
HETATM    9  O   UNL     1     -11.113  16.608  68.104  1.00  0.00    -0.361 OA 
HETATM   10  N   UNL     1     -11.741  14.577  68.035  1.00  0.00    -0.337 N  
HETATM   11  C   UNL     1     -11.915  15.159  69.263  1.00  0.00    -0.292 C  
HETATM   12  H   UNL     1     -13.228  16.727  68.421  1.00  0.00     0.000 HD 
HETATM   13  C   UNL     1     -10.608  15.958  69.481  1.00  0.00    -0.282 C  
HETATM   14  O   UNL     1     -13.000  15.143  69.842  1.00  0.00    -0.085 OA 
HETATM   15  O   UNL     1     -13.339  16.323  67.569  1.00  0.00     4.107 OA 
HETATM   16  C   UNL     1     -10.961  15.475  70.987  1.00  0.00    -0.314 C  
HETATM   17  C   UNL     1     -12.044  15.760  67.345  1.00  0.00     0.807 C  
ENDROOT
BRANCH   8  18
HETATM   18  C   UNL     1      -9.831  12.904  68.419  1.00  0.00    -0.197 C  
BRANCH  18  19
HETATM   19  C   UNL     1      -8.805  12.167  67.611  1.00  0.00    -0.172 A  
HETATM   20  C   UNL     1      -8.417  10.514  65.896  1.00  0.00    -0.164 A  
HETATM   21  C   UNL     1      -7.189  10.212  66.476  1.00  0.00    -0.104 A  
HETATM   22  C   UNL     1      -7.540  11.915  68.148  1.00  0.00    -0.121 A  
HETATM   23  C   UNL     1      -6.737  10.933  67.584  1.00  0.00    -0.069 A  
HETATM   24  C   UNL     1      -9.212  11.511  66.442  1.00  0.00    -0.218 A  
ENDBRANCH  18  19
ENDBRANCH   8  18
BRANCH  13  25
HETATM   25  N   UNL     1      -9.370  16.661  69.869  1.00  0.00     0.587 N  
HETATM   26  O   UNL     1      -8.202  17.219  67.976  1.00  0.00    -0.210 OA 
HETATM   27  C   UNL     1      -8.446  17.418  69.158  1.00  0.00     0.064 C  
HETATM   28  H   UNL     1      -9.148  16.575  70.860  1.00  0.00     0.000 HD 
BRANCH  27  29
HETATM   29  C   UNL     1      -7.695  18.510  70.050  1.00  0.00     1.294 C  
HETATM   30  C   UNL     1      -7.735  18.320  71.594  1.00  0.00     8.152 C  
HETATM   31  N   UNL     1      -6.525  18.762  72.340  1.00  0.00     2.013 NA 
HETATM   32  C   UNL     1      -6.307  20.204  72.428  1.00  0.00     0.837 C  
HETATM   33  C   UNL     1      -5.311  18.014  71.931  1.00  0.00     0.430 C  
HETATM   34  C   UNL     1      -5.201  16.739  72.846  1.00  0.00     2.990 C  
HETATM   35  C   UNL     1      -5.906  15.588  72.240  1.00  0.00     1.031 A  
HETATM   36  C   UNL     1      -6.648  14.523  72.715  1.00  0.00     1.866 A  
HETATM   37  N   UNL     1      -7.070  13.793  71.641  1.00  0.00     1.847 NA 
HETATM   38  H   UNL     1      -7.701  12.993  71.691  1.00  0.00     0.000 HD 
HETATM   39  C   UNL     1      -6.522  14.291  70.480  1.00  0.00    -0.035 A  
HETATM   40  C   UNL     1      -6.574  13.886  69.150  1.00  0.00    -0.111 A  
HETATM   41  C   UNL     1      -5.881  14.692  68.228  1.00  0.00    -0.116 A  
HETATM   42  C   UNL     1      -5.315  15.922  68.594  1.00  0.00    -0.102 A  
HETATM   43  C   UNL     1      -5.407  16.371  69.910  1.00  0.00    -0.158 A  
HETATM   44  C   UNL     1      -5.890  15.458  70.847  1.00  0.00     0.106 A  
HETATM   45  C   UNL     1      -5.201  17.803  70.353  1.00  0.00    -0.262 C  
HETATM   46  C   UNL     1      -6.221  18.721  69.607  1.00  0.00    -0.267 C  
ENDBRANCH  27  29
ENDBRANCH  13  25
TORSDOF 4
ENDMDL
MODEL      177
REMARK 921   NORMALIZED FREE ENERGY PREDICTED BY IDOCK:   24.77 KCAL/MOL
REMARK 922        TOTAL FREE ENERGY PREDICTED BY IDOCK:   29.33 KCAL/MOL
REMARK 923 INTER-LIGAND FREE ENERGY PREDICTED BY IDOCK:    8.31 KCAL/MOL
REMARK 924 INTRA-LIGAND FREE ENERGY PREDICTED BY IDOCK:   21.02 KCAL/MOL
REMARK 927      BINDING AFFINITY PREDICTED BY RF-SCORE:    0.00 PKD
ROOT
HETATM    1  C   UNL     1     -10.688  13.196  67.688  1.00  0.00    -0.238 C  
HETATM    2  C   UNL     1     -10.360  14.555  67.069  1.00  0.00    -0.263 C  
HETATM    3  C   UNL     1     -10.627  14.316  65.555  1.00  0.00    -0.351 C  
HETATM    4  C   UNL     1     -10.806  12.803  65.386  1.00  0.00    -0.286 C  
HETATM    5  N   UNL     1     -10.415  12.232  66.660  1.00  0.00    -0.220 N  
HETATM    6  C   UNL     1     -10.747  10.913  66.899  1.00  0.00    -0.264 C  
HETATM    7  O   UNL     1     -10.516  10.019  66.089  1.00  0.00    -0.185 OA 
HETATM    8  C   UNL     1     -11.305  10.630  68.333  1.00  0.00    -0.283 C  
HETATM    9  O   UNL     1      -9.884  11.952  70.179  1.00  0.00     1.927 OA 
HETATM   10  N   UNL     1     -11.744  11.870  69.149  1.00  0.00    -0.297 N  
HETATM   11  C   UNL     1     -11.872  11.789  70.510  1.00  0.00    -0.192 C  
HETATM   12  H   UNL     1     -10.879  13.745  70.798  1.00  0.00     0.000 HD 
HETATM   13  C   UNL     1     -10.739  10.822  70.931  1.00  0.00     1.155 C  
HETATM   14  O   UNL     1     -12.615  12.541  71.139  1.00  0.00    -0.365 OA 
HETATM   15  O   UNL     1     -10.895  14.005  69.885  1.00  0.00    -0.004 OA 
HETATM   16  C   UNL     1     -11.904  10.458  71.997  1.00  0.00     0.758 C  
HETATM   17  C   UNL     1     -10.661  12.759  69.225  1.00  0.00     0.089 C  
ENDROOT
BRANCH   8  18
HETATM   18  C   UNL     1     -12.359   9.512  68.339  1.00  0.00     3.534 C  
BRANCH  18  19
HETATM   19  C   UNL     1     -12.614   9.104  69.758  1.00  0.00     1.519 A  
HETATM   20  C   UNL     1     -13.020   7.270  71.273  1.00  0.00    -0.377 A  
HETATM   21  C   UNL     1     -13.740   8.124  72.103  1.00  0.00    -0.282 A  
HETATM   22  C   UNL     1     -13.272   9.977  70.629  1.00  0.00    -0.174 A  
HETATM   23  C   UNL     1     -13.840   9.483  71.796  1.00  0.00    -0.313 A  
HETATM   24  C   UNL     1     -12.430   7.763  70.118  1.00  0.00     0.830 A  
ENDBRANCH  18  19
ENDBRANCH   8  18
BRANCH  13  25
HETATM   25  N   UNL     1      -9.784   9.827  71.454  1.00  0.00     0.124 N  
HETATM   26  O   UNL     1     -10.472   7.729  70.832  1.00  0.00    -0.205 OA 
HETATM   27  C   UNL     1      -9.572   8.480  71.183  1.00  0.00    -0.193 C  
HETATM   28  H   UNL     1      -9.149  10.204  72.157  1.00  0.00     0.000 HD 
BRANCH  27  29
HETATM   29  C   UNL     1      -8.069   8.006  71.442  1.00  0.00    -0.118 C  
HETATM   30  C   UNL     1      -7.836   6.956  72.566  1.00  0.00    -0.095 C  
HETATM   31  N   UNL     1      -6.735   5.979  72.335  1.00  0.00    -0.067 NA 
HETATM   32  C   UNL     1      -5.375   6.505  72.413  1.00  0.00    -0.036 C  
HETATM   33  C   UNL     1      -6.970   5.149  71.128  1.00  0.00    -0.051 C  
HETATM   34  C   UNL     1      -7.777   3.873  71.572  1.00  0.00    -0.061 C  
HETATM   35  C   UNL     1      -9.234   4.110  71.481  1.00  0.00    -0.194 A  
HETATM   36  C   UNL     1     -10.344   3.725  72.210  1.00  0.00    -0.084 A  
HETATM   37  N   UNL     1     -11.443   4.298  71.635  1.00  0.00     1.545 NA 
HETATM   38  H   UNL     1     -12.391   4.247  72.010  1.00  0.00     0.000 HD 
HETATM   39  C   UNL     1     -11.089   4.954  70.478  1.00  0.00     1.028 A  
HETATM   40  C   UNL     1     -11.817   5.631  69.504  1.00  0.00     2.064 A  
HETATM   41  C   UNL     1     -11.071   6.202  68.457  1.00  0.00    -0.352 A  
HETATM   42  C   UNL     1      -9.669   6.239  68.476  1.00  0.00    -0.137 A  
HETATM   43  C   UNL     1      -8.969   5.679  69.543  1.00  0.00    -0.129 A  
HETATM   44  C   UNL     1      -9.713   4.921  70.447  1.00  0.00    -0.284 A  
HETATM   45  C   UNL     1      -7.527   5.982  69.886  1.00  0.00    -0.080 C  
HETATM   46  C   UNL     1      -7.373   7.514  70.143  1.00  0.00    -0.077 C  
ENDBRANCH  27  29
ENDBRANCH  13  25
TORSDOF 4
ENDMDL
MODEL      178
REMARK 921   NORMALIZED FREE ENERGY PREDICTED BY IDOCK:   25.64 KCAL/MOL
REMARK 922        TOTAL FREE ENERGY PREDICTED BY IDOCK:   30.40 KCAL/MOL
REMARK 923 INTER-LIGAND FREE ENERGY PREDICTED BY IDOCK:   29.12 KCAL/MOL
REMARK 924 INTRA-LIGAND FREE ENERGY PREDICTED BY IDOCK:    1.28 KCAL/MOL
REMARK 927      BINDING AFFINITY PREDICTED BY RF-SCORE:    0.00 PKD
ROOT
HETATM    1  C   UNL     1      -9.976  11.875  69.622  1.00  0.00     1.062 C  
HETATM    2  C   UNL     1     -10.593  10.476  69.675  1.00  0.00    -0.281 C  
HETATM    3  C   UNL     1      -9.344   9.549  69.636  1.00  0.00    -0.213 C  
HETATM    4  C   UNL     1      -8.155  10.448  69.283  1.00  0.00    -0.157 C  
HETATM    5  N   UNL     1      -8.741  11.720  68.908  1.00  0.00     0.042 N  
HETATM    6  C   UNL     1      -7.899  12.811  68.818  1.00  0.00     0.040 C  
HETATM    7  O   UNL     1      -6.840  12.777  68.196  1.00  0.00    -0.074 OA 
HETATM    8  C   UNL     1      -8.468  14.127  69.446  1.00  0.00     0.459 C  
HETATM    9  O   UNL     1     -11.050  14.440  68.808  1.00  0.00    -0.236 OA 
HETATM   10  N   UNL     1      -9.693  13.963  70.376  1.00  0.00     2.421 N  
HETATM   11  C   UNL     1     -10.494  15.037  70.658  1.00  0.00     0.159 C  
HETATM   12  H   UNL     1     -12.333  13.832  70.413  1.00  0.00     0.000 HD 
HETATM   13  C   UNL     1     -10.499  15.850  69.341  1.00  0.00    -0.265 C  
HETATM   14  O   UNL     1     -11.166  15.095  71.686  1.00  0.00    -0.373 OA 
HETATM   15  O   UNL     1     -11.900  12.987  70.386  1.00  0.00    -0.285 OA 
HETATM   16  C   UNL     1     -10.567  17.021  70.458  1.00  0.00     0.741 C  
HETATM   17  C   UNL     1     -10.704  13.297  69.667  1.00  0.00     0.389 C  
ENDROOT
BRANCH   8  18
HETATM   18  C   UNL     1      -7.366  15.002  70.064  1.00  0.00     0.045 C  
BRANCH  18  19
HETATM   19  C   UNL     1      -7.031  14.459  71.420  1.00  0.00     1.630 A  
HETATM   20  C   UNL     1      -6.754  14.960  73.764  1.00  0.00     3.114 A  
HETATM   21  C   UNL     1      -5.832  13.922  73.869  1.00  0.00     0.038 A  
HETATM   22  C   UNL     1      -6.164  13.371  71.544  1.00  0.00     0.951 A  
HETATM   23  C   UNL     1      -5.560  13.109  72.767  1.00  0.00     0.575 A  
HETATM   24  C   UNL     1      -7.377  15.210  72.551  1.00  0.00     5.024 A  
ENDBRANCH  18  19
ENDBRANCH   8  18
BRANCH  13  25
HETATM   25  N   UNL     1     -10.494  16.778  68.194  1.00  0.00    -0.315 N  
HETATM   26  O   UNL     1     -12.653  17.131  67.506  1.00  0.00     2.853 OA 
HETATM   27  C   UNL     1     -11.491  17.510  67.560  1.00  0.00     0.769 C  
HETATM   28  H   UNL     1      -9.570  16.909  67.783  1.00  0.00     0.000 HD 
BRANCH  27  29
HETATM   29  C   UNL     1     -10.958  18.842  66.859  1.00  0.00    -0.197 C  
HETATM   30  C   UNL     1      -9.530  19.328  67.245  1.00  0.00    -0.314 C  
HETATM   31  N   UNL     1      -8.749  19.990  66.164  1.00  0.00    -0.316 NA 
HETATM   32  C   UNL     1      -9.197  21.321  65.762  1.00  0.00     2.462 C  
HETATM   33  C   UNL     1      -8.508  19.085  65.013  1.00  0.00     2.534 C  
HETATM   34  C   UNL     1      -7.162  18.316  65.281  1.00  0.00     0.485 C  
HETATM   35  C   UNL     1      -7.409  17.050  66.005  1.00  0.00    -0.087 A  
HETATM   36  C   UNL     1      -6.747  16.322  66.975  1.00  0.00    -0.182 A  
HETATM   37  N   UNL     1      -7.505  15.224  67.268  1.00  0.00    -0.205 NA 
HETATM   38  H   UNL     1      -7.296  14.551  68.005  1.00  0.00     0.000 HD 
HETATM   39  C   UNL     1      -8.592  15.157  66.425  1.00  0.00    -0.104 A  
HETATM   40  C   UNL     1      -9.615  14.229  66.260  1.00  0.00    -0.310 A  
HETATM   41  C   UNL     1     -10.579  14.535  65.282  1.00  0.00    -0.400 A  
HETATM   42  C   UNL     1     -10.610  15.777  64.632  1.00  0.00     0.001 A  
HETATM   43  C   UNL     1      -9.653  16.746  64.927  1.00  0.00     2.035 A  
HETATM   44  C   UNL     1      -8.580  16.340  65.720  1.00  0.00     0.188 A  
HETATM   45  C   UNL     1      -9.787  18.219  64.611  1.00  0.00     4.550 C  
HETATM   46  C   UNL     1     -11.066  18.778  65.311  1.00  0.00     0.865 C  
ENDBRANCH  27  29
ENDBRANCH  13  25
TORSDOF 4
ENDMDL
MODEL      179
REMARK 921   NORMALIZED FREE ENERGY PREDICTED BY IDOCK:   26.58 KCAL/MOL
REMARK 922        TOTAL FREE ENERGY PREDICTED BY IDOCK:   31.56 KCAL/MOL
REMARK 923 INTER-LIGAND FREE ENERGY PREDICTED BY IDOCK:   31.90 KCAL/MOL
REMARK 924 INTRA-LIGAND FREE ENERGY PREDICTED BY IDOCK:   -0.33 KCAL/MOL
REMARK 927      BINDING AFFINITY PREDICTED BY RF-SCORE:    0.00 PKD
ROOT
HETATM    1  C   UNL     1     -11.391   5.708  66.148  1.00  0.00     0.776 C  
HETATM    2  C   UNL     1     -12.435   5.061  65.237  1.00  0.00     4.613 C  
HETATM    3  C   UNL     1     -13.729   5.853  65.583  1.00  0.00    11.187 C  
HETATM    4  C   UNL     1     -13.405   6.676  66.835  1.00  0.00    14.817 C  
HETATM    5  N   UNL     1     -12.121   6.182  67.289  1.00  0.00     2.531 N  
HETATM    6  C   UNL     1     -11.443   6.932  68.231  1.00  0.00     0.348 C  
HETATM    7  O   UNL     1     -11.981   7.347  69.254  1.00  0.00     0.689 OA 
HETATM    8  C   UNL     1      -9.909   7.087  67.960  1.00  0.00    -0.138 C  
HETATM    9  O   UNL     1      -8.849   4.759  67.166  1.00  0.00    -0.107 OA 
HETATM   10  N   UNL     1      -9.428   6.708  66.539  1.00  0.00    -0.164 N  
HETATM   11  C   UNL     1      -8.106   6.433  66.310  1.00  0.00    -0.114 C  
HETATM   12  H   UNL     1      -8.607   4.694  65.039  1.00  0.00     0.000 HD 
HETATM   13  C   UNL     1      -7.646   5.724  67.607  1.00  0.00    -0.089 C  
HETATM   14  O   UNL     1      -7.596   6.573  65.200  1.00  0.00    -0.078 OA 
HETATM   15  O   UNL     1      -9.535   4.882  64.967  1.00  0.00    -0.125 OA 
HETATM   16  C   UNL     1      -6.316   6.547  67.184  1.00  0.00    -0.041 C  
HETATM   17  C   UNL     1      -9.829   5.391  66.269  1.00  0.00    -0.164 C  
ENDROOT
BRANCH   8  18
HETATM   18  C   UNL     1      -9.370   8.447  68.428  1.00  0.00    -0.137 C  
BRANCH  18  19
HETATM   19  C   UNL     1      -8.495   8.227  69.625  1.00  0.00    -0.125 A  
HETATM   20  C   UNL     1      -8.419   7.878  72.012  1.00  0.00    -0.169 A  
HETATM   21  C   UNL     1      -7.163   8.476  72.052  1.00  0.00    -0.108 A  
HETATM   22  C   UNL     1      -7.203   8.758  69.656  1.00  0.00    -0.055 A  
HETATM   23  C   UNL     1      -6.543   8.888  70.870  1.00  0.00    -0.061 A  
HETATM   24  C   UNL     1      -9.072   7.723  70.798  1.00  0.00    -0.149 A  
ENDBRANCH  18  19
ENDBRANCH   8  18
BRANCH  13  25
HETATM   25  N   UNL     1      -7.048   5.148  68.826  1.00  0.00    -0.056 N  
HETATM   26  O   UNL     1      -5.147   3.998  68.256  1.00  0.00    -0.006 OA 
HETATM   27  C   UNL     1      -5.805   4.589  69.101  1.00  0.00    -0.018 C  
HETATM   28  H   UNL     1      -7.673   5.163  69.631  1.00  0.00     0.000 HD 
BRANCH  27  29
HETATM   29  C   UNL     1      -5.364   4.734  70.629  1.00  0.00    -0.004 C  
HETATM   30  C   UNL     1      -6.223   5.664  71.534  1.00  0.00    -0.038 C  
HETATM   31  N   UNL     1      -6.358   5.250  72.958  1.00  0.00    -0.050 NA 
HETATM   32  C   UNL     1      -5.165   5.386  73.789  1.00  0.00    -0.022 C  
HETATM   33  C   UNL     1      -7.016   3.928  73.097  1.00  0.00    -0.053 C  
HETATM   34  C   UNL     1      -8.567   4.171  73.198  1.00  0.00    -0.093 C  
HETATM   35  C   UNL     1      -9.196   4.152  71.859  1.00  0.00    -0.176 A  
HETATM   36  C   UNL     1     -10.233   4.829  71.246  1.00  0.00    -0.158 A  
HETATM   37  N   UNL     1     -10.324   4.381  69.958  1.00  0.00     0.093 NA 
HETATM   38  H   UNL     1     -10.953   4.762  69.251  1.00  0.00     0.000 HD 
HETATM   39  C   UNL     1      -9.445   3.342  69.752  1.00  0.00    -0.142 A  
HETATM   40  C   UNL     1      -9.190   2.509  68.667  1.00  0.00    -0.239 A  
HETATM   41  C   UNL     1      -8.171   1.555  68.842  1.00  0.00    -0.065 A  
HETATM   42  C   UNL     1      -7.343   1.551  69.974  1.00  0.00    -0.036 A  
HETATM   43  C   UNL     1      -7.530   2.495  70.982  1.00  0.00    -0.033 A  
HETATM   44  C   UNL     1      -8.682   3.276  70.897  1.00  0.00    -0.126 A  
HETATM   45  C   UNL     1      -6.504   2.853  72.034  1.00  0.00    -0.015 C  
HETATM   46  C   UNL     1      -5.204   3.358  71.331  1.00  0.00    -0.004 C  
ENDBRANCH  27  29
ENDBRANCH  13  25
TORSDOF 4
ENDMDL
MODEL      180
REMARK 921   NORMALIZED FREE ENERGY PREDICTED BY IDOCK:   28.62 KCAL/MOL
REMARK 922        TOTAL FREE ENERGY PREDICTED BY IDOCK:   34.07 KCAL/MOL
REMARK 923 INTER-LIGAND FREE ENERGY PREDICTED BY IDOCK:   32.89 KCAL/MOL
REMARK 924 INTRA-LIGAND FREE ENERGY PREDICTED BY IDOCK:    1.18 KCAL/MOL
REMARK 927      BINDING AFFINITY PREDICTED BY RF-SCORE:    0.00 PKD
ROOT
HETATM    1  C   UNL     1     -11.451   5.718  66.158  1.00  0.00     1.147 C  
HETATM    2  C   UNL     1     -12.475   5.024  65.260  1.00  0.00     4.613 C  
HETATM    3  C   UNL     1     -13.785   5.806  65.565  1.00  0.00    10.585 C  
HETATM    4  C   UNL     1     -13.488   6.676  66.791  1.00  0.00    15.782 C  
HETATM    5  N   UNL     1     -12.200   6.219  67.275  1.00  0.00     3.137 N  
HETATM    6  C   UNL     1     -11.544   7.012  68.196  1.00  0.00     0.732 C  
HETATM    7  O   UNL     1     -12.100   7.453  69.200  1.00  0.00     1.051 OA 
HETATM    8  C   UNL     1     -10.010   7.183  67.936  1.00  0.00    -0.154 C  
HETATM    9  O   UNL     1      -8.905   4.846  67.234  1.00  0.00    -0.104 OA 
HETATM   10  N   UNL     1      -9.508   6.763  66.534  1.00  0.00    -0.165 N  
HETATM   11  C   UNL     1      -8.179   6.501  66.327  1.00  0.00    -0.119 C  
HETATM   12  H   UNL     1      -8.639   4.711  65.113  1.00  0.00     0.000 HD 
HETATM   13  C   UNL     1      -7.722   5.845  67.653  1.00  0.00    -0.097 C  
HETATM   14  O   UNL     1      -7.660   6.611  65.218  1.00  0.00    -0.077 OA 
HETATM   15  O   UNL     1      -9.570   4.882  65.025  1.00  0.00    -0.107 OA 
HETATM   16  C   UNL     1      -6.401   6.675  67.215  1.00  0.00    -0.037 C  
HETATM   17  C   UNL     1      -9.885   5.431  66.306  1.00  0.00    -0.164 C  
ENDROOT
BRANCH   8  18
HETATM   18  C   UNL     1      -9.497   8.567  68.362  1.00  0.00    -0.141 C  
BRANCH  18  19
HETATM   19  C   UNL     1     -10.342   9.613  67.700  1.00  0.00    -0.290 A  
HETATM   20  C   UNL     1     -11.036  10.599  65.609  1.00  0.00     0.110 A  
HETATM   21  C   UNL     1     -11.242  11.813  66.259  1.00  0.00    -0.370 A  
HETATM   22  C   UNL     1     -10.622  10.810  68.364  1.00  0.00    -0.228 A  
HETATM   23  C   UNL     1     -11.064  11.909  67.641  1.00  0.00    -0.314 A  
HETATM   24  C   UNL     1     -10.617   9.491  66.332  1.00  0.00    -0.083 A  
ENDBRANCH  18  19
ENDBRANCH   8  18
BRANCH  13  25
HETATM   25  N   UNL     1      -7.128   5.321  68.897  1.00  0.00    -0.059 N  
HETATM   26  O   UNL     1      -5.250   4.111  68.378  1.00  0.00    -0.007 OA 
HETATM   27  C   UNL     1      -5.893   4.756  69.195  1.00  0.00    -0.017 C  
HETATM   28  H   UNL     1      -7.749   5.388  69.703  1.00  0.00     0.000 HD 
BRANCH  27  29
HETATM   29  C   UNL     1      -5.442   4.970  70.712  1.00  0.00    -0.004 C  
HETATM   30  C   UNL     1      -6.198   6.055  71.533  1.00  0.00    -0.044 C  
HETATM   31  N   UNL     1      -6.379   5.770  72.984  1.00  0.00    -0.060 NA 
HETATM   32  C   UNL     1      -5.180   5.840  73.814  1.00  0.00    -0.024 C  
HETATM   33  C   UNL     1      -7.177   4.541  73.217  1.00  0.00    -0.079 C  
HETATM   34  C   UNL     1      -8.693   4.957  73.284  1.00  0.00    -0.104 C  
HETATM   35  C   UNL     1      -9.317   4.902  71.943  1.00  0.00    -0.180 A  
HETATM   36  C   UNL     1     -10.273   5.638  71.269  1.00  0.00    -0.220 A  
HETATM   37  N   UNL     1     -10.410   5.103  70.019  1.00  0.00    -0.289 NA 
HETATM   38  H   UNL     1     -10.993   5.494  69.278  1.00  0.00     0.000 HD 
HETATM   39  C   UNL     1      -9.648   3.963  69.902  1.00  0.00    -0.200 A  
HETATM   40  C   UNL     1      -9.483   3.025  68.887  1.00  0.00    -0.176 A  
HETATM   41  C   UNL     1      -8.574   1.984  69.145  1.00  0.00    -0.100 A  
HETATM   42  C   UNL     1      -7.753   1.978  70.283  1.00  0.00    -0.044 A  
HETATM   43  C   UNL     1      -7.839   3.012  71.213  1.00  0.00    -0.051 A  
HETATM   44  C   UNL     1      -8.899   3.904  71.057  1.00  0.00    -0.134 A  
HETATM   45  C   UNL     1      -6.782   3.338  72.245  1.00  0.00    -0.015 C  
HETATM   46  C   UNL     1      -5.434   3.643  71.519  1.00  0.00    -0.008 C  
ENDBRANCH  27  29
ENDBRANCH  13  25
TORSDOF 4
ENDMDL
MODEL      181
REMARK 921   NORMALIZED FREE ENERGY PREDICTED BY IDOCK:   30.69 KCAL/MOL
REMARK 922        TOTAL FREE ENERGY PREDICTED BY IDOCK:   36.63 KCAL/MOL
REMARK 923 INTER-LIGAND FREE ENERGY PREDICTED BY IDOCK:   36.52 KCAL/MOL
REMARK 924 INTRA-LIGAND FREE ENERGY PREDICTED BY IDOCK:    0.10 KCAL/MOL
REMARK 927      BINDING AFFINITY PREDICTED BY RF-SCORE:    0.00 PKD
ROOT
HETATM    1  C   UNL     1      -7.349  11.847  68.186  1.00  0.00    -0.092 C  
HETATM    2  C   UNL     1      -7.809  10.396  68.339  1.00  0.00    -0.104 C  
HETATM    3  C   UNL     1      -7.205   9.711  67.079  1.00  0.00    -0.087 C  
HETATM    4  C   UNL     1      -6.703  10.843  66.176  1.00  0.00    -0.103 C  
HETATM    5  N   UNL     1      -7.218  12.059  66.773  1.00  0.00    -0.033 N  
HETATM    6  C   UNL     1      -6.687  13.259  66.341  1.00  0.00     2.791 C  
HETATM    7  O   UNL     1      -6.572  13.537  65.150  1.00  0.00     9.416 OA 
HETATM    8  C   UNL     1      -6.380  14.285  67.482  1.00  0.00    -0.006 C  
HETATM    9  O   UNL     1      -8.371  14.331  69.273  1.00  0.00     0.045 OA 
HETATM   10  N   UNL     1      -6.365  13.717  68.921  1.00  0.00    -0.090 N  
HETATM   11  C   UNL     1      -6.496  14.557  69.995  1.00  0.00    -0.160 C  
HETATM   12  H   UNL     1      -7.891  13.171  71.008  1.00  0.00     0.000 HD 
HETATM   13  C   UNL     1      -7.477  15.645  69.495  1.00  0.00    -0.192 C  
HETATM   14  O   UNL     1      -6.055  14.266  71.105  1.00  0.00    -0.208 OA 
HETATM   15  O   UNL     1      -7.745  12.434  70.427  1.00  0.00     2.232 OA 
HETATM   16  C   UNL     1      -6.499  16.496  70.466  1.00  0.00     0.810 C  
HETATM   17  C   UNL     1      -7.594  13.087  69.164  1.00  0.00     0.254 C  
ENDROOT
BRANCH   8  18
HETATM   18  C   UNL     1      -5.150  15.151  67.171  1.00  0.00     0.662 C  
BRANCH  18  19
HETATM   19  C   UNL     1      -5.580  16.586  67.109  1.00  0.00    -0.146 A  
HETATM   20  C   UNL     1      -5.864  18.533  65.712  1.00  0.00    -0.230 A  
HETATM   21  C   UNL     1      -5.659  19.349  66.821  1.00  0.00    -0.166 A  
HETATM   22  C   UNL     1      -5.450  17.404  68.234  1.00  0.00    -0.144 A  
HETATM   23  C   UNL     1      -5.482  18.785  68.086  1.00  0.00    -0.179 A  
HETATM   24  C   UNL     1      -5.857  17.153  65.859  1.00  0.00     0.399 A  
ENDBRANCH  18  19
ENDBRANCH   8  18
BRANCH  13  25
HETATM   25  N   UNL     1      -8.303  16.805  69.110  1.00  0.00    -0.155 N  
HETATM   26  O   UNL     1      -9.207  17.741  70.999  1.00  0.00     5.056 OA 
HETATM   27  C   UNL     1      -8.861  17.855  69.831  1.00  0.00     1.678 C  
HETATM   28  H   UNL     1      -8.505  16.846  68.111  1.00  0.00     0.000 HD 
BRANCH  27  29
HETATM   29  C   UNL     1      -9.066  19.184  68.968  1.00  0.00    -0.273 C  
HETATM   30  C   UNL     1      -8.861  19.073  67.430  1.00  0.00    -0.287 C  
HETATM   31  N   UNL     1      -9.732  19.942  66.589  1.00  0.00    -0.393 NA 
HETATM   32  C   UNL     1      -9.444  21.373  66.621  1.00  0.00     1.408 C  
HETATM   33  C   UNL     1     -11.171  19.633  66.770  1.00  0.00     0.114 C  
HETATM   34  C   UNL     1     -11.561  18.524  65.725  1.00  0.00     2.300 C  
HETATM   35  C   UNL     1     -11.376  17.171  66.295  1.00  0.00     0.945 A  
HETATM   36  C   UNL     1     -10.967  15.943  65.809  1.00  0.00    -0.177 A  
HETATM   37  N   UNL     1     -10.975  15.056  66.848  1.00  0.00    -0.320 NA 
HETATM   38  H   UNL     1     -10.645  14.092  66.795  1.00  0.00     0.000 HD 
HETATM   39  C   UNL     1     -11.493  15.650  67.977  1.00  0.00    -0.291 A  
HETATM   40  C   UNL     1     -11.777  15.182  69.257  1.00  0.00    -0.352 A  
HETATM   41  C   UNL     1     -12.292  16.126  70.164  1.00  0.00     0.213 A  
HETATM   42  C   UNL     1     -12.357  17.493  69.856  1.00  0.00     6.486 A  
HETATM   43  C   UNL     1     -11.927  17.953  68.613  1.00  0.00     3.319 A  
HETATM   44  C   UNL     1     -11.641  16.981  67.655  1.00  0.00     0.675 A  
HETATM   45  C   UNL     1     -11.579  19.390  68.294  1.00  0.00     1.844 C  
HETATM   46  C   UNL     1     -10.435  19.862  69.247  1.00  0.00     0.063 C  
ENDBRANCH  27  29
ENDBRANCH  13  25
TORSDOF 4
ENDMDL
MODEL      182
REMARK 921   NORMALIZED FREE ENERGY PREDICTED BY IDOCK:   31.88 KCAL/MOL
REMARK 922        TOTAL FREE ENERGY PREDICTED BY IDOCK:   38.10 KCAL/MOL
REMARK 923 INTER-LIGAND FREE ENERGY PREDICTED BY IDOCK:   16.16 KCAL/MOL
REMARK 924 INTRA-LIGAND FREE ENERGY PREDICTED BY IDOCK:   21.94 KCAL/MOL
REMARK 927      BINDING AFFINITY PREDICTED BY RF-SCORE:    0.00 PKD
ROOT
HETATM    1  C   UNL     1      -9.841   6.744  71.941  1.00  0.00    -0.165 C  
HETATM    2  C   UNL     1      -9.209   5.825  72.988  1.00  0.00    -0.140 C  
HETATM    3  C   UNL     1      -8.607   6.832  74.009  1.00  0.00    -0.165 C  
HETATM    4  C   UNL     1      -8.685   8.211  73.346  1.00  0.00    -0.251 C  
HETATM    5  N   UNL     1      -9.064   7.949  71.972  1.00  0.00    -0.137 N  
HETATM    6  C   UNL     1      -9.491   9.019  71.210  1.00  0.00    -0.269 C  
HETATM    7  O   UNL     1      -8.867  10.076  71.150  1.00  0.00     0.397 OA 
HETATM    8  C   UNL     1     -10.747   8.729  70.323  1.00  0.00    -0.227 C  
HETATM    9  O   UNL     1     -10.550   6.323  69.163  1.00  0.00    -0.210 OA 
HETATM   10  N   UNL     1     -11.544   7.448  70.671  1.00  0.00    -0.288 N  
HETATM   11  C   UNL     1     -12.397   6.896  69.753  1.00  0.00     0.716 C  
HETATM   12  H   UNL     1     -11.697   4.850  70.214  1.00  0.00     0.000 HD 
HETATM   13  C   UNL     1     -11.693   7.147  68.397  1.00  0.00     1.103 C  
HETATM   14  O   UNL     1     -13.352   6.200  70.090  1.00  0.00     2.906 OA 
HETATM   15  O   UNL     1     -11.206   5.081  70.994  1.00  0.00     0.250 OA 
HETATM   16  C   UNL     1     -13.257   7.284  67.994  1.00  0.00    12.843 C  
HETATM   17  C   UNL     1     -10.667   6.354  70.629  1.00  0.00    -0.257 C  
ENDROOT
BRANCH   8  18
HETATM   18  C   UNL     1     -11.647   9.964  70.165  1.00  0.00    -0.281 C  
BRANCH  18  19
HETATM   19  C   UNL     1     -10.858  11.046  69.493  1.00  0.00    -0.267 A  
HETATM   20  C   UNL     1     -10.906  12.880  67.925  1.00  0.00    -0.246 A  
HETATM   21  C   UNL     1      -9.563  12.657  67.635  1.00  0.00    -0.188 A  
HETATM   22  C   UNL     1      -9.492  10.872  69.257  1.00  0.00    -0.048 A  
HETATM   23  C   UNL     1      -8.849  11.673  68.323  1.00  0.00    -0.167 A  
HETATM   24  C   UNL     1     -11.546  12.098  68.875  1.00  0.00    -0.377 A  
ENDBRANCH  18  19
ENDBRANCH   8  18
BRANCH  13  25
HETATM   25  N   UNL     1     -11.194   7.425  67.037  1.00  0.00    -0.440 N  
HETATM   26  O   UNL     1      -9.545   9.015  67.154  1.00  0.00    -0.151 OA 
HETATM   27  C   UNL     1     -10.072   8.088  66.554  1.00  0.00    -0.200 C  
HETATM   28  H   UNL     1     -11.795   7.056  66.301  1.00  0.00     0.000 HD 
BRANCH  27  29
HETATM   29  C   UNL     1      -9.590   7.569  65.122  1.00  0.00     1.383 C  
HETATM   30  C   UNL     1      -8.065   7.630  64.818  1.00  0.00    -0.121 C  
HETATM   31  N   UNL     1      -7.525   6.541  63.957  1.00  0.00    -0.075 NA 
HETATM   32  C   UNL     1      -7.905   6.579  62.548  1.00  0.00    -0.103 C  
HETATM   33  C   UNL     1      -7.702   5.203  64.572  1.00  0.00    -0.087 C  
HETATM   34  C   UNL     1      -6.432   4.906  65.451  1.00  0.00    -0.036 C  
HETATM   35  C   UNL     1      -6.625   5.379  66.840  1.00  0.00    -0.053 A  
HETATM   36  C   UNL     1      -5.820   5.942  67.812  1.00  0.00    -0.013 A  
HETATM   37  N   UNL     1      -6.597   6.193  68.907  1.00  0.00    -0.049 NA 
HETATM   38  H   UNL     1      -6.281   6.678  69.747  1.00  0.00     0.000 HD 
HETATM   39  C   UNL     1      -7.867   5.699  68.714  1.00  0.00    -0.096 A  
HETATM   40  C   UNL     1      -8.998   5.634  69.521  1.00  0.00    -0.129 A  
HETATM   41  C   UNL     1     -10.144   5.060  68.940  1.00  0.00    -0.215 A  
HETATM   42  C   UNL     1     -10.200   4.728  67.579  1.00  0.00    -0.115 A  
HETATM   43  C   UNL     1      -9.093   4.942  66.760  1.00  0.00    -0.118 A  
HETATM   44  C   UNL     1      -7.904   5.292  67.399  1.00  0.00    -0.100 A  
HETATM   45  C   UNL     1      -9.133   5.002  65.249  1.00  0.00    -0.143 C  
HETATM   46  C   UNL     1     -10.109   6.139  64.808  1.00  0.00     2.485 C  
ENDBRANCH  27  29
ENDBRANCH  13  25
TORSDOF 4
ENDMDL
MODEL      183
REMARK 921   NORMALIZED FREE ENERGY PREDICTED BY IDOCK:   32.80 KCAL/MOL
REMARK 922        TOTAL FREE ENERGY PREDICTED BY IDOCK:   39.23 KCAL/MOL
REMARK 923 INTER-LIGAND FREE ENERGY PREDICTED BY IDOCK:   24.23 KCAL/MOL
REMARK 924 INTRA-LIGAND FREE ENERGY PREDICTED BY IDOCK:   15.00 KCAL/MOL
REMARK 927      BINDING AFFINITY PREDICTED BY RF-SCORE:    0.00 PKD
ROOT
HETATM    1  C   UNL     1      -8.336   8.318  68.420  1.00  0.00    -0.132 C  
HETATM    2  C   UNL     1      -7.475   7.290  67.684  1.00  0.00    -0.101 C  
HETATM    3  C   UNL     1      -6.944   6.396  68.842  1.00  0.00    -0.076 C  
HETATM    4  C   UNL     1      -7.296   7.127  70.142  1.00  0.00    -0.080 C  
HETATM    5  N   UNL     1      -7.755   8.438  69.726  1.00  0.00    -0.091 N  
HETATM    6  C   UNL     1      -8.410   9.214  70.662  1.00  0.00    -0.205 C  
HETATM    7  O   UNL     1      -7.965   9.399  71.792  1.00  0.00    -0.225 OA 
HETATM    8  C   UNL     1      -9.683   9.949  70.124  1.00  0.00    -0.202 C  
HETATM    9  O   UNL     1      -9.224  10.979  67.695  1.00  0.00    -0.147 OA 
HETATM   10  N   UNL     1     -10.236   9.447  68.768  1.00  0.00    -0.197 N  
HETATM   11  C   UNL     1     -11.075  10.239  68.030  1.00  0.00    -0.274 C  
HETATM   12  H   UNL     1     -10.027   9.732  66.150  1.00  0.00     0.000 HD 
HETATM   13  C   UNL     1     -10.546  11.672  68.282  1.00  0.00    -0.205 C  
HETATM   14  O   UNL     1     -11.876   9.766  67.226  1.00  0.00     1.060 OA 
HETATM   15  O   UNL     1      -9.509   9.021  66.508  1.00  0.00    -0.171 OA 
HETATM   16  C   UNL     1     -12.142  11.920  68.156  1.00  0.00    -0.035 C  
HETATM   17  C   UNL     1      -9.208   9.513  67.816  1.00  0.00    -0.124 C  
ENDROOT
BRANCH   8  18
HETATM   18  C   UNL     1     -10.774  10.086  71.197  1.00  0.00     0.020 C  
BRANCH  18  19
HETATM   19  C   UNL     1     -11.670   8.887  71.123  1.00  0.00    -0.356 A  
HETATM   20  C   UNL     1     -11.880   6.584  70.431  1.00  0.00    -0.378 A  
HETATM   21  C   UNL     1     -13.247   6.772  70.251  1.00  0.00     1.614 A  
HETATM   22  C   UNL     1     -13.053   9.052  71.014  1.00  0.00    -0.068 A  
HETATM   23  C   UNL     1     -13.838   7.996  70.571  1.00  0.00     1.042 A  
HETATM   24  C   UNL     1     -11.095   7.629  70.896  1.00  0.00    -0.275 A  
ENDBRANCH  18  19
ENDBRANCH   8  18
BRANCH  13  25
HETATM   25  N   UNL     1     -10.224  13.090  68.530  1.00  0.00    -0.305 N  
HETATM   26  O   UNL     1      -7.951  13.315  68.743  1.00  0.00    -0.084 OA 
HETATM   27  C   UNL     1      -9.039  13.815  68.490  1.00  0.00    -0.133 C  
HETATM   28  H   UNL     1     -11.036  13.652  68.782  1.00  0.00     0.000 HD 
BRANCH  27  29
HETATM   29  C   UNL     1      -9.248  15.362  68.154  1.00  0.00    -0.186 C  
HETATM   30  C   UNL     1     -10.338  15.722  67.103  1.00  0.00    -0.291 C  
HETATM   31  N   UNL     1     -11.067  17.002  67.326  1.00  0.00     0.002 NA 
HETATM   32  C   UNL     1     -10.308  18.229  67.100  1.00  0.00    -0.384 C  
HETATM   33  C   UNL     1     -11.810  17.005  68.611  1.00  0.00     1.043 C  
HETATM   34  C   UNL     1     -13.249  16.431  68.335  1.00  0.00     4.207 C  
HETATM   35  C   UNL     1     -13.279  14.964  68.519  1.00  0.00     2.751 A  
HETATM   36  C   UNL     1     -13.930  13.906  67.913  1.00  0.00     9.860 A  
HETATM   37  N   UNL     1     -13.519  12.755  68.523  1.00  0.00     3.540 NA 
HETATM   38  H   UNL     1     -13.780  11.813  68.229  1.00  0.00     0.000 HD 
HETATM   39  C   UNL     1     -12.703  13.047  69.592  1.00  0.00     0.508 A  
HETATM   40  C   UNL     1     -12.084  12.264  70.562  1.00  0.00    -0.371 A  
HETATM   41  C   UNL     1     -11.289  12.949  71.499  1.00  0.00     3.222 A  
HETATM   42  C   UNL     1     -10.994  14.314  71.368  1.00  0.00     1.427 A  
HETATM   43  C   UNL     1     -11.513  15.042  70.299  1.00  0.00    -0.308 A  
HETATM   44  C   UNL     1     -12.477  14.404  69.519  1.00  0.00    -0.164 A  
HETATM   45  C   UNL     1     -10.982  16.376  69.821  1.00  0.00    -0.341 C  
HETATM   46  C   UNL     1      -9.478  16.218  69.430  1.00  0.00    -0.161 C  
ENDBRANCH  27  29
ENDBRANCH  13  25
TORSDOF 4
ENDMDL
MODEL      184
REMARK 921   NORMALIZED FREE ENERGY PREDICTED BY IDOCK:   33.11 KCAL/MOL
REMARK 922        TOTAL FREE ENERGY PREDICTED BY IDOCK:   39.61 KCAL/MOL
REMARK 923 INTER-LIGAND FREE ENERGY PREDICTED BY IDOCK:   33.39 KCAL/MOL
REMARK 924 INTRA-LIGAND FREE ENERGY PREDICTED BY IDOCK:    6.22 KCAL/MOL
REMARK 927      BINDING AFFINITY PREDICTED BY RF-SCORE:    0.00 PKD
ROOT
HETATM    1  C   UNL     1      -7.133  14.890  69.935  1.00  0.00    -0.109 C  
HETATM    2  C   UNL     1      -6.546  16.166  70.540  1.00  0.00     0.748 C  
HETATM    3  C   UNL     1      -6.237  17.030  69.283  1.00  0.00    -0.222 C  
HETATM    4  C   UNL     1      -6.397  16.100  68.075  1.00  0.00    -0.133 C  
HETATM    5  N   UNL     1      -6.532  14.771  68.637  1.00  0.00    -0.081 N  
HETATM    6  C   UNL     1      -6.978  13.765  67.803  1.00  0.00    -0.171 C  
HETATM    7  O   UNL     1      -6.496  13.569  66.690  1.00  0.00     0.752 OA 
HETATM    8  C   UNL     1      -8.042  12.811  68.441  1.00  0.00    -0.129 C  
HETATM    9  O   UNL     1      -7.365  12.187  70.956  1.00  0.00     3.241 OA 
HETATM   10  N   UNL     1      -8.707  13.310  69.746  1.00  0.00     1.876 N  
HETATM   11  C   UNL     1      -9.337  12.426  70.581  1.00  0.00     7.443 C  
HETATM   12  H   UNL     1      -8.451  13.367  72.376  1.00  0.00     0.000 HD 
HETATM   13  C   UNL     1      -8.480  11.141  70.472  1.00  0.00     3.383 C  
HETATM   14  O   UNL     1     -10.232  12.779  71.346  1.00  0.00     7.061 OA 
HETATM   15  O   UNL     1      -8.115  14.138  71.934  1.00  0.00     4.549 OA 
HETATM   16  C   UNL     1      -9.972  10.536  70.657  1.00  0.00     1.044 C  
HETATM   17  C   UNL     1      -7.699  13.593  70.680  1.00  0.00     3.170 C  
ENDROOT
BRANCH   8  18
HETATM   18  C   UNL     1      -9.063  12.303  67.411  1.00  0.00    -0.184 C  
BRANCH  18  19
HETATM   19  C   UNL     1     -10.441  12.615  67.911  1.00  0.00    -0.225 A  
HETATM   20  C   UNL     1     -12.490  11.723  68.820  1.00  0.00     0.493 A  
HETATM   21  C   UNL     1     -13.194  12.779  68.249  1.00  0.00     4.052 A  
HETATM   22  C   UNL     1     -11.137  13.714  67.403  1.00  0.00    -0.299 A  
HETATM   23  C   UNL     1     -12.514  13.790  67.567  1.00  0.00     0.104 A  
HETATM   24  C   UNL     1     -11.112  11.656  68.680  1.00  0.00    -0.287 A  
ENDBRANCH  18  19
ENDBRANCH   8  18
BRANCH  13  25
HETATM   25  N   UNL     1      -7.827   9.822  70.370  1.00  0.00    -0.167 N  
HETATM   26  O   UNL     1      -9.433   8.185  70.431  1.00  0.00    -0.162 OA 
HETATM   27  C   UNL     1      -8.306   8.543  70.114  1.00  0.00    -0.123 C  
HETATM   28  H   UNL     1      -6.819   9.856  70.518  1.00  0.00     0.000 HD 
BRANCH  27  29
HETATM   29  C   UNL     1      -7.226   7.581  69.436  1.00  0.00    -0.082 C  
HETATM   30  C   UNL     1      -6.638   6.440  70.315  1.00  0.00    -0.045 C  
HETATM   31  N   UNL     1      -6.306   5.172  69.607  1.00  0.00    -0.029 NA 
HETATM   32  C   UNL     1      -5.150   5.210  68.715  1.00  0.00     0.000 C  
HETATM   33  C   UNL     1      -7.501   4.549  68.986  1.00  0.00    -0.056 C  
HETATM   34  C   UNL     1      -8.148   3.587  70.048  1.00  0.00    -0.056 C  
HETATM   35  C   UNL     1      -9.156   4.299  70.864  1.00  0.00    -0.186 A  
HETATM   36  C   UNL     1      -9.569   4.254  72.182  1.00  0.00    -0.145 A  
HETATM   37  N   UNL     1     -10.544   5.197  72.349  1.00  0.00    -0.216 NA 
HETATM   38  H   UNL     1     -10.976   5.437  73.242  1.00  0.00     0.000 HD 
HETATM   39  C   UNL     1     -10.859   5.776  71.141  1.00  0.00    -0.248 A  
HETATM   40  C   UNL     1     -11.805   6.719  70.753  1.00  0.00    -0.446 A  
HETATM   41  C   UNL     1     -11.801   7.080  69.393  1.00  0.00     0.305 A  
HETATM   42  C   UNL     1     -10.798   6.649  68.512  1.00  0.00    -0.319 A  
HETATM   43  C   UNL     1      -9.776   5.818  68.967  1.00  0.00    -0.180 A  
HETATM   44  C   UNL     1      -9.928   5.290  70.249  1.00  0.00    -0.310 A  
HETATM   45  C   UNL     1      -8.457   5.602  68.261  1.00  0.00    -0.105 C  
HETATM   46  C   UNL     1      -7.732   6.975  68.098  1.00  0.00    -0.113 C  
ENDBRANCH  27  29
ENDBRANCH  13  25
TORSDOF 4
ENDMDL
MODEL      185
REMARK 921   NORMALIZED FREE ENERGY PREDICTED BY IDOCK:   39.26 KCAL/MOL
REMARK 922        TOTAL FREE ENERGY PREDICTED BY IDOCK:   47.21 KCAL/MOL
REMARK 923 INTER-LIGAND FREE ENERGY PREDICTED BY IDOCK:   19.21 KCAL/MOL
REMARK 924 INTRA-LIGAND FREE ENERGY PREDICTED BY IDOCK:   28.00 KCAL/MOL
REMARK 927      BINDING AFFINITY PREDICTED BY RF-SCORE:    0.00 PKD
ROOT
HETATM    1  C   UNL     1     -12.405  12.392  68.162  1.00  0.00     0.505 C  
HETATM    2  C   UNL     1     -13.572  11.449  67.868  1.00  0.00     9.219 C  
HETATM    3  C   UNL     1     -13.207  10.183  68.695  1.00  0.00     5.228 C  
HETATM    4  C   UNL     1     -11.759  10.379  69.159  1.00  0.00    -0.119 C  
HETATM    5  N   UNL     1     -11.283  11.539  68.433  1.00  0.00    -0.231 N  
HETATM    6  C   UNL     1     -10.108  12.125  68.861  1.00  0.00     0.006 C  
HETATM    7  O   UNL     1      -9.089  11.473  69.081  1.00  0.00     0.060 OA 
HETATM    8  C   UNL     1     -10.136  13.689  68.904  1.00  0.00    -0.038 C  
HETATM    9  O   UNL     1     -11.342  14.673  66.725  1.00  0.00    -0.339 OA 
HETATM   10  N   UNL     1     -11.534  14.347  68.819  1.00  0.00    -0.272 N  
HETATM   11  C   UNL     1     -11.655  15.663  68.460  1.00  0.00    -0.370 C  
HETATM   12  H   UNL     1     -13.371  15.225  67.134  1.00  0.00     0.000 HD 
HETATM   13  C   UNL     1     -10.527  15.868  67.420  1.00  0.00    -0.306 C  
HETATM   14  O   UNL     1     -12.623  16.342  68.799  1.00  0.00     0.632 OA 
HETATM   15  O   UNL     1     -13.511  14.335  67.436  1.00  0.00     2.604 OA 
HETATM   16  C   UNL     1     -10.561  17.306  68.166  1.00  0.00    -0.386 C  
HETATM   17  C   UNL     1     -12.170  13.890  67.655  1.00  0.00    -0.197 C  
ENDROOT
BRANCH   8  18
HETATM   18  C   UNL     1      -9.281  14.256  70.047  1.00  0.00     1.361 C  
BRANCH  18  19
HETATM   19  C   UNL     1      -7.849  14.282  69.605  1.00  0.00     0.363 A  
HETATM   20  C   UNL     1      -5.685  15.314  69.884  1.00  0.00    -0.126 A  
HETATM   21  C   UNL     1      -5.382  15.018  68.558  1.00  0.00    -0.101 A  
HETATM   22  C   UNL     1      -7.514  13.919  68.298  1.00  0.00    -0.118 A  
HETATM   23  C   UNL     1      -6.283  14.294  67.775  1.00  0.00    -0.152 A  
HETATM   24  C   UNL     1      -6.903  14.920  70.418  1.00  0.00     0.111 A  
ENDBRANCH  18  19
ENDBRANCH   8  18
BRANCH  13  25
HETATM   25  N   UNL     1      -9.424  16.231  66.510  1.00  0.00    -0.246 N  
HETATM   26  O   UNL     1     -10.263  17.472  64.774  1.00  0.00     0.405 OA 
HETATM   27  C   UNL     1      -9.312  17.149  65.472  1.00  0.00     0.576 C  
HETATM   28  H   UNL     1      -8.570  15.701  66.677  1.00  0.00     0.000 HD 
BRANCH  27  29
HETATM   29  C   UNL     1      -7.822  17.676  65.244  1.00  0.00     1.703 C  
HETATM   30  C   UNL     1      -7.627  19.210  65.072  1.00  0.00     1.190 C  
HETATM   31  N   UNL     1      -6.362  19.776  65.619  1.00  0.00    -0.209 NA 
HETATM   32  C   UNL     1      -5.137  19.442  64.898  1.00  0.00    -0.156 C  
HETATM   33  C   UNL     1      -6.248  19.574  67.085  1.00  0.00    -0.185 C  
HETATM   34  C   UNL     1      -6.909  20.814  67.793  1.00  0.00    -0.359 C  
HETATM   35  C   UNL     1      -8.347  20.576  68.045  1.00  0.00     0.022 A  
HETATM   36  C   UNL     1      -9.492  21.351  68.037  1.00  0.00     0.689 A  
HETATM   37  N   UNL     1     -10.550  20.539  68.332  1.00  0.00     0.020 NA 
HETATM   38  H   UNL     1     -11.528  20.828  68.320  1.00  0.00     0.000 HD 
HETATM   39  C   UNL     1     -10.108  19.274  68.647  1.00  0.00    -0.419 A  
HETATM   40  C   UNL     1     -10.752  18.117  69.074  1.00  0.00     0.399 A  
HETATM   41  C   UNL     1      -9.934  16.989  69.275  1.00  0.00    -0.169 A  
HETATM   42  C   UNL     1      -8.581  16.977  68.906  1.00  0.00    -0.196 A  
HETATM   43  C   UNL     1      -7.998  18.110  68.344  1.00  0.00    -0.312 A  
HETATM   44  C   UNL     1      -8.759  19.279  68.368  1.00  0.00    -0.395 A  
HETATM   45  C   UNL     1      -6.704  18.121  67.560  1.00  0.00    -0.198 C  
HETATM   46  C   UNL     1      -6.841  17.163  66.334  1.00  0.00    -0.284 C  
ENDBRANCH  27  29
ENDBRANCH  13  25
TORSDOF 4
ENDMDL
MODEL      186
REMARK 921   NORMALIZED FREE ENERGY PREDICTED BY IDOCK:   39.38 KCAL/MOL
REMARK 922        TOTAL FREE ENERGY PREDICTED BY IDOCK:   47.35 KCAL/MOL
REMARK 923 INTER-LIGAND FREE ENERGY PREDICTED BY IDOCK:   -2.53 KCAL/MOL
REMARK 924 INTRA-LIGAND FREE ENERGY PREDICTED BY IDOCK:   49.88 KCAL/MOL
REMARK 927      BINDING AFFINITY PREDICTED BY RF-SCORE:    0.00 PKD
ROOT
HETATM    1  C   UNL     1      -5.901   5.024  71.139  1.00  0.00    -0.017 C  
HETATM    2  C   UNL     1      -5.190   3.862  71.834  1.00  0.00     0.000 C  
HETATM    3  C   UNL     1      -5.870   3.830  73.233  1.00  0.00    -0.007 C  
HETATM    4  C   UNL     1      -6.694   5.119  73.337  1.00  0.00    -0.073 C  
HETATM    5  N   UNL     1      -6.296   5.915  72.192  1.00  0.00    -0.048 N  
HETATM    6  C   UNL     1      -7.080   7.004  71.866  1.00  0.00    -0.069 C  
HETATM    7  O   UNL     1      -7.433   7.835  72.698  1.00  0.00    -0.076 OA 
HETATM    8  C   UNL     1      -7.361   7.169  70.335  1.00  0.00    -0.079 C  
HETATM    9  O   UNL     1      -5.140   6.713  68.911  1.00  0.00    -0.011 OA 
HETATM   10  N   UNL     1      -7.047   5.940  69.449  1.00  0.00    -0.063 N  
HETATM   11  C   UNL     1      -6.882   6.088  68.098  1.00  0.00    -0.070 C  
HETATM   12  H   UNL     1      -5.131   4.737  68.083  1.00  0.00     0.000 HD 
HETATM   13  C   UNL     1      -6.189   7.465  67.959  1.00  0.00    -0.043 C  
HETATM   14  O   UNL     1      -7.081   5.163  67.313  1.00  0.00    -0.067 OA 
HETATM   15  O   UNL     1      -5.246   4.409  68.968  1.00  0.00    -0.007 OA 
HETATM   16  C   UNL     1      -7.123   7.425  66.636  1.00  0.00    -0.075 C  
HETATM   17  C   UNL     1      -5.708   5.576  69.652  1.00  0.00    -0.012 C  
ENDROOT
BRANCH   8  18
HETATM   18  C   UNL     1      -8.752   7.762  70.058  1.00  0.00    -0.141 C  
BRANCH  18  19
HETATM   19  C   UNL     1      -9.420   6.935  69.002  1.00  0.00    -0.137 A  
HETATM   20  C   UNL     1     -10.549   4.863  68.497  1.00  0.00     0.217 A  
HETATM   21  C   UNL     1     -10.090   4.942  67.185  1.00  0.00    -0.228 A  
HETATM   22  C   UNL     1      -9.024   7.052  67.667  1.00  0.00    -0.117 A  
HETATM   23  C   UNL     1      -9.354   6.051  66.763  1.00  0.00    -0.148 A  
HETATM   24  C   UNL     1     -10.243   5.872  69.397  1.00  0.00    -0.284 A  
ENDBRANCH  18  19
ENDBRANCH   8  18
BRANCH  13  25
HETATM   25  N   UNL     1      -5.641   8.806  67.678  1.00  0.00    -0.038 N  
HETATM   26  O   UNL     1      -6.210   9.414  65.541  1.00  0.00    -0.062 OA 
HETATM   27  C   UNL     1      -5.878   9.737  66.674  1.00  0.00    -0.054 C  
HETATM   28  H   UNL     1      -4.946   9.111  68.359  1.00  0.00     0.000 HD 
BRANCH  27  29
HETATM   29  C   UNL     1      -5.606  11.245  67.124  1.00  0.00    -0.075 C  
HETATM   30  C   UNL     1      -6.463  12.356  66.451  1.00  0.00     1.260 C  
HETATM   31  N   UNL     1      -6.806  13.527  67.304  1.00  0.00    -0.156 NA 
HETATM   32  C   UNL     1      -5.710  14.436  67.629  1.00  0.00     0.033 C  
HETATM   33  C   UNL     1      -7.611  13.139  68.489  1.00  0.00    -0.122 C  
HETATM   34  C   UNL     1      -9.129  13.207  68.082  1.00  0.00    -0.200 C  
HETATM   35  C   UNL     1      -9.595  11.906  67.553  1.00  0.00    -0.175 A  
HETATM   36  C   UNL     1     -10.476  11.500  66.569  1.00  0.00    -0.244 A  
HETATM   37  N   UNL     1     -10.463  10.134  66.531  1.00  0.00    -0.199 NA 
HETATM   38  H   UNL     1     -10.961   9.564  65.847  1.00  0.00     0.000 HD 
HETATM   39  C   UNL     1      -9.680   9.637  67.548  1.00  0.00    -0.158 A  
HETATM   40  C   UNL     1      -9.389   8.348  67.985  1.00  0.00    -0.146 A  
HETATM   41  C   UNL     1      -8.503   8.247  69.074  1.00  0.00    -0.131 A  
HETATM   42  C   UNL     1      -7.818   9.361  69.581  1.00  0.00    -0.105 A  
HETATM   43  C   UNL     1      -8.021  10.622  69.023  1.00  0.00    -0.140 A  
HETATM   44  C   UNL     1      -9.067  10.736  68.108  1.00  0.00    -0.151 A  
HETATM   45  C   UNL     1      -7.094  11.804  69.194  1.00  0.00    -0.071 C  
HETATM   46  C   UNL     1      -5.675  11.422  68.666  1.00  0.00    -0.042 C  
ENDBRANCH  27  29
ENDBRANCH  13  25
TORSDOF 4
ENDMDL
MODEL      187
REMARK 921   NORMALIZED FREE ENERGY PREDICTED BY IDOCK:   40.20 KCAL/MOL
REMARK 922        TOTAL FREE ENERGY PREDICTED BY IDOCK:   48.36 KCAL/MOL
REMARK 923 INTER-LIGAND FREE ENERGY PREDICTED BY IDOCK:   47.14 KCAL/MOL
REMARK 924 INTRA-LIGAND FREE ENERGY PREDICTED BY IDOCK:    1.22 KCAL/MOL
REMARK 927      BINDING AFFINITY PREDICTED BY RF-SCORE:    0.00 PKD
ROOT
HETATM    1  C   UNL     1     -10.453   3.853  70.890  1.00  0.00     0.677 C  
HETATM    2  C   UNL     1     -10.816   2.383  70.675  1.00  0.00     2.886 C  
HETATM    3  C   UNL     1     -10.198   1.691  71.923  1.00  0.00    -0.197 C  
HETATM    4  C   UNL     1      -9.306   2.740  72.596  1.00  0.00    -0.094 C  
HETATM    5  N   UNL     1      -9.238   3.839  71.653  1.00  0.00    -0.113 N  
HETATM    6  C   UNL     1      -8.740   5.043  72.109  1.00  0.00    -0.129 C  
HETATM    7  O   UNL     1      -7.688   5.126  72.738  1.00  0.00    -0.095 OA 
HETATM    8  C   UNL     1      -9.544   6.301  71.638  1.00  0.00    -0.154 C  
HETATM    9  O   UNL     1     -10.214   6.083  69.054  1.00  0.00    -0.161 OA 
HETATM   10  N   UNL     1     -10.949   6.029  71.050  1.00  0.00    -0.284 N  
HETATM   11  C   UNL     1     -11.564   6.972  70.269  1.00  0.00    -0.262 C  
HETATM   12  H   UNL     1     -12.245   5.443  68.823  1.00  0.00     0.000 HD 
HETATM   13  C   UNL     1     -10.397   7.618  69.483  1.00  0.00    -0.217 C  
HETATM   14  O   UNL     1     -12.787   7.026  70.157  1.00  0.00     0.298 OA 
HETATM   15  O   UNL     1     -12.028   4.689  69.359  1.00  0.00     6.324 OA 
HETATM   16  C   UNL     1     -11.393   8.877  69.701  1.00  0.00     0.143 C  
HETATM   17  C   UNL     1     -10.820   5.121  69.989  1.00  0.00     0.173 C  
ENDROOT
BRANCH   8  18
HETATM   18  C   UNL     1      -9.546   7.419  72.692  1.00  0.00    -0.204 C  
BRANCH  18  19
HETATM   19  C   UNL     1     -10.797   7.302  73.508  1.00  0.00    -0.290 A  
HETATM   20  C   UNL     1     -12.371   5.803  74.556  1.00  0.00     8.079 A  
HETATM   21  C   UNL     1     -13.372   6.757  74.401  1.00  0.00    12.463 A  
HETATM   22  C   UNL     1     -11.784   8.287  73.422  1.00  0.00     1.252 A  
HETATM   23  C   UNL     1     -13.071   8.010  73.863  1.00  0.00     5.040 A  
HETATM   24  C   UNL     1     -11.078   6.084  74.140  1.00  0.00     0.700 A  
ENDBRANCH  18  19
ENDBRANCH   8  18
BRANCH  13  25
HETATM   25  N   UNL     1      -9.374   8.398  68.761  1.00  0.00    -0.143 N  
HETATM   26  O   UNL     1     -10.405   9.714  67.192  1.00  0.00    -0.228 OA 
HETATM   27  C   UNL     1      -9.441   9.497  67.913  1.00  0.00    -0.132 C  
HETATM   28  H   UNL     1      -8.424   8.062  68.917  1.00  0.00     0.000 HD 
BRANCH  27  29
HETATM   29  C   UNL     1      -8.120  10.394  67.925  1.00  0.00    -0.102 C  
HETATM   30  C   UNL     1      -6.792   9.714  67.482  1.00  0.00    -0.082 C  
HETATM   31  N   UNL     1      -5.818  10.583  66.764  1.00  0.00    -0.057 NA 
HETATM   32  C   UNL     1      -5.141  11.598  67.566  1.00  0.00    -0.062 C  
HETATM   33  C   UNL     1      -6.374  11.117  65.496  1.00  0.00     0.288 C  
HETATM   34  C   UNL     1      -6.039  10.089  64.353  1.00  0.00    -0.130 C  
HETATM   35  C   UNL     1      -7.120   9.090  64.206  1.00  0.00    -0.090 A  
HETATM   36  C   UNL     1      -7.184   7.743  63.901  1.00  0.00    -0.085 A  
HETATM   37  N   UNL     1      -8.496   7.365  63.943  1.00  0.00    -0.351 NA 
HETATM   38  H   UNL     1      -8.831   6.407  63.835  1.00  0.00     0.000 HD 
HETATM   39  C   UNL     1      -9.302   8.461  64.153  1.00  0.00     1.441 A  
HETATM   40  C   UNL     1     -10.681   8.634  64.213  1.00  0.00     7.893 A  
HETATM   41  C   UNL     1     -11.133   9.940  64.476  1.00  0.00     3.386 A  
HETATM   42  C   UNL     1     -10.253  10.974  64.829  1.00  0.00    -0.381 A  
HETATM   43  C   UNL     1      -8.882  10.732  64.903  1.00  0.00    -0.176 A  
HETATM   44  C   UNL     1      -8.440   9.503  64.417  1.00  0.00    -0.191 A  
HETATM   45  C   UNL     1      -7.887  11.610  65.628  1.00  0.00     0.676 C  
HETATM   46  C   UNL     1      -8.297  11.717  67.131  1.00  0.00    -0.164 C  
ENDBRANCH  27  29
ENDBRANCH  13  25
TORSDOF 4
ENDMDL
MODEL      188
REMARK 921   NORMALIZED FREE ENERGY PREDICTED BY IDOCK:   45.24 KCAL/MOL
REMARK 922        TOTAL FREE ENERGY PREDICTED BY IDOCK:   54.58 KCAL/MOL
REMARK 923 INTER-LIGAND FREE ENERGY PREDICTED BY IDOCK:   30.69 KCAL/MOL
REMARK 924 INTRA-LIGAND FREE ENERGY PREDICTED BY IDOCK:   23.89 KCAL/MOL
REMARK 927      BINDING AFFINITY PREDICTED BY RF-SCORE:    0.00 PKD
ROOT
HETATM    1  C   UNL     1     -12.390  14.775  64.714  1.00  0.00    -0.293 C  
HETATM    2  C   UNL     1     -13.174  15.502  63.621  1.00  0.00     2.453 C  
HETATM    3  C   UNL     1     -13.116  14.499  62.432  1.00  0.00     4.872 C  
HETATM    4  C   UNL     1     -12.090  13.431  62.825  1.00  0.00     1.027 C  
HETATM    5  N   UNL     1     -11.449  13.943  64.020  1.00  0.00    -0.245 N  
HETATM    6  C   UNL     1     -10.684  13.065  64.762  1.00  0.00    -0.352 C  
HETATM    7  O   UNL     1      -9.830  12.342  64.254  1.00  0.00    -0.213 OA 
HETATM    8  C   UNL     1     -10.890  13.169  66.310  1.00  0.00    -0.279 C  
HETATM    9  O   UNL     1     -11.014  15.731  67.078  1.00  0.00    -0.304 OA 
HETATM   10  N   UNL     1     -12.140  13.951  66.779  1.00  0.00    -0.439 N  
HETATM   11  C   UNL     1     -12.212  14.431  68.060  1.00  0.00    -0.126 C  
HETATM   12  H   UNL     1     -13.040  16.364  67.372  1.00  0.00     0.000 HD 
HETATM   13  C   UNL     1     -10.754  14.837  68.385  1.00  0.00    -0.243 C  
HETATM   14  O   UNL     1     -13.289  14.640  68.616  1.00  0.00     2.110 OA 
HETATM   15  O   UNL     1     -13.213  16.090  66.479  1.00  0.00     3.774 OA 
HETATM   16  C   UNL     1     -11.285  14.314  69.823  1.00  0.00    -0.230 C  
HETATM   17  C   UNL     1     -12.099  15.235  66.216  1.00  0.00     0.445 C  
ENDROOT
BRANCH   8  18
HETATM   18  C   UNL     1     -10.742  11.809  67.010  1.00  0.00    -0.286 C  
BRANCH  18  19
HETATM   19  C   UNL     1      -9.443  11.193  66.586  1.00  0.00    -0.204 A  
HETATM   20  C   UNL     1      -8.296   9.160  65.974  1.00  0.00    -0.125 A  
HETATM   21  C   UNL     1      -7.105   9.697  66.454  1.00  0.00    -0.093 A  
HETATM   22  C   UNL     1      -8.233  11.759  66.997  1.00  0.00    -0.172 A  
HETATM   23  C   UNL     1      -7.068  11.007  66.936  1.00  0.00    -0.125 A  
HETATM   24  C   UNL     1      -9.458   9.916  66.010  1.00  0.00    -0.258 A  
ENDBRANCH  18  19
ENDBRANCH   8  18
BRANCH  13  25
HETATM   25  N   UNL     1      -9.396  15.152  68.866  1.00  0.00    -0.199 N  
HETATM   26  O   UNL     1      -7.917  13.642  67.977  1.00  0.00    -0.128 OA 
HETATM   27  C   UNL     1      -8.128  14.741  68.469  1.00  0.00    -0.146 C  
HETATM   28  H   UNL     1      -9.384  15.804  69.650  1.00  0.00     0.000 HD 
BRANCH  27  29
HETATM   29  C   UNL     1      -6.983  15.810  68.784  1.00  0.00    -0.124 C  
HETATM   30  C   UNL     1      -7.159  17.238  68.190  1.00  0.00    -0.190 C  
HETATM   31  N   UNL     1      -6.636  18.360  69.018  1.00  0.00    -0.253 NA 
HETATM   32  C   UNL     1      -5.183  18.474  69.113  1.00  0.00    -0.193 C  
HETATM   33  C   UNL     1      -7.315  18.446  70.335  1.00  0.00     1.998 C  
HETATM   34  C   UNL     1      -8.570  19.379  70.168  1.00  0.00     1.280 C  
HETATM   35  C   UNL     1      -9.768  18.595  69.795  1.00  0.00     0.597 A  
HETATM   36  C   UNL     1     -10.870  18.801  68.987  1.00  0.00     1.020 A  
HETATM   37  N   UNL     1     -11.637  17.671  69.026  1.00  0.00     0.880 NA 
HETATM   38  H   UNL     1     -12.473  17.513  68.463  1.00  0.00     0.000 HD 
HETATM   39  C   UNL     1     -11.119  16.775  69.935  1.00  0.00     0.020 A  
HETATM   40  C   UNL     1     -11.541  15.531  70.395  1.00  0.00    -0.359 A  
HETATM   41  C   UNL     1     -10.705  14.900  71.334  1.00  0.00     0.519 A  
HETATM   42  C   UNL     1      -9.439  15.408  71.662  1.00  0.00     3.649 A  
HETATM   43  C   UNL     1      -8.982  16.584  71.072  1.00  0.00     4.926 A  
HETATM   44  C   UNL     1      -9.912  17.309  70.327  1.00  0.00     1.382 A  
HETATM   45  C   UNL     1      -7.536  17.025  71.026  1.00  0.00     4.995 C  
HETATM   46  C   UNL     1      -6.689  15.929  70.304  1.00  0.00     0.325 C  
ENDBRANCH  27  29
ENDBRANCH  13  25
TORSDOF 4
ENDMDL
MODEL      189
REMARK 921   NORMALIZED FREE ENERGY PREDICTED BY IDOCK:   45.55 KCAL/MOL
REMARK 922        TOTAL FREE ENERGY PREDICTED BY IDOCK:   54.96 KCAL/MOL
REMARK 923 INTER-LIGAND FREE ENERGY PREDICTED BY IDOCK:   48.23 KCAL/MOL
REMARK 924 INTRA-LIGAND FREE ENERGY PREDICTED BY IDOCK:    6.72 KCAL/MOL
REMARK 927      BINDING AFFINITY PREDICTED BY RF-SCORE:    0.00 PKD
ROOT
HETATM    1  C   UNL     1     -10.645   8.129  68.517  1.00  0.00    -0.100 C  
HETATM    2  C   UNL     1     -11.703   7.077  68.181  1.00  0.00     0.983 C  
HETATM    3  C   UNL     1     -11.538   6.903  66.644  1.00  0.00     1.483 C  
HETATM    4  C   UNL     1     -10.624   8.043  66.181  1.00  0.00     1.142 C  
HETATM    5  N   UNL     1     -10.502   8.920  67.329  1.00  0.00    -0.282 N  
HETATM    6  C   UNL     1      -9.509   9.879  67.300  1.00  0.00    -0.153 C  
HETATM    7  O   UNL     1      -9.340  10.624  66.337  1.00  0.00    -0.163 OA 
HETATM    8  C   UNL     1      -8.715  10.036  68.639  1.00  0.00    -0.127 C  
HETATM    9  O   UNL     1     -10.377   9.971  70.738  1.00  0.00    -0.223 OA 
HETATM   10  N   UNL     1      -8.886   8.894  69.669  1.00  0.00    -0.138 N  
HETATM   11  C   UNL     1      -8.570   9.100  70.986  1.00  0.00    -0.177 C  
HETATM   12  H   UNL     1     -10.388   8.043  71.670  1.00  0.00     0.000 HD 
HETATM   13  C   UNL     1      -8.976  10.573  71.237  1.00  0.00     4.246 C  
HETATM   14  O   UNL     1      -8.253   8.175  71.731  1.00  0.00    -0.108 OA 
HETATM   15  O   UNL     1     -10.621   7.679  70.824  1.00  0.00    -0.216 OA 
HETATM   16  C   UNL     1      -7.671  10.418  72.185  1.00  0.00     5.217 C  
HETATM   17  C   UNL     1     -10.254   8.741  69.941  1.00  0.00    -0.200 C  
ENDROOT
BRANCH   8  18
HETATM   18  C   UNL     1      -7.243  10.409  68.404  1.00  0.00    -0.080 C  
BRANCH  18  19
HETATM   19  C   UNL     1      -6.858  11.475  69.385  1.00  0.00    -0.099 A  
HETATM   20  C   UNL     1      -5.760  13.600  69.704  1.00  0.00    -0.102 A  
HETATM   21  C   UNL     1      -5.455  13.237  71.013  1.00  0.00    -0.196 A  
HETATM   22  C   UNL     1      -6.617  11.143  70.720  1.00  0.00     0.767 A  
HETATM   23  C   UNL     1      -5.910  12.021  71.530  1.00  0.00     0.800 A  
HETATM   24  C   UNL     1      -6.488  12.735  68.900  1.00  0.00    -0.091 A  
ENDBRANCH  18  19
ENDBRANCH   8  18
BRANCH  13  25
HETATM   25  N   UNL     1      -9.206  11.989  71.579  1.00  0.00    12.856 N  
HETATM   26  O   UNL     1     -10.002  13.087  69.729  1.00  0.00     1.109 OA 
HETATM   27  C   UNL     1      -9.890  13.020  70.946  1.00  0.00     7.436 C  
HETATM   28  H   UNL     1      -8.775  12.269  72.460  1.00  0.00     0.000 HD 
BRANCH  27  29
HETATM   29  C   UNL     1     -10.446  14.130  71.952  1.00  0.00     4.244 C  
HETATM   30  C   UNL     1     -10.455  15.604  71.452  1.00  0.00     0.783 C  
HETATM   31  N   UNL     1     -11.577  16.454  71.941  1.00  0.00    -0.389 NA 
HETATM   32  C   UNL     1     -11.537  16.831  73.351  1.00  0.00     0.384 C  
HETATM   33  C   UNL     1     -12.899  15.935  71.514  1.00  0.00    -0.329 C  
HETATM   34  C   UNL     1     -13.242  16.581  70.121  1.00  0.00     3.745 C  
HETATM   35  C   UNL     1     -12.745  15.740  69.010  1.00  0.00     0.772 A  
HETATM   36  C   UNL     1     -12.208  15.975  67.758  1.00  0.00     1.013 A  
HETATM   37  N   UNL     1     -11.910  14.767  67.195  1.00  0.00    -0.379 NA 
HETATM   38  H   UNL     1     -11.431  14.641  66.303  1.00  0.00     0.000 HD 
HETATM   39  C   UNL     1     -12.350  13.743  68.003  1.00  0.00     0.048 A  
HETATM   40  C   UNL     1     -12.356  12.358  67.871  1.00  0.00     0.489 A  
HETATM   41  C   UNL     1     -12.886  11.632  68.953  1.00  0.00     1.502 A  
HETATM   42  C   UNL     1     -13.230  12.250  70.165  1.00  0.00     1.151 A  
HETATM   43  C   UNL     1     -13.074  13.626  70.318  1.00  0.00     0.248 A  
HETATM   44  C   UNL     1     -12.770  14.350  69.166  1.00  0.00     0.416 A  
HETATM   45  C   UNL     1     -13.028  14.349  71.646  1.00  0.00    -0.412 C  
HETATM   46  C   UNL     1     -11.855  13.776  72.501  1.00  0.00     1.364 C  
ENDBRANCH  27  29
ENDBRANCH  13  25
TORSDOF 4
ENDMDL
MODEL      190
REMARK 921   NORMALIZED FREE ENERGY PREDICTED BY IDOCK:   46.17 KCAL/MOL
REMARK 922        TOTAL FREE ENERGY PREDICTED BY IDOCK:   55.72 KCAL/MOL
REMARK 923 INTER-LIGAND FREE ENERGY PREDICTED BY IDOCK:    1.28 KCAL/MOL
REMARK 924 INTRA-LIGAND FREE ENERGY PREDICTED BY IDOCK:   54.44 KCAL/MOL
REMARK 927      BINDING AFFINITY PREDICTED BY RF-SCORE:    0.00 PKD
ROOT
HETATM    1  C   UNL     1     -10.213  12.103  64.855  1.00  0.00    -0.280 C  
HETATM    2  C   UNL     1     -11.277  12.491  63.828  1.00  0.00    -0.524 C  
HETATM    3  C   UNL     1     -10.822  13.911  63.383  1.00  0.00     1.831 C  
HETATM    4  C   UNL     1      -9.728  14.337  64.368  1.00  0.00     1.517 C  
HETATM    5  N   UNL     1      -9.757  13.341  65.420  1.00  0.00    -0.086 N  
HETATM    6  C   UNL     1      -8.691  13.304  66.297  1.00  0.00     0.367 C  
HETATM    7  O   UNL     1      -8.259  14.311  66.853  1.00  0.00    -0.145 OA 
HETATM    8  C   UNL     1      -8.172  11.865  66.633  1.00  0.00    -0.088 C  
HETATM    9  O   UNL     1     -10.223  10.190  67.032  1.00  0.00    -0.211 OA 
HETATM   10  N   UNL     1      -8.657  10.732  65.697  1.00  0.00    -0.181 N  
HETATM   11  C   UNL     1      -8.596   9.426  66.107  1.00  0.00    -0.136 C  
HETATM   12  H   UNL     1     -10.608   8.995  65.297  1.00  0.00     0.000 HD 
HETATM   13  C   UNL     1      -8.901   9.500  67.623  1.00  0.00    -0.118 C  
HETATM   14  O   UNL     1      -8.527   8.496  65.306  1.00  0.00    -0.160 OA 
HETATM   15  O   UNL     1     -10.699   9.804  64.808  1.00  0.00     0.961 OA 
HETATM   16  C   UNL     1      -7.835   8.281  67.554  1.00  0.00    -0.106 C  
HETATM   17  C   UNL     1     -10.060  10.741  65.678  1.00  0.00    -0.267 C  
ENDROOT
BRANCH   8  18
HETATM   18  C   UNL     1      -6.654  11.833  66.868  1.00  0.00    -0.114 C  
BRANCH  18  19
HETATM   19  C   UNL     1      -6.091  10.627  66.180  1.00  0.00    -0.121 A  
HETATM   20  C   UNL     1      -6.367   9.029  64.393  1.00  0.00    -0.071 A  
HETATM   21  C   UNL     1      -5.681   8.080  65.145  1.00  0.00    -0.044 A  
HETATM   22  C   UNL     1      -5.338   9.698  66.902  1.00  0.00    -0.045 A  
HETATM   23  C   UNL     1      -5.141   8.424  66.386  1.00  0.00    -0.027 A  
HETATM   24  C   UNL     1      -6.545  10.310  64.893  1.00  0.00    -0.105 A  
ENDBRANCH  18  19
ENDBRANCH   8  18
BRANCH  13  25
HETATM   25  N   UNL     1      -9.057   9.440  69.088  1.00  0.00    -0.143 N  
HETATM   26  O   UNL     1     -11.154  10.179  69.649  1.00  0.00    -0.236 OA 
HETATM   27  C   UNL     1     -10.160   9.524  69.930  1.00  0.00    -0.232 C  
HETATM   28  H   UNL     1      -8.176   9.309  69.585  1.00  0.00     0.000 HD 
BRANCH  27  29
HETATM   29  C   UNL     1      -9.969   8.747  71.312  1.00  0.00    -0.333 C  
HETATM   30  C   UNL     1      -9.628   7.230  71.236  1.00  0.00    -0.162 C  
HETATM   31  N   UNL     1      -8.734   6.705  72.306  1.00  0.00    -0.132 NA 
HETATM   32  C   UNL     1      -9.313   6.606  73.643  1.00  0.00    -0.152 C  
HETATM   33  C   UNL     1      -7.404   7.361  72.295  1.00  0.00    -0.068 C  
HETATM   34  C   UNL     1      -6.467   6.531  71.342  1.00  0.00    -0.050 C  
HETATM   35  C   UNL     1      -6.538   7.039  69.955  1.00  0.00    -0.044 A  
HETATM   36  C   UNL     1      -6.494   6.475  68.694  1.00  0.00    -0.049 A  
HETATM   37  N   UNL     1      -6.640   7.479  67.779  1.00  0.00    -0.059 NA 
HETATM   38  H   UNL     1      -6.723   7.343  66.771  1.00  0.00     0.000 HD 
HETATM   39  C   UNL     1      -6.660   8.701  68.412  1.00  0.00    -0.060 A  
HETATM   40  C   UNL     1      -6.721  10.013  67.952  1.00  0.00    -0.067 A  
HETATM   41  C   UNL     1      -6.746  11.016  68.938  1.00  0.00    -0.074 A  
HETATM   42  C   UNL     1      -6.874  10.716  70.302  1.00  0.00    -0.046 A  
HETATM   43  C   UNL     1      -6.958   9.390  70.722  1.00  0.00    -0.117 A  
HETATM   44  C   UNL     1      -6.701   8.414  69.759  1.00  0.00    -0.039 A  
HETATM   45  C   UNL     1      -7.478   8.939  72.068  1.00  0.00     0.062 C  
HETATM   46  C   UNL     1      -8.944   9.447  72.246  1.00  0.00     1.441 C  
ENDBRANCH  27  29
ENDBRANCH  13  25
TORSDOF 4
ENDMDL
MODEL      191
REMARK 921   NORMALIZED FREE ENERGY PREDICTED BY IDOCK:   53.24 KCAL/MOL
REMARK 922        TOTAL FREE ENERGY PREDICTED BY IDOCK:   64.45 KCAL/MOL
REMARK 923 INTER-LIGAND FREE ENERGY PREDICTED BY IDOCK:   58.95 KCAL/MOL
REMARK 924 INTRA-LIGAND FREE ENERGY PREDICTED BY IDOCK:    5.50 KCAL/MOL
REMARK 927      BINDING AFFINITY PREDICTED BY RF-SCORE:    0.00 PKD
ROOT
HETATM    1  C   UNL     1     -12.782  15.411  65.805  1.00  0.00     1.258 C  
HETATM    2  C   UNL     1     -13.281  15.422  64.360  1.00  0.00     1.582 C  
HETATM    3  C   UNL     1     -13.265  13.913  63.980  1.00  0.00     1.435 C  
HETATM    4  C   UNL     1     -12.508  13.198  65.104  1.00  0.00    -0.483 C  
HETATM    5  N   UNL     1     -11.934  14.258  65.908  1.00  0.00    -0.387 N  
HETATM    6  C   UNL     1     -11.438  13.922  67.152  1.00  0.00    -0.347 C  
HETATM    7  O   UNL     1     -10.677  12.973  67.324  1.00  0.00    -0.246 OA 
HETATM    8  C   UNL     1     -11.807  14.927  68.294  1.00  0.00    -0.278 C  
HETATM    9  O   UNL     1     -11.550  17.455  67.449  1.00  0.00     0.517 OA 
HETATM   10  N   UNL     1     -12.940  15.932  67.976  1.00  0.00     2.378 N  
HETATM   11  C   UNL     1     -13.076  17.075  68.719  1.00  0.00     5.457 C  
HETATM   12  H   UNL     1     -13.445  18.299  66.915  1.00  0.00     0.000 HD 
HETATM   13  C   UNL     1     -11.619  17.475  69.052  1.00  0.00     1.691 C  
HETATM   14  O   UNL     1     -14.155  17.654  68.827  1.00  0.00     8.365 OA 
HETATM   15  O   UNL     1     -13.557  17.570  66.316  1.00  0.00    11.494 OA 
HETATM   16  C   UNL     1     -12.407  17.936  70.390  1.00  0.00     9.654 C  
HETATM   17  C   UNL     1     -12.595  16.637  66.813  1.00  0.00     4.137 C  
ENDROOT
BRANCH   8  18
HETATM   18  C   UNL     1     -11.998  14.226  69.648  1.00  0.00    -0.387 C  
BRANCH  18  19
HETATM   19  C   UNL     1     -11.742  15.220  70.740  1.00  0.00    -0.377 A  
HETATM   20  C   UNL     1     -10.073  16.359  72.059  1.00  0.00     4.672 A  
HETATM   21  C   UNL     1     -10.984  16.463  73.107  1.00  0.00     2.398 A  
HETATM   22  C   UNL     1     -12.677  15.392  71.763  1.00  0.00    -0.467 A  
HETATM   23  C   UNL     1     -12.294  16.007  72.948  1.00  0.00    -0.609 A  
HETATM   24  C   UNL     1     -10.459  15.768  70.866  1.00  0.00     0.290 A  
ENDBRANCH  18  19
ENDBRANCH   8  18
BRANCH  13  25
HETATM   25  N   UNL     1     -10.294  17.903  69.540  1.00  0.00    -0.249 N  
HETATM   26  O   UNL     1      -8.756  17.643  67.858  1.00  0.00    -0.236 OA 
HETATM   27  C   UNL     1      -9.093  18.188  68.901  1.00  0.00    -0.133 C  
HETATM   28  H   UNL     1     -10.251  18.011  70.553  1.00  0.00     0.000 HD 
BRANCH  27  29
HETATM   29  C   UNL     1      -8.179  19.230  69.694  1.00  0.00     0.389 C  
HETATM   30  C   UNL     1      -7.891  18.929  71.194  1.00  0.00     4.546 C  
HETATM   31  N   UNL     1      -6.554  19.345  71.701  1.00  0.00     0.880 NA 
HETATM   32  C   UNL     1      -6.335  20.781  71.849  1.00  0.00     0.823 C  
HETATM   33  C   UNL     1      -5.448  18.657  70.991  1.00  0.00    -0.185 C  
HETATM   34  C   UNL     1      -5.137  17.323  71.764  1.00  0.00     0.436 C  
HETATM   35  C   UNL     1      -5.944  16.202  71.234  1.00  0.00     0.889 A  
HETATM   36  C   UNL     1      -6.561  15.088  71.773  1.00  0.00     1.383 A  
HETATM   37  N   UNL     1      -7.194  14.427  70.759  1.00  0.00     0.223 NA 
HETATM   38  H   UNL     1      -7.794  13.611  70.880  1.00  0.00     0.000 HD 
HETATM   39  C   UNL     1      -6.907  15.020  69.550  1.00  0.00    -0.174 A  
HETATM   40  C   UNL     1      -7.236  14.711  68.234  1.00  0.00    -0.117 A  
HETATM   41  C   UNL     1      -6.760  15.598  67.251  1.00  0.00    -0.167 A  
HETATM   42  C   UNL     1      -6.140  16.812  67.581  1.00  0.00    -0.167 A  
HETATM   43  C   UNL     1      -5.955  17.162  68.917  1.00  0.00    -0.163 A  
HETATM   44  C   UNL     1      -6.221  16.173  69.863  1.00  0.00    -0.154 A  
HETATM   45  C   UNL     1      -5.672  18.563  69.413  1.00  0.00    -0.233 C  
HETATM   46  C   UNL     1      -6.834  19.507  68.970  1.00  0.00    -0.384 C  
ENDBRANCH  27  29
ENDBRANCH  13  25
TORSDOF 4
ENDMDL
MODEL      192
REMARK 921   NORMALIZED FREE ENERGY PREDICTED BY IDOCK:   53.35 KCAL/MOL
REMARK 922        TOTAL FREE ENERGY PREDICTED BY IDOCK:   64.58 KCAL/MOL
REMARK 923 INTER-LIGAND FREE ENERGY PREDICTED BY IDOCK:   -2.85 KCAL/MOL
REMARK 924 INTRA-LIGAND FREE ENERGY PREDICTED BY IDOCK:   67.43 KCAL/MOL
REMARK 927      BINDING AFFINITY PREDICTED BY RF-SCORE:    0.00 PKD
ROOT
HETATM    1  C   UNL     1      -8.206  10.194  65.224  1.00  0.00    -0.157 C  
HETATM    2  C   UNL     1      -7.934   9.128  64.161  1.00  0.00    -0.140 C  
HETATM    3  C   UNL     1      -6.453   8.739  64.437  1.00  0.00    -0.071 C  
HETATM    4  C   UNL     1      -5.913   9.783  65.420  1.00  0.00    -0.072 C  
HETATM    5  N   UNL     1      -6.935  10.808  65.482  1.00  0.00    -0.042 N  
HETATM    6  C   UNL     1      -6.854  11.732  66.505  1.00  0.00     0.113 C  
HETATM    7  O   UNL     1      -5.815  12.332  66.771  1.00  0.00    -0.283 OA 
HETATM    8  C   UNL     1      -8.218  12.057  67.200  1.00  0.00    -0.181 C  
HETATM    9  O   UNL     1     -10.166  12.322  65.382  1.00  0.00    -0.261 OA 
HETATM   10  N   UNL     1      -9.378  11.074  66.915  1.00  0.00    -0.171 N  
HETATM   11  C   UNL     1     -10.675  11.455  67.136  1.00  0.00    -0.249 C  
HETATM   12  H   UNL     1     -11.351  10.543  65.238  1.00  0.00     0.000 HD 
HETATM   13  C   UNL     1     -10.688  12.956  66.760  1.00  0.00    -0.261 C  
HETATM   14  O   UNL     1     -11.563  10.636  67.365  1.00  0.00    -0.445 OA 
HETATM   15  O   UNL     1     -10.547  10.069  65.059  1.00  0.00     0.066 OA 
HETATM   16  C   UNL     1     -11.750  12.907  67.983  1.00  0.00    -0.401 C  
HETATM   17  C   UNL     1      -9.558  10.990  65.526  1.00  0.00    -0.222 C  
ENDROOT
BRANCH   8  18
HETATM   18  C   UNL     1      -8.052  12.361  68.697  1.00  0.00    -0.020 C  
BRANCH  18  19
HETATM   19  C   UNL     1      -6.962  11.489  69.243  1.00  0.00    -0.098 A  
HETATM   20  C   UNL     1      -6.209   9.228  69.624  1.00  0.00    -0.039 A  
HETATM   21  C   UNL     1      -5.482   9.665  70.728  1.00  0.00    -0.053 A  
HETATM   22  C   UNL     1      -6.172  11.937  70.304  1.00  0.00    -0.027 A  
HETATM   23  C   UNL     1      -5.439  11.023  71.049  1.00  0.00    -0.075 A  
HETATM   24  C   UNL     1      -6.924  10.141  68.863  1.00  0.00    -0.063 A  
ENDBRANCH  18  19
ENDBRANCH   8  18
BRANCH  13  25
HETATM   25  N   UNL     1     -10.813  14.411  66.551  1.00  0.00    -0.305 N  
HETATM   26  O   UNL     1     -12.309  15.260  68.069  1.00  0.00     0.123 OA 
HETATM   27  C   UNL     1     -11.364  15.436  67.312  1.00  0.00    -0.220 C  
HETATM   28  H   UNL     1     -10.415  14.730  65.668  1.00  0.00     0.000 HD 
BRANCH  27  29
HETATM   29  C   UNL     1     -10.691  16.860  67.047  1.00  0.00    -0.153 C  
HETATM   30  C   UNL     1     -10.127  17.623  68.281  1.00  0.00    -0.362 C  
HETATM   31  N   UNL     1      -8.911  18.449  68.042  1.00  0.00    -0.280 NA 
HETATM   32  C   UNL     1      -9.097  19.665  67.255  1.00  0.00    -0.317 C  
HETATM   33  C   UNL     1      -7.761  17.630  67.586  1.00  0.00    -0.205 C  
HETATM   34  C   UNL     1      -6.976  17.151  68.863  1.00  0.00    -0.232 C  
HETATM   35  C   UNL     1      -7.490  15.849  69.344  1.00  0.00    -0.213 A  
HETATM   36  C   UNL     1      -7.680  15.259  70.578  1.00  0.00     1.069 A  
HETATM   37  N   UNL     1      -8.228  14.024  70.374  1.00  0.00     1.514 NA 
HETATM   38  H   UNL     1      -8.544  13.396  71.113  1.00  0.00     0.000 HD 
HETATM   39  C   UNL     1      -8.291  13.748  69.027  1.00  0.00     0.230 A  
HETATM   40  C   UNL     1      -8.692  12.632  68.299  1.00  0.00    -0.169 A  
HETATM   41  C   UNL     1      -8.630  12.748  66.898  1.00  0.00    -0.140 A  
HETATM   42  C   UNL     1      -8.347  13.967  66.265  1.00  0.00     0.894 A  
HETATM   43  C   UNL     1      -8.091  15.107  67.024  1.00  0.00    -0.240 A  
HETATM   44  C   UNL     1      -7.931  14.919  68.397  1.00  0.00    -0.134 A  
HETATM   45  C   UNL     1      -8.160  16.526  66.505  1.00  0.00    -0.341 C  
HETATM   46  C   UNL     1      -9.593  16.800  65.950  1.00  0.00    -0.211 C  
ENDBRANCH  27  29
ENDBRANCH  13  25
TORSDOF 4
ENDMDL
MODEL      193
REMARK 921   NORMALIZED FREE ENERGY PREDICTED BY IDOCK:   54.78 KCAL/MOL
REMARK 922        TOTAL FREE ENERGY PREDICTED BY IDOCK:   66.35 KCAL/MOL
REMARK 923 INTER-LIGAND FREE ENERGY PREDICTED BY IDOCK:   67.37 KCAL/MOL
REMARK 924 INTRA-LIGAND FREE ENERGY PREDICTED BY IDOCK:   -1.03 KCAL/MOL
REMARK 927      BINDING AFFINITY PREDICTED BY RF-SCORE:    0.00 PKD
ROOT
HETATM    1  C   UNL     1      -7.213  11.320  66.670  1.00  0.00    -0.126 C  
HETATM    2  C   UNL     1      -7.158   9.858  66.227  1.00  0.00    -0.101 C  
HETATM    3  C   UNL     1      -6.633   9.961  64.766  1.00  0.00    -0.121 C  
HETATM    4  C   UNL     1      -6.698  11.446  64.393  1.00  0.00     1.944 C  
HETATM    5  N   UNL     1      -7.437  12.074  65.470  1.00  0.00     1.633 N  
HETATM    6  C   UNL     1      -7.404  13.453  65.551  1.00  0.00     6.601 C  
HETATM    7  O   UNL     1      -7.620  14.175  64.581  1.00  0.00     9.961 OA 
HETATM    8  C   UNL     1      -7.212  14.017  66.998  1.00  0.00     0.504 C  
HETATM    9  O   UNL     1      -8.721  12.664  68.748  1.00  0.00    -0.002 OA 
HETATM   10  N   UNL     1      -6.735  13.003  68.066  1.00  0.00    -0.098 N  
HETATM   11  C   UNL     1      -6.906  13.273  69.397  1.00  0.00     0.023 C  
HETATM   12  H   UNL     1      -7.570  11.204  69.812  1.00  0.00     0.000 HD 
HETATM   13  C   UNL     1      -8.256  14.029  69.450  1.00  0.00     0.472 C  
HETATM   14  O   UNL     1      -6.186  12.774  70.259  1.00  0.00    -0.107 OA 
HETATM   15  O   UNL     1      -7.320  10.844  68.969  1.00  0.00    -0.094 OA 
HETATM   16  C   UNL     1      -7.419  14.752  70.634  1.00  0.00     1.021 C  
HETATM   17  C   UNL     1      -7.633  11.926  68.089  1.00  0.00    -0.121 C  
ENDROOT
BRANCH   8  18
HETATM   18  C   UNL     1      -6.400  15.322  67.012  1.00  0.00     0.525 C  
BRANCH  18  19
HETATM   19  C   UNL     1      -7.347  16.470  67.185  1.00  0.00    -0.220 A  
HETATM   20  C   UNL     1      -8.928  17.942  66.107  1.00  0.00    -0.122 A  
HETATM   21  C   UNL     1      -8.626  18.934  67.036  1.00  0.00    -0.301 A  
HETATM   22  C   UNL     1      -7.101  17.440  68.160  1.00  0.00    -0.196 A  
HETATM   23  C   UNL     1      -7.736  18.672  68.080  1.00  0.00    -0.282 A  
HETATM   24  C   UNL     1      -8.315  16.701  66.198  1.00  0.00    -0.305 A  
ENDBRANCH  18  19
ENDBRANCH   8  18
BRANCH  13  25
HETATM   25  N   UNL     1      -9.461  14.861  69.630  1.00  0.00    -0.445 N  
HETATM   26  O   UNL     1      -8.838  16.920  70.423  1.00  0.00     2.220 OA 
HETATM   27  C   UNL     1      -9.654  16.222  69.837  1.00  0.00     0.329 C  
HETATM   28  H   UNL     1     -10.330  14.328  69.596  1.00  0.00     0.000 HD 
BRANCH  27  29
HETATM   29  C   UNL     1     -11.060  16.756  69.301  1.00  0.00    -0.113 C  
HETATM   30  C   UNL     1     -11.981  15.734  68.574  1.00  0.00    -0.094 C  
HETATM   31  N   UNL     1     -13.446  15.920  68.766  1.00  0.00     2.831 NA 
HETATM   32  C   UNL     1     -14.046  17.075  68.103  1.00  0.00     9.115 C  
HETATM   33  C   UNL     1     -13.844  15.794  70.190  1.00  0.00     1.719 C  
HETATM   34  C   UNL     1     -14.173  14.280  70.465  1.00  0.00     1.262 C  
HETATM   35  C   UNL     1     -12.969  13.549  70.915  1.00  0.00    -0.224 A  
HETATM   36  C   UNL     1     -12.462  12.276  70.734  1.00  0.00    -0.265 A  
HETATM   37  N   UNL     1     -11.268  12.201  71.395  1.00  0.00     2.431 NA 
HETATM   38  H   UNL     1     -10.636  11.401  71.369  1.00  0.00     0.000 HD 
HETATM   39  C   UNL     1     -11.041  13.361  72.100  1.00  0.00     5.204 A  
HETATM   40  C   UNL     1     -10.032  13.767  72.969  1.00  0.00    10.508 A  
HETATM   41  C   UNL     1     -10.144  15.071  73.484  1.00  0.00     5.910 A  
HETATM   42  C   UNL     1     -11.116  15.972  73.023  1.00  0.00     1.256 A  
HETATM   43  C   UNL     1     -12.025  15.581  72.043  1.00  0.00    -0.518 A  
HETATM   44  C   UNL     1     -12.043  14.225  71.716  1.00  0.00    -0.224 A  
HETATM   45  C   UNL     1     -12.843  16.527  71.193  1.00  0.00     2.031 C  
HETATM   46  C   UNL     1     -11.880  17.473  70.408  1.00  0.00     3.955 C  
ENDBRANCH  27  29
ENDBRANCH  13  25
TORSDOF 4
ENDMDL
MODEL      194
REMARK 921   NORMALIZED FREE ENERGY PREDICTED BY IDOCK:   58.80 KCAL/MOL
REMARK 922        TOTAL FREE ENERGY PREDICTED BY IDOCK:   71.31 KCAL/MOL
REMARK 923 INTER-LIGAND FREE ENERGY PREDICTED BY IDOCK:   55.94 KCAL/MOL
REMARK 924 INTRA-LIGAND FREE ENERGY PREDICTED BY IDOCK:   15.38 KCAL/MOL
REMARK 927      BINDING AFFINITY PREDICTED BY RF-SCORE:    0.00 PKD
ROOT
HETATM    1  C   UNL     1     -11.106   4.144  71.260  1.00  0.00     1.634 C  
HETATM    2  C   UNL     1     -11.776   2.923  71.889  1.00  0.00     3.286 C  
HETATM    3  C   UNL     1     -10.584   2.187  72.565  1.00  0.00    -0.156 C  
HETATM    4  C   UNL     1      -9.312   2.867  72.045  1.00  0.00    -0.115 C  
HETATM    5  N   UNL     1      -9.759   3.738  70.976  1.00  0.00    -0.185 N  
HETATM    6  C   UNL     1      -8.874   4.692  70.515  1.00  0.00    -0.103 C  
HETATM    7  O   UNL     1      -7.713   4.423  70.214  1.00  0.00    -0.052 OA 
HETATM    8  C   UNL     1      -9.504   6.103  70.271  1.00  0.00    -0.160 C  
HETATM    9  O   UNL     1     -11.890   5.880  69.075  1.00  0.00     0.578 OA 
HETATM   10  N   UNL     1     -10.898   6.344  70.899  1.00  0.00    -0.249 N  
HETATM   11  C   UNL     1     -11.695   7.358  70.441  1.00  0.00    -0.134 C  
HETATM   12  H   UNL     1     -13.493   6.071  70.484  1.00  0.00     0.000 HD 
HETATM   13  C   UNL     1     -11.402   7.400  68.921  1.00  0.00     0.391 C  
HETATM   14  O   UNL     1     -12.557   7.877  71.147  1.00  0.00    -0.273 OA 
HETATM   15  O   UNL     1     -13.098   5.357  70.971  1.00  0.00     3.531 OA 
HETATM   16  C   UNL     1     -11.647   8.966  69.260  1.00  0.00     0.660 C  
HETATM   17  C   UNL     1     -11.771   5.346  70.441  1.00  0.00     1.752 C  
ENDROOT
BRANCH   8  18
HETATM   18  C   UNL     1      -8.515   7.242  70.565  1.00  0.00    -0.138 C  
BRANCH  18  19
HETATM   19  C   UNL     1      -8.661   8.287  69.501  1.00  0.00    -0.138 A  
HETATM   20  C   UNL     1      -7.915  10.432  68.685  1.00  0.00    -0.115 A  
HETATM   21  C   UNL     1      -9.164  10.637  68.105  1.00  0.00    -0.148 A  
HETATM   22  C   UNL     1      -9.888   8.461  68.854  1.00  0.00    -0.184 A  
HETATM   23  C   UNL     1     -10.139   9.639  68.164  1.00  0.00    -0.205 A  
HETATM   24  C   UNL     1      -7.651   9.247  69.355  1.00  0.00    -0.080 A  
ENDBRANCH  18  19
ENDBRANCH   8  18
BRANCH  13  25
HETATM   25  N   UNL     1     -11.128   7.628  67.490  1.00  0.00    -0.511 N  
HETATM   26  O   UNL     1     -11.222   5.623  66.381  1.00  0.00    -0.075 OA 
HETATM   27  C   UNL     1     -11.295   6.844  66.354  1.00  0.00     1.418 C  
HETATM   28  H   UNL     1     -10.737   8.549  67.294  1.00  0.00     0.000 HD 
BRANCH  27  29
HETATM   29  C   UNL     1     -11.519   7.693  65.020  1.00  0.00    11.165 C  
HETATM   30  C   UNL     1     -10.721   9.021  64.878  1.00  0.00     4.342 C  
HETATM   31  N   UNL     1     -10.296   9.387  63.498  1.00  0.00     2.788 NA 
HETATM   32  C   UNL     1     -11.354   9.813  62.586  1.00  0.00     5.974 C  
HETATM   33  C   UNL     1      -9.390   8.373  62.904  1.00  0.00     1.625 C  
HETATM   34  C   UNL     1      -7.915   8.770  63.279  1.00  0.00    -0.160 C  
HETATM   35  C   UNL     1      -7.504   8.140  64.554  1.00  0.00    -0.102 A  
HETATM   36  C   UNL     1      -6.717   8.510  65.628  1.00  0.00    -0.060 A  
HETATM   37  N   UNL     1      -6.740   7.489  66.536  1.00  0.00    -0.056 NA 
HETATM   38  H   UNL     1      -6.308   7.520  67.460  1.00  0.00     0.000 HD 
HETATM   39  C   UNL     1      -7.430   6.413  66.027  1.00  0.00    -0.082 A  
HETATM   40  C   UNL     1      -7.687   5.131  66.503  1.00  0.00    -0.092 A  
HETATM   41  C   UNL     1      -8.472   4.306  65.677  1.00  0.00    -0.114 A  
HETATM   42  C   UNL     1      -9.103   4.795  64.524  1.00  0.00    -0.100 A  
HETATM   43  C   UNL     1      -8.945   6.128  64.150  1.00  0.00     0.690 A  
HETATM   44  C   UNL     1      -7.985   6.860  64.848  1.00  0.00    -0.124 A  
HETATM   45  C   UNL     1      -9.848   6.871  63.191  1.00  0.00     4.557 C  
HETATM   46  C   UNL     1     -11.310   6.841  63.737  1.00  0.00    15.456 C  
ENDBRANCH  27  29
ENDBRANCH  13  25
TORSDOF 4
ENDMDL
MODEL      195
REMARK 921   NORMALIZED FREE ENERGY PREDICTED BY IDOCK:   67.52 KCAL/MOL
REMARK 922        TOTAL FREE ENERGY PREDICTED BY IDOCK:   82.07 KCAL/MOL
REMARK 923 INTER-LIGAND FREE ENERGY PREDICTED BY IDOCK:   27.75 KCAL/MOL
REMARK 924 INTRA-LIGAND FREE ENERGY PREDICTED BY IDOCK:   54.32 KCAL/MOL
REMARK 927      BINDING AFFINITY PREDICTED BY RF-SCORE:    0.00 PKD
ROOT
HETATM    1  C   UNL     1     -10.144   6.764  72.044  1.00  0.00    -0.182 C  
HETATM    2  C   UNL     1      -9.767   6.493  73.501  1.00  0.00    -0.197 C  
HETATM    3  C   UNL     1      -9.458   7.918  74.045  1.00  0.00     0.161 C  
HETATM    4  C   UNL     1      -9.403   8.840  72.822  1.00  0.00     0.176 C  
HETATM    5  N   UNL     1      -9.427   7.951  71.677  1.00  0.00    -0.147 N  
HETATM    6  C   UNL     1      -9.678   8.508  70.439  1.00  0.00    -0.175 C  
HETATM    7  O   UNL     1      -9.084   9.503  70.031  1.00  0.00    -0.193 OA 
HETATM    8  C   UNL     1     -10.671   7.692  69.546  1.00  0.00    -0.209 C  
HETATM    9  O   UNL     1     -10.139   5.071  69.691  1.00  0.00    -0.222 OA 
HETATM   10  N   UNL     1     -11.499   6.602  70.269  1.00  0.00    -0.371 N  
HETATM   11  C   UNL     1     -12.087   5.594  69.553  1.00  0.00     3.318 C  
HETATM   12  H   UNL     1     -11.474   4.074  71.037  1.00  0.00     0.000 HD 
HETATM   13  C   UNL     1     -11.078   5.314  68.413  1.00  0.00     0.791 C  
HETATM   14  O   UNL     1     -13.079   4.997  69.965  1.00  0.00     9.864 OA 
HETATM   15  O   UNL     1     -11.196   4.689  71.706  1.00  0.00     0.292 OA 
HETATM   16  C   UNL     1     -12.497   5.049  67.677  1.00  0.00    11.114 C  
HETATM   17  C   UNL     1     -10.613   5.729  70.919  1.00  0.00    -0.262 C  
ENDROOT
BRANCH   8  18
HETATM   18  C   UNL     1     -11.534   8.599  68.654  1.00  0.00     0.932 C  
BRANCH  18  19
HETATM   19  C   UNL     1     -11.633   9.947  69.301  1.00  0.00     0.034 A  
HETATM   20  C   UNL     1     -11.785  12.330  68.950  1.00  0.00    -0.380 A  
HETATM   21  C   UNL     1     -11.154  12.543  70.172  1.00  0.00     0.606 A  
HETATM   22  C   UNL     1     -11.069  10.163  70.561  1.00  0.00    -0.400 A  
HETATM   23  C   UNL     1     -10.824  11.460  70.991  1.00  0.00     2.551 A  
HETATM   24  C   UNL     1     -12.054  11.037  68.527  1.00  0.00    -0.066 A  
ENDBRANCH  18  19
ENDBRANCH   8  18
BRANCH  13  25
HETATM   25  N   UNL     1     -10.267   5.027  67.215  1.00  0.00    -0.187 N  
HETATM   26  O   UNL     1      -9.748   7.003  66.172  1.00  0.00    -0.046 OA 
HETATM   27  C   UNL     1      -9.493   5.824  66.379  1.00  0.00    -0.156 C  
HETATM   28  H   UNL     1     -10.275   4.044  66.945  1.00  0.00     0.000 HD 
BRANCH  27  29
HETATM   29  C   UNL     1      -8.298   5.036  65.671  1.00  0.00    -0.120 C  
HETATM   30  C   UNL     1      -6.848   5.415  66.090  1.00  0.00    -0.058 C  
HETATM   31  N   UNL     1      -5.855   4.304  66.096  1.00  0.00    -0.022 NA 
HETATM   32  C   UNL     1      -5.447   3.793  64.790  1.00  0.00    -0.010 C  
HETATM   33  C   UNL     1      -6.223   3.232  67.053  1.00  0.00    -0.032 C  
HETATM   34  C   UNL     1      -5.578   3.587  68.443  1.00  0.00    -0.018 C  
HETATM   35  C   UNL     1      -6.503   4.400  69.264  1.00  0.00    -0.036 A  
HETATM   36  C   UNL     1      -6.368   5.437  70.167  1.00  0.00    -0.030 A  
HETATM   37  N   UNL     1      -7.619   5.796  70.585  1.00  0.00    -0.089 NA 
HETATM   38  H   UNL     1      -7.826   6.586  71.195  1.00  0.00     0.000 HD 
HETATM   39  C   UNL     1      -8.560   4.937  70.063  1.00  0.00    -0.090 A  
HETATM   40  C   UNL     1      -9.937   4.820  70.222  1.00  0.00    -0.320 A  
HETATM   41  C   UNL     1     -10.564   3.800  69.482  1.00  0.00     2.019 A  
HETATM   42  C   UNL     1      -9.876   3.057  68.511  1.00  0.00     0.251 A  
HETATM   43  C   UNL     1      -8.525   3.298  68.271  1.00  0.00    -0.105 A  
HETATM   44  C   UNL     1      -7.875   4.144  69.169  1.00  0.00    -0.057 A  
HETATM   45  C   UNL     1      -7.777   2.869  67.029  1.00  0.00    -0.075 C  
HETATM   46  C   UNL     1      -8.464   3.495  65.775  1.00  0.00    -0.108 C  
ENDBRANCH  27  29
ENDBRANCH  13  25
TORSDOF 4
ENDMDL
MODEL      196
REMARK 921   NORMALIZED FREE ENERGY PREDICTED BY IDOCK:   81.28 KCAL/MOL
REMARK 922        TOTAL FREE ENERGY PREDICTED BY IDOCK:   99.05 KCAL/MOL
REMARK 923 INTER-LIGAND FREE ENERGY PREDICTED BY IDOCK:   77.49 KCAL/MOL
REMARK 924 INTRA-LIGAND FREE ENERGY PREDICTED BY IDOCK:   21.56 KCAL/MOL
REMARK 927      BINDING AFFINITY PREDICTED BY RF-SCORE:    0.00 PKD
ROOT
HETATM    1  C   UNL     1      -8.162   8.396  68.873  1.00  0.00    -0.115 C  
HETATM    2  C   UNL     1      -7.575   7.645  70.068  1.00  0.00    -0.087 C  
HETATM    3  C   UNL     1      -8.181   6.220  69.909  1.00  0.00    -0.121 C  
HETATM    4  C   UNL     1      -9.265   6.336  68.832  1.00  0.00    -0.123 C  
HETATM    5  N   UNL     1      -9.418   7.759  68.600  1.00  0.00    -0.151 N  
HETATM    6  C   UNL     1     -10.118   8.153  67.477  1.00  0.00    -0.224 C  
HETATM    7  O   UNL     1     -11.217   7.685  67.187  1.00  0.00    -0.020 OA 
HETATM    8  C   UNL     1      -9.470   9.338  66.687  1.00  0.00    -0.191 C  
HETATM    9  O   UNL     1      -8.576  11.220  68.370  1.00  0.00    -0.143 OA 
HETATM   10  N   UNL     1      -7.999   9.666  67.037  1.00  0.00    -0.108 N  
HETATM   11  C   UNL     1      -7.468  10.886  66.713  1.00  0.00    -0.134 C  
HETATM   12  H   UNL     1      -6.463  11.059  68.675  1.00  0.00     0.000 HD 
HETATM   13  C   UNL     1      -8.651  11.866  66.903  1.00  0.00    -0.185 C  
HETATM   14  O   UNL     1      -6.260  11.045  66.545  1.00  0.00    -0.107 OA 
HETATM   15  O   UNL     1      -6.610  10.160  68.947  1.00  0.00    -0.048 OA 
HETATM   16  C   UNL     1      -7.867  12.526  65.648  1.00  0.00     2.304 C  
HETATM   17  C   UNL     1      -7.913   9.908  68.416  1.00  0.00    -0.096 C  
ENDROOT
BRANCH   8  18
HETATM   18  C   UNL     1      -9.711   9.231  65.173  1.00  0.00     0.003 C  
BRANCH  18  19
HETATM   19  C   UNL     1     -10.627   8.072  64.917  1.00  0.00     6.113 A  
HETATM   20  C   UNL     1     -12.217   7.073  63.402  1.00  0.00    19.207 A  
HETATM   21  C   UNL     1     -12.846   6.457  64.480  1.00  0.00    11.285 A  
HETATM   22  C   UNL     1     -11.212   7.393  65.989  1.00  0.00     3.172 A  
HETATM   23  C   UNL     1     -12.325   6.593  65.769  1.00  0.00     7.213 A  
HETATM   24  C   UNL     1     -11.090   7.854  63.614  1.00  0.00    16.216 A  
ENDBRANCH  18  19
ENDBRANCH   8  18
BRANCH  13  25
HETATM   25  N   UNL     1      -9.717  12.885  66.928  1.00  0.00    -0.233 N  
HETATM   26  O   UNL     1     -11.591  12.033  65.918  1.00  0.00    -0.362 OA 
HETATM   27  C   UNL     1     -11.086  12.833  66.693  1.00  0.00    -0.276 C  
HETATM   28  H   UNL     1      -9.380  13.818  67.166  1.00  0.00     0.000 HD 
BRANCH  27  29
HETATM   29  C   UNL     1     -11.910  13.957  67.474  1.00  0.00    -0.431 C  
HETATM   30  C   UNL     1     -11.453  14.299  68.922  1.00  0.00    -0.286 C  
HETATM   31  N   UNL     1     -11.617  15.718  69.343  1.00  0.00    -0.350 NA 
HETATM   32  C   UNL     1     -12.986  16.175  69.564  1.00  0.00     1.617 C  
HETATM   33  C   UNL     1     -10.823  16.646  68.500  1.00  0.00    -0.356 C  
HETATM   34  C   UNL     1      -9.401  16.793  69.157  1.00  0.00    -0.155 C  
HETATM   35  C   UNL     1      -8.463  15.781  68.625  1.00  0.00    -0.193 A  
HETATM   36  C   UNL     1      -7.420  15.034  69.140  1.00  0.00    -0.169 A  
HETATM   37  N   UNL     1      -6.945  14.232  68.141  1.00  0.00    -0.113 NA 
HETATM   38  H   UNL     1      -6.224  13.519  68.258  1.00  0.00     0.000 HD 
HETATM   39  C   UNL     1      -7.578  14.523  66.954  1.00  0.00     0.360 A  
HETATM   40  C   UNL     1      -7.426  14.056  65.652  1.00  0.00     6.268 A  
HETATM   41  C   UNL     1      -8.301  14.596  64.692  1.00  0.00     7.909 A  
HETATM   42  C   UNL     1      -9.374  15.425  65.048  1.00  0.00     1.003 A  
HETATM   43  C   UNL     1      -9.589  15.759  66.383  1.00  0.00    -0.311 A  
HETATM   44  C   UNL     1      -8.583  15.405  67.283  1.00  0.00    -0.216 A  
HETATM   45  C   UNL     1     -10.886  16.298  66.944  1.00  0.00    -0.151 C  
HETATM   46  C   UNL     1     -12.030  15.274  66.660  1.00  0.00     0.274 C  
ENDBRANCH  27  29
ENDBRANCH  13  25
TORSDOF 4
ENDMDL
MODEL      197
REMARK 921   NORMALIZED FREE ENERGY PREDICTED BY IDOCK:   87.51 KCAL/MOL
REMARK 922        TOTAL FREE ENERGY PREDICTED BY IDOCK:  106.74 KCAL/MOL
REMARK 923 INTER-LIGAND FREE ENERGY PREDICTED BY IDOCK:  107.83 KCAL/MOL
REMARK 924 INTRA-LIGAND FREE ENERGY PREDICTED BY IDOCK:   -1.09 KCAL/MOL
REMARK 927      BINDING AFFINITY PREDICTED BY RF-SCORE:    0.00 PKD
ROOT
HETATM    1  C   UNL     1      -8.064  11.287  69.086  1.00  0.00     0.026 C  
HETATM    2  C   UNL     1      -8.257   9.773  69.178  1.00  0.00    -0.130 C  
HETATM    3  C   UNL     1      -7.542   9.256  67.897  1.00  0.00    -0.084 C  
HETATM    4  C   UNL     1      -7.250  10.495  67.042  1.00  0.00    -0.098 C  
HETATM    5  N   UNL     1      -7.973  11.575  67.683  1.00  0.00    -0.120 N  
HETATM    6  C   UNL     1      -7.666  12.867  67.302  1.00  0.00    -0.117 C  
HETATM    7  O   UNL     1      -7.603  13.209  66.123  1.00  0.00     1.380 OA 
HETATM    8  C   UNL     1      -7.545  13.885  68.484  1.00  0.00    -0.134 C  
HETATM    9  O   UNL     1      -9.511  13.505  70.263  1.00  0.00     2.704 OA 
HETATM   10  N   UNL     1      -7.427  13.272  69.900  1.00  0.00     0.887 N  
HETATM   11  C   UNL     1      -7.705  14.031  71.006  1.00  0.00     3.523 C  
HETATM   12  H   UNL     1      -8.830  12.380  71.955  1.00  0.00     0.000 HD 
HETATM   13  C   UNL     1      -8.865  14.946  70.543  1.00  0.00     1.556 C  
HETATM   14  O   UNL     1      -7.219  13.780  72.106  1.00  0.00     3.090 OA 
HETATM   15  O   UNL     1      -8.556  11.704  71.346  1.00  0.00     8.589 OA 
HETATM   16  C   UNL     1      -8.053  15.919  71.553  1.00  0.00     5.853 C  
HETATM   17  C   UNL     1      -8.524  12.423  70.111  1.00  0.00     3.946 C  
ENDROOT
BRANCH   8  18
HETATM   18  C   UNL     1      -6.489  14.968  68.216  1.00  0.00    -0.119 C  
BRANCH  18  19
HETATM   19  C   UNL     1      -7.118  16.053  67.394  1.00  0.00    -0.222 A  
HETATM   20  C   UNL     1      -6.882  17.511  65.486  1.00  0.00     0.347 A  
HETATM   21  C   UNL     1      -7.692  18.452  66.114  1.00  0.00    -0.253 A  
HETATM   22  C   UNL     1      -7.991  16.966  67.991  1.00  0.00    -0.185 A  
HETATM   23  C   UNL     1      -8.270  18.167  67.353  1.00  0.00    -0.236 A  
HETATM   24  C   UNL     1      -6.620  16.299  66.109  1.00  0.00     1.296 A  
ENDBRANCH  18  19
ENDBRANCH   8  18
BRANCH  13  25
HETATM   25  N   UNL     1      -9.884  15.955  70.199  1.00  0.00     0.035 N  
HETATM   26  O   UNL     1     -11.962  15.118  70.689  1.00  0.00    -0.276 OA 
HETATM   27  C   UNL     1     -11.234  16.084  70.504  1.00  0.00    -0.378 C  
HETATM   28  H   UNL     1      -9.525  16.714  69.619  1.00  0.00     0.000 HD 
BRANCH  27  29
HETATM   29  C   UNL     1     -11.745  17.597  70.517  1.00  0.00     3.892 C  
HETATM   30  C   UNL     1     -11.006  18.607  69.592  1.00  0.00     2.127 C  
HETATM   31  N   UNL     1     -11.842  19.690  69.003  1.00  0.00     4.018 NA 
HETATM   32  C   UNL     1     -12.304  20.725  69.923  1.00  0.00     7.487 C  
HETATM   33  C   UNL     1     -12.922  19.154  68.139  1.00  0.00     7.997 C  
HETATM   34  C   UNL     1     -12.353  19.033  66.677  1.00  0.00     4.595 C  
HETATM   35  C   UNL     1     -11.748  17.702  66.452  1.00  0.00     2.358 A  
HETATM   36  C   UNL     1     -10.665  17.217  65.744  1.00  0.00    -0.138 A  
HETATM   37  N   UNL     1     -10.599  15.867  65.949  1.00  0.00    -0.336 NA 
HETATM   38  H   UNL     1      -9.852  15.261  65.608  1.00  0.00     0.000 HD 
HETATM   39  C   UNL     1     -11.685  15.443  66.681  1.00  0.00     0.170 A  
HETATM   40  C   UNL     1     -12.123  14.190  67.098  1.00  0.00    -0.432 A  
HETATM   41  C   UNL     1     -13.300  14.169  67.870  1.00  0.00     4.189 A  
HETATM   42  C   UNL     1     -13.903  15.346  68.338  1.00  0.00     6.787 A  
HETATM   43  C   UNL     1     -13.354  16.587  68.023  1.00  0.00     5.403 A  
HETATM   44  C   UNL     1     -12.332  16.593  67.074  1.00  0.00     2.871 A  
HETATM   45  C   UNL     1     -13.651  17.876  68.757  1.00  0.00    12.007 C  
HETATM   46  C   UNL     1     -13.273  17.707  70.262  1.00  0.00    13.956 C  
ENDBRANCH  27  29
ENDBRANCH  13  25
TORSDOF 4
ENDMDL
MODEL      198
REMARK 921   NORMALIZED FREE ENERGY PREDICTED BY IDOCK:   90.20 KCAL/MOL
REMARK 922        TOTAL FREE ENERGY PREDICTED BY IDOCK:  110.05 KCAL/MOL
REMARK 923 INTER-LIGAND FREE ENERGY PREDICTED BY IDOCK:   59.31 KCAL/MOL
REMARK 924 INTRA-LIGAND FREE ENERGY PREDICTED BY IDOCK:   50.74 KCAL/MOL
REMARK 927      BINDING AFFINITY PREDICTED BY RF-SCORE:    0.00 PKD
ROOT
HETATM    1  C   UNL     1     -12.112   9.986  71.722  1.00  0.00    -0.240 C  
HETATM    2  C   UNL     1     -12.086   8.893  72.791  1.00  0.00     0.086 C  
HETATM    3  C   UNL     1     -12.929   9.517  73.940  1.00  0.00     6.259 C  
HETATM    4  C   UNL     1     -13.127  10.992  73.571  1.00  0.00     7.119 C  
HETATM    5  N   UNL     1     -12.250  11.220  72.440  1.00  0.00     1.584 N  
HETATM    6  C   UNL     1     -12.431  12.380  71.713  1.00  0.00     0.175 C  
HETATM    7  O   UNL     1     -12.523  13.484  72.246  1.00  0.00    -0.028 OA 
HETATM    8  C   UNL     1     -12.366  12.194  70.161  1.00  0.00    -0.145 C  
HETATM    9  O   UNL     1     -10.356  10.557  69.488  1.00  0.00    -0.229 OA 
HETATM   10  N   UNL     1     -12.470  10.739  69.645  1.00  0.00    -0.216 N  
HETATM   11  C   UNL     1     -12.044  10.423  68.382  1.00  0.00     0.767 C  
HETATM   12  H   UNL     1     -11.061   8.573  69.092  1.00  0.00     0.000 HD 
HETATM   13  C   UNL     1     -10.817  11.341  68.166  1.00  0.00    -0.217 C  
HETATM   14  O   UNL     1     -12.491   9.456  67.768  1.00  0.00     4.143 OA 
HETATM   15  O   UNL     1     -11.445   8.578  69.961  1.00  0.00    -0.098 OA 
HETATM   16  C   UNL     1     -11.454  11.276  66.678  1.00  0.00    -0.029 C  
HETATM   17  C   UNL     1     -11.466   9.976  70.259  1.00  0.00    -0.300 C  
ENDROOT
BRANCH   8  18
HETATM   18  C   UNL     1     -13.306  13.157  69.419  1.00  0.00     2.602 C  
BRANCH  18  19
HETATM   19  C   UNL     1     -12.782  13.358  68.029  1.00  0.00     1.049 A  
HETATM   20  C   UNL     1     -12.184  12.304  65.942  1.00  0.00    -0.097 A  
HETATM   21  C   UNL     1     -11.250  13.310  65.710  1.00  0.00    -0.313 A  
HETATM   22  C   UNL     1     -11.899  14.407  67.759  1.00  0.00    -0.402 A  
HETATM   23  C   UNL     1     -11.130  14.377  66.603  1.00  0.00    -0.326 A  
HETATM   24  C   UNL     1     -12.972  12.343  67.083  1.00  0.00     3.228 A  
ENDBRANCH  18  19
ENDBRANCH   8  18
BRANCH  13  25
HETATM   25  N   UNL     1      -9.711  12.240  67.784  1.00  0.00    -0.194 N  
HETATM   26  O   UNL     1      -8.570  12.868  69.672  1.00  0.00     1.345 OA 
HETATM   27  C   UNL     1      -8.588  12.705  68.459  1.00  0.00    -0.051 C  
HETATM   28  H   UNL     1      -9.786  12.592  66.830  1.00  0.00     0.000 HD 
BRANCH  27  29
HETATM   29  C   UNL     1      -7.368  13.066  67.495  1.00  0.00    -0.154 C  
HETATM   30  C   UNL     1      -7.676  13.203  65.975  1.00  0.00     2.518 C  
HETATM   31  N   UNL     1      -6.878  14.218  65.233  1.00  0.00    10.415 NA 
HETATM   32  C   UNL     1      -5.468  13.902  65.016  1.00  0.00    14.884 C  
HETATM   33  C   UNL     1      -7.093  15.590  65.755  1.00  0.00     4.544 C  
HETATM   34  C   UNL     1      -8.303  16.218  64.971  1.00  0.00     4.065 C  
HETATM   35  C   UNL     1      -9.583  15.940  65.659  1.00  0.00    -0.266 A  
HETATM   36  C   UNL     1     -10.879  15.671  65.262  1.00  0.00    -0.406 A  
HETATM   37  N   UNL     1     -11.630  15.471  66.386  1.00  0.00     0.081 NA 
HETATM   38  H   UNL     1     -12.608  15.179  66.390  1.00  0.00     0.000 HD 
HETATM   39  C   UNL     1     -10.878  15.720  67.512  1.00  0.00    -0.315 A  
HETATM   40  C   UNL     1     -11.171  15.728  68.872  1.00  0.00    -0.332 A  
HETATM   41  C   UNL     1     -10.099  16.015  69.737  1.00  0.00    -0.212 A  
HETATM   42  C   UNL     1      -8.779  16.119  69.275  1.00  0.00    -0.190 A  
HETATM   43  C   UNL     1      -8.496  15.960  67.920  1.00  0.00    -0.164 A  
HETATM   44  C   UNL     1      -9.592  15.908  67.057  1.00  0.00    -0.232 A  
HETATM   45  C   UNL     1      -7.128  15.661  67.349  1.00  0.00    -0.241 C  
HETATM   46  C   UNL     1      -6.596  14.329  67.967  1.00  0.00    -0.156 C  
ENDBRANCH  27  29
ENDBRANCH  13  25
TORSDOF 4
ENDMDL
MODEL      199
REMARK 921   NORMALIZED FREE ENERGY PREDICTED BY IDOCK:   93.33 KCAL/MOL
REMARK 922        TOTAL FREE ENERGY PREDICTED BY IDOCK:  113.92 KCAL/MOL
REMARK 923 INTER-LIGAND FREE ENERGY PREDICTED BY IDOCK:   69.72 KCAL/MOL
REMARK 924 INTRA-LIGAND FREE ENERGY PREDICTED BY IDOCK:   44.19 KCAL/MOL
REMARK 927      BINDING AFFINITY PREDICTED BY RF-SCORE:    0.00 PKD
ROOT
HETATM    1  C   UNL     1     -11.602  18.377  64.967  1.00  0.00     3.021 C  
HETATM    2  C   UNL     1     -12.721  19.380  64.681  1.00  0.00    12.354 C  
HETATM    3  C   UNL     1     -11.949  20.724  64.541  1.00  0.00     4.260 C  
HETATM    4  C   UNL     1     -10.522  20.449  65.027  1.00  0.00     0.785 C  
HETATM    5  N   UNL     1     -10.573  19.130  65.625  1.00  0.00    -0.367 N  
HETATM    6  C   UNL     1      -9.373  18.500  65.890  1.00  0.00     0.186 C  
HETATM    7  O   UNL     1      -8.452  19.058  66.481  1.00  0.00    -0.293 OA 
HETATM    8  C   UNL     1      -9.334  16.983  65.507  1.00  0.00     0.527 C  
HETATM    9  O   UNL     1     -11.610  15.768  66.226  1.00  0.00     0.150 OA 
HETATM   10  N   UNL     1     -10.470  16.486  64.580  1.00  0.00     0.316 N  
HETATM   11  C   UNL     1     -10.759  15.150  64.500  1.00  0.00    -0.037 C  
HETATM   12  H   UNL     1     -12.936  15.537  64.560  1.00  0.00     0.000 HD 
HETATM   13  C   UNL     1     -10.515  14.632  65.938  1.00  0.00    -0.314 C  
HETATM   14  O   UNL     1     -11.293  14.659  63.507  1.00  0.00     0.732 OA 
HETATM   15  O   UNL     1     -12.878  16.476  64.433  1.00  0.00     1.102 OA 
HETATM   16  C   UNL     1     -10.048  13.366  65.041  1.00  0.00    -0.261 C  
HETATM   17  C   UNL     1     -11.700  16.796  65.178  1.00  0.00     1.106 C  
ENDROOT
BRANCH   8  18
HETATM   18  C   UNL     1      -7.943  16.536  65.034  1.00  0.00     4.521 C  
BRANCH  18  19
HETATM   19  C   UNL     1      -7.978  15.060  64.775  1.00  0.00     9.397 A  
HETATM   20  C   UNL     1      -9.179  13.235  63.752  1.00  0.00     3.360 A  
HETATM   21  C   UNL     1      -8.662  12.368  64.710  1.00  0.00     1.612 A  
HETATM   22  C   UNL     1      -7.401  14.176  65.690  1.00  0.00     6.840 A  
HETATM   23  C   UNL     1      -7.750  12.832  65.660  1.00  0.00     3.153 A  
HETATM   24  C   UNL     1      -8.814  14.573  63.763  1.00  0.00    10.408 A  
ENDBRANCH  18  19
ENDBRANCH   8  18
BRANCH  13  25
HETATM   25  N   UNL     1     -10.205  13.986  67.227  1.00  0.00    -0.258 N  
HETATM   26  O   UNL     1     -10.521  11.723  67.026  1.00  0.00    -0.210 OA 
HETATM   27  C   UNL     1      -9.989  12.664  67.600  1.00  0.00    -0.216 C  
HETATM   28  H   UNL     1     -10.135  14.643  68.004  1.00  0.00     0.000 HD 
BRANCH  27  29
HETATM   29  C   UNL     1      -9.046  12.507  68.879  1.00  0.00     0.305 C  
HETATM   30  C   UNL     1      -9.295  11.279  69.802  1.00  0.00     1.093 C  
HETATM   31  N   UNL     1      -8.089  10.690  70.449  1.00  0.00     0.573 NA 
HETATM   32  C   UNL     1      -7.471  11.482  71.509  1.00  0.00     7.101 C  
HETATM   33  C   UNL     1      -7.112  10.184  69.455  1.00  0.00    -0.085 C  
HETATM   34  C   UNL     1      -7.470   8.683  69.149  1.00  0.00    -0.083 C  
HETATM   35  C   UNL     1      -8.415   8.584  68.015  1.00  0.00    -0.131 A  
HETATM   36  C   UNL     1      -9.478   7.765  67.685  1.00  0.00    -0.144 A  
HETATM   37  N   UNL     1      -9.985   8.195  66.491  1.00  0.00    -0.384 NA 
HETATM   38  H   UNL     1     -10.823   7.822  66.046  1.00  0.00     0.000 HD 
HETATM   39  C   UNL     1      -9.202   9.203  65.977  1.00  0.00    -0.215 A  
HETATM   40  C   UNL     1      -9.236   9.925  64.788  1.00  0.00    -0.309 A  
HETATM   41  C   UNL     1      -8.250  10.917  64.634  1.00  0.00     0.171 A  
HETATM   42  C   UNL     1      -7.390  11.278  65.682  1.00  0.00     0.383 A  
HETATM   43  C   UNL     1      -7.478  10.634  66.914  1.00  0.00    -0.115 A  
HETATM   44  C   UNL     1      -8.297   9.506  66.970  1.00  0.00    -0.124 A  
HETATM   45  C   UNL     1      -6.910  11.165  68.211  1.00  0.00    -0.068 C  
HETATM   46  C   UNL     1      -7.538  12.562  68.511  1.00  0.00    -0.119 C  
ENDBRANCH  27  29
ENDBRANCH  13  25
TORSDOF 4
ENDMDL
MODEL      200
REMARK 921   NORMALIZED FREE ENERGY PREDICTED BY IDOCK:   93.79 KCAL/MOL
REMARK 922        TOTAL FREE ENERGY PREDICTED BY IDOCK:  114.49 KCAL/MOL
REMARK 923 INTER-LIGAND FREE ENERGY PREDICTED BY IDOCK:   91.98 KCAL/MOL
REMARK 924 INTRA-LIGAND FREE ENERGY PREDICTED BY IDOCK:   22.50 KCAL/MOL
REMARK 927      BINDING AFFINITY PREDICTED BY RF-SCORE:    0.00 PKD
ROOT
HETATM    1  C   UNL     1     -12.123  12.999  69.968  1.00  0.00    -0.297 C  
HETATM    2  C   UNL     1     -13.074  11.915  69.458  1.00  0.00     1.511 C  
HETATM    3  C   UNL     1     -12.524  10.628  70.138  1.00  0.00    -0.342 C  
HETATM    4  C   UNL     1     -11.168  11.010  70.740  1.00  0.00     0.474 C  
HETATM    5  N   UNL     1     -10.878  12.329  70.214  1.00  0.00     1.084 N  
HETATM    6  C   UNL     1      -9.859  13.047  70.810  1.00  0.00     6.601 C  
HETATM    7  O   UNL     1      -8.751  12.563  71.024  1.00  0.00     8.508 OA 
HETATM    8  C   UNL     1     -10.183  14.558  71.055  1.00  0.00     1.853 C  
HETATM    9  O   UNL     1     -11.429  15.616  68.934  1.00  0.00    -0.316 OA 
HETATM   10  N   UNL     1     -11.673  14.962  70.944  1.00  0.00    -0.309 N  
HETATM   11  C   UNL     1     -12.019  16.273  70.753  1.00  0.00    -0.015 C  
HETATM   12  H   UNL     1     -13.545  15.732  69.246  1.00  0.00     0.000 HD 
HETATM   13  C   UNL     1     -10.894  16.823  69.844  1.00  0.00    -0.100 C  
HETATM   14  O   UNL     1     -13.114  16.712  71.098  1.00  0.00     1.511 OA 
HETATM   15  O   UNL     1     -13.532  14.797  69.416  1.00  0.00     1.290 OA 
HETATM   16  C   UNL     1     -11.239  18.109  70.768  1.00  0.00     3.417 C  
HETATM   17  C   UNL     1     -12.146  14.571  69.682  1.00  0.00    -0.323 C  
ENDROOT
BRANCH   8  18
HETATM   18  C   UNL     1      -9.515  15.097  72.330  1.00  0.00     5.467 C  
BRANCH  18  19
HETATM   19  C   UNL     1      -9.539  16.595  72.283  1.00  0.00     9.032 A  
HETATM   20  C   UNL     1      -8.742  18.642  73.282  1.00  0.00     9.580 A  
HETATM   21  C   UNL     1      -9.903  19.288  72.866  1.00  0.00     4.299 A  
HETATM   22  C   UNL     1     -10.668  17.262  71.802  1.00  0.00     2.543 A  
HETATM   23  C   UNL     1     -10.851  18.606  72.100  1.00  0.00     3.495 A  
HETATM   24  C   UNL     1      -8.543  17.307  72.965  1.00  0.00    17.547 A  
ENDBRANCH  18  19
ENDBRANCH   8  18
BRANCH  13  25
HETATM   25  N   UNL     1      -9.829  17.505  69.083  1.00  0.00    -0.210 N  
HETATM   26  O   UNL     1      -9.133  19.348  70.257  1.00  0.00     0.927 OA 
HETATM   27  C   UNL     1      -8.906  18.489  69.416  1.00  0.00     0.408 C  
HETATM   28  H   UNL     1      -9.756  17.189  68.116  1.00  0.00     0.000 HD 
BRANCH  27  29
HETATM   29  C   UNL     1      -7.566  18.426  68.548  1.00  0.00    -0.319 C  
HETATM   30  C   UNL     1      -7.413  17.235  67.559  1.00  0.00    -0.170 C  
HETATM   31  N   UNL     1      -6.683  17.524  66.293  1.00  0.00    -0.256 NA 
HETATM   32  C   UNL     1      -5.243  17.737  66.409  1.00  0.00    -0.174 C  
HETATM   33  C   UNL     1      -7.362  18.563  65.481  1.00  0.00     0.085 C  
HETATM   34  C   UNL     1      -8.381  17.838  64.527  1.00  0.00     6.925 C  
HETATM   35  C   UNL     1      -9.710  17.714  65.167  1.00  0.00     1.617 A  
HETATM   36  C   UNL     1     -10.719  16.770  65.170  1.00  0.00    -0.143 A  
HETATM   37  N   UNL     1     -11.713  17.221  65.993  1.00  0.00     1.808 NA 
HETATM   38  H   UNL     1     -12.548  16.691  66.244  1.00  0.00     0.000 HD 
HETATM   39  C   UNL     1     -11.425  18.492  66.435  1.00  0.00     1.459 A  
HETATM   40  C   UNL     1     -12.118  19.408  67.221  1.00  0.00     2.575 A  
HETATM   41  C   UNL     1     -11.463  20.627  67.477  1.00  0.00     2.434 A  
HETATM   42  C   UNL     1     -10.127  20.845  67.110  1.00  0.00    -0.007 A  
HETATM   43  C   UNL     1      -9.411  19.849  66.450  1.00  0.00    -0.493 A  
HETATM   44  C   UNL     1     -10.142  18.747  66.005  1.00  0.00    -0.353 A  
HETATM   45  C   UNL     1      -7.903  19.789  66.348  1.00  0.00    -0.328 C  
HETATM   46  C   UNL     1      -7.294  19.752  67.785  1.00  0.00    -0.314 C  
ENDBRANCH  27  29
ENDBRANCH  13  25
TORSDOF 4
ENDMDL
MODEL      201
REMARK 921   NORMALIZED FREE ENERGY PREDICTED BY IDOCK:  103.41 KCAL/MOL
REMARK 922        TOTAL FREE ENERGY PREDICTED BY IDOCK:  126.36 KCAL/MOL
REMARK 923 INTER-LIGAND FREE ENERGY PREDICTED BY IDOCK:   72.31 KCAL/MOL
REMARK 924 INTRA-LIGAND FREE ENERGY PREDICTED BY IDOCK:   54.05 KCAL/MOL
REMARK 927      BINDING AFFINITY PREDICTED BY RF-SCORE:    0.00 PKD
ROOT
HETATM    1  C   UNL     1      -8.162   8.396  68.873  1.00  0.00    -0.115 C  
HETATM    2  C   UNL     1      -7.575   7.645  70.068  1.00  0.00    -0.087 C  
HETATM    3  C   UNL     1      -8.181   6.220  69.909  1.00  0.00    -0.121 C  
HETATM    4  C   UNL     1      -9.265   6.336  68.832  1.00  0.00    -0.123 C  
HETATM    5  N   UNL     1      -9.418   7.759  68.600  1.00  0.00    -0.151 N  
HETATM    6  C   UNL     1     -10.118   8.153  67.477  1.00  0.00    -0.224 C  
HETATM    7  O   UNL     1     -11.217   7.685  67.187  1.00  0.00    -0.020 OA 
HETATM    8  C   UNL     1      -9.470   9.338  66.687  1.00  0.00    -0.191 C  
HETATM    9  O   UNL     1      -8.576  11.220  68.370  1.00  0.00    -0.143 OA 
HETATM   10  N   UNL     1      -7.999   9.666  67.037  1.00  0.00    -0.108 N  
HETATM   11  C   UNL     1      -7.468  10.886  66.713  1.00  0.00    -0.134 C  
HETATM   12  H   UNL     1      -6.463  11.059  68.675  1.00  0.00     0.000 HD 
HETATM   13  C   UNL     1      -8.651  11.866  66.903  1.00  0.00    -0.185 C  
HETATM   14  O   UNL     1      -6.260  11.045  66.545  1.00  0.00    -0.107 OA 
HETATM   15  O   UNL     1      -6.610  10.160  68.947  1.00  0.00    -0.048 OA 
HETATM   16  C   UNL     1      -7.867  12.526  65.648  1.00  0.00     2.304 C  
HETATM   17  C   UNL     1      -7.913   9.908  68.416  1.00  0.00    -0.096 C  
ENDROOT
BRANCH   8  18
HETATM   18  C   UNL     1      -9.711   9.231  65.173  1.00  0.00     0.003 C  
BRANCH  18  19
HETATM   19  C   UNL     1     -10.627   8.072  64.917  1.00  0.00     6.113 A  
HETATM   20  C   UNL     1     -12.217   7.073  63.402  1.00  0.00    19.207 A  
HETATM   21  C   UNL     1     -12.846   6.457  64.480  1.00  0.00    11.285 A  
HETATM   22  C   UNL     1     -11.212   7.393  65.989  1.00  0.00     3.172 A  
HETATM   23  C   UNL     1     -12.325   6.593  65.769  1.00  0.00     7.213 A  
HETATM   24  C   UNL     1     -11.090   7.854  63.614  1.00  0.00    16.216 A  
ENDBRANCH  18  19
ENDBRANCH   8  18
BRANCH  13  25
HETATM   25  N   UNL     1      -9.717  12.885  66.928  1.00  0.00    -0.233 N  
HETATM   26  O   UNL     1     -11.591  12.033  65.918  1.00  0.00    -0.362 OA 
HETATM   27  C   UNL     1     -11.086  12.833  66.693  1.00  0.00    -0.276 C  
HETATM   28  H   UNL     1      -9.380  13.818  67.166  1.00  0.00     0.000 HD 
BRANCH  27  29
HETATM   29  C   UNL     1     -11.910  13.957  67.474  1.00  0.00    -0.431 C  
HETATM   30  C   UNL     1     -13.094  13.481  68.366  1.00  0.00     2.653 C  
HETATM   31  N   UNL     1     -13.340  14.272  69.604  1.00  0.00     1.104 NA 
HETATM   32  C   UNL     1     -13.892  15.611  69.419  1.00  0.00     3.377 C  
HETATM   33  C   UNL     1     -12.178  14.243  70.526  1.00  0.00    -0.356 C  
HETATM   34  C   UNL     1     -12.355  13.007  71.484  1.00  0.00    -0.014 C  
HETATM   35  C   UNL     1     -11.717  11.800  70.916  1.00  0.00     0.343 A  
HETATM   36  C   UNL     1     -11.998  10.447  70.905  1.00  0.00    -0.377 A  
HETATM   37  N   UNL     1     -11.027   9.821  70.176  1.00  0.00    -0.270 NA 
HETATM   38  H   UNL     1     -11.024   8.830  69.937  1.00  0.00     0.000 HD 
HETATM   39  C   UNL     1     -10.052  10.722  69.808  1.00  0.00     0.093 A  
HETATM   40  C   UNL     1      -8.843  10.596  69.131  1.00  0.00    -0.133 A  
HETATM   41  C   UNL     1      -8.120  11.786  68.924  1.00  0.00     0.029 A  
HETATM   42  C   UNL     1      -8.659  13.045  69.227  1.00  0.00     0.893 A  
HETATM   43  C   UNL     1      -9.937  13.147  69.772  1.00  0.00     1.587 A  
HETATM   44  C   UNL     1     -10.537  11.956  70.180  1.00  0.00     1.309 A  
HETATM   45  C   UNL     1     -10.776  14.406  69.781  1.00  0.00    -0.022 C  
HETATM   46  C   UNL     1     -10.992  14.888  68.312  1.00  0.00    -0.268 C  
ENDBRANCH  27  29
ENDBRANCH  13  25
TORSDOF 4
ENDMDL
MODEL      202
REMARK 921   NORMALIZED FREE ENERGY PREDICTED BY IDOCK:  118.10 KCAL/MOL
REMARK 922        TOTAL FREE ENERGY PREDICTED BY IDOCK:  144.48 KCAL/MOL
REMARK 923 INTER-LIGAND FREE ENERGY PREDICTED BY IDOCK:  115.07 KCAL/MOL
REMARK 924 INTRA-LIGAND FREE ENERGY PREDICTED BY IDOCK:   29.41 KCAL/MOL
REMARK 927      BINDING AFFINITY PREDICTED BY RF-SCORE:    0.00 PKD
ROOT
HETATM    1  C   UNL     1     -11.620  18.386  64.962  1.00  0.00     3.021 C  
HETATM    2  C   UNL     1     -12.714  19.318  64.440  1.00  0.00    13.604 C  
HETATM    3  C   UNL     1     -11.944  20.647  64.193  1.00  0.00     5.178 C  
HETATM    4  C   UNL     1     -10.567  20.470  64.844  1.00  0.00     1.132 C  
HETATM    5  N   UNL     1     -10.665  19.242  65.607  1.00  0.00    -0.385 N  
HETATM    6  C   UNL     1      -9.491  18.678  66.066  1.00  0.00    -0.037 C  
HETATM    7  O   UNL     1      -8.636  19.330  66.661  1.00  0.00    -0.293 OA 
HETATM    8  C   UNL     1      -9.403  17.125  65.898  1.00  0.00    -0.025 C  
HETATM    9  O   UNL     1     -11.727  15.969  66.557  1.00  0.00     0.457 OA 
HETATM   10  N   UNL     1     -10.440  16.485  64.944  1.00  0.00    -0.042 N  
HETATM   11  C   UNL     1     -10.709  15.144  65.018  1.00  0.00    -0.430 C  
HETATM   12  H   UNL     1     -12.884  15.489  64.820  1.00  0.00     0.000 HD 
HETATM   13  C   UNL     1     -10.599  14.828  66.529  1.00  0.00    -0.299 C  
HETATM   14  O   UNL     1     -11.140  14.514  64.054  1.00  0.00     0.063 OA 
HETATM   15  O   UNL     1     -12.822  16.405  64.574  1.00  0.00     0.949 OA 
HETATM   16  C   UNL     1     -10.038  13.464  65.860  1.00  0.00    -0.300 C  
HETATM   17  C   UNL     1     -11.724  16.846  65.376  1.00  0.00     1.481 C  
ENDROOT
BRANCH   8  18
HETATM   18  C   UNL     1      -7.968  16.649  65.622  1.00  0.00     0.961 C  
BRANCH  18  19
HETATM   19  C   UNL     1      -7.963  15.151  65.580  1.00  0.00     3.340 A  
HETATM   20  C   UNL     1      -7.416  13.186  64.290  1.00  0.00    12.417 A  
HETATM   21  C   UNL     1      -8.430  12.487  64.939  1.00  0.00     2.372 A  
HETATM   22  C   UNL     1      -8.930  14.428  66.283  1.00  0.00    -0.031 A  
HETATM   23  C   UNL     1      -9.166  13.099  65.956  1.00  0.00     0.078 A  
HETATM   24  C   UNL     1      -7.160  14.506  64.631  1.00  0.00    17.253 A  
ENDBRANCH  18  19
ENDBRANCH   8  18
BRANCH  13  25
HETATM   25  N   UNL     1     -10.410  14.367  67.917  1.00  0.00    -0.230 N  
HETATM   26  O   UNL     1     -10.577  12.081  67.977  1.00  0.00    -0.196 OA 
HETATM   27  C   UNL     1     -10.168  13.119  68.479  1.00  0.00    -0.215 C  
HETATM   28  H   UNL     1     -10.467  15.118  68.605  1.00  0.00     0.000 HD 
BRANCH  27  29
HETATM   29  C   UNL     1      -9.375  13.184  69.864  1.00  0.00     2.671 C  
HETATM   30  C   UNL     1      -9.106  14.594  70.465  1.00  0.00     1.876 C  
HETATM   31  N   UNL     1      -9.115  14.686  71.952  1.00  0.00     4.754 NA 
HETATM   32  C   UNL     1      -7.988  14.069  72.646  1.00  0.00     8.505 C  
HETATM   33  C   UNL     1     -10.430  14.309  72.527  1.00  0.00     4.660 C  
HETATM   34  C   UNL     1     -11.308  15.612  72.611  1.00  0.00    -0.171 C  
HETATM   35  C   UNL     1     -12.097  15.801  71.374  1.00  0.00    -0.494 A  
HETATM   36  C   UNL     1     -12.509  16.886  70.623  1.00  0.00     3.481 A  
HETATM   37  N   UNL     1     -13.205  16.411  69.547  1.00  0.00     0.893 NA 
HETATM   38  H   UNL     1     -13.560  16.986  68.783  1.00  0.00     0.000 HD 
HETATM   39  C   UNL     1     -13.356  15.046  69.641  1.00  0.00     1.072 A  
HETATM   40  C   UNL     1     -14.023  14.104  68.864  1.00  0.00     7.223 A  
HETATM   41  C   UNL     1     -13.922  12.766  69.287  1.00  0.00     7.336 A  
HETATM   42  C   UNL     1     -13.065  12.378  70.327  1.00  0.00     0.692 A  
HETATM   43  C   UNL     1     -12.296  13.330  70.994  1.00  0.00    -0.379 A  
HETATM   44  C   UNL     1     -12.582  14.667  70.716  1.00  0.00    -0.415 A  
HETATM   45  C   UNL     1     -11.078  13.024  71.836  1.00  0.00     5.481 C  
HETATM   46  C   UNL     1     -10.019  12.287  70.956  1.00  0.00     8.064 C  
ENDBRANCH  27  29
ENDBRANCH  13  25
TORSDOF 4
ENDMDL
MODEL      203
REMARK 921   NORMALIZED FREE ENERGY PREDICTED BY IDOCK:  122.60 KCAL/MOL
REMARK 922        TOTAL FREE ENERGY PREDICTED BY IDOCK:  150.03 KCAL/MOL
REMARK 923 INTER-LIGAND FREE ENERGY PREDICTED BY IDOCK:   88.03 KCAL/MOL
REMARK 924 INTRA-LIGAND FREE ENERGY PREDICTED BY IDOCK:   62.00 KCAL/MOL
REMARK 927      BINDING AFFINITY PREDICTED BY RF-SCORE:    0.00 PKD
ROOT
HETATM    1  C   UNL     1     -12.139  13.007  69.929  1.00  0.00    -0.277 C  
HETATM    2  C   UNL     1     -13.113  11.829  69.875  1.00  0.00     0.913 C  
HETATM    3  C   UNL     1     -12.380  10.740  70.711  1.00  0.00    -0.480 C  
HETATM    4  C   UNL     1     -10.955  11.259  70.933  1.00  0.00     1.656 C  
HETATM    5  N   UNL     1     -10.838  12.421  70.074  1.00  0.00     0.633 N  
HETATM    6  C   UNL     1      -9.762  13.263  70.279  1.00  0.00     3.685 C  
HETATM    7  O   UNL     1      -8.610  12.848  70.378  1.00  0.00     4.051 OA 
HETATM    8  C   UNL     1     -10.110  14.788  70.232  1.00  0.00     0.422 C  
HETATM    9  O   UNL     1     -11.786  15.314  68.210  1.00  0.00    -0.336 OA 
HETATM   10  N   UNL     1     -11.613  15.146  70.324  1.00  0.00    -0.268 N  
HETATM   11  C   UNL     1     -12.055  16.375  69.910  1.00  0.00     0.508 C  
HETATM   12  H   UNL     1     -13.809  15.488  68.894  1.00  0.00     0.000 HD 
HETATM   13  C   UNL     1     -11.151  16.704  68.698  1.00  0.00    -0.294 C  
HETATM   14  O   UNL     1     -13.087  16.877  70.353  1.00  0.00     3.554 OA 
HETATM   15  O   UNL     1     -13.716  14.619  69.267  1.00  0.00     2.483 OA 
HETATM   16  C   UNL     1     -11.380  18.168  69.353  1.00  0.00     2.528 C  
HETATM   17  C   UNL     1     -12.295  14.469  69.302  1.00  0.00    -0.150 C  
ENDROOT
BRANCH   8  18
HETATM   18  C   UNL     1      -9.242  15.614  71.194  1.00  0.00     2.954 C  
BRANCH  18  19
HETATM   19  C   UNL     1      -9.368  17.061  70.826  1.00  0.00     4.118 A  
HETATM   20  C   UNL     1      -8.953  18.744  69.146  1.00  0.00    -0.030 A  
HETATM   21  C   UNL     1      -8.854  19.707  70.146  1.00  0.00     1.171 A  
HETATM   22  C   UNL     1      -9.344  18.041  71.822  1.00  0.00     9.803 A  
HETATM   23  C   UNL     1      -9.080  19.361  71.480  1.00  0.00     4.171 A  
HETATM   24  C   UNL     1      -9.240  17.429  69.480  1.00  0.00     0.509 A  
ENDBRANCH  18  19
ENDBRANCH   8  18
BRANCH  13  25
HETATM   25  N   UNL     1     -10.285  17.194  67.609  1.00  0.00    -0.316 N  
HETATM   26  O   UNL     1      -8.371  15.931  67.548  1.00  0.00    -0.154 OA 
HETATM   27  C   UNL     1      -9.164  16.668  66.977  1.00  0.00    -0.220 C  
HETATM   28  H   UNL     1     -10.566  18.104  67.246  1.00  0.00     0.000 HD 
BRANCH  27  29
HETATM   29  C   UNL     1      -8.983  17.175  65.473  1.00  0.00     0.749 C  
HETATM   30  C   UNL     1     -10.084  18.113  64.900  1.00  0.00     2.446 C  
HETATM   31  N   UNL     1      -9.623  19.152  63.937  1.00  0.00     8.729 NA 
HETATM   32  C   UNL     1      -9.207  18.677  62.620  1.00  0.00    25.084 C  
HETATM   33  C   UNL     1      -8.653  20.092  64.550  1.00  0.00     3.234 C  
HETATM   34  C   UNL     1      -9.467  21.281  65.181  1.00  0.00     3.045 C  
HETATM   35  C   UNL     1      -9.819  20.995  66.589  1.00  0.00     0.395 A  
HETATM   36  C   UNL     1     -10.900  21.258  67.409  1.00  0.00     2.899 A  
HETATM   37  N   UNL     1     -10.645  20.702  68.631  1.00  0.00     0.119 NA 
HETATM   38  H   UNL     1     -11.305  20.675  69.409  1.00  0.00     0.000 HD 
HETATM   39  C   UNL     1      -9.371  20.182  68.662  1.00  0.00     0.055 A  
HETATM   40  C   UNL     1      -8.610  19.579  69.659  1.00  0.00     0.456 A  
HETATM   41  C   UNL     1      -7.324  19.149  69.285  1.00  0.00    -0.252 A  
HETATM   42  C   UNL     1      -6.893  19.168  67.950  1.00  0.00    -0.247 A  
HETATM   43  C   UNL     1      -7.736  19.644  66.948  1.00  0.00    -0.288 A  
HETATM   44  C   UNL     1      -8.907  20.275  67.368  1.00  0.00    -0.442 A  
HETATM   45  C   UNL     1      -7.568  19.368  65.471  1.00  0.00     0.038 C  
HETATM   46  C   UNL     1      -7.593  17.825  65.233  1.00  0.00     1.368 C  
ENDBRANCH  27  29
ENDBRANCH  13  25
TORSDOF 4
ENDMDL
MODEL      204
REMARK 921   NORMALIZED FREE ENERGY PREDICTED BY IDOCK:  137.99 KCAL/MOL
REMARK 922        TOTAL FREE ENERGY PREDICTED BY IDOCK:  169.02 KCAL/MOL
REMARK 923 INTER-LIGAND FREE ENERGY PREDICTED BY IDOCK:  152.88 KCAL/MOL
REMARK 924 INTRA-LIGAND FREE ENERGY PREDICTED BY IDOCK:   16.15 KCAL/MOL
REMARK 927      BINDING AFFINITY PREDICTED BY RF-SCORE:    0.00 PKD
ROOT
HETATM    1  C   UNL     1     -12.139  13.007  69.929  1.00  0.00    -0.277 C  
HETATM    2  C   UNL     1     -13.113  11.829  69.875  1.00  0.00     0.913 C  
HETATM    3  C   UNL     1     -12.380  10.740  70.711  1.00  0.00    -0.480 C  
HETATM    4  C   UNL     1     -10.955  11.259  70.933  1.00  0.00     1.656 C  
HETATM    5  N   UNL     1     -10.838  12.421  70.074  1.00  0.00     0.633 N  
HETATM    6  C   UNL     1      -9.762  13.263  70.279  1.00  0.00     3.685 C  
HETATM    7  O   UNL     1      -8.610  12.848  70.378  1.00  0.00     4.051 OA 
HETATM    8  C   UNL     1     -10.110  14.788  70.232  1.00  0.00     0.422 C  
HETATM    9  O   UNL     1     -11.786  15.314  68.210  1.00  0.00    -0.336 OA 
HETATM   10  N   UNL     1     -11.613  15.146  70.324  1.00  0.00    -0.268 N  
HETATM   11  C   UNL     1     -12.055  16.375  69.910  1.00  0.00     0.508 C  
HETATM   12  H   UNL     1     -13.809  15.488  68.894  1.00  0.00     0.000 HD 
HETATM   13  C   UNL     1     -11.151  16.704  68.698  1.00  0.00    -0.294 C  
HETATM   14  O   UNL     1     -13.087  16.877  70.353  1.00  0.00     3.554 OA 
HETATM   15  O   UNL     1     -13.716  14.619  69.267  1.00  0.00     2.483 OA 
HETATM   16  C   UNL     1     -11.380  18.168  69.353  1.00  0.00     2.528 C  
HETATM   17  C   UNL     1     -12.295  14.469  69.302  1.00  0.00    -0.150 C  
ENDROOT
BRANCH   8  18
HETATM   18  C   UNL     1      -9.242  15.614  71.194  1.00  0.00     2.954 C  
BRANCH  18  19
HETATM   19  C   UNL     1      -9.368  17.061  70.826  1.00  0.00     4.118 A  
HETATM   20  C   UNL     1      -8.953  18.744  69.146  1.00  0.00    -0.030 A  
HETATM   21  C   UNL     1      -8.854  19.707  70.146  1.00  0.00     1.171 A  
HETATM   22  C   UNL     1      -9.344  18.041  71.822  1.00  0.00     9.803 A  
HETATM   23  C   UNL     1      -9.080  19.361  71.480  1.00  0.00     4.171 A  
HETATM   24  C   UNL     1      -9.240  17.429  69.480  1.00  0.00     0.509 A  
ENDBRANCH  18  19
ENDBRANCH   8  18
BRANCH  13  25
HETATM   25  N   UNL     1     -10.285  17.194  67.609  1.00  0.00    -0.316 N  
HETATM   26  O   UNL     1      -8.371  15.931  67.548  1.00  0.00    -0.154 OA 
HETATM   27  C   UNL     1      -9.164  16.668  66.977  1.00  0.00    -0.220 C  
HETATM   28  H   UNL     1     -10.566  18.104  67.246  1.00  0.00     0.000 HD 
BRANCH  27  29
HETATM   29  C   UNL     1      -8.983  17.175  65.473  1.00  0.00     0.749 C  
HETATM   30  C   UNL     1      -7.709  16.705  64.712  1.00  0.00     6.481 C  
HETATM   31  N   UNL     1      -7.867  16.479  63.248  1.00  0.00    18.865 NA 
HETATM   32  C   UNL     1      -8.038  17.671  62.422  1.00  0.00    26.117 C  
HETATM   33  C   UNL     1      -8.860  15.418  62.950  1.00  0.00    21.707 C  
HETATM   34  C   UNL     1      -8.097  14.043  62.907  1.00  0.00    17.189 C  
HETATM   35  C   UNL     1      -8.073  13.407  64.243  1.00  0.00     9.111 A  
HETATM   36  C   UNL     1      -7.170  12.643  64.956  1.00  0.00     6.604 A  
HETATM   37  N   UNL     1      -7.721  12.369  66.176  1.00  0.00     0.237 NA 
HETATM   38  H   UNL     1      -7.244  11.886  66.937  1.00  0.00     0.000 HD 
HETATM   39  C   UNL     1      -9.014  12.840  66.231  1.00  0.00     0.054 A  
HETATM   40  C   UNL     1     -10.015  12.769  67.194  1.00  0.00    -0.218 A  
HETATM   41  C   UNL     1     -11.227  13.411  66.880  1.00  0.00    -0.330 A  
HETATM   42  C   UNL     1     -11.365  14.221  65.743  1.00  0.00    -0.326 A  
HETATM   43  C   UNL     1     -10.293  14.392  64.870  1.00  0.00    -0.419 A  
HETATM   44  C   UNL     1      -9.186  13.568  65.074  1.00  0.00     1.115 A  
HETATM   45  C   UNL     1     -10.172  15.507  63.856  1.00  0.00     3.669 C  
HETATM   46  C   UNL     1     -10.230  16.881  64.596  1.00  0.00     1.634 C  
ENDBRANCH  27  29
ENDBRANCH  13  25
TORSDOF 4
ENDMDL
