MODEL        1
REMARK 921   NORMALIZED FREE ENERGY PREDICTED BY IDOCK:   -8.92 KCAL/MOL
REMARK 922        TOTAL FREE ENERGY PREDICTED BY IDOCK:  -10.36 KCAL/MOL
REMARK 923 INTER-LIGAND FREE ENERGY PREDICTED BY IDOCK:   -9.96 KCAL/MOL
REMARK 924 INTRA-LIGAND FREE ENERGY PREDICTED BY IDOCK:   -0.40 KCAL/MOL
REMARK 927      BINDING AFFINITY PREDICTED BY RF-SCORE:    0.00 PKD
ROOT
HETATM    1  C   UNL     1     -12.132  11.442  69.832  1.00  0.00    -0.330 C  
HETATM    2  C   UNL     1     -12.338  10.155  70.624  1.00  0.00    -0.382 C  
HETATM    3  C   UNL     1     -13.185  10.616  71.851  1.00  0.00    -0.528 C  
HETATM    4  C   UNL     1     -13.207  12.142  71.832  1.00  0.00    -0.369 C  
HETATM    5  N   UNL     1     -12.239  12.502  70.826  1.00  0.00    -0.332 N  
HETATM    6  C   UNL     1     -12.061  13.826  70.452  1.00  0.00    -0.350 C  
HETATM    7  O   UNL     1     -12.364  14.778  71.161  1.00  0.00    -0.291 OA 
HETATM    8  C   UNL     1     -11.231  13.892  69.191  1.00  0.00    -0.269 C  
HETATM    9  C   UNL     1     -10.580  15.233  68.877  1.00  0.00    -0.242 C  
HETATM   10  N   UNL     1     -11.896  12.898  68.095  1.00  0.00    -0.348 N  
HETATM   11  C   UNL     1     -11.536  16.309  68.412  1.00  0.00    -0.243 C  
HETATM   12  C   UNL     1      -9.548  15.727  69.909  1.00  0.00    -0.030 C  
HETATM   13  C   UNL     1     -11.635  12.694  66.735  1.00  0.00    -0.374 C  
HETATM   14  O   UNL     1     -12.479  12.395  65.901  1.00  0.00    -0.583 OA 
HETATM   15  C   UNL     1     -10.129  12.743  66.566  1.00  0.00    -0.258 C  
HETATM   16  H   UNL     1     -11.116  10.639  66.893  1.00  0.00     0.000 HD 
HETATM   17  C   UNL     1     -10.271  14.316  65.990  1.00  0.00    -0.327 C  
HETATM   18  O   UNL     1      -9.985  12.107  68.012  1.00  0.00    -0.191 OA 
HETATM   19  O   UNL     1     -11.603  10.503  67.697  1.00  0.00    -0.447 OA 
HETATM   20  C   UNL     1     -11.302  11.672  68.459  1.00  0.00    -0.274 C  
HETATM   21  C   UNL     1     -10.957  14.527  64.605  1.00  0.00    -0.351 C  
HETATM   22  C   UNL     1      -9.076  15.255  65.961  1.00  0.00    -0.244 C  
ENDROOT
BRANCH  15  23
HETATM   23  N   UNL     1      -9.131  12.044  65.786  1.00  0.00    -0.431 N  
HETATM   24  H   UNL     1      -8.143  12.276  65.887  1.00  0.00     0.000 HD 
HETATM   25  O   UNL     1     -10.689  10.956  64.452  1.00  0.00    -0.340 OA 
HETATM   26  C   UNL     1      -9.537  11.046  64.891  1.00  0.00    -0.245 C  
BRANCH  26  27
HETATM   27  C   UNL     1      -8.466   9.985  64.578  1.00  0.00    -0.180 C  
HETATM   28  C   UNL     1      -7.346  10.071  65.638  1.00  0.00    -0.127 C  
HETATM   29  N   UNL     1      -7.427   9.082  66.743  1.00  0.00    -0.086 NA 
HETATM   30  C   UNL     1      -7.183   7.704  66.237  1.00  0.00    -0.071 C  
HETATM   31  C   UNL     1      -8.680   9.140  67.505  1.00  0.00    -0.119 C  
HETATM   32  C   UNL     1      -7.587   6.549  67.263  1.00  0.00    -0.096 C  
HETATM   33  C   UNL     1      -8.549   5.567  66.681  1.00  0.00    -0.116 A  
HETATM   34  C   UNL     1      -9.486   4.701  67.210  1.00  0.00    -0.154 A  
HETATM   35  N   UNL     1     -10.010   3.966  66.173  1.00  0.00    -0.406 NA 
HETATM   36  C   UNL     1      -9.425   4.331  64.980  1.00  0.00    -0.171 A  
HETATM   37  H   UNL     1     -10.730   3.251  66.272  1.00  0.00     0.000 HD 
HETATM   38  C   UNL     1      -9.578   3.919  63.653  1.00  0.00    -0.155 A  
HETATM   39  C   UNL     1      -8.830   4.610  62.681  1.00  0.00    -0.127 A  
HETATM   40  C   UNL     1      -8.071   5.739  62.999  1.00  0.00    -0.107 A  
HETATM   41  C   UNL     1      -8.030   6.187  64.318  1.00  0.00    -0.118 A  
HETATM   42  C   UNL     1      -8.606   5.396  65.293  1.00  0.00    -0.151 A  
HETATM   43  C   UNL     1      -7.669   7.578  64.725  1.00  0.00    -0.117 C  
HETATM   44  C   UNL     1      -8.909   8.507  64.473  1.00  0.00     0.119 C  
ENDBRANCH  26  27
ENDBRANCH  15  23
TORSDOF 2
ENDMDL
MODEL        2
REMARK 921   NORMALIZED FREE ENERGY PREDICTED BY IDOCK:   -8.45 KCAL/MOL
REMARK 922        TOTAL FREE ENERGY PREDICTED BY IDOCK:   -9.84 KCAL/MOL
REMARK 923 INTER-LIGAND FREE ENERGY PREDICTED BY IDOCK:   -9.67 KCAL/MOL
REMARK 924 INTRA-LIGAND FREE ENERGY PREDICTED BY IDOCK:   -0.16 KCAL/MOL
REMARK 927      BINDING AFFINITY PREDICTED BY RF-SCORE:    0.00 PKD
ROOT
HETATM    1  C   UNL     1      -9.535   3.830  68.756  1.00  0.00    -0.151 C  
HETATM    2  C   UNL     1      -9.124   3.297  67.388  1.00  0.00    -0.201 C  
HETATM    3  C   UNL     1      -9.240   1.750  67.551  1.00  0.00    -0.157 C  
HETATM    4  C   UNL     1      -9.463   1.472  69.035  1.00  0.00    -0.107 C  
HETATM    5  N   UNL     1      -9.233   2.741  69.676  1.00  0.00    -0.129 N  
HETATM    6  C   UNL     1      -9.451   2.901  71.038  1.00  0.00    -0.157 C  
HETATM    7  O   UNL     1      -9.450   1.973  71.838  1.00  0.00    -0.090 OA 
HETATM    8  C   UNL     1      -9.433   4.370  71.387  1.00  0.00    -0.155 C  
HETATM    9  C   UNL     1      -9.226   4.715  72.857  1.00  0.00    -0.137 C  
HETATM   10  N   UNL     1     -10.445   5.142  70.382  1.00  0.00    -0.252 N  
HETATM   11  C   UNL     1     -10.410   4.424  73.751  1.00  0.00    -0.250 C  
HETATM   12  C   UNL     1      -7.875   4.276  73.456  1.00  0.00    -0.086 C  
HETATM   13  C   UNL     1     -10.922   6.458  70.360  1.00  0.00    -0.308 C  
HETATM   14  O   UNL     1     -12.034   6.790  69.971  1.00  0.00    -0.291 OA 
HETATM   15  C   UNL     1      -9.756   7.353  70.734  1.00  0.00    -0.171 C  
HETATM   16  H   UNL     1     -10.141   6.969  68.451  1.00  0.00     0.000 HD 
HETATM   17  C   UNL     1     -10.381   7.474  72.290  1.00  0.00    -0.263 C  
HETATM   18  O   UNL     1      -8.787   6.326  70.013  1.00  0.00    -0.139 OA 
HETATM   19  O   UNL     1     -10.105   6.071  68.145  1.00  0.00    -0.137 OA 
HETATM   20  C   UNL     1      -9.598   5.364  69.276  1.00  0.00    -0.145 C  
HETATM   21  C   UNL     1     -11.718   8.255  72.481  1.00  0.00    -0.451 C  
HETATM   22  C   UNL     1      -9.515   7.929  73.453  1.00  0.00    -0.341 C  
ENDROOT
BRANCH  15  23
HETATM   23  N   UNL     1      -9.245   8.644  70.330  1.00  0.00    -0.162 N  
HETATM   24  H   UNL     1      -8.306   8.935  70.602  1.00  0.00     0.000 HD 
HETATM   25  O   UNL     1     -11.283   9.381  69.497  1.00  0.00    -0.164 OA 
HETATM   26  C   UNL     1     -10.053   9.491  69.561  1.00  0.00    -0.206 C  
BRANCH  26  27
HETATM   27  C   UNL     1      -9.285  10.507  68.695  1.00  0.00    -0.172 C  
HETATM   28  C   UNL     1      -8.303   9.746  67.777  1.00  0.00    -0.114 C  
HETATM   29  N   UNL     1      -8.768   9.517  66.385  1.00  0.00    -0.133 NA 
HETATM   30  C   UNL     1      -8.856  10.803  65.641  1.00  0.00    -0.190 C  
HETATM   31  C   UNL     1     -10.031   8.776  66.292  1.00  0.00    -0.245 C  
HETATM   32  C   UNL     1      -9.667  10.710  64.268  1.00  0.00    -0.372 C  
HETATM   33  C   UNL     1     -10.793  11.687  64.191  1.00  0.00    -0.433 A  
HETATM   34  C   UNL     1     -11.982  11.740  63.489  1.00  0.00    -0.380 A  
HETATM   35  N   UNL     1     -12.573  12.952  63.758  1.00  0.00    -0.710 NA 
HETATM   36  C   UNL     1     -11.787  13.692  64.615  1.00  0.00    -0.397 A  
HETATM   37  H   UNL     1     -13.467  13.260  63.377  1.00  0.00     0.000 HD 
HETATM   38  C   UNL     1     -11.906  14.957  65.199  1.00  0.00    -0.258 A  
HETATM   39  C   UNL     1     -10.899  15.336  66.107  1.00  0.00    -0.320 A  
HETATM   40  C   UNL     1      -9.899  14.448  66.512  1.00  0.00    -0.298 A  
HETATM   41  C   UNL     1      -9.877  13.157  65.991  1.00  0.00    -0.266 A  
HETATM   42  C   UNL     1     -10.747  12.855  64.961  1.00  0.00    -0.326 A  
HETATM   43  C   UNL     1      -9.195  11.996  66.640  1.00  0.00    -0.211 C  
HETATM   44  C   UNL     1     -10.101  11.482  67.815  1.00  0.00    -0.198 C  
ENDBRANCH  26  27
ENDBRANCH  15  23
TORSDOF 2
ENDMDL
MODEL        3
REMARK 921   NORMALIZED FREE ENERGY PREDICTED BY IDOCK:   -8.29 KCAL/MOL
REMARK 922        TOTAL FREE ENERGY PREDICTED BY IDOCK:   -9.66 KCAL/MOL
REMARK 923 INTER-LIGAND FREE ENERGY PREDICTED BY IDOCK:   -9.34 KCAL/MOL
REMARK 924 INTRA-LIGAND FREE ENERGY PREDICTED BY IDOCK:   -0.32 KCAL/MOL
REMARK 927      BINDING AFFINITY PREDICTED BY RF-SCORE:    0.00 PKD
ROOT
HETATM    1  C   UNL     1     -12.017  11.192  69.765  1.00  0.00    -0.357 C  
HETATM    2  C   UNL     1     -12.125   9.869  70.515  1.00  0.00    -0.289 C  
HETATM    3  C   UNL     1     -12.976  10.232  71.772  1.00  0.00    -0.574 C  
HETATM    4  C   UNL     1     -13.096  11.753  71.806  1.00  0.00    -0.375 C  
HETATM    5  N   UNL     1     -12.173  12.209  70.797  1.00  0.00    -0.351 N  
HETATM    6  C   UNL     1     -12.088  13.554  70.466  1.00  0.00    -0.335 C  
HETATM    7  O   UNL     1     -12.438  14.460  71.214  1.00  0.00    -0.312 OA 
HETATM    8  C   UNL     1     -11.288  13.716  69.195  1.00  0.00    -0.285 C  
HETATM    9  C   UNL     1     -10.731  15.107  68.917  1.00  0.00    -0.240 C  
HETATM   10  N   UNL     1     -11.908  12.718  68.077  1.00  0.00    -0.352 N  
HETATM   11  C   UNL     1     -11.762  16.133  68.506  1.00  0.00    -0.170 C  
HETATM   12  C   UNL     1      -9.712  15.631  69.948  1.00  0.00    -0.148 C  
HETATM   13  C   UNL     1     -11.660  12.578  66.706  1.00  0.00    -0.382 C  
HETATM   14  O   UNL     1     -12.499  12.253  65.876  1.00  0.00    -0.535 OA 
HETATM   15  C   UNL     1     -10.164  12.730  66.513  1.00  0.00    -0.253 C  
HETATM   16  H   UNL     1     -11.007  10.556  66.783  1.00  0.00     0.000 HD 
HETATM   17  C   UNL     1     -10.418  14.309  65.995  1.00  0.00    -0.306 C  
HETATM   18  O   UNL     1      -9.951  12.057  67.933  1.00  0.00    -0.187 OA 
HETATM   19  O   UNL     1     -11.469  10.363  67.590  1.00  0.00    -0.401 OA 
HETATM   20  C   UNL     1     -11.229  11.522  68.387  1.00  0.00    -0.255 C  
HETATM   21  C   UNL     1     -11.142  14.522  64.630  1.00  0.00    -0.356 C  
HETATM   22  C   UNL     1      -9.286  15.324  65.979  1.00  0.00    -0.346 C  
ENDROOT
BRANCH  15  23
HETATM   23  N   UNL     1      -9.138  12.125  65.693  1.00  0.00    -0.429 N  
HETATM   24  H   UNL     1      -8.179  12.470  65.729  1.00  0.00     0.000 HD 
HETATM   25  O   UNL     1     -10.634  10.825  64.482  1.00  0.00    -0.336 OA 
HETATM   26  C   UNL     1      -9.476  11.059  64.849  1.00  0.00    -0.233 C  
BRANCH  26  27
HETATM   27  C   UNL     1      -8.310  10.116  64.499  1.00  0.00    -0.168 C  
HETATM   28  C   UNL     1      -7.044  10.580  65.253  1.00  0.00    -0.047 C  
HETATM   29  N   UNL     1      -6.735   9.844  66.506  1.00  0.00    -0.078 NA 
HETATM   30  C   UNL     1      -6.345   8.438  66.209  1.00  0.00    -0.053 C  
HETATM   31  C   UNL     1      -7.811   9.885  67.503  1.00  0.00    -0.098 C  
HETATM   32  C   UNL     1      -6.333   7.479  67.486  1.00  0.00    -0.056 C  
HETATM   33  C   UNL     1      -7.193   6.272  67.314  1.00  0.00    -0.078 A  
HETATM   34  C   UNL     1      -7.842   5.414  68.181  1.00  0.00    -0.092 A  
HETATM   35  N   UNL     1      -8.410   4.412  67.432  1.00  0.00    -0.100 NA 
HETATM   36  C   UNL     1      -8.137   4.597  66.094  1.00  0.00    -0.103 A  
HETATM   37  H   UNL     1      -8.957   3.640  67.812  1.00  0.00     0.000 HD 
HETATM   38  C   UNL     1      -8.462   3.897  64.927  1.00  0.00    -0.109 A  
HETATM   39  C   UNL     1      -8.048   4.466  63.708  1.00  0.00    -0.095 A  
HETATM   40  C   UNL     1      -7.460   5.732  63.647  1.00  0.00    -0.069 A  
HETATM   41  C   UNL     1      -7.252   6.448  64.823  1.00  0.00    -0.064 A  
HETATM   42  C   UNL     1      -7.480   5.807  66.026  1.00  0.00    -0.082 A  
HETATM   43  C   UNL     1      -7.077   7.931  64.889  1.00  0.00    -0.067 C  
HETATM   44  C   UNL     1      -8.490   8.603  64.757  1.00  0.00    -0.168 C  
ENDBRANCH  26  27
ENDBRANCH  15  23
TORSDOF 2
ENDMDL
MODEL        4
REMARK 921   NORMALIZED FREE ENERGY PREDICTED BY IDOCK:   -8.16 KCAL/MOL
REMARK 922        TOTAL FREE ENERGY PREDICTED BY IDOCK:   -9.52 KCAL/MOL
REMARK 923 INTER-LIGAND FREE ENERGY PREDICTED BY IDOCK:   -9.17 KCAL/MOL
REMARK 924 INTRA-LIGAND FREE ENERGY PREDICTED BY IDOCK:   -0.35 KCAL/MOL
REMARK 927      BINDING AFFINITY PREDICTED BY RF-SCORE:    0.00 PKD
ROOT
HETATM    1  C   UNL     1     -12.312  12.237  69.983  1.00  0.00    -0.089 C  
HETATM    2  C   UNL     1     -12.570  11.031  70.880  1.00  0.00    -0.488 C  
HETATM    3  C   UNL     1     -13.408  11.625  72.055  1.00  0.00    -0.405 C  
HETATM    4  C   UNL     1     -13.375  13.144  71.905  1.00  0.00    -0.455 C  
HETATM    5  N   UNL     1     -12.389  13.381  70.881  1.00  0.00    -0.375 N  
HETATM    6  C   UNL     1     -12.161  14.662  70.397  1.00  0.00    -0.329 C  
HETATM    7  O   UNL     1     -12.435  15.681  71.019  1.00  0.00    -0.400 OA 
HETATM    8  C   UNL     1     -11.321  14.590  69.143  1.00  0.00    -0.277 C  
HETATM    9  C   UNL     1     -10.620  15.876  68.722  1.00  0.00    -0.245 C  
HETATM   10  N   UNL     1     -12.013  13.529  68.130  1.00  0.00    -0.361 N  
HETATM   11  C   UNL     1     -11.533  16.940  68.157  1.00  0.00     0.211 C  
HETATM   12  C   UNL     1      -9.578  16.420  69.718  1.00  0.00     0.242 C  
HETATM   13  C   UNL     1     -11.749  13.200  66.796  1.00  0.00    -0.385 C  
HETATM   14  O   UNL     1     -12.598  12.860  65.981  1.00  0.00    -0.467 OA 
HETATM   15  C   UNL     1     -10.241  13.182  66.638  1.00  0.00    -0.259 C  
HETATM   16  H   UNL     1     -11.304  11.149  67.134  1.00  0.00     0.000 HD 
HETATM   17  C   UNL     1     -10.323  14.703  65.928  1.00  0.00    -0.334 C  
HETATM   18  O   UNL     1     -10.130  12.668  68.134  1.00  0.00    -0.218 OA 
HETATM   19  O   UNL     1     -11.801  11.100  67.942  1.00  0.00    -0.601 OA 
HETATM   20  C   UNL     1     -11.465  12.319  68.604  1.00  0.00    -0.307 C  
HETATM   21  C   UNL     1     -10.992  14.819  64.523  1.00  0.00    -0.227 C  
HETATM   22  C   UNL     1      -9.095  15.594  65.830  1.00  0.00    -0.277 C  
ENDROOT
BRANCH  15  23
HETATM   23  N   UNL     1      -9.263  12.385  65.931  1.00  0.00    -0.435 N  
HETATM   24  H   UNL     1      -8.271  12.608  65.997  1.00  0.00     0.000 HD 
HETATM   25  O   UNL     1     -10.853  11.184  64.738  1.00  0.00    -0.289 OA 
HETATM   26  C   UNL     1      -9.695  11.302  65.154  1.00  0.00    -0.244 C  
BRANCH  26  27
HETATM   27  C   UNL     1      -8.645  10.193  64.950  1.00  0.00    -0.188 C  
HETATM   28  C   UNL     1      -7.374  10.549  65.754  1.00  0.00    -0.137 C  
HETATM   29  N   UNL     1      -7.238   9.879  67.073  1.00  0.00    -0.090 NA 
HETATM   30  C   UNL     1      -7.021   8.417  66.901  1.00  0.00    -0.074 C  
HETATM   31  C   UNL     1      -8.355  10.134  67.990  1.00  0.00    -0.117 C  
HETATM   32  C   UNL     1      -7.210   7.566  68.240  1.00  0.00    -0.093 C  
HETATM   33  C   UNL     1      -8.210   6.469  68.094  1.00  0.00    -0.117 A  
HETATM   34  C   UNL     1      -9.015   5.770  68.974  1.00  0.00    -0.117 A  
HETATM   35  N   UNL     1      -9.667   4.793  68.259  1.00  0.00    -0.148 NA 
HETATM   36  C   UNL     1      -9.295   4.837  66.933  1.00  0.00    -0.134 A  
HETATM   37  H   UNL     1     -10.332   4.130  68.655  1.00  0.00     0.000 HD 
HETATM   38  C   UNL     1      -9.641   4.097  65.799  1.00  0.00    -0.190 A  
HETATM   39  C   UNL     1      -9.086   4.512  64.574  1.00  0.00    -0.148 A  
HETATM   40  C   UNL     1      -8.333   5.683  64.464  1.00  0.00    -0.108 A  
HETATM   41  C   UNL     1      -8.101   6.456  65.599  1.00  0.00    -0.131 A  
HETATM   42  C   UNL     1      -8.481   5.945  66.825  1.00  0.00    -0.109 A  
HETATM   43  C   UNL     1      -7.736   7.905  65.573  1.00  0.00    -0.101 C  
HETATM   44  C   UNL     1      -9.038   8.740  65.300  1.00  0.00    -0.156 C  
ENDBRANCH  26  27
ENDBRANCH  15  23
TORSDOF 2
ENDMDL
MODEL        5
REMARK 921   NORMALIZED FREE ENERGY PREDICTED BY IDOCK:   -7.80 KCAL/MOL
REMARK 922        TOTAL FREE ENERGY PREDICTED BY IDOCK:   -9.12 KCAL/MOL
REMARK 923 INTER-LIGAND FREE ENERGY PREDICTED BY IDOCK:   -8.84 KCAL/MOL
REMARK 924 INTRA-LIGAND FREE ENERGY PREDICTED BY IDOCK:   -0.28 KCAL/MOL
REMARK 927      BINDING AFFINITY PREDICTED BY RF-SCORE:    0.00 PKD
ROOT
HETATM    1  C   UNL     1     -10.462   7.412  70.170  1.00  0.00    -0.220 C  
HETATM    2  C   UNL     1     -11.428   7.899  71.245  1.00  0.00    -0.293 C  
HETATM    3  C   UNL     1     -11.573   6.664  72.188  1.00  0.00    -0.335 C  
HETATM    4  C   UNL     1     -10.900   5.485  71.489  1.00  0.00    -0.194 C  
HETATM    5  N   UNL     1     -10.631   5.965  70.157  1.00  0.00    -0.266 N  
HETATM    6  C   UNL     1      -9.919   5.190  69.253  1.00  0.00    -0.210 C  
HETATM    7  O   UNL     1      -9.823   3.971  69.332  1.00  0.00    -0.185 OA 
HETATM    8  C   UNL     1      -9.519   6.033  68.065  1.00  0.00    -0.113 C  
HETATM    9  C   UNL     1      -9.121   5.279  66.802  1.00  0.00    -0.118 C  
HETATM   10  N   UNL     1      -8.795   7.375  68.618  1.00  0.00    -0.127 N  
HETATM   11  C   UNL     1      -7.781   4.582  66.874  1.00  0.00    -0.094 C  
HETATM   12  C   UNL     1     -10.231   4.420  66.165  1.00  0.00    -0.232 C  
HETATM   13  C   UNL     1      -8.103   8.403  67.966  1.00  0.00    -0.123 C  
HETATM   14  O   UNL     1      -7.158   9.017  68.441  1.00  0.00    -0.074 OA 
HETATM   15  C   UNL     1      -8.858   8.694  66.683  1.00  0.00    -0.133 C  
HETATM   16  H   UNL     1      -9.389   9.983  68.571  1.00  0.00     0.000 HD 
HETATM   17  C   UNL     1      -7.713   7.800  65.837  1.00  0.00    -0.094 C  
HETATM   18  O   UNL     1     -10.204   8.328  67.438  1.00  0.00    -0.212 OA 
HETATM   19  O   UNL     1      -9.709   9.524  69.339  1.00  0.00    -0.166 OA 
HETATM   20  C   UNL     1      -9.915   8.196  68.861  1.00  0.00    -0.192 C  
HETATM   21  C   UNL     1      -6.268   8.378  65.732  1.00  0.00    -0.052 C  
HETATM   22  C   UNL     1      -8.004   7.268  64.443  1.00  0.00    -0.106 C  
ENDROOT
BRANCH  15  23
HETATM   23  N   UNL     1      -9.210   9.863  65.908  1.00  0.00    -0.164 N  
HETATM   24  H   UNL     1      -9.734   9.766  65.038  1.00  0.00     0.000 HD 
HETATM   25  O   UNL     1      -7.913  11.308  67.181  1.00  0.00    -0.136 OA 
HETATM   26  C   UNL     1      -8.825  11.129  66.365  1.00  0.00    -0.178 C  
BRANCH  26  27
HETATM   27  C   UNL     1      -9.705  12.292  65.867  1.00  0.00    -0.247 C  
HETATM   28  C   UNL     1     -11.187  11.857  65.911  1.00  0.00    -0.322 C  
HETATM   29  N   UNL     1     -11.957  12.312  67.096  1.00  0.00    -0.576 NA 
HETATM   30  C   UNL     1     -12.133  13.790  67.074  1.00  0.00    -0.397 C  
HETATM   31  C   UNL     1     -11.392  11.875  68.378  1.00  0.00    -0.276 C  
HETATM   32  C   UNL     1     -12.635  14.408  68.459  1.00  0.00     0.435 C  
HETATM   33  C   UNL     1     -11.734  15.480  68.976  1.00  0.00    -0.392 A  
HETATM   34  C   UNL     1     -11.470  16.001  70.228  1.00  0.00    -0.359 A  
HETATM   35  N   UNL     1     -10.604  17.056  70.068  1.00  0.00    -0.157 NA 
HETATM   36  C   UNL     1     -10.306  17.237  68.735  1.00  0.00    -0.358 A  
HETATM   37  H   UNL     1     -10.233  17.625  70.829  1.00  0.00     0.000 HD 
HETATM   38  C   UNL     1      -9.500  18.137  68.030  1.00  0.00    -0.290 A  
HETATM   39  C   UNL     1      -9.395  17.942  66.640  1.00  0.00    -0.293 A  
HETATM   40  C   UNL     1      -9.954  16.830  66.006  1.00  0.00    -0.334 A  
HETATM   41  C   UNL     1     -10.658  15.894  66.761  1.00  0.00    -0.309 A  
HETATM   42  C   UNL     1     -10.923  16.190  68.084  1.00  0.00    -0.341 A  
HETATM   43  C   UNL     1     -10.901  14.481  66.339  1.00  0.00    -0.318 C  
HETATM   44  C   UNL     1      -9.588  13.656  66.585  1.00  0.00    -0.289 C  
ENDBRANCH  26  27
ENDBRANCH  15  23
TORSDOF 2
ENDMDL
MODEL        6
REMARK 921   NORMALIZED FREE ENERGY PREDICTED BY IDOCK:   -7.70 KCAL/MOL
REMARK 922        TOTAL FREE ENERGY PREDICTED BY IDOCK:   -9.01 KCAL/MOL
REMARK 923 INTER-LIGAND FREE ENERGY PREDICTED BY IDOCK:   -9.06 KCAL/MOL
REMARK 924 INTRA-LIGAND FREE ENERGY PREDICTED BY IDOCK:    0.05 KCAL/MOL
REMARK 927      BINDING AFFINITY PREDICTED BY RF-SCORE:    0.00 PKD
ROOT
HETATM    1  C   UNL     1     -12.401  12.866  70.272  1.00  0.00    -0.223 C  
HETATM    2  C   UNL     1     -12.786  11.756  71.245  1.00  0.00    -0.409 C  
HETATM    3  C   UNL     1     -13.458  12.524  72.425  1.00  0.00    -0.372 C  
HETATM    4  C   UNL     1     -13.207  14.012  72.192  1.00  0.00    -0.435 C  
HETATM    5  N   UNL     1     -12.254  14.048  71.111  1.00  0.00    -0.354 N  
HETATM    6  C   UNL     1     -11.864  15.255  70.547  1.00  0.00    -0.324 C  
HETATM    7  O   UNL     1     -11.947  16.332  71.126  1.00  0.00    -0.379 OA 
HETATM    8  C   UNL     1     -11.116  14.998  69.261  1.00  0.00    -0.272 C  
HETATM    9  C   UNL     1     -10.255  16.141  68.737  1.00  0.00    -0.238 C  
HETATM   10  N   UNL     1     -12.015  14.010  68.341  1.00  0.00    -0.357 N  
HETATM   11  C   UNL     1     -11.028  17.306  68.160  1.00  0.00    -0.193 C  
HETATM   12  C   UNL     1      -9.088  16.564  69.651  1.00  0.00     0.377 C  
HETATM   13  C   UNL     1     -11.880  13.584  67.014  1.00  0.00    -0.402 C  
HETATM   14  O   UNL     1     -12.814  13.340  66.262  1.00  0.00    -0.206 OA 
HETATM   15  C   UNL     1     -10.403  13.328  66.785  1.00  0.00    -0.257 C  
HETATM   16  H   UNL     1     -11.730  11.507  67.441  1.00  0.00     0.000 HD 
HETATM   17  C   UNL     1     -10.295  14.810  65.999  1.00  0.00    -0.318 C  
HETATM   18  O   UNL     1     -10.286  12.873  68.300  1.00  0.00    -0.234 OA 
HETATM   19  O   UNL     1     -12.182  11.572  68.273  1.00  0.00    -0.561 OA 
HETATM   20  C   UNL     1     -11.630  12.753  68.852  1.00  0.00    -0.316 C  
HETATM   21  C   UNL     1     -11.016  14.961  64.624  1.00  0.00    -0.323 C  
HETATM   22  C   UNL     1      -8.954  15.497  65.794  1.00  0.00     0.040 C  
ENDROOT
BRANCH  15  23
HETATM   23  N   UNL     1      -9.597  12.359  66.075  1.00  0.00    -0.312 N  
HETATM   24  H   UNL     1      -8.579  12.423  66.092  1.00  0.00     0.000 HD 
HETATM   25  O   UNL     1     -11.410  11.383  65.002  1.00  0.00    -0.161 OA 
HETATM   26  C   UNL     1     -10.230  11.330  65.366  1.00  0.00    -0.270 C  
BRANCH  26  27
HETATM   27  C   UNL     1      -9.378  10.061  65.169  1.00  0.00    -0.302 C  
HETATM   28  C   UNL     1      -7.883  10.445  65.223  1.00  0.00    -0.137 C  
HETATM   29  N   UNL     1      -7.205  10.214  66.524  1.00  0.00    -0.100 NA 
HETATM   30  C   UNL     1      -7.097   8.757  66.809  1.00  0.00    -0.081 C  
HETATM   31  C   UNL     1      -7.822  10.919  67.653  1.00  0.00    -0.113 C  
HETATM   32  C   UNL     1      -6.705   8.414  68.319  1.00  0.00    -0.065 C  
HETATM   33  C   UNL     1      -7.684   7.500  68.979  1.00  0.00    -0.117 A  
HETATM   34  C   UNL     1      -8.044   7.253  70.290  1.00  0.00    -0.121 A  
HETATM   35  N   UNL     1      -8.948   6.217  70.287  1.00  0.00    -0.152 NA 
HETATM   36  C   UNL     1      -9.177   5.781  69.000  1.00  0.00    -0.119 A  
HETATM   37  H   UNL     1      -9.388   5.827  71.120  1.00  0.00     0.000 HD 
HETATM   38  C   UNL     1      -9.981   4.785  68.437  1.00  0.00    -0.156 A  
HETATM   39  C   UNL     1      -9.997   4.699  67.032  1.00  0.00    -0.227 A  
HETATM   40  C   UNL     1      -9.350   5.640  66.228  1.00  0.00    -0.169 A  
HETATM   41  C   UNL     1      -8.648   6.684  66.825  1.00  0.00    -0.118 A  
HETATM   42  C   UNL     1      -8.475   6.653  68.195  1.00  0.00    -0.116 A  
HETATM   43  C   UNL     1      -8.315   7.973  66.147  1.00  0.00    -0.125 C  
HETATM   44  C   UNL     1      -9.600   8.875  66.135  1.00  0.00    -0.335 C  
ENDBRANCH  26  27
ENDBRANCH  15  23
TORSDOF 2
ENDMDL
MODEL        7
REMARK 921   NORMALIZED FREE ENERGY PREDICTED BY IDOCK:   -7.63 KCAL/MOL
REMARK 922        TOTAL FREE ENERGY PREDICTED BY IDOCK:   -8.92 KCAL/MOL
REMARK 923 INTER-LIGAND FREE ENERGY PREDICTED BY IDOCK:   -9.03 KCAL/MOL
REMARK 924 INTRA-LIGAND FREE ENERGY PREDICTED BY IDOCK:    0.11 KCAL/MOL
REMARK 927      BINDING AFFINITY PREDICTED BY RF-SCORE:    0.00 PKD
ROOT
HETATM    1  C   UNL     1      -8.744   9.409  64.367  1.00  0.00    -0.199 C  
HETATM    2  C   UNL     1      -7.721   8.871  63.371  1.00  0.00    -0.124 C  
HETATM    3  C   UNL     1      -7.603   7.362  63.752  1.00  0.00    -0.118 C  
HETATM    4  C   UNL     1      -8.353   7.173  65.069  1.00  0.00    -0.046 C  
HETATM    5  N   UNL     1      -8.642   8.513  65.512  1.00  0.00    -0.172 N  
HETATM    6  C   UNL     1      -9.419   8.737  66.640  1.00  0.00    -0.203 C  
HETATM    7  O   UNL     1      -9.569   7.913  67.534  1.00  0.00    -0.144 OA 
HETATM    8  C   UNL     1      -9.818  10.192  66.703  1.00  0.00    -0.200 C  
HETATM    9  C   UNL     1     -10.292  10.708  68.056  1.00  0.00    -0.208 C  
HETATM   10  N   UNL     1     -10.461  10.603  65.271  1.00  0.00    -0.240 N  
HETATM   11  C   UNL     1     -11.660  10.221  68.477  1.00  0.00    -0.077 C  
HETATM   12  C   UNL     1      -9.244  10.664  69.185  1.00  0.00    -0.162 C  
HETATM   13  C   UNL     1     -11.124  11.757  64.838  1.00  0.00    -0.285 C  
HETATM   14  O   UNL     1     -12.024  11.773  64.008  1.00  0.00    -0.348 OA 
HETATM   15  C   UNL     1     -10.399  12.937  65.455  1.00  0.00    -0.296 C  
HETATM   16  H   UNL     1      -9.747  12.268  63.301  1.00  0.00     0.000 HD 
HETATM   17  C   UNL     1     -11.611  13.043  66.614  1.00  0.00    -0.410 C  
HETATM   18  O   UNL     1      -9.048  12.114  65.345  1.00  0.00     0.064 OA 
HETATM   19  O   UNL     1      -9.424  11.381  63.198  1.00  0.00    -0.329 OA 
HETATM   20  C   UNL     1      -9.296  10.922  64.543  1.00  0.00    -0.223 C  
HETATM   21  C   UNL     1     -13.031  13.491  66.148  1.00  0.00     0.172 C  
HETATM   22  C   UNL     1     -11.392  13.796  67.916  1.00  0.00    -0.328 C  
ENDROOT
BRANCH  15  23
HETATM   23  N   UNL     1     -10.018  14.272  65.048  1.00  0.00    -0.563 N  
HETATM   24  H   UNL     1     -10.273  14.622  64.124  1.00  0.00     0.000 HD 
HETATM   25  O   UNL     1      -8.655  14.629  66.893  1.00  0.00    -0.225 OA 
HETATM   26  C   UNL     1      -9.297  15.079  65.936  1.00  0.00    -0.213 C  
BRANCH  26  27
HETATM   27  C   UNL     1      -9.455  16.594  65.708  1.00  0.00    -0.104 C  
HETATM   28  C   UNL     1     -10.769  17.068  66.368  1.00  0.00    -0.075 C  
HETATM   29  N   UNL     1     -10.629  17.691  67.708  1.00  0.00    -0.386 NA 
HETATM   30  C   UNL     1      -9.916  18.994  67.612  1.00  0.00    -0.351 C  
HETATM   31  C   UNL     1      -9.991  16.824  68.706  1.00  0.00    -0.269 C  
HETATM   32  C   UNL     1      -9.412  19.569  69.014  1.00  0.00    -0.381 C  
HETATM   33  C   UNL     1      -7.947  19.854  69.032  1.00  0.00    -0.060 A  
HETATM   34  C   UNL     1      -6.990  19.938  70.025  1.00  0.00    -0.020 A  
HETATM   35  N   UNL     1      -5.811  20.332  69.437  1.00  0.00    -0.301 NA 
HETATM   36  C   UNL     1      -5.985  20.514  68.082  1.00  0.00    -0.285 A  
HETATM   37  H   UNL     1      -4.931  20.470  69.934  1.00  0.00     0.000 HD 
HETATM   38  C   UNL     1      -5.143  20.899  67.034  1.00  0.00    -0.228 A  
HETATM   39  C   UNL     1      -5.695  20.892  65.739  1.00  0.00    -0.270 A  
HETATM   40  C   UNL     1      -6.977  20.400  65.486  1.00  0.00    -0.254 A  
HETATM   41  C   UNL     1      -7.748  19.921  66.543  1.00  0.00    -0.316 A  
HETATM   42  C   UNL     1      -7.279  20.109  67.829  1.00  0.00    -0.329 A  
HETATM   43  C   UNL     1      -8.894  18.975  66.391  1.00  0.00    -0.326 C  
HETATM   44  C   UNL     1      -8.319  17.528  66.185  1.00  0.00    -0.200 C  
ENDBRANCH  26  27
ENDBRANCH  15  23
TORSDOF 2
ENDMDL
MODEL        8
REMARK 921   NORMALIZED FREE ENERGY PREDICTED BY IDOCK:   -7.58 KCAL/MOL
REMARK 922        TOTAL FREE ENERGY PREDICTED BY IDOCK:   -8.87 KCAL/MOL
REMARK 923 INTER-LIGAND FREE ENERGY PREDICTED BY IDOCK:   -8.63 KCAL/MOL
REMARK 924 INTRA-LIGAND FREE ENERGY PREDICTED BY IDOCK:   -0.24 KCAL/MOL
REMARK 927      BINDING AFFINITY PREDICTED BY RF-SCORE:    0.00 PKD
ROOT
HETATM    1  C   UNL     1     -10.146   6.958  69.260  1.00  0.00    -0.170 C  
HETATM    2  C   UNL     1     -11.060   7.281  70.437  1.00  0.00    -0.291 C  
HETATM    3  C   UNL     1     -11.070   5.956  71.263  1.00  0.00    -0.307 C  
HETATM    4  C   UNL     1     -10.383   4.892  70.411  1.00  0.00    -0.178 C  
HETATM    5  N   UNL     1     -10.235   5.510  69.117  1.00  0.00    -0.218 N  
HETATM    6  C   UNL     1      -9.547   4.869  68.097  1.00  0.00    -0.143 C  
HETATM    7  O   UNL     1      -9.377   3.656  68.051  1.00  0.00    -0.163 OA 
HETATM    8  C   UNL     1      -9.278   5.842  66.974  1.00  0.00    -0.119 C  
HETATM    9  C   UNL     1      -8.928   5.236  65.620  1.00  0.00    -0.160 C  
HETATM   10  N   UNL     1      -8.592   7.169  67.607  1.00  0.00    -0.122 N  
HETATM   11  C   UNL     1      -7.549   4.620  65.538  1.00  0.00    -0.082 C  
HETATM   12  C   UNL     1     -10.031   4.374  64.976  1.00  0.00    -0.165 C  
HETATM   13  C   UNL     1      -8.007   8.294  67.015  1.00  0.00    -0.100 C  
HETATM   14  O   UNL     1      -7.066   8.919  67.487  1.00  0.00    -0.075 OA 
HETATM   15  C   UNL     1      -8.865   8.657  65.819  1.00  0.00    -0.193 C  
HETATM   16  H   UNL     1      -9.333   9.728  67.854  1.00  0.00     0.000 HD 
HETATM   17  C   UNL     1      -7.734   7.919  64.817  1.00  0.00    -0.118 C  
HETATM   18  O   UNL     1     -10.132   8.139  66.619  1.00  0.00    -0.270 OA 
HETATM   19  O   UNL     1      -9.573   9.181  68.592  1.00  0.00    -0.149 OA 
HETATM   20  C   UNL     1      -9.737   7.893  68.001  1.00  0.00    -0.159 C  
HETATM   21  C   UNL     1      -6.334   8.593  64.676  1.00  0.00    -0.066 C  
HETATM   22  C   UNL     1      -8.091   7.502  63.400  1.00  0.00    -0.024 C  
ENDROOT
BRANCH  15  23
HETATM   23  N   UNL     1      -9.335   9.869  65.185  1.00  0.00    -0.238 N  
HETATM   24  H   UNL     1      -9.941   9.822  64.367  1.00  0.00     0.000 HD 
HETATM   25  O   UNL     1      -7.963  11.260  66.441  1.00  0.00    -0.164 OA 
HETATM   26  C   UNL     1      -8.948  11.109  65.709  1.00  0.00    -0.196 C  
BRANCH  26  27
HETATM   27  C   UNL     1      -9.913  12.270  65.402  1.00  0.00    -0.264 C  
HETATM   28  C   UNL     1     -11.362  11.806  65.677  1.00  0.00    -0.233 C  
HETATM   29  N   UNL     1     -11.930  12.210  66.988  1.00  0.00    -0.598 NA 
HETATM   30  C   UNL     1     -12.127  13.684  67.045  1.00  0.00    -0.380 C  
HETATM   31  C   UNL     1     -11.154  11.745  68.143  1.00  0.00    -0.243 C  
HETATM   32  C   UNL     1     -12.400  14.251  68.513  1.00  0.00    -0.034 C  
HETATM   33  C   UNL     1     -11.440  15.323  68.909  1.00  0.00    -0.346 A  
HETATM   34  C   UNL     1     -10.978  15.810  70.117  1.00  0.00    -0.352 A  
HETATM   35  N   UNL     1     -10.165  16.885  69.851  1.00  0.00     0.062 NA 
HETATM   36  C   UNL     1     -10.095  17.113  68.494  1.00  0.00    -0.329 A  
HETATM   37  H   UNL     1      -9.681  17.437  70.559  1.00  0.00     0.000 HD 
HETATM   38  C   UNL     1      -9.430  18.049  67.695  1.00  0.00    -0.264 A  
HETATM   39  C   UNL     1      -9.555  17.898  66.301  1.00  0.00    -0.252 A  
HETATM   40  C   UNL     1     -10.197  16.796  65.732  1.00  0.00    -0.311 A  
HETATM   41  C   UNL     1     -10.753  15.825  66.561  1.00  0.00    -0.283 A  
HETATM   42  C   UNL     1     -10.798  16.074  67.920  1.00  0.00    -0.333 A  
HETATM   43  C   UNL     1     -11.044  14.421  66.139  1.00  0.00    -0.330 C  
HETATM   44  C   UNL     1      -9.697  13.614  66.136  1.00  0.00    -0.269 C  
ENDBRANCH  26  27
ENDBRANCH  15  23
TORSDOF 2
ENDMDL
MODEL        9
REMARK 921   NORMALIZED FREE ENERGY PREDICTED BY IDOCK:   -7.35 KCAL/MOL
REMARK 922        TOTAL FREE ENERGY PREDICTED BY IDOCK:   -8.62 KCAL/MOL
REMARK 923 INTER-LIGAND FREE ENERGY PREDICTED BY IDOCK:   -8.15 KCAL/MOL
REMARK 924 INTRA-LIGAND FREE ENERGY PREDICTED BY IDOCK:   -0.47 KCAL/MOL
REMARK 927      BINDING AFFINITY PREDICTED BY RF-SCORE:    0.00 PKD
ROOT
HETATM    1  C   UNL     1     -10.416   8.093  70.946  1.00  0.00    -0.202 C  
HETATM    2  C   UNL     1     -11.463   8.844  71.763  1.00  0.00    -0.423 C  
HETATM    3  C   UNL     1     -11.991   7.763  72.757  1.00  0.00    -0.183 C  
HETATM    4  C   UNL     1     -11.417   6.422  72.307  1.00  0.00    -0.298 C  
HETATM    5  N   UNL     1     -10.830   6.698  71.020  1.00  0.00    -0.236 N  
HETATM    6  C   UNL     1     -10.110   5.723  70.343  1.00  0.00    -0.210 C  
HETATM    7  O   UNL     1     -10.243   4.521  70.542  1.00  0.00    -0.204 OA 
HETATM    8  C   UNL     1      -9.359   6.351  69.193  1.00  0.00    -0.132 C  
HETATM    9  C   UNL     1      -8.874   5.404  68.102  1.00  0.00    -0.105 C  
HETATM   10  N   UNL     1      -8.526   7.620  69.766  1.00  0.00    -0.133 N  
HETATM   11  C   UNL     1      -7.711   4.522  68.498  1.00  0.00    -0.075 C  
HETATM   12  C   UNL     1      -9.981   4.660  67.331  1.00  0.00    -0.190 C  
HETATM   13  C   UNL     1      -7.559   8.447  69.181  1.00  0.00    -0.087 C  
HETATM   14  O   UNL     1      -6.625   8.959  69.783  1.00  0.00    -0.040 OA 
HETATM   15  C   UNL     1      -8.005   8.701  67.755  1.00  0.00    -0.107 C  
HETATM   16  H   UNL     1      -8.640  10.266  69.385  1.00  0.00     0.000 HD 
HETATM   17  C   UNL     1      -6.897   7.550  67.231  1.00  0.00    -0.071 C  
HETATM   18  O   UNL     1      -9.509   8.637  68.254  1.00  0.00    -0.140 OA 
HETATM   19  O   UNL     1      -9.170   9.954  70.109  1.00  0.00    -0.228 OA 
HETATM   20  C   UNL     1      -9.512   8.627  69.711  1.00  0.00    -0.166 C  
HETATM   21  C   UNL     1      -5.379   7.882  67.368  1.00  0.00    -0.032 C  
HETATM   22  C   UNL     1      -7.016   6.912  65.856  1.00  0.00    -0.064 C  
ENDROOT
BRANCH  15  23
HETATM   23  N   UNL     1      -8.001   9.814  66.830  1.00  0.00    -0.105 N  
HETATM   24  H   UNL     1      -8.235   9.669  65.848  1.00  0.00     0.000 HD 
HETATM   25  O   UNL     1      -7.044  11.290  68.345  1.00  0.00    -0.072 OA 
HETATM   26  C   UNL     1      -7.671  11.092  67.298  1.00  0.00    -0.130 C  
BRANCH  26  27
HETATM   27  C   UNL     1      -8.253  12.254  66.470  1.00  0.00     0.110 C  
HETATM   28  C   UNL     1      -9.561  11.785  65.795  1.00  0.00    -0.233 C  
HETATM   29  N   UNL     1     -10.817  12.177  66.483  1.00  0.00    -0.258 NA 
HETATM   30  C   UNL     1     -11.018  13.650  66.416  1.00  0.00    -0.297 C  
HETATM   31  C   UNL     1     -10.911  11.703  67.869  1.00  0.00    -0.225 C  
HETATM   32  C   UNL     1     -12.138  14.204  67.411  1.00  0.00    -0.379 C  
HETATM   33  C   UNL     1     -11.630  15.273  68.319  1.00  0.00    -0.357 A  
HETATM   34  C   UNL     1     -12.010  15.751  69.559  1.00  0.00    -0.310 A  
HETATM   35  N   UNL     1     -11.212  16.830  69.855  1.00  0.00    -0.354 NA 
HETATM   36  C   UNL     1     -10.325  17.069  68.827  1.00  0.00    -0.336 A  
HETATM   37  H   UNL     1     -11.268  17.377  70.713  1.00  0.00     0.000 HD 
HETATM   38  C   UNL     1      -9.316  18.013  68.611  1.00  0.00    -0.293 A  
HETATM   39  C   UNL     1      -8.558  17.875  67.433  1.00  0.00    -0.239 A  
HETATM   40  C   UNL     1      -8.708  16.776  66.583  1.00  0.00    -0.281 A  
HETATM   41  C   UNL     1      -9.650  15.797  66.891  1.00  0.00    -0.243 A  
HETATM   42  C   UNL     1     -10.521  16.035  67.937  1.00  0.00    -0.292 A  
HETATM   43  C   UNL     1      -9.611  14.396  66.370  1.00  0.00    -0.320 C  
HETATM   44  C   UNL     1      -8.541  13.591  67.189  1.00  0.00    -0.203 C  
ENDBRANCH  26  27
ENDBRANCH  15  23
TORSDOF 2
ENDMDL
MODEL       10
REMARK 921   NORMALIZED FREE ENERGY PREDICTED BY IDOCK:   -7.35 KCAL/MOL
REMARK 922        TOTAL FREE ENERGY PREDICTED BY IDOCK:   -8.61 KCAL/MOL
REMARK 923 INTER-LIGAND FREE ENERGY PREDICTED BY IDOCK:   -8.22 KCAL/MOL
REMARK 924 INTRA-LIGAND FREE ENERGY PREDICTED BY IDOCK:   -0.40 KCAL/MOL
REMARK 927      BINDING AFFINITY PREDICTED BY RF-SCORE:    0.00 PKD
ROOT
HETATM    1  C   UNL     1     -12.477  13.206  70.442  1.00  0.00    -0.210 C  
HETATM    2  C   UNL     1     -13.410  12.940  71.619  1.00  0.00    -0.358 C  
HETATM    3  C   UNL     1     -13.839  14.371  72.072  1.00  0.00    -0.567 C  
HETATM    4  C   UNL     1     -12.960  15.363  71.314  1.00  0.00    -0.473 C  
HETATM    5  N   UNL     1     -11.953  14.543  70.688  1.00  0.00    -0.301 N  
HETATM    6  C   UNL     1     -11.026  15.098  69.816  1.00  0.00    -0.280 C  
HETATM    7  O   UNL     1     -10.721  16.284  69.816  1.00  0.00    -0.317 OA 
HETATM    8  C   UNL     1     -10.300  13.998  69.078  1.00  0.00    -0.125 C  
HETATM    9  C   UNL     1      -8.982  14.380  68.417  1.00  0.00    -0.188 C  
HETATM   10  N   UNL     1     -11.409  13.000  68.440  1.00  0.00    -0.270 N  
HETATM   11  C   UNL     1      -9.117  15.243  67.183  1.00  0.00    -0.226 C  
HETATM   12  C   UNL     1      -7.869  14.844  69.378  1.00  0.00    -0.139 C  
HETATM   13  C   UNL     1     -11.300  11.928  67.546  1.00  0.00    -0.314 C  
HETATM   14  O   UNL     1     -12.148  11.622  66.718  1.00  0.00    -0.472 OA 
HETATM   15  C   UNL     1     -10.050  11.160  67.932  1.00  0.00    -0.176 C  
HETATM   16  H   UNL     1     -12.089  10.444  68.848  1.00  0.00     0.000 HD 
HETATM   17  C   UNL     1      -9.234  11.903  66.664  1.00  0.00    -0.206 C  
HETATM   18  O   UNL     1     -10.325  11.549  69.445  1.00  0.00    -0.058 OA 
HETATM   19  O   UNL     1     -12.573  11.066  69.380  1.00  0.00    -0.331 OA 
HETATM   20  C   UNL     1     -11.653  12.145  69.535  1.00  0.00    -0.315 C  
HETATM   21  C   UNL     1      -9.648  11.526  65.208  1.00  0.00    -0.244 C  
HETATM   22  C   UNL     1      -7.715  11.943  66.621  1.00  0.00     0.018 C  
ENDROOT
BRANCH  15  23
HETATM   23  N   UNL     1      -9.644   9.774  68.006  1.00  0.00    -0.142 N  
HETATM   24  H   UNL     1     -10.029   9.089  67.356  1.00  0.00     0.000 HD 
HETATM   25  O   UNL     1      -8.482  10.044  69.998  1.00  0.00    -0.187 OA 
HETATM   26  C   UNL     1      -8.715   9.384  68.978  1.00  0.00    -0.136 C  
BRANCH  26  27
HETATM   27  C   UNL     1      -7.906   8.120  68.630  1.00  0.00    -0.114 C  
HETATM   28  C   UNL     1      -8.162   7.045  69.710  1.00  0.00    -0.131 C  
HETATM   29  N   UNL     1      -9.168   6.010  69.363  1.00  0.00    -0.132 NA 
HETATM   30  C   UNL     1      -8.671   5.141  68.262  1.00  0.00    -0.101 C  
HETATM   31  C   UNL     1     -10.494   6.550  69.040  1.00  0.00    -0.216 C  
HETATM   32  C   UNL     1      -9.799   4.232  67.587  1.00  0.00    -0.150 C  
HETATM   33  C   UNL     1      -9.891   4.425  66.110  1.00  0.00    -0.243 A  
HETATM   34  C   UNL     1     -10.889   4.244  65.171  1.00  0.00    -0.043 A  
HETATM   35  N   UNL     1     -10.350   4.499  63.932  1.00  0.00    -0.386 NA 
HETATM   36  C   UNL     1      -9.018   4.835  64.046  1.00  0.00    -0.082 A  
HETATM   37  H   UNL     1     -10.863   4.447  63.053  1.00  0.00     0.000 HD 
HETATM   38  C   UNL     1      -8.019   5.181  63.132  1.00  0.00    -0.092 A  
HETATM   39  C   UNL     1      -6.767   5.541  63.664  1.00  0.00    -0.033 A  
HETATM   40  C   UNL     1      -6.561   5.678  65.038  1.00  0.00    -0.043 A  
HETATM   41  C   UNL     1      -7.613   5.431  65.916  1.00  0.00    -0.083 A  
HETATM   42  C   UNL     1      -8.778   4.893  65.403  1.00  0.00    -0.143 A  
HETATM   43  C   UNL     1      -7.691   5.961  67.311  1.00  0.00    -0.101 C  
HETATM   44  C   UNL     1      -8.129   7.467  67.247  1.00  0.00    -0.112 C  
ENDBRANCH  26  27
ENDBRANCH  15  23
TORSDOF 2
ENDMDL
MODEL       11
REMARK 921   NORMALIZED FREE ENERGY PREDICTED BY IDOCK:   -7.30 KCAL/MOL
REMARK 922        TOTAL FREE ENERGY PREDICTED BY IDOCK:   -8.56 KCAL/MOL
REMARK 923 INTER-LIGAND FREE ENERGY PREDICTED BY IDOCK:   -8.23 KCAL/MOL
REMARK 924 INTRA-LIGAND FREE ENERGY PREDICTED BY IDOCK:   -0.33 KCAL/MOL
REMARK 927      BINDING AFFINITY PREDICTED BY RF-SCORE:    0.00 PKD
ROOT
HETATM    1  C   UNL     1     -10.078   7.343  70.875  1.00  0.00    -0.188 C  
HETATM    2  C   UNL     1     -11.070   7.954  71.859  1.00  0.00    -0.317 C  
HETATM    3  C   UNL     1     -11.293   6.816  72.903  1.00  0.00    -0.182 C  
HETATM    4  C   UNL     1     -10.632   5.559  72.344  1.00  0.00    -0.223 C  
HETATM    5  N   UNL     1     -10.294   5.906  70.987  1.00  0.00    -0.214 N  
HETATM    6  C   UNL     1      -9.571   5.031  70.188  1.00  0.00    -0.188 C  
HETATM    7  O   UNL     1      -9.518   3.822  70.382  1.00  0.00    -0.154 OA 
HETATM    8  C   UNL     1      -9.096   5.749  68.947  1.00  0.00    -0.115 C  
HETATM    9  C   UNL     1      -8.672   4.870  67.776  1.00  0.00    -0.105 C  
HETATM   10  N   UNL     1      -8.351   7.115  69.407  1.00  0.00    -0.132 N  
HETATM   11  C   UNL     1      -7.359   4.145  67.969  1.00  0.00    -0.064 C  
HETATM   12  C   UNL     1      -9.782   3.989  67.172  1.00  0.00    -0.207 C  
HETATM   13  C   UNL     1      -7.601   8.058  68.694  1.00  0.00    -0.100 C  
HETATM   14  O   UNL     1      -6.656   8.687  69.153  1.00  0.00    -0.046 OA 
HETATM   15  C   UNL     1      -8.293   8.251  67.359  1.00  0.00    -0.125 C  
HETATM   16  H   UNL     1      -8.858   9.724  69.098  1.00  0.00     0.000 HD 
HETATM   17  C   UNL     1      -7.145   7.251  66.648  1.00  0.00    -0.078 C  
HETATM   18  O   UNL     1      -9.680   7.995  68.085  1.00  0.00    -0.153 OA 
HETATM   19  O   UNL     1      -9.224   9.347  69.889  1.00  0.00    -0.175 OA 
HETATM   20  C   UNL     1      -9.454   7.987  69.525  1.00  0.00    -0.160 C  
HETATM   21  C   UNL     1      -5.679   7.775  66.554  1.00  0.00    -0.039 C  
HETATM   22  C   UNL     1      -7.396   6.601  65.297  1.00  0.00    -0.080 C  
ENDROOT
BRANCH  15  23
HETATM   23  N   UNL     1      -8.576   9.354  66.466  1.00  0.00    -0.132 N  
HETATM   24  H   UNL     1      -8.933   9.178  65.527  1.00  0.00     0.000 HD 
HETATM   25  O   UNL     1      -7.610  10.947  67.852  1.00  0.00    -0.092 OA 
HETATM   26  C   UNL     1      -8.354  10.665  66.906  1.00  0.00    -0.125 C  
BRANCH  26  27
HETATM   27  C   UNL     1      -9.202  11.737  66.196  1.00  0.00    -0.218 C  
HETATM   28  C   UNL     1     -10.662  11.241  66.097  1.00  0.00    -0.250 C  
HETATM   29  N   UNL     1     -11.591  11.763  67.131  1.00  0.00    -0.544 NA 
HETATM   30  C   UNL     1     -11.814  13.224  66.949  1.00  0.00    -0.392 C  
HETATM   31  C   UNL     1     -11.179  11.469  68.508  1.00  0.00    -0.258 C  
HETATM   32  C   UNL     1     -12.509  13.940  68.196  1.00  0.00     0.250 C  
HETATM   33  C   UNL     1     -11.718  15.093  68.718  1.00  0.00    -0.366 A  
HETATM   34  C   UNL     1     -11.632  15.735  69.939  1.00  0.00    -0.351 A  
HETATM   35  N   UNL     1     -10.789  16.810  69.788  1.00  0.00    -0.375 NA 
HETATM   36  C   UNL     1     -10.331  16.885  68.491  1.00  0.00    -0.336 A  
HETATM   37  H   UNL     1     -10.538  17.460  70.532  1.00  0.00     0.000 HD 
HETATM   38  C   UNL     1      -9.474  17.754  67.809  1.00  0.00    -0.262 A  
HETATM   39  C   UNL     1      -9.186  17.441  66.467  1.00  0.00    -0.286 A  
HETATM   40  C   UNL     1      -9.622  16.253  65.877  1.00  0.00    -0.336 A  
HETATM   41  C   UNL     1     -10.383  15.357  66.623  1.00  0.00    -0.281 A  
HETATM   42  C   UNL     1     -10.824  15.757  67.870  1.00  0.00    -0.314 A  
HETATM   43  C   UNL     1     -10.523  13.903  66.309  1.00  0.00    -0.287 C  
HETATM   44  C   UNL     1      -9.224  13.164  66.791  1.00  0.00    -0.232 C  
ENDBRANCH  26  27
ENDBRANCH  15  23
TORSDOF 2
ENDMDL
MODEL       12
REMARK 921   NORMALIZED FREE ENERGY PREDICTED BY IDOCK:   -7.29 KCAL/MOL
REMARK 922        TOTAL FREE ENERGY PREDICTED BY IDOCK:   -8.54 KCAL/MOL
REMARK 923 INTER-LIGAND FREE ENERGY PREDICTED BY IDOCK:   -8.75 KCAL/MOL
REMARK 924 INTRA-LIGAND FREE ENERGY PREDICTED BY IDOCK:    0.21 KCAL/MOL
REMARK 927      BINDING AFFINITY PREDICTED BY RF-SCORE:    0.00 PKD
ROOT
HETATM    1  C   UNL     1     -12.527  13.251  70.511  1.00  0.00    -0.260 C  
HETATM    2  C   UNL     1     -13.405  12.910  71.711  1.00  0.00    -0.451 C  
HETATM    3  C   UNL     1     -14.003  14.291  72.127  1.00  0.00    -0.618 C  
HETATM    4  C   UNL     1     -13.263  15.359  71.325  1.00  0.00    -0.510 C  
HETATM    5  N   UNL     1     -12.171  14.650  70.708  1.00  0.00    -0.301 N  
HETATM    6  C   UNL     1     -11.330  15.287  69.805  1.00  0.00    -0.289 C  
HETATM    7  O   UNL     1     -11.175  16.501  69.763  1.00  0.00    -0.302 OA 
HETATM    8  C   UNL     1     -10.483  14.262  69.088  1.00  0.00    -0.159 C  
HETATM    9  C   UNL     1      -9.230  14.783  68.395  1.00  0.00    -0.189 C  
HETATM   10  N   UNL     1     -11.467  13.114  68.500  1.00  0.00    -0.280 N  
HETATM   11  C   UNL     1      -9.486  15.582  67.138  1.00  0.00    -0.223 C  
HETATM   12  C   UNL     1      -8.172  15.411  69.323  1.00  0.00    -0.252 C  
HETATM   13  C   UNL     1     -11.237  12.036  67.637  1.00  0.00    -0.282 C  
HETATM   14  O   UNL     1     -12.051  11.601  66.833  1.00  0.00    -0.512 OA 
HETATM   15  C   UNL     1      -9.897  11.441  68.026  1.00  0.00    -0.184 C  
HETATM   16  H   UNL     1     -11.820  10.509  68.996  1.00  0.00     0.000 HD 
HETATM   17  C   UNL     1      -9.195  12.238  66.723  1.00  0.00    -0.210 C  
HETATM   18  O   UNL     1     -10.199  11.842  69.530  1.00  0.00     0.189 OA 
HETATM   19  O   UNL     1     -12.370  11.082  69.516  1.00  0.00    -0.324 OA 
HETATM   20  C   UNL     1     -11.589  12.272  69.624  1.00  0.00    -0.278 C  
HETATM   21  C   UNL     1      -9.576  11.766  65.286  1.00  0.00    -0.189 C  
HETATM   22  C   UNL     1      -7.693  12.464  66.654  1.00  0.00     0.240 C  
ENDROOT
BRANCH  15  23
HETATM   23  N   UNL     1      -9.320  10.119  68.135  1.00  0.00    -0.134 N  
HETATM   24  H   UNL     1      -8.428   9.984  68.609  1.00  0.00     0.000 HD 
HETATM   25  O   UNL     1     -10.870   9.140  66.710  1.00  0.00    -0.109 OA 
HETATM   26  C   UNL     1     -10.002   9.027  67.583  1.00  0.00    -0.201 C  
BRANCH  26  27
HETATM   27  C   UNL     1      -9.677   7.668  68.231  1.00  0.00    -0.166 C  
HETATM   28  C   UNL     1      -8.236   7.261  67.853  1.00  0.00    -0.119 C  
HETATM   29  N   UNL     1      -7.197   7.544  68.875  1.00  0.00    -0.080 NA 
HETATM   30  C   UNL     1      -7.390   6.683  70.074  1.00  0.00    -0.089 C  
HETATM   31  C   UNL     1      -7.107   8.957  69.260  1.00  0.00    -0.058 C  
HETATM   32  C   UNL     1      -6.552   7.146  71.353  1.00  0.00    -0.051 C  
HETATM   33  C   UNL     1      -7.406   7.371  72.556  1.00  0.00    -0.076 A  
HETATM   34  C   UNL     1      -7.281   8.132  73.703  1.00  0.00    -0.141 A  
HETATM   35  N   UNL     1      -8.361   7.857  74.507  1.00  0.00    -0.385 NA 
HETATM   36  C   UNL     1      -9.183   6.926  73.910  1.00  0.00    -0.199 A  
HETATM   37  H   UNL     1      -8.531   8.282  75.418  1.00  0.00     0.000 HD 
HETATM   38  C   UNL     1     -10.382   6.306  74.275  1.00  0.00    -0.304 A  
HETATM   39  C   UNL     1     -10.966   5.442  73.330  1.00  0.00    -0.349 A  
HETATM   40  C   UNL     1     -10.452   5.306  72.039  1.00  0.00    -0.283 A  
HETATM   41  C   UNL     1      -9.316   6.025  71.674  1.00  0.00    -0.160 A  
HETATM   42  C   UNL     1      -8.639   6.718  72.660  1.00  0.00    -0.128 A  
HETATM   43  C   UNL     1      -8.933   6.341  70.265  1.00  0.00    -0.154 C  
HETATM   44  C   UNL     1      -9.821   7.536  69.765  1.00  0.00    -0.180 C  
ENDBRANCH  26  27
ENDBRANCH  15  23
TORSDOF 2
ENDMDL
MODEL       13
REMARK 921   NORMALIZED FREE ENERGY PREDICTED BY IDOCK:   -7.16 KCAL/MOL
REMARK 922        TOTAL FREE ENERGY PREDICTED BY IDOCK:   -8.40 KCAL/MOL
REMARK 923 INTER-LIGAND FREE ENERGY PREDICTED BY IDOCK:   -7.87 KCAL/MOL
REMARK 924 INTRA-LIGAND FREE ENERGY PREDICTED BY IDOCK:   -0.53 KCAL/MOL
REMARK 927      BINDING AFFINITY PREDICTED BY RF-SCORE:    0.00 PKD
ROOT
HETATM    1  C   UNL     1     -10.028   6.262  71.994  1.00  0.00    -0.168 C  
HETATM    2  C   UNL     1     -11.389   6.068  72.655  1.00  0.00    -0.320 C  
HETATM    3  C   UNL     1     -11.270   4.663  73.324  1.00  0.00    -0.411 C  
HETATM    4  C   UNL     1      -9.976   4.033  72.816  1.00  0.00    -0.150 C  
HETATM    5  N   UNL     1      -9.544   4.908  71.756  1.00  0.00    -0.151 N  
HETATM    6  C   UNL     1      -8.326   4.707  71.120  1.00  0.00    -0.103 C  
HETATM    7  O   UNL     1      -7.744   3.630  71.095  1.00  0.00    -0.050 OA 
HETATM    8  C   UNL     1      -7.983   5.917  70.284  1.00  0.00    -0.106 C  
HETATM    9  C   UNL     1      -6.931   5.716  69.200  1.00  0.00    -0.063 C  
HETATM   10  N   UNL     1      -8.119   7.235  71.220  1.00  0.00    -0.101 N  
HETATM   11  C   UNL     1      -5.517   5.556  69.711  1.00  0.00    -0.004 C  
HETATM   12  C   UNL     1      -7.305   4.715  68.090  1.00  0.00    -0.066 C  
HETATM   13  C   UNL     1      -7.775   8.575  71.007  1.00  0.00    -0.097 C  
HETATM   14  O   UNL     1      -7.386   9.341  71.879  1.00  0.00    -0.327 OA 
HETATM   15  C   UNL     1      -8.144   8.900  69.573  1.00  0.00    -0.101 C  
HETATM   16  H   UNL     1      -9.734   9.368  71.236  1.00  0.00     0.000 HD 
HETATM   17  C   UNL     1      -6.527   8.734  69.146  1.00  0.00    -0.043 C  
HETATM   18  O   UNL     1      -9.361   7.890  69.698  1.00  0.00    -0.153 OA 
HETATM   19  O   UNL     1     -10.045   8.641  71.762  1.00  0.00    -0.252 OA 
HETATM   20  C   UNL     1      -9.498   7.503  71.097  1.00  0.00    -0.158 C  
HETATM   21  C   UNL     1      -5.519   9.799  69.677  1.00  0.00    -0.033 C  
HETATM   22  C   UNL     1      -6.113   8.518  67.699  1.00  0.00    -0.048 C  
ENDROOT
BRANCH  15  23
HETATM   23  N   UNL     1      -8.708  10.023  68.857  1.00  0.00    -0.138 N  
HETATM   24  H   UNL     1      -8.774  10.938  69.303  1.00  0.00     0.000 HD 
HETATM   25  O   UNL     1      -9.446   8.734  67.072  1.00  0.00    -0.151 OA 
HETATM   26  C   UNL     1      -9.161   9.841  67.544  1.00  0.00    -0.130 C  
BRANCH  26  27
HETATM   27  C   UNL     1      -9.168  11.116  66.679  1.00  0.00    -0.188 C  
HETATM   28  C   UNL     1     -10.465  11.148  65.840  1.00  0.00    -0.253 C  
HETATM   29  N   UNL     1     -11.561  11.991  66.381  1.00  0.00    -0.500 NA 
HETATM   30  C   UNL     1     -11.193  13.433  66.324  1.00  0.00    -0.305 C  
HETATM   31  C   UNL     1     -11.990  11.618  67.734  1.00  0.00    -0.047 C  
HETATM   32  C   UNL     1     -12.142  14.384  67.188  1.00  0.00    -0.367 C  
HETATM   33  C   UNL     1     -11.388  15.211  68.176  1.00  0.00    -0.345 A  
HETATM   34  C   UNL     1     -11.712  15.824  69.372  1.00  0.00    -0.370 A  
HETATM   35  N   UNL     1     -10.613  16.539  69.786  1.00  0.00    -0.299 NA 
HETATM   36  C   UNL     1      -9.584  16.409  68.880  1.00  0.00    -0.252 A  
HETATM   37  H   UNL     1     -10.567  17.087  70.645  1.00  0.00     0.000 HD 
HETATM   38  C   UNL     1      -8.280  16.909  68.808  1.00  0.00    -0.244 A  
HETATM   39  C   UNL     1      -7.490  16.473  67.728  1.00  0.00    -0.160 A  
HETATM   40  C   UNL     1      -7.931  15.488  66.841  1.00  0.00    -0.264 A  
HETATM   41  C   UNL     1      -9.198  14.933  67.010  1.00  0.00    -0.249 A  
HETATM   42  C   UNL     1     -10.039  15.500  67.948  1.00  0.00    -0.224 A  
HETATM   43  C   UNL     1      -9.617  13.606  66.465  1.00  0.00    -0.294 C  
HETATM   44  C   UNL     1      -9.026  12.482  67.389  1.00  0.00    -0.188 C  
ENDBRANCH  26  27
ENDBRANCH  15  23
TORSDOF 2
ENDMDL
MODEL       14
REMARK 921   NORMALIZED FREE ENERGY PREDICTED BY IDOCK:   -7.13 KCAL/MOL
REMARK 922        TOTAL FREE ENERGY PREDICTED BY IDOCK:   -8.37 KCAL/MOL
REMARK 923 INTER-LIGAND FREE ENERGY PREDICTED BY IDOCK:   -7.88 KCAL/MOL
REMARK 924 INTRA-LIGAND FREE ENERGY PREDICTED BY IDOCK:   -0.49 KCAL/MOL
REMARK 927      BINDING AFFINITY PREDICTED BY RF-SCORE:    0.00 PKD
ROOT
HETATM    1  C   UNL     1      -8.687  16.249  67.478  1.00  0.00    -0.181 C  
HETATM    2  C   UNL     1      -7.538  17.226  67.705  1.00  0.00    -0.189 C  
HETATM    3  C   UNL     1      -7.986  18.501  66.925  1.00  0.00    -0.250 C  
HETATM    4  C   UNL     1      -9.215  18.116  66.105  1.00  0.00    -0.119 C  
HETATM    5  N   UNL     1      -9.289  16.682  66.223  1.00  0.00    -0.282 N  
HETATM    6  C   UNL     1     -10.358  15.978  65.686  1.00  0.00    -0.392 C  
HETATM    7  O   UNL     1     -11.062  16.404  64.778  1.00  0.00    -0.592 OA 
HETATM    8  C   UNL     1     -10.347  14.560  66.206  1.00  0.00    -0.294 C  
HETATM    9  C   UNL     1     -11.161  13.542  65.417  1.00  0.00    -0.301 C  
HETATM   10  N   UNL     1     -10.237  14.616  67.823  1.00  0.00    -0.228 N  
HETATM   11  C   UNL     1     -12.660  13.680  65.560  1.00  0.00    -0.541 C  
HETATM   12  C   UNL     1     -10.698  13.304  63.967  1.00  0.00    -0.254 C  
HETATM   13  C   UNL     1     -10.343  13.623  68.804  1.00  0.00    -0.173 C  
HETATM   14  O   UNL     1     -10.803  13.797  69.925  1.00  0.00     0.090 OA 
HETATM   15  C   UNL     1      -9.636  12.395  68.264  1.00  0.00    -0.211 C  
HETATM   16  H   UNL     1      -8.390  13.863  69.606  1.00  0.00     0.000 HD 
HETATM   17  C   UNL     1     -11.132  11.738  67.869  1.00  0.00    -0.302 C  
HETATM   18  O   UNL     1      -8.623  13.358  67.514  1.00  0.00    -0.176 OA 
HETATM   19  O   UNL     1      -8.300  14.760  69.308  1.00  0.00    -0.134 OA 
HETATM   20  C   UNL     1      -8.840  14.719  67.988  1.00  0.00    -0.169 C  
HETATM   21  C   UNL     1     -12.077  11.321  69.038  1.00  0.00    -0.325 C  
HETATM   22  C   UNL     1     -11.253  10.601  66.868  1.00  0.00    -0.052 C  
ENDROOT
BRANCH  15  23
HETATM   23  N   UNL     1      -8.786  11.350  68.789  1.00  0.00    -0.318 N  
HETATM   24  H   UNL     1      -8.811  11.115  69.782  1.00  0.00     0.000 HD 
HETATM   25  O   UNL     1      -7.578  11.106  66.821  1.00  0.00    -0.134 OA 
HETATM   26  C   UNL     1      -7.928  10.663  67.921  1.00  0.00    -0.106 C  
BRANCH  26  27
HETATM   27  C   UNL     1      -7.539   9.246  68.383  1.00  0.00    -0.086 C  
HETATM   28  C   UNL     1      -6.039   9.230  68.751  1.00  0.00    -0.044 C  
HETATM   29  N   UNL     1      -5.729   9.353  70.198  1.00  0.00    -0.031 NA 
HETATM   30  C   UNL     1      -6.177   8.141  70.937  1.00  0.00    -0.033 C  
HETATM   31  C   UNL     1      -6.263  10.569  70.822  1.00  0.00    -0.008 C  
HETATM   32  C   UNL     1      -6.207   8.318  72.524  1.00  0.00    -0.073 C  
HETATM   33  C   UNL     1      -7.541   8.007  73.117  1.00  0.00    -0.188 A  
HETATM   34  C   UNL     1      -8.196   8.382  74.275  1.00  0.00    -0.084 A  
HETATM   35  N   UNL     1      -9.382   7.689  74.327  1.00  0.00    -0.399 NA 
HETATM   36  C   UNL     1      -9.508   6.864  73.230  1.00  0.00    -0.156 A  
HETATM   37  H   UNL     1     -10.073   7.773  75.073  1.00  0.00     0.000 HD 
HETATM   38  C   UNL     1     -10.487   5.967  72.793  1.00  0.00    -0.239 A  
HETATM   39  C   UNL     1     -10.275   5.354  71.543  1.00  0.00    -0.280 A  
HETATM   40  C   UNL     1      -9.212   5.718  70.714  1.00  0.00    -0.171 A  
HETATM   41  C   UNL     1      -8.317   6.698  71.137  1.00  0.00    -0.125 A  
HETATM   42  C   UNL     1      -8.417   7.153  72.438  1.00  0.00    -0.124 A  
HETATM   43  C   UNL     1      -7.447   7.498  70.223  1.00  0.00    -0.085 C  
HETATM   44  C   UNL     1      -8.324   8.619  69.559  1.00  0.00    -0.117 C  
ENDBRANCH  26  27
ENDBRANCH  15  23
TORSDOF 2
ENDMDL
MODEL       15
REMARK 921   NORMALIZED FREE ENERGY PREDICTED BY IDOCK:   -7.07 KCAL/MOL
REMARK 922        TOTAL FREE ENERGY PREDICTED BY IDOCK:   -8.30 KCAL/MOL
REMARK 923 INTER-LIGAND FREE ENERGY PREDICTED BY IDOCK:   -8.45 KCAL/MOL
REMARK 924 INTRA-LIGAND FREE ENERGY PREDICTED BY IDOCK:    0.16 KCAL/MOL
REMARK 927      BINDING AFFINITY PREDICTED BY RF-SCORE:    0.00 PKD
ROOT
HETATM    1  C   UNL     1     -11.215  13.321  65.794  1.00  0.00    -0.294 C  
HETATM    2  C   UNL     1     -12.622  13.527  65.242  1.00  0.00    -0.517 C  
HETATM    3  C   UNL     1     -12.493  14.834  64.399  1.00  0.00    -0.274 C  
HETATM    4  C   UNL     1     -11.123  15.432  64.706  1.00  0.00    -0.403 C  
HETATM    5  N   UNL     1     -10.636  14.658  65.820  1.00  0.00    -0.304 N  
HETATM    6  C   UNL     1      -9.353  14.850  66.313  1.00  0.00    -0.296 C  
HETATM    7  O   UNL     1      -8.712  15.882  66.153  1.00  0.00    -0.327 OA 
HETATM    8  C   UNL     1      -8.995  13.725  67.255  1.00  0.00    -0.224 C  
HETATM    9  C   UNL     1      -7.831  13.980  68.205  1.00  0.00    -0.144 C  
HETATM   10  N   UNL     1      -9.295  12.320  66.502  1.00  0.00    -0.228 N  
HETATM   11  C   UNL     1      -6.468  13.986  67.551  1.00  0.00    -0.068 C  
HETATM   12  C   UNL     1      -8.039  15.125  69.214  1.00  0.00    -0.217 C  
HETATM   13  C   UNL     1      -9.005  10.994  66.844  1.00  0.00    -0.157 C  
HETATM   14  O   UNL     1      -8.747  10.107  66.040  1.00  0.00    -0.135 OA 
HETATM   15  C   UNL     1      -9.248  10.862  68.335  1.00  0.00    -0.168 C  
HETATM   16  H   UNL     1     -11.018  10.310  66.894  1.00  0.00     0.000 HD 
HETATM   17  C   UNL     1      -7.590  10.969  68.588  1.00  0.00    -0.124 C  
HETATM   18  O   UNL     1     -10.414  11.929  68.200  1.00  0.00    -0.193 OA 
HETATM   19  O   UNL     1     -11.339  10.990  66.314  1.00  0.00    -0.141 OA 
HETATM   20  C   UNL     1     -10.668  12.159  66.783  1.00  0.00    -0.234 C  
HETATM   21  C   UNL     1      -6.699   9.785  68.100  1.00  0.00    -0.061 C  
HETATM   22  C   UNL     1      -7.024  11.323  69.954  1.00  0.00     0.056 C  
ENDROOT
BRANCH  15  23
HETATM   23  N   UNL     1      -9.799   9.869  69.231  1.00  0.00    -0.195 N  
HETATM   24  H   UNL     1      -9.482   8.900  69.185  1.00  0.00     0.000 HD 
HETATM   25  O   UNL     1     -11.453  11.277  70.050  1.00  0.00    -0.293 OA 
HETATM   26  C   UNL     1     -10.771  10.251  70.163  1.00  0.00    -0.278 C  
BRANCH  26  27
HETATM   27  C   UNL     1     -10.855   9.358  71.415  1.00  0.00    -0.430 C  
HETATM   28  C   UNL     1     -12.087   8.434  71.293  1.00  0.00    -0.284 C  
HETATM   29  N   UNL     1     -11.814   7.054  70.818  1.00  0.00    -0.353 NA 
HETATM   30  C   UNL     1     -11.033   6.293  71.831  1.00  0.00    -0.256 C  
HETATM   31  C   UNL     1     -11.159   6.993  69.506  1.00  0.00    -0.187 C  
HETATM   32  C   UNL     1     -10.396   4.935  71.281  1.00  0.00    -0.219 C  
HETATM   33  C   UNL     1      -8.919   4.864  71.484  1.00  0.00    -0.160 A  
HETATM   34  C   UNL     1      -7.889   4.181  70.865  1.00  0.00    -0.059 A  
HETATM   35  N   UNL     1      -6.735   4.443  71.564  1.00  0.00    -0.029 NA 
HETATM   36  C   UNL     1      -6.995   5.276  72.631  1.00  0.00    -0.085 A  
HETATM   37  H   UNL     1      -5.815   4.073  71.326  1.00  0.00     0.000 HD 
HETATM   38  C   UNL     1      -6.209   5.843  73.638  1.00  0.00    -0.063 A  
HETATM   39  C   UNL     1      -6.852   6.727  74.525  1.00  0.00    -0.095 A  
HETATM   40  C   UNL     1      -8.176   7.129  74.335  1.00  0.00    -0.196 A  
HETATM   41  C   UNL     1      -8.896   6.626  73.254  1.00  0.00    -0.136 A  
HETATM   42  C   UNL     1      -8.325   5.615  72.504  1.00  0.00    -0.114 A  
HETATM   43  C   UNL     1     -10.105   7.280  72.667  1.00  0.00    -0.233 C  
HETATM   44  C   UNL     1      -9.634   8.477  71.767  1.00  0.00    -0.337 C  
ENDBRANCH  26  27
ENDBRANCH  15  23
TORSDOF 2
ENDMDL
MODEL       16
REMARK 921   NORMALIZED FREE ENERGY PREDICTED BY IDOCK:   -7.04 KCAL/MOL
REMARK 922        TOTAL FREE ENERGY PREDICTED BY IDOCK:   -8.26 KCAL/MOL
REMARK 923 INTER-LIGAND FREE ENERGY PREDICTED BY IDOCK:   -8.63 KCAL/MOL
REMARK 924 INTRA-LIGAND FREE ENERGY PREDICTED BY IDOCK:    0.36 KCAL/MOL
REMARK 927      BINDING AFFINITY PREDICTED BY RF-SCORE:    0.00 PKD
ROOT
HETATM    1  C   UNL     1      -9.855  16.332  67.063  1.00  0.00    -0.244 C  
HETATM    2  C   UNL     1      -9.083  17.629  67.282  1.00  0.00    -0.237 C  
HETATM    3  C   UNL     1      -9.799  18.642  66.335  1.00  0.00    -0.390 C  
HETATM    4  C   UNL     1     -10.756  17.837  65.460  1.00  0.00    -0.009 C  
HETATM    5  N   UNL     1     -10.412  16.463  65.723  1.00  0.00    -0.366 N  
HETATM    6  C   UNL     1     -11.154  15.426  65.175  1.00  0.00    -0.394 C  
HETATM    7  O   UNL     1     -11.846  15.545  64.170  1.00  0.00    -0.463 OA 
HETATM    8  C   UNL     1     -10.780  14.124  65.842  1.00  0.00    -0.298 C  
HETATM    9  C   UNL     1     -11.159  12.848  65.099  1.00  0.00    -0.321 C  
HETATM   10  N   UNL     1     -10.876  14.332  67.448  1.00  0.00    -0.282 N  
HETATM   11  C   UNL     1     -12.637  12.528  65.100  1.00  0.00    -0.358 C  
HETATM   12  C   UNL     1     -10.484  12.655  63.727  1.00  0.00    -0.411 C  
HETATM   13  C   UNL     1     -10.791  13.431  68.516  1.00  0.00    -0.265 C  
HETATM   14  O   UNL     1     -11.405  13.540  69.569  1.00  0.00    -0.257 OA 
HETATM   15  C   UNL     1      -9.694  12.444  68.171  1.00  0.00    -0.214 C  
HETATM   16  H   UNL     1      -9.102  14.321  69.451  1.00  0.00     0.000 HD 
HETATM   17  C   UNL     1     -10.871  11.331  67.723  1.00  0.00    -0.284 C  
HETATM   18  O   UNL     1      -8.935  13.612  67.412  1.00  0.00    -0.197 OA 
HETATM   19  O   UNL     1      -9.251  15.177  69.067  1.00  0.00    -0.201 OA 
HETATM   20  C   UNL     1      -9.601  14.872  67.718  1.00  0.00    -0.208 C  
HETATM   21  C   UNL     1     -11.774  10.732  68.845  1.00  0.00    -0.338 C  
HETATM   22  C   UNL     1     -10.533  10.139  66.842  1.00  0.00    -0.286 C  
ENDROOT
BRANCH  15  23
HETATM   23  N   UNL     1      -8.636  11.753  68.875  1.00  0.00    -0.370 N  
HETATM   24  H   UNL     1      -8.671  11.654  69.890  1.00  0.00     0.000 HD 
HETATM   25  O   UNL     1      -7.264  11.594  67.008  1.00  0.00    -0.135 OA 
HETATM   26  C   UNL     1      -7.563  11.221  68.149  1.00  0.00    -0.105 C  
BRANCH  26  27
HETATM   27  C   UNL     1      -6.844  10.041  68.829  1.00  0.00    -0.057 C  
HETATM   28  C   UNL     1      -6.934  10.212  70.361  1.00  0.00    -0.111 C  
HETATM   29  N   UNL     1      -8.000   9.428  71.035  1.00  0.00    -0.327 NA 
HETATM   30  C   UNL     1      -7.707   7.971  70.966  1.00  0.00    -0.085 C  
HETATM   31  C   UNL     1      -9.352   9.710  70.539  1.00  0.00    -0.166 C  
HETATM   32  C   UNL     1      -8.945   7.036  71.346  1.00  0.00    -0.139 C  
HETATM   33  C   UNL     1      -9.278   6.050  70.276  1.00  0.00    -0.166 A  
HETATM   34  C   UNL     1     -10.421   5.360  69.918  1.00  0.00    -0.308 A  
HETATM   35  N   UNL     1     -10.090   4.508  68.891  1.00  0.00    -0.063 NA 
HETATM   36  C   UNL     1      -8.753   4.625  68.579  1.00  0.00    -0.098 A  
HETATM   37  H   UNL     1     -10.743   3.879  68.425  1.00  0.00     0.000 HD 
HETATM   38  C   UNL     1      -7.914   4.013  67.643  1.00  0.00    -0.090 A  
HETATM   39  C   UNL     1      -6.585   4.473  67.584  1.00  0.00    -0.047 A  
HETATM   40  C   UNL     1      -6.152   5.575  68.325  1.00  0.00    -0.025 A  
HETATM   41  C   UNL     1      -7.048   6.229  69.166  1.00  0.00    -0.077 A  
HETATM   42  C   UNL     1      -8.290   5.658  69.367  1.00  0.00    -0.107 A  
HETATM   43  C   UNL     1      -6.885   7.636  69.643  1.00  0.00    -0.044 C  
HETATM   44  C   UNL     1      -7.304   8.606  68.482  1.00  0.00    -0.085 C  
ENDBRANCH  26  27
ENDBRANCH  15  23
TORSDOF 2
ENDMDL
MODEL       17
REMARK 921   NORMALIZED FREE ENERGY PREDICTED BY IDOCK:   -6.99 KCAL/MOL
REMARK 922        TOTAL FREE ENERGY PREDICTED BY IDOCK:   -8.21 KCAL/MOL
REMARK 923 INTER-LIGAND FREE ENERGY PREDICTED BY IDOCK:   -8.13 KCAL/MOL
REMARK 924 INTRA-LIGAND FREE ENERGY PREDICTED BY IDOCK:   -0.08 KCAL/MOL
REMARK 927      BINDING AFFINITY PREDICTED BY RF-SCORE:    0.00 PKD
ROOT
HETATM    1  C   UNL     1     -10.881  13.252  65.578  1.00  0.00    -0.284 C  
HETATM    2  C   UNL     1     -12.292  13.287  65.001  1.00  0.00    -0.499 C  
HETATM    3  C   UNL     1     -12.379  14.699  64.341  1.00  0.00    -0.420 C  
HETATM    4  C   UNL     1     -11.139  15.475  64.778  1.00  0.00    -0.407 C  
HETATM    5  N   UNL     1     -10.544  14.652  65.801  1.00  0.00    -0.304 N  
HETATM    6  C   UNL     1      -9.323  14.991  66.366  1.00  0.00    -0.303 C  
HETATM    7  O   UNL     1      -8.870  16.130  66.368  1.00  0.00    -0.259 OA 
HETATM    8  C   UNL     1      -8.791  13.827  67.168  1.00  0.00    -0.231 C  
HETATM    9  C   UNL     1      -7.706  14.146  68.189  1.00  0.00    -0.140 C  
HETATM   10  N   UNL     1      -8.828  12.506  66.227  1.00  0.00    -0.020 N  
HETATM   11  C   UNL     1      -6.354  14.472  67.597  1.00  0.00    -0.128 C  
HETATM   12  C   UNL     1      -8.128  15.092  69.330  1.00  0.00    -0.217 C  
HETATM   13  C   UNL     1      -8.318  11.215  66.405  1.00  0.00    -0.167 C  
HETATM   14  O   UNL     1      -7.895  10.503  65.503  1.00  0.00    -0.155 OA 
HETATM   15  C   UNL     1      -8.560  10.843  67.855  1.00  0.00    -0.130 C  
HETATM   16  H   UNL     1     -10.180  10.198  66.284  1.00  0.00     0.000 HD 
HETATM   17  C   UNL     1      -6.950  11.196  68.187  1.00  0.00    -0.069 C  
HETATM   18  O   UNL     1      -9.891  11.704  67.812  1.00  0.00    -0.173 OA 
HETATM   19  O   UNL     1     -10.605  10.886  65.785  1.00  0.00    -0.232 OA 
HETATM   20  C   UNL     1     -10.157  12.078  66.428  1.00  0.00    -0.218 C  
HETATM   21  C   UNL     1      -5.858  10.259  67.586  1.00  0.00    -0.045 C  
HETATM   22  C   UNL     1      -6.478  11.454  69.609  1.00  0.00    -0.133 C  
ENDROOT
BRANCH  15  23
HETATM   23  N   UNL     1      -8.944   9.659  68.591  1.00  0.00    -0.127 N  
HETATM   24  H   UNL     1      -8.759   9.591  69.591  1.00  0.00     0.000 HD 
HETATM   25  O   UNL     1      -9.511   8.453  66.689  1.00  0.00    -0.172 OA 
HETATM   26  C   UNL     1      -9.574   8.607  67.915  1.00  0.00    -0.149 C  
BRANCH  26  27
HETATM   27  C   UNL     1     -10.459   7.708  68.799  1.00  0.00    -0.208 C  
HETATM   28  C   UNL     1     -10.848   6.443  68.001  1.00  0.00    -0.316 C  
HETATM   29  N   UNL     1     -10.036   5.232  68.279  1.00  0.00    -0.167 NA 
HETATM   30  C   UNL     1     -10.283   4.738  69.661  1.00  0.00    -0.130 C  
HETATM   31  C   UNL     1      -8.599   5.408  68.040  1.00  0.00    -0.100 C  
HETATM   32  C   UNL     1      -9.216   3.664  70.172  1.00  0.00    -0.221 C  
HETATM   33  C   UNL     1      -8.561   4.061  71.453  1.00  0.00    -0.121 A  
HETATM   34  C   UNL     1      -7.359   3.754  72.061  1.00  0.00    -0.056 A  
HETATM   35  N   UNL     1      -7.350   4.355  73.297  1.00  0.00    -0.075 NA 
HETATM   36  C   UNL     1      -8.527   5.041  73.509  1.00  0.00    -0.106 A  
HETATM   37  H   UNL     1      -6.581   4.301  73.964  1.00  0.00     0.000 HD 
HETATM   38  C   UNL     1      -9.031   5.808  74.563  1.00  0.00    -0.128 A  
HETATM   39  C   UNL     1     -10.280   6.424  74.360  1.00  0.00    -0.343 A  
HETATM   40  C   UNL     1     -10.929   6.388  73.124  1.00  0.00    -0.249 A  
HETATM   41  C   UNL     1     -10.341   5.704  72.062  1.00  0.00    -0.261 A  
HETATM   42  C   UNL     1      -9.218   4.942  72.320  1.00  0.00    -0.151 A  
HETATM   43  C   UNL     1     -10.654   5.952  70.622  1.00  0.00    -0.334 C  
HETATM   44  C   UNL     1      -9.904   7.254  70.168  1.00  0.00    -0.179 C  
ENDBRANCH  26  27
ENDBRANCH  15  23
TORSDOF 2
ENDMDL
MODEL       18
REMARK 921   NORMALIZED FREE ENERGY PREDICTED BY IDOCK:   -6.92 KCAL/MOL
REMARK 922        TOTAL FREE ENERGY PREDICTED BY IDOCK:   -8.14 KCAL/MOL
REMARK 923 INTER-LIGAND FREE ENERGY PREDICTED BY IDOCK:   -7.78 KCAL/MOL
REMARK 924 INTRA-LIGAND FREE ENERGY PREDICTED BY IDOCK:   -0.35 KCAL/MOL
REMARK 927      BINDING AFFINITY PREDICTED BY RF-SCORE:    0.00 PKD
ROOT
HETATM    1  C   UNL     1      -8.121   9.423  64.063  1.00  0.00    -0.150 C  
HETATM    2  C   UNL     1      -7.235   9.563  62.829  1.00  0.00    -0.102 C  
HETATM    3  C   UNL     1      -7.066   8.092  62.336  1.00  0.00    -0.087 C  
HETATM    4  C   UNL     1      -7.639   7.186  63.423  1.00  0.00    -0.112 C  
HETATM    5  N   UNL     1      -7.871   8.069  64.538  1.00  0.00    -0.132 N  
HETATM    6  C   UNL     1      -8.496   7.610  65.690  1.00  0.00    -0.142 C  
HETATM    7  O   UNL     1      -8.528   6.431  66.020  1.00  0.00    -0.132 OA 
HETATM    8  C   UNL     1      -8.886   8.783  66.559  1.00  0.00    -0.131 C  
HETATM    9  C   UNL     1      -9.182   8.474  68.021  1.00  0.00    -0.143 C  
HETATM   10  N   UNL     1      -9.708   9.839  65.643  1.00  0.00    -0.271 N  
HETATM   11  C   UNL     1     -10.483   7.744  68.265  1.00  0.00    -0.215 C  
HETATM   12  C   UNL     1      -7.997   7.916  68.833  1.00  0.00    -0.123 C  
HETATM   13  C   UNL     1     -10.424  10.999  65.964  1.00  0.00    -0.245 C  
HETATM   14  O   UNL     1     -11.423  11.387  65.373  1.00  0.00    -0.090 OA 
HETATM   15  C   UNL     1      -9.627  11.724  67.030  1.00  0.00    -0.187 C  
HETATM   16  H   UNL     1      -9.258  12.337  64.795  1.00  0.00     0.000 HD 
HETATM   17  C   UNL     1     -10.679  11.119  68.193  1.00  0.00    -0.244 C  
HETATM   18  O   UNL     1      -8.300  11.180  66.354  1.00  0.00    -0.161 OA 
HETATM   19  O   UNL     1      -8.949  11.662  64.201  1.00  0.00     0.179 OA 
HETATM   20  C   UNL     1      -8.648  10.575  65.074  1.00  0.00    -0.176 C  
HETATM   21  C   UNL     1     -12.148  11.646  68.193  1.00  0.00    -0.031 C  
HETATM   22  C   UNL     1     -10.295  11.088  69.663  1.00  0.00     0.001 C  
ENDROOT
BRANCH  15  23
HETATM   23  N   UNL     1      -9.304  13.096  67.356  1.00  0.00    -0.205 N  
HETATM   24  H   UNL     1      -9.851  13.862  66.963  1.00  0.00     0.000 HD 
HETATM   25  O   UNL     1      -7.324  12.552  68.440  1.00  0.00    -0.101 OA 
HETATM   26  C   UNL     1      -8.232  13.362  68.217  1.00  0.00    -0.160 C  
BRANCH  26  27
HETATM   27  C   UNL     1      -8.323  14.703  68.970  1.00  0.00    -0.102 C  
HETATM   28  C   UNL     1      -6.998  14.946  69.727  1.00  0.00    -0.175 C  
HETATM   29  N   UNL     1      -6.029  15.848  69.055  1.00  0.00    -0.113 NA 
HETATM   30  C   UNL     1      -6.549  17.242  69.011  1.00  0.00    -0.230 C  
HETATM   31  C   UNL     1      -5.627  15.402  67.716  1.00  0.00    -0.109 C  
HETATM   32  C   UNL     1      -5.753  18.206  68.017  1.00  0.00    -0.161 C  
HETATM   33  C   UNL     1      -6.640  18.858  67.008  1.00  0.00    -0.203 A  
HETATM   34  C   UNL     1      -6.443  19.391  65.748  1.00  0.00    -0.230 A  
HETATM   35  N   UNL     1      -7.632  19.946  65.339  1.00  0.00    -0.404 NA 
HETATM   36  C   UNL     1      -8.596  19.791  66.311  1.00  0.00    -0.364 A  
HETATM   37  H   UNL     1      -7.780  20.407  64.441  1.00  0.00     0.000 HD 
HETATM   38  C   UNL     1      -9.942  20.155  66.415  1.00  0.00    -0.573 A  
HETATM   39  C   UNL     1     -10.627  19.738  67.572  1.00  0.00    -0.544 A  
HETATM   40  C   UNL     1     -10.038  18.889  68.512  1.00  0.00    -0.460 A  
HETATM   41  C   UNL     1      -8.728  18.457  68.318  1.00  0.00    -0.321 A  
HETATM   42  C   UNL     1      -8.000  19.022  67.288  1.00  0.00    -0.273 A  
HETATM   43  C   UNL     1      -8.140  17.235  68.947  1.00  0.00    -0.189 C  
HETATM   44  C   UNL     1      -8.647  15.977  68.157  1.00  0.00    -0.171 C  
ENDBRANCH  26  27
ENDBRANCH  15  23
TORSDOF 2
ENDMDL
MODEL       19
REMARK 921   NORMALIZED FREE ENERGY PREDICTED BY IDOCK:   -6.86 KCAL/MOL
REMARK 922        TOTAL FREE ENERGY PREDICTED BY IDOCK:   -8.07 KCAL/MOL
REMARK 923 INTER-LIGAND FREE ENERGY PREDICTED BY IDOCK:   -7.80 KCAL/MOL
REMARK 924 INTRA-LIGAND FREE ENERGY PREDICTED BY IDOCK:   -0.26 KCAL/MOL
REMARK 927      BINDING AFFINITY PREDICTED BY RF-SCORE:    0.00 PKD
ROOT
HETATM    1  C   UNL     1     -12.403  12.658  70.633  1.00  0.00    -0.290 C  
HETATM    2  C   UNL     1     -13.081  12.284  71.947  1.00  0.00    -0.469 C  
HETATM    3  C   UNL     1     -13.919  13.553  72.297  1.00  0.00    -0.638 C  
HETATM    4  C   UNL     1     -13.496  14.652  71.326  1.00  0.00    -0.386 C  
HETATM    5  N   UNL     1     -12.336  14.114  70.660  1.00  0.00    -0.342 N  
HETATM    6  C   UNL     1     -11.732  14.801  69.617  1.00  0.00    -0.314 C  
HETATM    7  O   UNL     1     -11.841  16.010  69.448  1.00  0.00    -0.325 OA 
HETATM    8  C   UNL     1     -10.752  13.895  68.910  1.00  0.00    -0.236 C  
HETATM    9  C   UNL     1      -9.703  14.577  68.040  1.00  0.00    -0.218 C  
HETATM   10  N   UNL     1     -11.518  12.514  68.539  1.00  0.00    -0.280 N  
HETATM   11  C   UNL     1     -10.232  15.162  66.750  1.00  0.00    -0.265 C  
HETATM   12  C   UNL     1      -8.726  15.506  68.786  1.00  0.00    -0.192 C  
HETATM   13  C   UNL     1     -11.140  11.414  67.759  1.00  0.00    -0.265 C  
HETATM   14  O   UNL     1     -11.911  10.737  67.091  1.00  0.00    -0.204 OA 
HETATM   15  C   UNL     1      -9.676  11.150  68.052  1.00  0.00    -0.176 C  
HETATM   16  H   UNL     1     -11.266   9.963  69.307  1.00  0.00     0.000 HD 
HETATM   17  C   UNL     1      -9.276  11.921  66.613  1.00  0.00    -0.206 C  
HETATM   18  O   UNL     1      -9.924  11.647  69.538  1.00  0.00     0.267 OA 
HETATM   19  O   UNL     1     -11.877  10.468  69.829  1.00  0.00    -0.265 OA 
HETATM   20  C   UNL     1     -11.360  11.795  69.742  1.00  0.00    -0.170 C  
HETATM   21  C   UNL     1      -9.672  11.223  65.276  1.00  0.00    -0.280 C  
HETATM   22  C   UNL     1      -7.868  12.436  66.362  1.00  0.00     0.504 C  
ENDROOT
BRANCH  15  23
HETATM   23  N   UNL     1      -8.826   9.992  68.219  1.00  0.00    -0.115 N  
HETATM   24  H   UNL     1      -7.821  10.063  68.056  1.00  0.00     0.000 HD 
HETATM   25  O   UNL     1     -10.598   8.514  68.475  1.00  0.00    -0.193 OA 
HETATM   26  C   UNL     1      -9.396   8.773  68.607  1.00  0.00    -0.141 C  
BRANCH  26  27
HETATM   27  C   UNL     1      -8.434   7.808  69.326  1.00  0.00    -0.138 C  
HETATM   28  C   UNL     1      -7.685   8.579  70.436  1.00  0.00    -0.080 C  
HETATM   29  N   UNL     1      -8.229   8.421  71.809  1.00  0.00    -0.141 NA 
HETATM   30  C   UNL     1      -8.032   7.029  72.297  1.00  0.00    -0.092 C  
HETATM   31  C   UNL     1      -9.634   8.824  71.944  1.00  0.00    -0.302 C  
HETATM   32  C   UNL     1      -8.879   6.667  73.602  1.00  0.00    -0.143 C  
HETATM   33  C   UNL     1      -9.743   5.464  73.417  1.00  0.00    -0.159 A  
HETATM   34  C   UNL     1     -10.905   5.007  74.009  1.00  0.00    -0.220 A  
HETATM   35  N   UNL     1     -11.185   3.770  73.481  1.00  0.00    -0.241 NA 
HETATM   36  C   UNL     1     -10.224   3.409  72.562  1.00  0.00    -0.146 A  
HETATM   37  H   UNL     1     -11.991   3.199  73.734  1.00  0.00     0.000 HD 
HETATM   38  C   UNL     1     -10.024   2.288  71.750  1.00  0.00    -0.201 A  
HETATM   39  C   UNL     1      -8.931   2.331  70.864  1.00  0.00    -0.143 A  
HETATM   40  C   UNL     1      -8.158   3.483  70.701  1.00  0.00    -0.062 A  
HETATM   41  C   UNL     1      -8.457   4.619  71.450  1.00  0.00    -0.113 A  
HETATM   42  C   UNL     1      -9.402   4.510  72.452  1.00  0.00    -0.159 A  
HETATM   43  C   UNL     1      -8.051   6.008  71.075  1.00  0.00    -0.121 C  
HETATM   44  C   UNL     1      -9.020   6.522  69.951  1.00  0.00    -0.143 C  
ENDBRANCH  26  27
ENDBRANCH  15  23
TORSDOF 2
ENDMDL
MODEL       20
REMARK 921   NORMALIZED FREE ENERGY PREDICTED BY IDOCK:   -6.83 KCAL/MOL
REMARK 922        TOTAL FREE ENERGY PREDICTED BY IDOCK:   -8.04 KCAL/MOL
REMARK 923 INTER-LIGAND FREE ENERGY PREDICTED BY IDOCK:   -7.49 KCAL/MOL
REMARK 924 INTRA-LIGAND FREE ENERGY PREDICTED BY IDOCK:   -0.54 KCAL/MOL
REMARK 927      BINDING AFFINITY PREDICTED BY RF-SCORE:    0.00 PKD
ROOT
HETATM    1  C   UNL     1     -10.934  11.348  65.927  1.00  0.00    -0.207 C  
HETATM    2  C   UNL     1     -11.799  12.538  66.330  1.00  0.00    -0.453 C  
HETATM    3  C   UNL     1     -12.080  13.258  64.974  1.00  0.00    -0.447 C  
HETATM    4  C   UNL     1     -11.182  12.607  63.926  1.00  0.00    -0.442 C  
HETATM    5  N   UNL     1     -10.290  11.770  64.689  1.00  0.00    -0.275 N  
HETATM    6  C   UNL     1      -9.387  10.929  64.055  1.00  0.00    -0.237 C  
HETATM    7  O   UNL     1      -8.990  11.102  62.908  1.00  0.00    -0.272 OA 
HETATM    8  C   UNL     1      -8.804   9.959  65.055  1.00  0.00    -0.190 C  
HETATM    9  C   UNL     1      -7.510   9.264  64.652  1.00  0.00    -0.102 C  
HETATM   10  N   UNL     1     -10.031   9.258  65.853  1.00  0.00    -0.289 N  
HETATM   11  C   UNL     1      -7.664   8.207  63.582  1.00  0.00    -0.143 C  
HETATM   12  C   UNL     1      -6.299  10.192  64.436  1.00  0.00    -0.127 C  
HETATM   13  C   UNL     1     -10.071   8.192  66.759  1.00  0.00    -0.295 C  
HETATM   14  O   UNL     1     -10.997   7.398  66.861  1.00  0.00    -0.324 OA 
HETATM   15  C   UNL     1      -8.862   8.338  67.662  1.00  0.00    -0.136 C  
HETATM   16  H   UNL     1     -10.880   9.289  68.390  1.00  0.00     0.000 HD 
HETATM   17  C   UNL     1      -8.081   7.149  66.766  1.00  0.00    -0.113 C  
HETATM   18  O   UNL     1      -8.996   9.912  67.524  1.00  0.00    -0.134 OA 
HETATM   19  O   UNL     1     -11.274   9.955  67.840  1.00  0.00    -0.226 OA 
HETATM   20  C   UNL     1     -10.263  10.211  66.867  1.00  0.00    -0.236 C  
HETATM   21  C   UNL     1      -8.626   5.690  66.859  1.00  0.00    -0.110 C  
HETATM   22  C   UNL     1      -6.571   6.986  66.820  1.00  0.00    -0.055 C  
ENDROOT
BRANCH  15  23
HETATM   23  N   UNL     1      -8.561   8.144  69.064  1.00  0.00    -0.132 N  
HETATM   24  H   UNL     1      -9.219   7.652  69.669  1.00  0.00     0.000 HD 
HETATM   25  O   UNL     1      -6.698   9.530  69.031  1.00  0.00    -0.049 OA 
HETATM   26  C   UNL     1      -7.358   8.640  69.581  1.00  0.00    -0.056 C  
BRANCH  26  27
HETATM   27  C   UNL     1      -6.844   7.910  70.837  1.00  0.00    -0.041 C  
HETATM   28  C   UNL     1      -7.000   8.842  72.060  1.00  0.00    -0.016 C  
HETATM   29  N   UNL     1      -8.199   8.604  72.902  1.00  0.00    -0.412 NA 
HETATM   30  C   UNL     1      -8.101   7.293  73.601  1.00  0.00    -0.118 C  
HETATM   31  C   UNL     1      -9.470   8.711  72.176  1.00  0.00    -0.303 C  
HETATM   32  C   UNL     1      -9.473   6.792  74.246  1.00  0.00    -0.282 C  
HETATM   33  C   UNL     1      -9.873   5.433  73.776  1.00  0.00    -0.171 A  
HETATM   34  C   UNL     1     -11.075   4.759  73.676  1.00  0.00    -0.304 A  
HETATM   35  N   UNL     1     -10.803   3.479  73.254  1.00  0.00    -0.194 NA 
HETATM   36  C   UNL     1      -9.446   3.305  73.086  1.00  0.00    -0.098 A  
HETATM   37  H   UNL     1     -11.506   2.759  73.089  1.00  0.00     0.000 HD 
HETATM   38  C   UNL     1      -8.644   2.233  72.684  1.00  0.00    -0.065 A  
HETATM   39  C   UNL     1      -7.264   2.482  72.561  1.00  0.00    -0.032 A  
HETATM   40  C   UNL     1      -6.731   3.765  72.702  1.00  0.00    -0.037 A  
HETATM   41  C   UNL     1      -7.578   4.831  72.995  1.00  0.00    -0.092 A  
HETATM   42  C   UNL     1      -8.896   4.550  73.305  1.00  0.00    -0.106 A  
HETATM   43  C   UNL     1      -7.256   6.265  72.727  1.00  0.00    -0.087 C  
HETATM   44  C   UNL     1      -7.472   6.544  71.197  1.00  0.00    -0.085 C  
ENDBRANCH  26  27
ENDBRANCH  15  23
TORSDOF 2
ENDMDL
MODEL       21
REMARK 921   NORMALIZED FREE ENERGY PREDICTED BY IDOCK:   -6.79 KCAL/MOL
REMARK 922        TOTAL FREE ENERGY PREDICTED BY IDOCK:   -7.99 KCAL/MOL
REMARK 923 INTER-LIGAND FREE ENERGY PREDICTED BY IDOCK:   -7.75 KCAL/MOL
REMARK 924 INTRA-LIGAND FREE ENERGY PREDICTED BY IDOCK:   -0.24 KCAL/MOL
REMARK 927      BINDING AFFINITY PREDICTED BY RF-SCORE:    0.00 PKD
ROOT
HETATM    1  C   UNL     1     -11.696   9.141  70.896  1.00  0.00    -0.284 C  
HETATM    2  C   UNL     1     -12.943   9.937  71.267  1.00  0.00    -0.488 C  
HETATM    3  C   UNL     1     -13.720   8.973  72.218  1.00  0.00    -0.550 C  
HETATM    4  C   UNL     1     -13.023   7.617  72.147  1.00  0.00    -0.106 C  
HETATM    5  N   UNL     1     -12.095   7.748  71.053  1.00  0.00    -0.281 N  
HETATM    6  C   UNL     1     -11.199   6.731  70.755  1.00  0.00    -0.304 C  
HETATM    7  O   UNL     1     -11.367   5.561  71.080  1.00  0.00    -0.069 OA 
HETATM    8  C   UNL     1     -10.157   7.238  69.785  1.00  0.00    -0.194 C  
HETATM    9  C   UNL     1      -9.367   6.180  69.025  1.00  0.00    -0.133 C  
HETATM   10  N   UNL     1      -9.541   8.616  70.380  1.00  0.00    -0.168 N  
HETATM   11  C   UNL     1      -8.355   5.424  69.856  1.00  0.00    -0.100 C  
HETATM   12  C   UNL     1     -10.196   5.280  68.088  1.00  0.00    -0.204 C  
HETATM   13  C   UNL     1      -8.458   9.407  69.978  1.00  0.00    -0.190 C  
HETATM   14  O   UNL     1      -7.742  10.046  70.739  1.00  0.00    -0.233 OA 
HETATM   15  C   UNL     1      -8.478   9.442  68.463  1.00  0.00    -0.119 C  
HETATM   16  H   UNL     1      -9.575  11.176  69.603  1.00  0.00     0.000 HD 
HETATM   17  C   UNL     1      -7.252   8.292  68.445  1.00  0.00    -0.092 C  
HETATM   18  O   UNL     1     -10.061   9.364  68.521  1.00  0.00    -0.174 OA 
HETATM   19  O   UNL     1     -10.286  10.936  70.185  1.00  0.00     0.129 OA 
HETATM   20  C   UNL     1     -10.483   9.551  69.904  1.00  0.00    -0.240 C  
HETATM   21  C   UNL     1      -5.842   8.721  68.956  1.00  0.00    -0.040 C  
HETATM   22  C   UNL     1      -6.963   7.469  67.201  1.00  0.00    -0.083 C  
ENDROOT
BRANCH  15  23
HETATM   23  N   UNL     1      -8.224  10.418  67.426  1.00  0.00    -0.117 N  
HETATM   24  H   UNL     1      -8.337  10.168  66.444  1.00  0.00     0.000 HD 
HETATM   25  O   UNL     1      -7.325  11.985  68.885  1.00  0.00    -0.110 OA 
HETATM   26  C   UNL     1      -7.821  11.710  67.786  1.00  0.00    -0.129 C  
BRANCH  26  27
HETATM   27  C   UNL     1      -8.150  12.802  66.751  1.00  0.00     0.105 C  
HETATM   28  C   UNL     1      -9.577  12.566  66.206  1.00  0.00    -0.245 C  
HETATM   29  N   UNL     1     -10.646  13.391  66.822  1.00  0.00    -0.276 NA 
HETATM   30  C   UNL     1     -10.479  14.825  66.463  1.00  0.00    -0.291 C  
HETATM   31  C   UNL     1     -10.761  13.231  68.277  1.00  0.00    -0.252 C  
HETATM   32  C   UNL     1     -11.357  15.828  67.344  1.00  0.00    -0.106 C  
HETATM   33  C   UNL     1     -10.539  16.884  68.009  1.00  0.00    -0.367 A  
HETATM   34  C   UNL     1     -10.703  17.670  69.133  1.00  0.00     0.149 A  
HETATM   35  N   UNL     1      -9.643  18.544  69.191  1.00  0.00    -0.171 NA 
HETATM   36  C   UNL     1      -8.797  18.347  68.122  1.00  0.00    -0.302 A  
HETATM   37  H   UNL     1      -9.503  19.240  69.923  1.00  0.00     0.000 HD 
HETATM   38  C   UNL     1      -7.602  18.940  67.702  1.00  0.00    -0.250 A  
HETATM   39  C   UNL     1      -6.984  18.389  66.564  1.00  0.00    -0.247 A  
HETATM   40  C   UNL     1      -7.459  17.225  65.956  1.00  0.00    -0.232 A  
HETATM   41  C   UNL     1      -8.592  16.598  66.471  1.00  0.00    -0.320 A  
HETATM   42  C   UNL     1      -9.303  17.247  67.462  1.00  0.00    -0.236 A  
HETATM   43  C   UNL     1      -8.938  15.162  66.243  1.00  0.00    -0.274 C  
HETATM   44  C   UNL     1      -8.048  14.281  67.190  1.00  0.00    -0.154 C  
ENDBRANCH  26  27
ENDBRANCH  15  23
TORSDOF 2
ENDMDL
MODEL       22
REMARK 921   NORMALIZED FREE ENERGY PREDICTED BY IDOCK:   -6.77 KCAL/MOL
REMARK 922        TOTAL FREE ENERGY PREDICTED BY IDOCK:   -7.97 KCAL/MOL
REMARK 923 INTER-LIGAND FREE ENERGY PREDICTED BY IDOCK:   -8.47 KCAL/MOL
REMARK 924 INTRA-LIGAND FREE ENERGY PREDICTED BY IDOCK:    0.51 KCAL/MOL
REMARK 927      BINDING AFFINITY PREDICTED BY RF-SCORE:    0.00 PKD
ROOT
HETATM    1  C   UNL     1      -9.592  16.918  67.458  1.00  0.00    -0.245 C  
HETATM    2  C   UNL     1      -8.706  18.117  67.776  1.00  0.00    -0.259 C  
HETATM    3  C   UNL     1      -9.323  19.264  66.915  1.00  0.00    -0.371 C  
HETATM    4  C   UNL     1     -10.347  18.621  65.983  1.00  0.00    -0.399 C  
HETATM    5  N   UNL     1     -10.130  17.205  66.134  1.00  0.00    -0.314 N  
HETATM    6  C   UNL     1     -10.962  16.287  65.509  1.00  0.00    -0.149 C  
HETATM    7  O   UNL     1     -11.637  16.548  64.519  1.00  0.00    -0.567 OA 
HETATM    8  C   UNL     1     -10.711  14.907  66.069  1.00  0.00    -0.323 C  
HETATM    9  C   UNL     1     -11.202  13.734  65.229  1.00  0.00    -0.311 C  
HETATM   10  N   UNL     1     -10.792  14.995  67.687  1.00  0.00    -0.283 N  
HETATM   11  C   UNL     1     -12.703  13.551  65.210  1.00  0.00    -0.481 C  
HETATM   12  C   UNL     1     -10.543  13.590  63.843  1.00  0.00     0.214 C  
HETATM   13  C   UNL     1     -10.794  14.008  68.680  1.00  0.00    -0.258 C  
HETATM   14  O   UNL     1     -11.399  14.089  69.741  1.00  0.00    -0.243 OA 
HETATM   15  C   UNL     1      -9.789  12.956  68.253  1.00  0.00    -0.228 C  
HETATM   16  H   UNL     1      -9.034  14.663  69.675  1.00  0.00     0.000 HD 
HETATM   17  C   UNL     1     -11.061  11.993  67.723  1.00  0.00    -0.303 C  
HETATM   18  O   UNL     1      -8.925  14.106  67.586  1.00  0.00    -0.176 OA 
HETATM   19  O   UNL     1      -9.102  15.557  69.362  1.00  0.00    -0.259 OA 
HETATM   20  C   UNL     1      -9.475  15.393  67.994  1.00  0.00    -0.201 C  
HETATM   21  C   UNL     1     -12.019  11.393  68.798  1.00  0.00    -0.353 C  
HETATM   22  C   UNL     1     -10.831  10.850  66.749  1.00  0.00    -0.283 C  
ENDROOT
BRANCH  15  23
HETATM   23  N   UNL     1      -8.801  12.118  68.896  1.00  0.00    -0.372 N  
HETATM   24  H   UNL     1      -8.941  11.798  69.854  1.00  0.00     0.000 HD 
HETATM   25  O   UNL     1      -7.239  12.362  67.196  1.00  0.00    -0.141 OA 
HETATM   26  C   UNL     1      -7.650  11.749  68.188  1.00  0.00    -0.117 C  
BRANCH  26  27
HETATM   27  C   UNL     1      -6.989  10.442  68.664  1.00  0.00    -0.066 C  
HETATM   28  C   UNL     1      -7.099  10.353  70.202  1.00  0.00    -0.117 C  
HETATM   29  N   UNL     1      -8.206   9.511  70.721  1.00  0.00    -0.288 NA 
HETATM   30  C   UNL     1      -7.968   8.075  70.406  1.00  0.00    -0.103 C  
HETATM   31  C   UNL     1      -9.537   9.927  70.266  1.00  0.00    -0.127 C  
HETATM   32  C   UNL     1      -9.247   7.141  70.609  1.00  0.00    -0.158 C  
HETATM   33  C   UNL     1      -9.599   6.366  69.382  1.00  0.00    -0.152 A  
HETATM   34  C   UNL     1     -10.761   5.794  68.899  1.00  0.00    -0.263 A  
HETATM   35  N   UNL     1     -10.446   5.117  67.746  1.00  0.00    -0.098 NA 
HETATM   36  C   UNL     1      -9.100   5.230  67.473  1.00  0.00    -0.109 A  
HETATM   37  H   UNL     1     -11.114   4.603  67.172  1.00  0.00     0.000 HD 
HETATM   38  C   UNL     1      -8.269   4.753  66.454  1.00  0.00    -0.107 A  
HETATM   39  C   UNL     1      -6.922   5.162  66.489  1.00  0.00    -0.067 A  
HETATM   40  C   UNL     1      -6.460   6.103  67.411  1.00  0.00    -0.046 A  
HETATM   41  C   UNL     1      -7.345   6.641  68.343  1.00  0.00    -0.087 A  
HETATM   42  C   UNL     1      -8.612   6.094  68.430  1.00  0.00    -0.112 A  
HETATM   43  C   UNL     1      -7.136   7.938  69.055  1.00  0.00    -0.070 C  
HETATM   44  C   UNL     1      -7.497   9.107  68.072  1.00  0.00    -0.084 C  
ENDBRANCH  26  27
ENDBRANCH  15  23
TORSDOF 2
ENDMDL
MODEL       23
REMARK 921   NORMALIZED FREE ENERGY PREDICTED BY IDOCK:   -6.75 KCAL/MOL
REMARK 922        TOTAL FREE ENERGY PREDICTED BY IDOCK:   -7.95 KCAL/MOL
REMARK 923 INTER-LIGAND FREE ENERGY PREDICTED BY IDOCK:   -7.65 KCAL/MOL
REMARK 924 INTRA-LIGAND FREE ENERGY PREDICTED BY IDOCK:   -0.30 KCAL/MOL
REMARK 927      BINDING AFFINITY PREDICTED BY RF-SCORE:    0.00 PKD
ROOT
HETATM    1  C   UNL     1     -10.892  13.214  65.831  1.00  0.00    -0.273 C  
HETATM    2  C   UNL     1     -12.233  12.620  65.414  1.00  0.00    -0.517 C  
HETATM    3  C   UNL     1     -12.777  13.648  64.373  1.00  0.00    -0.097 C  
HETATM    4  C   UNL     1     -11.864  14.869  64.431  1.00  0.00    -0.360 C  
HETATM    5  N   UNL     1     -11.036  14.644  65.589  1.00  0.00    -0.328 N  
HETATM    6  C   UNL     1      -9.998  15.510  65.901  1.00  0.00    -0.349 C  
HETATM    7  O   UNL     1      -9.945  16.672  65.516  1.00  0.00    -0.552 OA 
HETATM    8  C   UNL     1      -9.116  14.888  66.958  1.00  0.00    -0.237 C  
HETATM    9  C   UNL     1      -8.201  15.837  67.723  1.00  0.00    -0.154 C  
HETATM   10  N   UNL     1      -8.711  13.396  66.466  1.00  0.00     0.008 N  
HETATM   11  C   UNL     1      -7.029  16.367  66.928  1.00  0.00    -0.247 C  
HETATM   12  C   UNL     1      -8.916  16.913  68.563  1.00  0.00    -0.254 C  
HETATM   13  C   UNL     1      -7.805  12.457  66.971  1.00  0.00    -0.085 C  
HETATM   14  O   UNL     1      -7.166  11.667  66.288  1.00  0.00     0.047 OA 
HETATM   15  C   UNL     1      -7.918  12.507  68.482  1.00  0.00    -0.097 C  
HETATM   16  H   UNL     1      -9.228  10.924  67.348  1.00  0.00     0.000 HD 
HETATM   17  C   UNL     1      -6.516  13.433  68.531  1.00  0.00    -0.086 C  
HETATM   18  O   UNL     1      -9.458  12.846  68.317  1.00  0.00    -0.217 OA 
HETATM   19  O   UNL     1      -9.853  11.248  66.711  1.00  0.00    -0.193 OA 
HETATM   20  C   UNL     1      -9.825  12.659  66.918  1.00  0.00    -0.234 C  
HETATM   21  C   UNL     1      -5.173  12.747  68.133  1.00  0.00    -0.077 C  
HETATM   22  C   UNL     1      -6.162  14.262  69.755  1.00  0.00    -0.139 C  
ENDROOT
BRANCH  15  23
HETATM   23  N   UNL     1      -7.894  11.559  69.575  1.00  0.00    -0.299 N  
HETATM   24  H   UNL     1      -7.998  11.880  70.537  1.00  0.00     0.000 HD 
HETATM   25  O   UNL     1      -7.247   9.775  68.238  1.00  0.00    -0.077 OA 
HETATM   26  C   UNL     1      -7.727  10.197  69.296  1.00  0.00    -0.126 C  
BRANCH  26  27
HETATM   27  C   UNL     1      -8.298   9.244  70.363  1.00  0.00    -0.224 C  
HETATM   28  C   UNL     1      -9.839   9.354  70.363  1.00  0.00    -0.259 C  
HETATM   29  N   UNL     1     -10.561   8.298  69.610  1.00  0.00    -0.229 NA 
HETATM   30  C   UNL     1     -10.408   6.976  70.277  1.00  0.00    -0.203 C  
HETATM   31  C   UNL     1     -10.185   8.211  68.194  1.00  0.00    -0.209 C  
HETATM   32  C   UNL     1     -10.845   5.733  69.374  1.00  0.00    -0.393 C  
HETATM   33  C   UNL     1      -9.763   4.715  69.226  1.00  0.00    -0.266 A  
HETATM   34  C   UNL     1      -9.468   3.748  68.285  1.00  0.00    -0.153 A  
HETATM   35  N   UNL     1      -8.383   3.037  68.742  1.00  0.00    -0.063 NA 
HETATM   36  C   UNL     1      -7.972   3.519  69.966  1.00  0.00    -0.046 A  
HETATM   37  H   UNL     1      -7.944   2.263  68.244  1.00  0.00     0.000 HD 
HETATM   38  C   UNL     1      -6.948   3.176  70.854  1.00  0.00    -0.033 A  
HETATM   39  C   UNL     1      -6.804   3.981  72.000  1.00  0.00    -0.037 A  
HETATM   40  C   UNL     1      -7.554   5.144  72.184  1.00  0.00    -0.098 A  
HETATM   41  C   UNL     1      -8.490   5.514  71.221  1.00  0.00    -0.127 A  
HETATM   42  C   UNL     1      -8.764   4.623  70.201  1.00  0.00    -0.113 A  
HETATM   43  C   UNL     1      -9.012   6.903  71.041  1.00  0.00    -0.151 C  
HETATM   44  C   UNL     1      -7.929   7.745  70.277  1.00  0.00    -0.100 C  
ENDBRANCH  26  27
ENDBRANCH  15  23
TORSDOF 2
ENDMDL
MODEL       24
REMARK 921   NORMALIZED FREE ENERGY PREDICTED BY IDOCK:   -6.61 KCAL/MOL
REMARK 922        TOTAL FREE ENERGY PREDICTED BY IDOCK:   -7.79 KCAL/MOL
REMARK 923 INTER-LIGAND FREE ENERGY PREDICTED BY IDOCK:   -7.72 KCAL/MOL
REMARK 924 INTRA-LIGAND FREE ENERGY PREDICTED BY IDOCK:   -0.07 KCAL/MOL
REMARK 927      BINDING AFFINITY PREDICTED BY RF-SCORE:    0.00 PKD
ROOT
HETATM    1  C   UNL     1     -10.949  13.243  65.716  1.00  0.00    -0.270 C  
HETATM    2  C   UNL     1     -12.338  13.302  65.088  1.00  0.00    -0.516 C  
HETATM    3  C   UNL     1     -12.343  14.676  64.347  1.00  0.00    -0.420 C  
HETATM    4  C   UNL     1     -11.087  15.424  64.783  1.00  0.00    -0.403 C  
HETATM    5  N   UNL     1     -10.562  14.639  65.872  1.00  0.00    -0.298 N  
HETATM    6  C   UNL     1      -9.346  14.961  66.459  1.00  0.00    -0.282 C  
HETATM    7  O   UNL     1      -8.846  16.079  66.413  1.00  0.00    -0.267 OA 
HETATM    8  C   UNL     1      -8.891  13.825  67.344  1.00  0.00    -0.210 C  
HETATM    9  C   UNL     1      -7.828  14.158  68.384  1.00  0.00    -0.143 C  
HETATM   10  N   UNL     1      -8.953  12.454  66.479  1.00  0.00    -0.185 N  
HETATM   11  C   UNL     1      -6.444  14.395  67.823  1.00  0.00    -0.181 C  
HETATM   12  C   UNL     1      -8.247  15.185  69.454  1.00  0.00    -0.197 C  
HETATM   13  C   UNL     1      -8.503  11.156  66.747  1.00  0.00    -0.153 C  
HETATM   14  O   UNL     1      -8.081  10.376  65.903  1.00  0.00    -0.137 OA 
HETATM   15  C   UNL     1      -8.809  10.879  68.206  1.00  0.00    -0.140 C  
HETATM   16  H   UNL     1     -10.402  10.210  66.618  1.00  0.00     0.000 HD 
HETATM   17  C   UNL     1      -7.198  11.186  68.575  1.00  0.00    -0.088 C  
HETATM   18  O   UNL     1     -10.101  11.789  68.068  1.00  0.00    -0.181 OA 
HETATM   19  O   UNL     1     -10.781  10.884  66.066  1.00  0.00    -0.224 OA 
HETATM   20  C   UNL     1     -10.304  12.092  66.657  1.00  0.00    -0.208 C  
HETATM   21  C   UNL     1      -6.127  10.172  68.067  1.00  0.00    -0.052 C  
HETATM   22  C   UNL     1      -6.763  11.506  69.996  1.00  0.00     0.099 C  
ENDROOT
BRANCH  15  23
HETATM   23  N   UNL     1      -9.267   9.756  68.994  1.00  0.00    -0.157 N  
HETATM   24  H   UNL     1      -8.869   8.828  68.849  1.00  0.00     0.000 HD 
HETATM   25  O   UNL     1     -11.029  10.927  69.951  1.00  0.00    -0.257 OA 
HETATM   26  C   UNL     1     -10.263   9.957  69.958  1.00  0.00    -0.271 C  
BRANCH  26  27
HETATM   27  C   UNL     1     -10.262   8.935  71.111  1.00  0.00    -0.336 C  
HETATM   28  C   UNL     1     -11.548   8.083  71.031  1.00  0.00    -0.283 C  
HETATM   29  N   UNL     1     -11.401   6.754  70.386  1.00  0.00    -0.323 NA 
HETATM   30  C   UNL     1     -10.560   5.853  71.222  1.00  0.00    -0.252 C  
HETATM   31  C   UNL     1     -10.893   6.810  69.011  1.00  0.00    -0.249 C  
HETATM   32  C   UNL     1     -10.059   4.539  70.466  1.00  0.00    -0.233 C  
HETATM   33  C   UNL     1      -8.575   4.383  70.496  1.00  0.00    -0.110 A  
HETATM   34  C   UNL     1      -7.654   3.730  69.699  1.00  0.00    -0.052 A  
HETATM   35  N   UNL     1      -6.420   3.864  70.289  1.00  0.00    -0.031 NA 
HETATM   36  C   UNL     1      -6.521   4.585  71.459  1.00  0.00    -0.019 A  
HETATM   37  H   UNL     1      -5.552   3.483  69.913  1.00  0.00     0.000 HD 
HETATM   38  C   UNL     1      -5.604   5.004  72.427  1.00  0.00    -0.009 A  
HETATM   39  C   UNL     1      -6.101   5.812  73.467  1.00  0.00    -0.061 A  
HETATM   40  C   UNL     1      -7.414   6.287  73.468  1.00  0.00    -0.091 A  
HETATM   41  C   UNL     1      -8.270   5.937  72.427  1.00  0.00    -0.110 A  
HETATM   42  C   UNL     1      -7.837   4.992  71.517  1.00  0.00    -0.110 A  
HETATM   43  C   UNL     1      -9.497   6.703  72.049  1.00  0.00    -0.148 C  
HETATM   44  C   UNL     1      -9.060   7.971  71.233  1.00  0.00    -0.168 C  
ENDBRANCH  26  27
ENDBRANCH  15  23
TORSDOF 2
ENDMDL
MODEL       25
REMARK 921   NORMALIZED FREE ENERGY PREDICTED BY IDOCK:   -6.60 KCAL/MOL
REMARK 922        TOTAL FREE ENERGY PREDICTED BY IDOCK:   -7.77 KCAL/MOL
REMARK 923 INTER-LIGAND FREE ENERGY PREDICTED BY IDOCK:   -7.43 KCAL/MOL
REMARK 924 INTRA-LIGAND FREE ENERGY PREDICTED BY IDOCK:   -0.34 KCAL/MOL
REMARK 927      BINDING AFFINITY PREDICTED BY RF-SCORE:    0.00 PKD
ROOT
HETATM    1  C   UNL     1      -6.900  14.100  69.556  1.00  0.00    -0.084 C  
HETATM    2  C   UNL     1      -5.777  13.346  70.261  1.00  0.00    -0.154 C  
HETATM    3  C   UNL     1      -5.141  14.427  71.190  1.00  0.00    -0.130 C  
HETATM    4  C   UNL     1      -5.752  15.770  70.796  1.00  0.00     0.044 C  
HETATM    5  N   UNL     1      -6.473  15.493  69.580  1.00  0.00    -0.154 N  
HETATM    6  C   UNL     1      -7.254  16.469  68.978  1.00  0.00    -0.219 C  
HETATM    7  O   UNL     1      -7.093  17.671  69.156  1.00  0.00    -0.251 OA 
HETATM    8  C   UNL     1      -8.126  15.841  67.917  1.00  0.00    -0.141 C  
HETATM    9  C   UNL     1      -8.718  16.787  66.879  1.00  0.00    -0.242 C  
HETATM   10  N   UNL     1      -8.902  14.580  68.580  1.00  0.00    -0.185 N  
HETATM   11  C   UNL     1      -9.827  17.678  67.391  1.00  0.00    -0.305 C  
HETATM   12  C   UNL     1      -7.694  17.521  65.991  1.00  0.00    -0.237 C  
HETATM   13  C   UNL     1      -9.929  13.757  68.105  1.00  0.00    -0.242 C  
HETATM   14  O   UNL     1     -10.798  13.254  68.805  1.00  0.00    -0.245 OA 
HETATM   15  C   UNL     1      -9.639  13.494  66.640  1.00  0.00    -0.278 C  
HETATM   16  H   UNL     1      -8.845  11.932  68.202  1.00  0.00     0.000 HD 
HETATM   17  C   UNL     1     -10.788  14.650  66.231  1.00  0.00    -0.321 C  
HETATM   18  O   UNL     1      -8.090  13.551  66.978  1.00  0.00    -0.123 OA 
HETATM   19  O   UNL     1      -8.239  12.244  68.864  1.00  0.00     0.020 OA 
HETATM   20  C   UNL     1      -7.933  13.567  68.427  1.00  0.00    -0.142 C  
HETATM   21  C   UNL     1     -12.285  14.329  66.530  1.00  0.00    -0.419 C  
HETATM   22  C   UNL     1     -10.812  15.282  64.849  1.00  0.00    -0.444 C  
ENDROOT
BRANCH  15  23
HETATM   23  N   UNL     1      -9.747  12.378  65.727  1.00  0.00    -0.341 N  
HETATM   24  H   UNL     1      -9.395  12.456  64.773  1.00  0.00     0.000 HD 
HETATM   25  O   UNL     1     -11.093  11.127  67.146  1.00  0.00    -0.282 OA 
HETATM   26  C   UNL     1     -10.341  11.188  66.167  1.00  0.00    -0.250 C  
BRANCH  26  27
HETATM   27  C   UNL     1      -9.894   9.924  65.409  1.00  0.00    -0.384 C  
HETATM   28  C   UNL     1      -8.663  10.266  64.539  1.00  0.00    -0.192 C  
HETATM   29  N   UNL     1      -7.345   9.900  65.116  1.00  0.00    -0.127 NA 
HETATM   30  C   UNL     1      -7.193   8.421  65.187  1.00  0.00    -0.080 C  
HETATM   31  C   UNL     1      -7.073  10.513  66.422  1.00  0.00    -0.128 C  
HETATM   32  C   UNL     1      -5.977   7.931  66.100  1.00  0.00    -0.038 C  
HETATM   33  C   UNL     1      -6.401   6.984  67.172  1.00  0.00    -0.052 A  
HETATM   34  C   UNL     1      -5.889   6.625  68.404  1.00  0.00    -0.021 A  
HETATM   35  N   UNL     1      -6.675   5.615  68.906  1.00  0.00    -0.051 NA 
HETATM   36  C   UNL     1      -7.684   5.305  68.021  1.00  0.00    -0.084 A  
HETATM   37  H   UNL     1      -6.531   5.160  69.807  1.00  0.00     0.000 HD 
HETATM   38  C   UNL     1      -8.737   4.384  68.027  1.00  0.00    -0.117 A  
HETATM   39  C   UNL     1      -9.626   4.428  66.937  1.00  0.00    -0.219 A  
HETATM   40  C   UNL     1      -9.549   5.424  65.961  1.00  0.00    -0.149 A  
HETATM   41  C   UNL     1      -8.552   6.392  66.048  1.00  0.00    -0.149 A  
HETATM   42  C   UNL     1      -7.569   6.231  67.006  1.00  0.00    -0.095 A  
HETATM   43  C   UNL     1      -8.614   7.730  65.386  1.00  0.00    -0.092 C  
HETATM   44  C   UNL     1      -9.557   8.659  66.231  1.00  0.00    -0.322 C  
ENDBRANCH  26  27
ENDBRANCH  15  23
TORSDOF 2
ENDMDL
MODEL       26
REMARK 921   NORMALIZED FREE ENERGY PREDICTED BY IDOCK:   -6.58 KCAL/MOL
REMARK 922        TOTAL FREE ENERGY PREDICTED BY IDOCK:   -7.75 KCAL/MOL
REMARK 923 INTER-LIGAND FREE ENERGY PREDICTED BY IDOCK:   -7.35 KCAL/MOL
REMARK 924 INTRA-LIGAND FREE ENERGY PREDICTED BY IDOCK:   -0.41 KCAL/MOL
REMARK 927      BINDING AFFINITY PREDICTED BY RF-SCORE:    0.00 PKD
ROOT
HETATM    1  C   UNL     1     -10.658  14.137  68.631  1.00  0.00    -0.249 C  
HETATM    2  C   UNL     1     -12.031  14.533  69.163  1.00  0.00    -0.344 C  
HETATM    3  C   UNL     1     -11.910  16.075  69.368  1.00  0.00    -0.247 C  
HETATM    4  C   UNL     1     -10.438  16.436  69.187  1.00  0.00    -0.303 C  
HETATM    5  N   UNL     1      -9.760  15.165  69.140  1.00  0.00    -0.225 N  
HETATM    6  C   UNL     1      -8.400  15.094  68.875  1.00  0.00    -0.190 C  
HETATM    7  O   UNL     1      -7.624  16.024  69.058  1.00  0.00    -0.183 OA 
HETATM    8  C   UNL     1      -8.013  13.663  68.583  1.00  0.00    -0.083 C  
HETATM    9  C   UNL     1      -6.531  13.325  68.694  1.00  0.00    -0.087 C  
HETATM   10  N   UNL     1      -9.018  13.089  67.447  1.00  0.00    -0.194 N  
HETATM   11  C   UNL     1      -5.668  13.881  67.584  1.00  0.00    -0.009 C  
HETATM   12  C   UNL     1      -5.917  13.492  70.098  1.00  0.00    -0.145 C  
HETATM   13  C   UNL     1      -9.015  11.900  66.708  1.00  0.00    -0.196 C  
HETATM   14  O   UNL     1      -9.417  11.795  65.556  1.00  0.00    -0.227 OA 
HETATM   15  C   UNL     1      -8.596  10.795  67.657  1.00  0.00    -0.123 C  
HETATM   16  H   UNL     1     -10.896  11.183  67.391  1.00  0.00     0.000 HD 
HETATM   17  C   UNL     1      -7.050  10.850  66.999  1.00  0.00    -0.109 C  
HETATM   18  O   UNL     1      -9.324  11.577  68.828  1.00  0.00    -0.169 OA 
HETATM   19  O   UNL     1     -11.223  12.046  67.617  1.00  0.00    -0.245 OA 
HETATM   20  C   UNL     1     -10.101  12.665  68.245  1.00  0.00    -0.233 C  
HETATM   21  C   UNL     1      -6.866  10.369  65.527  1.00  0.00    -0.125 C  
HETATM   22  C   UNL     1      -5.859  10.260  67.736  1.00  0.00    -0.045 C  
ENDROOT
BRANCH  15  23
HETATM   23  N   UNL     1      -8.957   9.414  67.895  1.00  0.00    -0.124 N  
HETATM   24  H   UNL     1      -8.509   8.885  68.643  1.00  0.00     0.000 HD 
HETATM   25  O   UNL     1     -10.248   9.243  65.972  1.00  0.00    -0.269 OA 
HETATM   26  C   UNL     1      -9.930   8.812  67.087  1.00  0.00    -0.230 C  
BRANCH  26  27
HETATM   27  C   UNL     1     -10.671   7.629  67.739  1.00  0.00    -0.215 C  
HETATM   28  C   UNL     1     -10.613   6.413  66.788  1.00  0.00    -0.258 C  
HETATM   29  N   UNL     1      -9.566   5.405  67.094  1.00  0.00    -0.129 NA 
HETATM   30  C   UNL     1      -9.866   4.705  68.373  1.00  0.00    -0.102 C  
HETATM   31  C   UNL     1      -8.202   5.946  67.106  1.00  0.00    -0.105 C  
HETATM   32  C   UNL     1      -8.641   3.864  68.960  1.00  0.00    -0.112 C  
HETATM   33  C   UNL     1      -8.291   4.250  70.358  1.00  0.00    -0.081 A  
HETATM   34  C   UNL     1      -7.144   4.168  71.126  1.00  0.00    -0.036 A  
HETATM   35  N   UNL     1      -7.457   4.601  72.392  1.00  0.00    -0.081 NA 
HETATM   36  C   UNL     1      -8.786   4.956  72.466  1.00  0.00    -0.122 A  
HETATM   37  H   UNL     1      -6.798   4.653  73.169  1.00  0.00     0.000 HD 
HETATM   38  C   UNL     1      -9.609   5.450  73.484  1.00  0.00    -0.141 A  
HETATM   39  C   UNL     1     -10.933   5.770  73.132  1.00  0.00    -0.309 A  
HETATM   40  C   UNL     1     -11.376   5.728  71.808  1.00  0.00    -0.240 A  
HETATM   41  C   UNL     1     -10.495   5.336  70.804  1.00  0.00    -0.298 A  
HETATM   42  C   UNL     1      -9.261   4.839  71.176  1.00  0.00    -0.192 A  
HETATM   43  C   UNL     1     -10.661   5.672  69.357  1.00  0.00    -0.374 C  
HETATM   44  C   UNL     1     -10.211   7.161  69.139  1.00  0.00    -0.196 C  
ENDBRANCH  26  27
ENDBRANCH  15  23
TORSDOF 2
ENDMDL
MODEL       27
REMARK 921   NORMALIZED FREE ENERGY PREDICTED BY IDOCK:   -6.57 KCAL/MOL
REMARK 922        TOTAL FREE ENERGY PREDICTED BY IDOCK:   -7.74 KCAL/MOL
REMARK 923 INTER-LIGAND FREE ENERGY PREDICTED BY IDOCK:   -7.89 KCAL/MOL
REMARK 924 INTRA-LIGAND FREE ENERGY PREDICTED BY IDOCK:    0.16 KCAL/MOL
REMARK 927      BINDING AFFINITY PREDICTED BY RF-SCORE:    0.00 PKD
ROOT
HETATM    1  C   UNL     1      -7.138   8.332  72.217  1.00  0.00    -0.095 C  
HETATM    2  C   UNL     1      -5.969   8.483  73.184  1.00  0.00    -0.097 C  
HETATM    3  C   UNL     1      -6.332   7.507  74.347  1.00  0.00    -0.085 C  
HETATM    4  C   UNL     1      -7.769   7.048  74.114  1.00  0.00    -0.108 C  
HETATM    5  N   UNL     1      -8.249   7.899  73.054  1.00  0.00    -0.141 N  
HETATM    6  C   UNL     1      -9.504   7.700  72.496  1.00  0.00    -0.169 C  
HETATM    7  O   UNL     1     -10.417   7.117  73.069  1.00  0.00    -0.234 OA 
HETATM    8  C   UNL     1      -9.631   8.509  71.227  1.00  0.00    -0.203 C  
HETATM    9  C   UNL     1     -11.046   8.756  70.719  1.00  0.00    -0.306 C  
HETATM   10  N   UNL     1      -8.346   8.187  70.290  1.00  0.00    -0.122 N  
HETATM   11  C   UNL     1     -11.726   7.545  70.121  1.00  0.00     0.029 C  
HETATM   12  C   UNL     1     -11.953   9.576  71.657  1.00  0.00    -0.474 C  
HETATM   13  C   UNL     1      -8.040   8.533  68.969  1.00  0.00    -0.115 C  
HETATM   14  O   UNL     1      -7.398   7.832  68.196  1.00  0.00    -0.099 OA 
HETATM   15  C   UNL     1      -8.496   9.965  68.773  1.00  0.00    -0.122 C  
HETATM   16  H   UNL     1      -6.263   9.615  69.405  1.00  0.00     0.000 HD 
HETATM   17  C   UNL     1      -9.866   9.393  67.985  1.00  0.00    -0.191 C  
HETATM   18  O   UNL     1      -8.135  10.247  70.291  1.00  0.00    -0.090 OA 
HETATM   19  O   UNL     1      -6.106   9.166  70.227  1.00  0.00    -0.036 OA 
HETATM   20  C   UNL     1      -7.405   9.098  70.814  1.00  0.00    -0.114 C  
HETATM   21  C   UNL     1      -9.678   8.713  66.594  1.00  0.00    -0.315 C  
HETATM   22  C   UNL     1     -11.096  10.269  67.807  1.00  0.00    -0.335 C  
ENDROOT
BRANCH  15  23
HETATM   23  N   UNL     1      -8.014  11.142  68.085  1.00  0.00    -0.119 N  
HETATM   24  H   UNL     1      -7.190  11.087  67.486  1.00  0.00     0.000 HD 
HETATM   25  O   UNL     1      -9.445  12.590  69.200  1.00  0.00     0.312 OA 
HETATM   26  C   UNL     1      -8.690  12.357  68.249  1.00  0.00    -0.175 C  
BRANCH  26  27
HETATM   27  C   UNL     1      -8.521  13.354  67.087  1.00  0.00    -0.179 C  
HETATM   28  C   UNL     1      -9.825  13.391  66.261  1.00  0.00    -0.290 C  
HETATM   29  N   UNL     1     -10.747  14.516  66.562  1.00  0.00    -0.307 NA 
HETATM   30  C   UNL     1     -10.151  15.813  66.140  1.00  0.00    -0.318 C  
HETATM   31  C   UNL     1     -11.180  14.575  67.963  1.00  0.00    -0.292 C  
HETATM   32  C   UNL     1     -10.897  17.097  66.728  1.00  0.00     0.022 C  
HETATM   33  C   UNL     1      -9.981  18.009  67.475  1.00  0.00    -0.330 A  
HETATM   34  C   UNL     1     -10.154  18.949  68.473  1.00  0.00    -0.402 A  
HETATM   35  N   UNL     1      -8.939  19.550  68.697  1.00  0.00    -0.359 NA 
HETATM   36  C   UNL     1      -7.979  19.024  67.859  1.00  0.00    -0.277 A  
HETATM   37  H   UNL     1      -8.770  20.282  69.387  1.00  0.00     0.000 HD 
HETATM   38  C   UNL     1      -6.615  19.263  67.669  1.00  0.00    -0.228 A  
HETATM   39  C   UNL     1      -5.948  18.441  66.741  1.00  0.00    -0.174 A  
HETATM   40  C   UNL     1      -6.578  17.353  66.133  1.00  0.00    -0.249 A  
HETATM   41  C   UNL     1      -7.911  17.080  66.431  1.00  0.00    -0.342 A  
HETATM   42  C   UNL     1      -8.612  17.999  67.188  1.00  0.00    -0.244 A  
HETATM   43  C   UNL     1      -8.563  15.748  66.242  1.00  0.00    -0.307 C  
HETATM   44  C   UNL     1      -8.130  14.811  67.425  1.00  0.00    -0.220 C  
ENDBRANCH  26  27
ENDBRANCH  15  23
TORSDOF 2
ENDMDL
MODEL       28
REMARK 921   NORMALIZED FREE ENERGY PREDICTED BY IDOCK:   -6.56 KCAL/MOL
REMARK 922        TOTAL FREE ENERGY PREDICTED BY IDOCK:   -7.73 KCAL/MOL
REMARK 923 INTER-LIGAND FREE ENERGY PREDICTED BY IDOCK:   -7.29 KCAL/MOL
REMARK 924 INTRA-LIGAND FREE ENERGY PREDICTED BY IDOCK:   -0.44 KCAL/MOL
REMARK 927      BINDING AFFINITY PREDICTED BY RF-SCORE:    0.00 PKD
ROOT
HETATM    1  C   UNL     1     -12.074  10.852  70.287  1.00  0.00    -0.355 C  
HETATM    2  C   UNL     1     -12.187   9.574  71.111  1.00  0.00    -0.421 C  
HETATM    3  C   UNL     1     -13.306   9.907  72.146  1.00  0.00    -0.498 C  
HETATM    4  C   UNL     1     -13.595  11.402  72.028  1.00  0.00    -0.024 C  
HETATM    5  N   UNL     1     -12.543  11.903  71.180  1.00  0.00    -0.348 N  
HETATM    6  C   UNL     1     -12.538  13.226  70.759  1.00  0.00    -0.280 C  
HETATM    7  O   UNL     1     -13.127  14.126  71.346  1.00  0.00    -0.329 OA 
HETATM    8  C   UNL     1     -11.522  13.406  69.656  1.00  0.00    -0.207 C  
HETATM    9  C   UNL     1     -11.074  14.834  69.374  1.00  0.00    -0.302 C  
HETATM   10  N   UNL     1     -11.794  12.273  68.528  1.00  0.00    -0.325 N  
HETATM   11  C   UNL     1     -12.106  15.700  68.687  1.00  0.00    -0.067 C  
HETATM   12  C   UNL     1     -10.345  15.542  70.533  1.00  0.00    -0.036 C  
HETATM   13  C   UNL     1     -11.263  12.079  67.247  1.00  0.00    -0.311 C  
HETATM   14  O   UNL     1     -11.879  11.604  66.302  1.00  0.00    -0.437 OA 
HETATM   15  C   UNL     1      -9.784  12.402  67.333  1.00  0.00    -0.193 C  
HETATM   16  H   UNL     1     -10.424  10.162  67.619  1.00  0.00     0.000 HD 
HETATM   17  C   UNL     1     -10.097  13.903  66.644  1.00  0.00    -0.273 C  
HETATM   18  O   UNL     1      -9.789  11.848  68.819  1.00  0.00    -0.169 OA 
HETATM   19  O   UNL     1     -11.015   9.963  68.336  1.00  0.00    -0.231 OA 
HETATM   20  C   UNL     1     -11.066  11.189  69.063  1.00  0.00    -0.242 C  
HETATM   21  C   UNL     1     -10.552  13.941  65.153  1.00  0.00    -0.391 C  
HETATM   22  C   UNL     1      -9.102  15.045  66.759  1.00  0.00    -0.287 C  
ENDROOT
BRANCH  15  23
HETATM   23  N   UNL     1      -8.555  11.877  66.779  1.00  0.00    -0.185 N  
HETATM   24  H   UNL     1      -7.662  12.321  66.993  1.00  0.00     0.000 HD 
HETATM   25  O   UNL     1      -9.631  10.385  65.362  1.00  0.00    -0.208 OA 
HETATM   26  C   UNL     1      -8.605  10.752  65.946  1.00  0.00    -0.179 C  
BRANCH  26  27
HETATM   27  C   UNL     1      -7.307   9.923  65.900  1.00  0.00    -0.108 C  
HETATM   28  C   UNL     1      -6.411  10.324  67.093  1.00  0.00    -0.067 C  
HETATM   29  N   UNL     1      -6.469   9.425  68.273  1.00  0.00    -0.054 NA 
HETATM   30  C   UNL     1      -5.876   8.098  67.953  1.00  0.00    -0.042 C  
HETATM   31  C   UNL     1      -7.813   9.270  68.840  1.00  0.00    -0.087 C  
HETATM   32  C   UNL     1      -6.200   6.961  69.028  1.00  0.00    -0.027 C  
HETATM   33  C   UNL     1      -6.840   5.757  68.423  1.00  0.00    -0.063 A  
HETATM   34  C   UNL     1      -7.658   4.751  68.904  1.00  0.00    -0.068 A  
HETATM   35  N   UNL     1      -7.851   3.848  67.886  1.00  0.00    -0.074 NA 
HETATM   36  C   UNL     1      -7.169   4.241  66.756  1.00  0.00    -0.072 A  
HETATM   37  H   UNL     1      -8.420   3.005  67.958  1.00  0.00     0.000 HD 
HETATM   38  C   UNL     1      -7.023   3.709  65.471  1.00  0.00    -0.061 A  
HETATM   39  C   UNL     1      -6.283   4.470  64.547  1.00  0.00    -0.030 A  
HETATM   40  C   UNL     1      -5.825   5.755  64.848  1.00  0.00    -0.024 A  
HETATM   41  C   UNL     1      -6.085   6.297  66.105  1.00  0.00    -0.033 A  
HETATM   42  C   UNL     1      -6.639   5.475  67.068  1.00  0.00    -0.056 A  
HETATM   43  C   UNL     1      -6.079   7.760  66.411  1.00  0.00    -0.045 C  
HETATM   44  C   UNL     1      -7.424   8.382  65.890  1.00  0.00    -0.081 C  
ENDBRANCH  26  27
ENDBRANCH  15  23
TORSDOF 2
ENDMDL
MODEL       29
REMARK 921   NORMALIZED FREE ENERGY PREDICTED BY IDOCK:   -6.50 KCAL/MOL
REMARK 922        TOTAL FREE ENERGY PREDICTED BY IDOCK:   -7.66 KCAL/MOL
REMARK 923 INTER-LIGAND FREE ENERGY PREDICTED BY IDOCK:   -7.49 KCAL/MOL
REMARK 924 INTRA-LIGAND FREE ENERGY PREDICTED BY IDOCK:   -0.17 KCAL/MOL
REMARK 927      BINDING AFFINITY PREDICTED BY RF-SCORE:    0.00 PKD
ROOT
HETATM    1  C   UNL     1      -9.852   4.343  72.230  1.00  0.00    -0.172 C  
HETATM    2  C   UNL     1     -10.891   4.434  73.343  1.00  0.00    -0.347 C  
HETATM    3  C   UNL     1     -11.199   2.941  73.676  1.00  0.00    -0.305 C  
HETATM    4  C   UNL     1     -10.529   2.094  72.597  1.00  0.00    -0.144 C  
HETATM    5  N   UNL     1     -10.102   3.050  71.605  1.00  0.00    -0.083 N  
HETATM    6  C   UNL     1      -9.350   2.650  70.510  1.00  0.00    -0.142 C  
HETATM    7  O   UNL     1      -9.332   1.502  70.082  1.00  0.00    -0.091 OA 
HETATM    8  C   UNL     1      -8.785   3.864  69.810  1.00  0.00    -0.076 C  
HETATM    9  C   UNL     1      -8.308   3.659  68.377  1.00  0.00    -0.096 C  
HETATM   10  N   UNL     1      -8.044   4.788  70.917  1.00  0.00    -0.081 N  
HETATM   11  C   UNL     1      -7.024   2.873  68.242  1.00  0.00    -0.049 C  
HETATM   12  C   UNL     1      -9.397   3.244  67.369  1.00  0.00    -0.242 C  
HETATM   13  C   UNL     1      -7.234   5.924  70.799  1.00  0.00    -0.080 C  
HETATM   14  O   UNL     1      -6.307   6.199  71.549  1.00  0.00    -0.046 OA 
HETATM   15  C   UNL     1      -7.840   6.783  69.707  1.00  0.00    -0.115 C  
HETATM   16  H   UNL     1      -8.481   7.230  71.920  1.00  0.00     0.000 HD 
HETATM   17  C   UNL     1      -6.670   6.212  68.644  1.00  0.00    -0.061 C  
HETATM   18  O   UNL     1      -9.273   6.267  70.150  1.00  0.00    -0.154 OA 
HETATM   19  O   UNL     1      -8.902   6.530  72.404  1.00  0.00    -0.133 OA 
HETATM   20  C   UNL     1      -9.135   5.539  71.405  1.00  0.00    -0.143 C  
HETATM   21  C   UNL     1      -5.191   6.644  68.885  1.00  0.00    -0.012 C  
HETATM   22  C   UNL     1      -6.850   6.326  67.139  1.00  0.00    -0.066 C  
ENDROOT
BRANCH  15  23
HETATM   23  N   UNL     1      -8.046   8.194  69.466  1.00  0.00    -0.117 N  
HETATM   24  H   UNL     1      -7.574   8.890  70.043  1.00  0.00     0.000 HD 
HETATM   25  O   UNL     1      -9.763   7.858  67.940  1.00  0.00    -0.147 OA 
HETATM   26  C   UNL     1      -8.901   8.595  68.432  1.00  0.00    -0.142 C  
BRANCH  26  27
HETATM   27  C   UNL     1      -8.612   9.996  67.860  1.00  0.00    -0.121 C  
HETATM   28  C   UNL     1      -7.551   9.875  66.744  1.00  0.00    -0.095 C  
HETATM   29  N   UNL     1      -8.076   9.856  65.355  1.00  0.00    -0.130 NA 
HETATM   30  C   UNL     1      -8.664  11.176  64.996  1.00  0.00     0.044 C  
HETATM   31  C   UNL     1      -9.031   8.774  65.093  1.00  0.00    -0.100 C  
HETATM   32  C   UNL     1      -9.555  11.155  63.671  1.00  0.00    -0.316 C  
HETATM   33  C   UNL     1     -10.938  11.671  63.894  1.00  0.00    -0.478 A  
HETATM   34  C   UNL     1     -12.154  11.485  63.263  1.00  0.00     0.034 A  
HETATM   35  N   UNL     1     -13.070  12.310  63.870  1.00  0.00    -0.761 NA 
HETATM   36  C   UNL     1     -12.473  13.036  64.878  1.00  0.00    -0.455 A  
HETATM   37  H   UNL     1     -14.054  12.376  63.610  1.00  0.00     0.000 HD 
HETATM   38  C   UNL     1     -12.927  13.993  65.790  1.00  0.00    -0.297 A  
HETATM   39  C   UNL     1     -11.998  14.456  66.741  1.00  0.00    -0.423 A  
HETATM   40  C   UNL     1     -10.725  13.897  66.862  1.00  0.00    -0.284 A  
HETATM   41  C   UNL     1     -10.346  12.866  66.005  1.00  0.00    -0.294 A  
HETATM   42  C   UNL     1     -11.184  12.550  64.953  1.00  0.00    -0.344 A  
HETATM   43  C   UNL     1      -9.252  11.888  66.293  1.00  0.00    -0.218 C  
HETATM   44  C   UNL     1      -9.798  10.817  67.303  1.00  0.00    -0.208 C  
ENDBRANCH  26  27
ENDBRANCH  15  23
TORSDOF 2
ENDMDL
MODEL       30
REMARK 921   NORMALIZED FREE ENERGY PREDICTED BY IDOCK:   -6.47 KCAL/MOL
REMARK 922        TOTAL FREE ENERGY PREDICTED BY IDOCK:   -7.62 KCAL/MOL
REMARK 923 INTER-LIGAND FREE ENERGY PREDICTED BY IDOCK:   -7.74 KCAL/MOL
REMARK 924 INTRA-LIGAND FREE ENERGY PREDICTED BY IDOCK:    0.12 KCAL/MOL
REMARK 927      BINDING AFFINITY PREDICTED BY RF-SCORE:    0.00 PKD
ROOT
HETATM    1  C   UNL     1      -9.616   3.840  69.025  1.00  0.00    -0.120 C  
HETATM    2  C   UNL     1      -9.266   3.114  67.730  1.00  0.00    -0.241 C  
HETATM    3  C   UNL     1      -9.358   1.606  68.123  1.00  0.00    -0.234 C  
HETATM    4  C   UNL     1      -9.506   1.547  69.641  1.00  0.00    -0.062 C  
HETATM    5  N   UNL     1      -9.258   2.898  70.078  1.00  0.00    -0.128 N  
HETATM    6  C   UNL     1      -9.411   3.255  71.410  1.00  0.00    -0.151 C  
HETATM    7  O   UNL     1      -9.362   2.454  72.336  1.00  0.00    -0.082 OA 
HETATM    8  C   UNL     1      -9.392   4.760  71.540  1.00  0.00    -0.147 C  
HETATM    9  C   UNL     1      -9.116   5.316  72.932  1.00  0.00    -0.125 C  
HETATM   10  N   UNL     1     -10.459   5.373  70.484  1.00  0.00    -0.271 N  
HETATM   11  C   UNL     1     -10.253   5.156  73.916  1.00  0.00    -0.256 C  
HETATM   12  C   UNL     1      -7.734   4.974  73.521  1.00  0.00    -0.096 C  
HETATM   13  C   UNL     1     -10.950   6.670  70.294  1.00  0.00    -0.303 C  
HETATM   14  O   UNL     1     -12.083   6.938  69.917  1.00  0.00    -0.109 OA 
HETATM   15  C   UNL     1      -9.777   7.613  70.475  1.00  0.00    -0.182 C  
HETATM   16  H   UNL     1     -10.268   6.898  68.294  1.00  0.00     0.000 HD 
HETATM   17  C   UNL     1     -10.327   7.959  72.025  1.00  0.00    -0.283 C  
HETATM   18  O   UNL     1      -8.833   6.495  69.864  1.00  0.00    -0.141 OA 
HETATM   19  O   UNL     1     -10.238   5.965  68.122  1.00  0.00    -0.152 OA 
HETATM   20  C   UNL     1      -9.669   5.433  69.317  1.00  0.00    -0.164 C  
HETATM   21  C   UNL     1     -11.661   8.756  72.166  1.00  0.00    -0.434 C  
HETATM   22  C   UNL     1      -9.410   8.582  73.066  1.00  0.00    -0.139 C  
ENDROOT
BRANCH  15  23
HETATM   23  N   UNL     1      -9.299   8.833  69.862  1.00  0.00    -0.158 N  
HETATM   24  H   UNL     1      -8.409   9.240  70.149  1.00  0.00     0.000 HD 
HETATM   25  O   UNL     1     -11.282   9.239  68.723  1.00  0.00     0.020 OA 
HETATM   26  C   UNL     1     -10.072   9.449  68.869  1.00  0.00    -0.190 C  
BRANCH  26  27
HETATM   27  C   UNL     1      -9.278  10.328  67.884  1.00  0.00    -0.143 C  
HETATM   28  C   UNL     1     -10.051  10.411  66.549  1.00  0.00    -0.228 C  
HETATM   29  N   UNL     1     -10.871  11.633  66.354  1.00  0.00    -0.277 NA 
HETATM   30  C   UNL     1     -10.002  12.833  66.212  1.00  0.00    -0.264 C  
HETATM   31  C   UNL     1     -11.883  11.846  67.395  1.00  0.00    -0.168 C  
HETATM   32  C   UNL     1     -10.778  14.223  66.347  1.00  0.00    -0.297 C  
HETATM   33  C   UNL     1     -10.203  15.109  67.401  1.00  0.00    -0.235 A  
HETATM   34  C   UNL     1     -10.700  16.140  68.175  1.00  0.00    -0.315 A  
HETATM   35  N   UNL     1      -9.658  16.648  68.914  1.00  0.00    -0.248 NA 
HETATM   36  C   UNL     1      -8.491  15.972  68.630  1.00  0.00    -0.208 A  
HETATM   37  H   UNL     1      -9.738  17.417  69.579  1.00  0.00     0.000 HD 
HETATM   38  C   UNL     1      -7.172  16.073  69.083  1.00  0.00    -0.208 A  
HETATM   39  C   UNL     1      -6.257  15.122  68.593  1.00  0.00    -0.089 A  
HETATM   40  C   UNL     1      -6.664  14.047  67.800  1.00  0.00    -0.188 A  
HETATM   41  C   UNL     1      -8.008  13.918  67.459  1.00  0.00    -0.190 A  
HETATM   42  C   UNL     1      -8.865  14.955  67.778  1.00  0.00    -0.173 A  
HETATM   43  C   UNL     1      -8.653  12.638  67.035  1.00  0.00    -0.181 C  
HETATM   44  C   UNL     1      -8.917  11.768  68.315  1.00  0.00    -0.180 C  
ENDBRANCH  26  27
ENDBRANCH  15  23
TORSDOF 2
ENDMDL
MODEL       31
REMARK 921   NORMALIZED FREE ENERGY PREDICTED BY IDOCK:   -6.40 KCAL/MOL
REMARK 922        TOTAL FREE ENERGY PREDICTED BY IDOCK:   -7.55 KCAL/MOL
REMARK 923 INTER-LIGAND FREE ENERGY PREDICTED BY IDOCK:   -7.67 KCAL/MOL
REMARK 924 INTRA-LIGAND FREE ENERGY PREDICTED BY IDOCK:    0.13 KCAL/MOL
REMARK 927      BINDING AFFINITY PREDICTED BY RF-SCORE:    0.00 PKD
ROOT
HETATM    1  C   UNL     1      -9.242   4.204  68.572  1.00  0.00    -0.145 C  
HETATM    2  C   UNL     1      -9.480   3.040  67.616  1.00  0.00    -0.187 C  
HETATM    3  C   UNL     1      -8.962   1.803  68.413  1.00  0.00    -0.168 C  
HETATM    4  C   UNL     1      -8.243   2.336  69.650  1.00  0.00    -0.044 C  
HETATM    5  N   UNL     1      -8.147   3.756  69.424  1.00  0.00    -0.054 N  
HETATM    6  C   UNL     1      -7.638   4.599  70.402  1.00  0.00    -0.054 C  
HETATM    7  O   UNL     1      -6.895   4.224  71.301  1.00  0.00    -0.033 OA 
HETATM    8  C   UNL     1      -7.930   6.036  70.038  1.00  0.00    -0.109 C  
HETATM    9  C   UNL     1      -7.095   7.097  70.744  1.00  0.00    -0.066 C  
HETATM   10  N   UNL     1      -9.513   6.162  69.705  1.00  0.00    -0.149 N  
HETATM   11  C   UNL     1      -7.433   7.303  72.203  1.00  0.00    -0.080 C  
HETATM   12  C   UNL     1      -5.582   7.047  70.461  1.00  0.00    -0.024 C  
HETATM   13  C   UNL     1     -10.335   7.270  69.470  1.00  0.00    -0.225 C  
HETATM   14  O   UNL     1     -11.516   7.340  69.785  1.00  0.00    -0.132 OA 
HETATM   15  C   UNL     1      -9.534   8.239  68.624  1.00  0.00    -0.147 C  
HETATM   16  H   UNL     1     -10.930   6.719  67.505  1.00  0.00     0.000 HD 
HETATM   17  C   UNL     1      -9.222   9.147  70.003  1.00  0.00    -0.209 C  
HETATM   18  O   UNL     1      -8.826   6.996  67.939  1.00  0.00    -0.125 OA 
HETATM   19  O   UNL     1     -10.764   5.793  67.637  1.00  0.00    -0.251 OA 
HETATM   20  C   UNL     1      -9.526   5.783  68.347  1.00  0.00    -0.122 C  
HETATM   21  C   UNL     1     -10.416   9.900  70.667  1.00  0.00    -0.301 C  
HETATM   22  C   UNL     1      -8.079  10.149  70.045  1.00  0.00    -0.082 C  
ENDROOT
BRANCH  15  23
HETATM   23  N   UNL     1      -9.789   9.136  67.518  1.00  0.00    -0.167 N  
HETATM   24  H   UNL     1     -10.746   9.330  67.223  1.00  0.00     0.000 HD 
HETATM   25  O   UNL     1      -7.555   9.293  66.906  1.00  0.00    -0.090 OA 
HETATM   26  C   UNL     1      -8.709   9.734  66.858  1.00  0.00    -0.135 C  
BRANCH  26  27
HETATM   27  C   UNL     1      -9.038  11.065  66.154  1.00  0.00    -0.208 C  
HETATM   28  C   UNL     1     -10.462  10.981  65.560  1.00  0.00    -0.238 C  
HETATM   29  N   UNL     1     -11.536  11.608  66.371  1.00  0.00    -0.446 NA 
HETATM   30  C   UNL     1     -11.371  13.087  66.412  1.00  0.00    -0.317 C  
HETATM   31  C   UNL     1     -11.655  11.062  67.728  1.00  0.00    -0.194 C  
HETATM   32  C   UNL     1     -12.255  13.813  67.527  1.00  0.00    -0.262 C  
HETATM   33  C   UNL     1     -11.442  14.652  68.455  1.00  0.00    -0.327 A  
HETATM   34  C   UNL     1     -11.612  15.106  69.750  1.00  0.00    -0.311 A  
HETATM   35  N   UNL     1     -10.555  15.934  70.045  1.00  0.00    -0.315 NA 
HETATM   36  C   UNL     1      -9.704  16.033  68.966  1.00  0.00    -0.244 A  
HETATM   37  H   UNL     1     -10.420  16.407  70.938  1.00  0.00     0.000 HD 
HETATM   38  C   UNL     1      -8.510  16.720  68.726  1.00  0.00    -0.253 A  
HETATM   39  C   UNL     1      -7.886  16.497  67.484  1.00  0.00    -0.175 A  
HETATM   40  C   UNL     1      -8.357  15.539  66.584  1.00  0.00    -0.286 A  
HETATM   41  C   UNL     1      -9.489  14.795  66.905  1.00  0.00    -0.253 A  
HETATM   42  C   UNL     1     -10.206  15.151  68.032  1.00  0.00    -0.230 A  
HETATM   43  C   UNL     1      -9.830  13.473  66.298  1.00  0.00    -0.306 C  
HETATM   44  C   UNL     1      -8.941  12.370  66.975  1.00  0.00    -0.209 C  
ENDBRANCH  26  27
ENDBRANCH  15  23
TORSDOF 2
ENDMDL
MODEL       32
REMARK 921   NORMALIZED FREE ENERGY PREDICTED BY IDOCK:   -6.39 KCAL/MOL
REMARK 922        TOTAL FREE ENERGY PREDICTED BY IDOCK:   -7.54 KCAL/MOL
REMARK 923 INTER-LIGAND FREE ENERGY PREDICTED BY IDOCK:   -7.54 KCAL/MOL
REMARK 924 INTRA-LIGAND FREE ENERGY PREDICTED BY IDOCK:    0.00 KCAL/MOL
REMARK 927      BINDING AFFINITY PREDICTED BY RF-SCORE:    0.00 PKD
ROOT
HETATM    1  C   UNL     1      -6.174   6.927  71.800  1.00  0.00    -0.038 C  
HETATM    2  C   UNL     1      -5.151   7.404  72.826  1.00  0.00    -0.037 C  
HETATM    3  C   UNL     1      -5.269   6.353  73.973  1.00  0.00    -0.041 C  
HETATM    4  C   UNL     1      -6.494   5.495  73.668  1.00  0.00    -0.072 C  
HETATM    5  N   UNL     1      -7.149   6.178  72.581  1.00  0.00    -0.079 N  
HETATM    6  C   UNL     1      -8.260   5.624  71.960  1.00  0.00    -0.115 C  
HETATM    7  O   UNL     1      -8.989   4.793  72.488  1.00  0.00    -0.123 OA 
HETATM    8  C   UNL     1      -8.555   6.374  70.682  1.00  0.00    -0.139 C  
HETATM    9  C   UNL     1      -9.952   6.200  70.101  1.00  0.00    -0.218 C  
HETATM   10  N   UNL     1      -7.186   6.454  69.815  1.00  0.00    -0.072 N  
HETATM   11  C   UNL     1     -10.215   4.849  69.475  1.00  0.00    -0.247 C  
HETATM   12  C   UNL     1     -11.107   6.707  70.987  1.00  0.00    -0.330 C  
HETATM   13  C   UNL     1      -6.929   6.889  68.509  1.00  0.00    -0.076 C  
HETATM   14  O   UNL     1      -6.072   6.416  67.774  1.00  0.00    -0.022 OA 
HETATM   15  C   UNL     1      -7.776   8.125  68.283  1.00  0.00    -0.114 C  
HETATM   16  H   UNL     1      -5.574   8.441  69.031  1.00  0.00     0.000 HD 
HETATM   17  C   UNL     1      -8.876   7.185  67.428  1.00  0.00    -0.119 C  
HETATM   18  O   UNL     1      -7.591   8.485  69.817  1.00  0.00    -0.079 OA 
HETATM   19  O   UNL     1      -5.333   8.049  69.862  1.00  0.00    -0.023 OA 
HETATM   20  C   UNL     1      -6.583   7.596  70.382  1.00  0.00    -0.038 C  
HETATM   21  C   UNL     1      -8.426   6.605  66.052  1.00  0.00    -0.142 C  
HETATM   22  C   UNL     1     -10.298   7.663  67.184  1.00  0.00    -0.385 C  
ENDROOT
BRANCH  15  23
HETATM   23  N   UNL     1      -7.627   9.400  67.615  1.00  0.00    -0.088 N  
HETATM   24  H   UNL     1      -7.021   9.486  66.800  1.00  0.00     0.000 HD 
HETATM   25  O   UNL     1      -8.774  10.584  69.250  1.00  0.00    -0.163 OA 
HETATM   26  C   UNL     1      -8.324  10.513  68.100  1.00  0.00    -0.119 C  
BRANCH  26  27
HETATM   27  C   UNL     1      -8.599  11.610  67.054  1.00  0.00    -0.169 C  
HETATM   28  C   UNL     1      -9.910  11.276  66.308  1.00  0.00    -0.214 C  
HETATM   29  N   UNL     1     -11.123  11.989  66.785  1.00  0.00    -0.288 NA 
HETATM   30  C   UNL     1     -11.031  13.444  66.486  1.00  0.00    -0.290 C  
HETATM   31  C   UNL     1     -11.424  11.769  68.205  1.00  0.00    -0.316 C  
HETATM   32  C   UNL     1     -12.106  14.339  67.257  1.00  0.00    -0.390 C  
HETATM   33  C   UNL     1     -11.483  15.435  68.055  1.00  0.00    -0.333 A  
HETATM   34  C   UNL     1     -11.869  16.166  69.163  1.00  0.00    -0.178 A  
HETATM   35  N   UNL     1     -10.907  17.121  69.390  1.00  0.00    -0.341 NA 
HETATM   36  C   UNL     1      -9.906  17.031  68.448  1.00  0.00    -0.283 A  
HETATM   37  H   UNL     1     -10.931  17.800  70.150  1.00  0.00     0.000 HD 
HETATM   38  C   UNL     1      -8.721  17.735  68.215  1.00  0.00    -0.277 A  
HETATM   39  C   UNL     1      -7.905  17.277  67.163  1.00  0.00    -0.223 A  
HETATM   40  C   UNL     1      -8.189  16.100  66.468  1.00  0.00    -0.343 A  
HETATM   41  C   UNL     1      -9.323  15.364  66.802  1.00  0.00    -0.267 A  
HETATM   42  C   UNL     1     -10.219  15.917  67.697  1.00  0.00    -0.263 A  
HETATM   43  C   UNL     1      -9.509  13.914  66.495  1.00  0.00    -0.288 C  
HETATM   44  C   UNL     1      -8.687  13.076  67.537  1.00  0.00    -0.197 C  
ENDBRANCH  26  27
ENDBRANCH  15  23
TORSDOF 2
ENDMDL
MODEL       33
REMARK 921   NORMALIZED FREE ENERGY PREDICTED BY IDOCK:   -6.38 KCAL/MOL
REMARK 922        TOTAL FREE ENERGY PREDICTED BY IDOCK:   -7.53 KCAL/MOL
REMARK 923 INTER-LIGAND FREE ENERGY PREDICTED BY IDOCK:   -7.30 KCAL/MOL
REMARK 924 INTRA-LIGAND FREE ENERGY PREDICTED BY IDOCK:   -0.23 KCAL/MOL
REMARK 927      BINDING AFFINITY PREDICTED BY RF-SCORE:    0.00 PKD
ROOT
HETATM    1  C   UNL     1      -9.377   5.844  70.620  1.00  0.00    -0.160 C  
HETATM    2  C   UNL     1     -10.066   5.996  71.972  1.00  0.00    -0.215 C  
HETATM    3  C   UNL     1     -10.324   4.522  72.416  1.00  0.00    -0.256 C  
HETATM    4  C   UNL     1     -10.006   3.631  71.218  1.00  0.00    -0.074 C  
HETATM    5  N   UNL     1      -9.834   4.552  70.123  1.00  0.00    -0.217 N  
HETATM    6  C   UNL     1      -9.425   4.105  68.875  1.00  0.00    -0.169 C  
HETATM    7  O   UNL     1      -9.565   2.950  68.489  1.00  0.00    -0.169 OA 
HETATM    8  C   UNL     1      -9.032   5.283  68.015  1.00  0.00    -0.109 C  
HETATM    9  C   UNL     1      -8.973   5.036  66.512  1.00  0.00    -0.116 C  
HETATM   10  N   UNL     1      -7.983   6.193  68.852  1.00  0.00    -0.100 N  
HETATM   11  C   UNL     1      -7.804   4.195  66.052  1.00  0.00    -0.094 C  
HETATM   12  C   UNL     1     -10.311   4.650  65.851  1.00  0.00    -0.315 C  
HETATM   13  C   UNL     1      -7.197   7.292  68.487  1.00  0.00    -0.094 C  
HETATM   14  O   UNL     1      -6.091   7.541  68.948  1.00  0.00    -0.029 OA 
HETATM   15  C   UNL     1      -8.049   8.158  67.579  1.00  0.00    -0.123 C  
HETATM   16  H   UNL     1      -8.042   8.667  69.871  1.00  0.00     0.000 HD 
HETATM   17  C   UNL     1      -7.236   7.523  66.253  1.00  0.00    -0.074 C  
HETATM   18  O   UNL     1      -9.322   7.709  68.411  1.00  0.00    -0.146 OA 
HETATM   19  O   UNL     1      -8.338   7.992  70.470  1.00  0.00    -0.118 OA 
HETATM   20  C   UNL     1      -8.871   6.996  69.599  1.00  0.00    -0.141 C  
HETATM   21  C   UNL     1      -5.733   7.898  66.069  1.00  0.00    -0.037 C  
HETATM   22  C   UNL     1      -7.818   7.620  64.852  1.00  0.00    -0.128 C  
ENDROOT
BRANCH  15  23
HETATM   23  N   UNL     1      -8.263   9.573  67.367  1.00  0.00    -0.113 N  
HETATM   24  H   UNL     1      -7.631  10.258  67.781  1.00  0.00     0.000 HD 
HETATM   25  O   UNL     1     -10.333   9.282  66.357  1.00  0.00    -0.251 OA 
HETATM   26  C   UNL     1      -9.347   9.992  66.585  1.00  0.00    -0.166 C  
BRANCH  26  27
HETATM   27  C   UNL     1      -9.172  11.372  65.923  1.00  0.00    -0.231 C  
HETATM   28  C   UNL     1     -10.377  11.640  64.994  1.00  0.00    -0.281 C  
HETATM   29  N   UNL     1     -11.450  12.495  65.563  1.00  0.00    -0.334 NA 
HETATM   30  C   UNL     1     -10.968  13.890  65.752  1.00  0.00    -0.285 C  
HETATM   31  C   UNL     1     -12.033  11.975  66.805  1.00  0.00    -0.006 C  
HETATM   32  C   UNL     1     -11.916  14.792  66.668  1.00  0.00    -0.199 C  
HETATM   33  C   UNL     1     -11.198  15.399  67.826  1.00  0.00    -0.321 A  
HETATM   34  C   UNL     1     -11.584  15.863  69.070  1.00  0.00    -0.389 A  
HETATM   35  N   UNL     1     -10.478  16.408  69.675  1.00  0.00    -0.293 NA 
HETATM   36  C   UNL     1      -9.380  16.316  68.847  1.00  0.00    -0.248 A  
HETATM   37  H   UNL     1     -10.470  16.823  70.607  1.00  0.00     0.000 HD 
HETATM   38  C   UNL     1      -8.040  16.699  68.959  1.00  0.00    -0.199 A  
HETATM   39  C   UNL     1      -7.188  16.350  67.894  1.00  0.00    -0.150 A  
HETATM   40  C   UNL     1      -7.619  15.546  66.837  1.00  0.00    -0.162 A  
HETATM   41  C   UNL     1      -8.935  15.090  66.816  1.00  0.00    -0.293 A  
HETATM   42  C   UNL     1      -9.814  15.593  67.756  1.00  0.00    -0.220 A  
HETATM   43  C   UNL     1      -9.403  13.897  66.047  1.00  0.00    -0.060 C  
HETATM   44  C   UNL     1      -8.992  12.604  66.838  1.00  0.00    -0.213 C  
ENDBRANCH  26  27
ENDBRANCH  15  23
TORSDOF 2
ENDMDL
MODEL       34
REMARK 921   NORMALIZED FREE ENERGY PREDICTED BY IDOCK:   -6.34 KCAL/MOL
REMARK 922        TOTAL FREE ENERGY PREDICTED BY IDOCK:   -7.48 KCAL/MOL
REMARK 923 INTER-LIGAND FREE ENERGY PREDICTED BY IDOCK:   -7.53 KCAL/MOL
REMARK 924 INTRA-LIGAND FREE ENERGY PREDICTED BY IDOCK:    0.04 KCAL/MOL
REMARK 927      BINDING AFFINITY PREDICTED BY RF-SCORE:    0.00 PKD
ROOT
HETATM    1  C   UNL     1      -9.195   5.315  66.168  1.00  0.00    -0.154 C  
HETATM    2  C   UNL     1     -10.095   4.234  65.577  1.00  0.00    -0.235 C  
HETATM    3  C   UNL     1      -9.222   2.944  65.672  1.00  0.00    -0.115 C  
HETATM    4  C   UNL     1      -7.815   3.383  66.070  1.00  0.00    -0.082 C  
HETATM    5  N   UNL     1      -7.842   4.819  65.953  1.00  0.00    -0.094 N  
HETATM    6  C   UNL     1      -6.752   5.585  66.342  1.00  0.00    -0.057 C  
HETATM    7  O   UNL     1      -5.609   5.149  66.416  1.00  0.00    -0.016 OA 
HETATM    8  C   UNL     1      -7.149   7.041  66.405  1.00  0.00    -0.074 C  
HETATM    9  C   UNL     1      -6.011   8.055  66.390  1.00  0.00    -0.041 C  
HETATM   10  N   UNL     1      -8.493   7.160  67.305  1.00  0.00    -0.121 N  
HETATM   11  C   UNL     1      -5.206   8.125  67.668  1.00  0.00    -0.033 C  
HETATM   12  C   UNL     1      -5.148   8.063  65.113  1.00  0.00    -0.028 C  
HETATM   13  C   UNL     1      -9.188   8.266  67.809  1.00  0.00    -0.134 C  
HETATM   14  O   UNL     1      -9.793   8.282  68.873  1.00  0.00    -0.171 OA 
HETATM   15  C   UNL     1      -9.178   9.323  66.722  1.00  0.00    -0.147 C  
HETATM   16  H   UNL     1     -11.024   7.876  66.812  1.00  0.00     0.000 HD 
HETATM   17  C   UNL     1      -7.939  10.113  67.538  1.00  0.00    -0.106 C  
HETATM   18  O   UNL     1      -9.222   8.160  65.645  1.00  0.00    -0.108 OA 
HETATM   19  O   UNL     1     -10.856   6.946  66.715  1.00  0.00    -0.321 OA 
HETATM   20  C   UNL     1      -9.482   6.901  66.333  1.00  0.00    -0.120 C  
HETATM   21  C   UNL     1      -8.275  10.780  68.908  1.00  0.00    -0.149 C  
HETATM   22  C   UNL     1      -7.058  11.133  66.834  1.00  0.00    -0.131 C  
ENDROOT
BRANCH  15  23
HETATM   23  N   UNL     1     -10.100  10.307  66.199  1.00  0.00    -0.241 N  
HETATM   24  H   UNL     1     -10.984  10.488  66.673  1.00  0.00     0.000 HD 
HETATM   25  O   UNL     1      -8.919  10.611  64.223  1.00  0.00    -0.195 OA 
HETATM   26  C   UNL     1      -9.764  11.007  65.033  1.00  0.00    -0.254 C  
BRANCH  26  27
HETATM   27  C   UNL     1     -10.444  12.382  64.887  1.00  0.00    -0.327 C  
HETATM   28  C   UNL     1     -11.957  12.228  65.160  1.00  0.00    -0.337 C  
HETATM   29  N   UNL     1     -12.406  12.599  66.526  1.00  0.00    -0.428 NA 
HETATM   30  C   UNL     1     -12.263  14.064  66.748  1.00  0.00    -0.404 C  
HETATM   31  C   UNL     1     -11.746  11.844  67.597  1.00  0.00    -0.275 C  
HETATM   32  C   UNL     1     -12.386  14.508  68.277  1.00  0.00     0.013 C  
HETATM   33  C   UNL     1     -11.204  15.285  68.753  1.00  0.00    -0.293 A  
HETATM   34  C   UNL     1     -10.632  15.516  69.990  1.00  0.00    -0.324 A  
HETATM   35  N   UNL     1      -9.598  16.404  69.813  1.00  0.00     0.087 NA 
HETATM   36  C   UNL     1      -9.491  16.761  68.487  1.00  0.00    -0.245 A  
HETATM   37  H   UNL     1      -8.995  16.749  70.559  1.00  0.00     0.000 HD 
HETATM   38  C   UNL     1      -8.638  17.608  67.771  1.00  0.00    -0.228 A  
HETATM   39  C   UNL     1      -8.807  17.648  66.375  1.00  0.00    -0.263 A  
HETATM   40  C   UNL     1      -9.687  16.789  65.713  1.00  0.00    -0.161 A  
HETATM   41  C   UNL     1     -10.442  15.881  66.451  1.00  0.00    -0.311 A  
HETATM   42  C   UNL     1     -10.417  15.979  67.829  1.00  0.00    -0.298 A  
HETATM   43  C   UNL     1     -11.049  14.635  65.890  1.00  0.00    -0.338 C  
HETATM   44  C   UNL     1      -9.921  13.552  65.753  1.00  0.00    -0.266 C  
ENDBRANCH  26  27
ENDBRANCH  15  23
TORSDOF 2
ENDMDL
MODEL       35
REMARK 921   NORMALIZED FREE ENERGY PREDICTED BY IDOCK:   -6.34 KCAL/MOL
REMARK 922        TOTAL FREE ENERGY PREDICTED BY IDOCK:   -7.48 KCAL/MOL
REMARK 923 INTER-LIGAND FREE ENERGY PREDICTED BY IDOCK:   -7.11 KCAL/MOL
REMARK 924 INTRA-LIGAND FREE ENERGY PREDICTED BY IDOCK:   -0.37 KCAL/MOL
REMARK 927      BINDING AFFINITY PREDICTED BY RF-SCORE:    0.00 PKD
ROOT
HETATM    1  C   UNL     1     -12.641  13.158  70.631  1.00  0.00    -0.211 C  
HETATM    2  C   UNL     1     -13.484  12.816  71.855  1.00  0.00    -0.452 C  
HETATM    3  C   UNL     1     -14.132  14.182  72.241  1.00  0.00    -0.630 C  
HETATM    4  C   UNL     1     -13.451  15.256  71.397  1.00  0.00    -0.505 C  
HETATM    5  N   UNL     1     -12.340  14.576  70.781  1.00  0.00    -0.316 N  
HETATM    6  C   UNL     1     -11.542  15.219  69.845  1.00  0.00    -0.311 C  
HETATM    7  O   UNL     1     -11.438  16.438  69.766  1.00  0.00    -0.253 OA 
HETATM    8  C   UNL     1     -10.664  14.210  69.144  1.00  0.00    -0.194 C  
HETATM    9  C   UNL     1      -9.446  14.762  68.414  1.00  0.00    -0.213 C  
HETATM   10  N   UNL     1     -11.609  13.006  68.605  1.00  0.00    -0.296 N  
HETATM   11  C   UNL     1      -9.756  15.513  67.139  1.00  0.00    -0.226 C  
HETATM   12  C   UNL     1      -8.400  15.460  69.304  1.00  0.00    -0.254 C  
HETATM   13  C   UNL     1     -11.348  11.913  67.770  1.00  0.00    -0.292 C  
HETATM   14  O   UNL     1     -12.156  11.422  66.993  1.00  0.00    -0.317 OA 
HETATM   15  C   UNL     1      -9.978  11.386  68.152  1.00  0.00    -0.189 C  
HETATM   16  H   UNL     1     -11.844  10.404  69.182  1.00  0.00     0.000 HD 
HETATM   17  C   UNL     1      -9.332  12.173  66.815  1.00  0.00    -0.212 C  
HETATM   18  O   UNL     1     -10.272  11.818  69.649  1.00  0.00     0.331 OA 
HETATM   19  O   UNL     1     -12.409  10.969  69.696  1.00  0.00    -0.321 OA 
HETATM   20  C   UNL     1     -11.677  12.192  69.755  1.00  0.00    -0.310 C  
HETATM   21  C   UNL     1      -9.717  11.643  65.399  1.00  0.00    -0.255 C  
HETATM   22  C   UNL     1      -7.842  12.459  66.713  1.00  0.00     0.074 C  
ENDROOT
BRANCH  15  23
HETATM   23  N   UNL     1      -9.345  10.093  68.289  1.00  0.00    -0.132 N  
HETATM   24  H   UNL     1      -9.796   9.257  67.916  1.00  0.00     0.000 HD 
HETATM   25  O   UNL     1      -7.680  10.868  69.709  1.00  0.00    -0.033 OA 
HETATM   26  C   UNL     1      -8.108  10.002  68.937  1.00  0.00    -0.111 C  
BRANCH  26  27
HETATM   27  C   UNL     1      -7.251   8.788  68.528  1.00  0.00    -0.074 C  
HETATM   28  C   UNL     1      -6.043   8.679  69.485  1.00  0.00    -0.033 C  
HETATM   29  N   UNL     1      -6.185   7.699  70.592  1.00  0.00    -0.034 NA 
HETATM   30  C   UNL     1      -6.208   6.308  70.063  1.00  0.00    -0.031 C  
HETATM   31  C   UNL     1      -7.341   7.943  71.462  1.00  0.00    -0.068 C  
HETATM   32  C   UNL     1      -6.701   5.215  71.119  1.00  0.00    -0.040 C  
HETATM   33  C   UNL     1      -7.853   4.407  70.623  1.00  0.00    -0.056 A  
HETATM   34  C   UNL     1      -8.867   3.692  71.232  1.00  0.00    -0.088 A  
HETATM   35  N   UNL     1      -9.590   3.067  70.244  1.00  0.00    -0.136 NA 
HETATM   36  C   UNL     1      -9.060   3.353  69.004  1.00  0.00    -0.143 A  
HETATM   37  H   UNL     1     -10.403   2.473  70.406  1.00  0.00     0.000 HD 
HETATM   38  C   UNL     1      -9.393   2.992  67.695  1.00  0.00    -0.242 A  
HETATM   39  C   UNL     1      -8.631   3.571  66.662  1.00  0.00    -0.113 A  
HETATM   40  C   UNL     1      -7.678   4.559  66.914  1.00  0.00    -0.094 A  
HETATM   41  C   UNL     1      -7.451   4.974  68.224  1.00  0.00    -0.075 A  
HETATM   42  C   UNL     1      -8.058   4.269  69.246  1.00  0.00    -0.066 A  
HETATM   43  C   UNL     1      -6.838   6.284  68.601  1.00  0.00    -0.074 C  
HETATM   44  C   UNL     1      -7.932   7.402  68.461  1.00  0.00    -0.124 C  
ENDBRANCH  26  27
ENDBRANCH  15  23
TORSDOF 2
ENDMDL
MODEL       36
REMARK 921   NORMALIZED FREE ENERGY PREDICTED BY IDOCK:   -6.30 KCAL/MOL
REMARK 922        TOTAL FREE ENERGY PREDICTED BY IDOCK:   -7.44 KCAL/MOL
REMARK 923 INTER-LIGAND FREE ENERGY PREDICTED BY IDOCK:   -7.29 KCAL/MOL
REMARK 924 INTRA-LIGAND FREE ENERGY PREDICTED BY IDOCK:   -0.16 KCAL/MOL
REMARK 927      BINDING AFFINITY PREDICTED BY RF-SCORE:    0.00 PKD
ROOT
HETATM    1  C   UNL     1      -9.363   5.053  69.566  1.00  0.00    -0.128 C  
HETATM    2  C   UNL     1     -10.265   5.068  70.796  1.00  0.00    -0.299 C  
HETATM    3  C   UNL     1      -9.944   3.711  71.498  1.00  0.00    -0.181 C  
HETATM    4  C   UNL     1      -9.085   2.900  70.532  1.00  0.00    -0.120 C  
HETATM    5  N   UNL     1      -9.141   3.639  69.295  1.00  0.00    -0.118 N  
HETATM    6  C   UNL     1      -8.381   3.252  68.201  1.00  0.00    -0.079 C  
HETATM    7  O   UNL     1      -7.954   2.114  68.040  1.00  0.00    -0.058 OA 
HETATM    8  C   UNL     1      -8.387   4.349  67.163  1.00  0.00    -0.101 C  
HETATM    9  C   UNL     1      -7.982   3.948  65.750  1.00  0.00    -0.093 C  
HETATM   10  N   UNL     1      -7.977   5.738  67.893  1.00  0.00    -0.097 N  
HETATM   11  C   UNL     1      -6.508   3.662  65.569  1.00  0.00    -0.033 C  
HETATM   12  C   UNL     1      -8.901   2.918  65.064  1.00  0.00    -0.127 C  
HETATM   13  C   UNL     1      -7.682   7.010  67.387  1.00  0.00    -0.110 C  
HETATM   14  O   UNL     1      -6.878   7.788  67.885  1.00  0.00    -0.065 OA 
HETATM   15  C   UNL     1      -8.657   7.270  66.256  1.00  0.00    -0.142 C  
HETATM   16  H   UNL     1      -9.245   8.041  68.393  1.00  0.00     0.000 HD 
HETATM   17  C   UNL     1      -7.444   6.886  65.157  1.00  0.00    -0.094 C  
HETATM   18  O   UNL     1      -9.739   6.420  67.045  1.00  0.00    -0.137 OA 
HETATM   19  O   UNL     1      -9.322   7.395  69.086  1.00  0.00    -0.147 OA 
HETATM   20  C   UNL     1      -9.231   6.155  68.386  1.00  0.00    -0.111 C  
HETATM   21  C   UNL     1      -6.234   7.862  65.035  1.00  0.00    -0.041 C  
HETATM   22  C   UNL     1      -7.772   6.518  63.719  1.00  0.00    -0.108 C  
ENDROOT
BRANCH  15  23
HETATM   23  N   UNL     1      -9.411   8.396  65.750  1.00  0.00    -0.441 N  
HETATM   24  H   UNL     1     -10.088   8.267  64.998  1.00  0.00     0.000 HD 
HETATM   25  O   UNL     1      -8.187   9.969  66.940  1.00  0.00    -0.120 OA 
HETATM   26  C   UNL     1      -9.204   9.664  66.306  1.00  0.00    -0.168 C  
BRANCH  26  27
HETATM   27  C   UNL     1     -10.395  10.632  66.173  1.00  0.00    -0.291 C  
HETATM   28  C   UNL     1     -11.444  10.291  67.255  1.00  0.00     0.476 C  
HETATM   29  N   UNL     1     -11.409  11.137  68.474  1.00  0.00    -0.256 NA 
HETATM   30  C   UNL     1     -11.823  12.532  68.160  1.00  0.00    -0.317 C  
HETATM   31  C   UNL     1     -10.120  11.124  69.174  1.00  0.00    -0.112 C  
HETATM   32  C   UNL     1     -11.490  13.589  69.310  1.00  0.00    -0.345 C  
HETATM   33  C   UNL     1     -10.668  14.736  68.824  1.00  0.00    -0.253 A  
HETATM   34  C   UNL     1      -9.800  15.628  69.424  1.00  0.00    -0.284 A  
HETATM   35  N   UNL     1      -9.411  16.539  68.472  1.00  0.00    -0.227 NA 
HETATM   36  C   UNL     1     -10.015  16.262  67.264  1.00  0.00    -0.250 A  
HETATM   37  H   UNL     1      -8.766  17.312  68.635  1.00  0.00     0.000 HD 
HETATM   38  C   UNL     1      -9.975  16.850  65.996  1.00  0.00    -0.313 A  
HETATM   39  C   UNL     1     -10.696  16.207  64.973  1.00  0.00    -0.359 A  
HETATM   40  C   UNL     1     -11.314  14.970  65.172  1.00  0.00    -0.372 A  
HETATM   41  C   UNL     1     -11.240  14.361  66.422  1.00  0.00    -0.345 A  
HETATM   42  C   UNL     1     -10.701  15.083  67.469  1.00  0.00    -0.284 A  
HETATM   43  C   UNL     1     -11.432  12.898  66.660  1.00  0.00    -0.393 C  
HETATM   44  C   UNL     1     -10.116  12.150  66.243  1.00  0.00    -0.247 C  
ENDBRANCH  26  27
ENDBRANCH  15  23
TORSDOF 2
ENDMDL
MODEL       37
REMARK 921   NORMALIZED FREE ENERGY PREDICTED BY IDOCK:   -6.25 KCAL/MOL
REMARK 922        TOTAL FREE ENERGY PREDICTED BY IDOCK:   -7.38 KCAL/MOL
REMARK 923 INTER-LIGAND FREE ENERGY PREDICTED BY IDOCK:   -7.35 KCAL/MOL
REMARK 924 INTRA-LIGAND FREE ENERGY PREDICTED BY IDOCK:   -0.03 KCAL/MOL
REMARK 927      BINDING AFFINITY PREDICTED BY RF-SCORE:    0.00 PKD
ROOT
HETATM    1  C   UNL     1      -9.264  15.951  67.146  1.00  0.00    -0.209 C  
HETATM    2  C   UNL     1      -8.374  17.155  67.437  1.00  0.00    -0.203 C  
HETATM    3  C   UNL     1      -9.108  18.331  66.719  1.00  0.00    -0.287 C  
HETATM    4  C   UNL     1     -10.214  17.714  65.867  1.00  0.00    -0.232 C  
HETATM    5  N   UNL     1      -9.951  16.298  65.908  1.00  0.00    -0.332 N  
HETATM    6  C   UNL     1     -10.827  15.394  65.324  1.00  0.00    -0.409 C  
HETATM    7  O   UNL     1     -11.612  15.692  64.431  1.00  0.00    -0.395 OA 
HETATM    8  C   UNL     1     -10.486  13.992  65.769  1.00  0.00    -0.309 C  
HETATM    9  C   UNL     1     -11.041  12.856  64.919  1.00  0.00    -0.326 C  
HETATM   10  N   UNL     1     -10.390  13.986  67.389  1.00  0.00    -0.258 N  
HETATM   11  C   UNL     1     -12.530  12.633  65.053  1.00  0.00    -0.556 C  
HETATM   12  C   UNL     1     -10.536  12.810  63.464  1.00  0.00    -0.177 C  
HETATM   13  C   UNL     1     -10.260  12.944  68.315  1.00  0.00    -0.245 C  
HETATM   14  O   UNL     1     -10.746  12.946  69.439  1.00  0.00    -0.003 OA 
HETATM   15  C   UNL     1      -9.287  11.946  67.719  1.00  0.00    -0.184 C  
HETATM   16  H   UNL     1      -8.415  13.590  69.151  1.00  0.00     0.000 HD 
HETATM   17  C   UNL     1     -10.588  10.980  67.274  1.00  0.00    -0.287 C  
HETATM   18  O   UNL     1      -8.526  13.157  67.032  1.00  0.00    -0.194 OA 
HETATM   19  O   UNL     1      -8.537  14.498  68.900  1.00  0.00    -0.163 OA 
HETATM   20  C   UNL     1      -9.055  14.402  67.574  1.00  0.00    -0.195 C  
HETATM   21  C   UNL     1     -11.408  10.292  68.409  1.00  0.00    -0.244 C  
HETATM   22  C   UNL     1     -10.442   9.901  66.214  1.00  0.00    -0.171 C  
ENDROOT
BRANCH  15  23
HETATM   23  N   UNL     1      -8.215  11.101  68.199  1.00  0.00    -0.124 N  
HETATM   24  H   UNL     1      -8.108  10.921  69.197  1.00  0.00     0.000 HD 
HETATM   25  O   UNL     1      -7.164  10.969  66.133  1.00  0.00    -0.124 OA 
HETATM   26  C   UNL     1      -7.327  10.531  67.278  1.00  0.00    -0.091 C  
BRANCH  26  27
HETATM   27  C   UNL     1      -6.645   9.235  67.754  1.00  0.00    -0.063 C  
HETATM   28  C   UNL     1      -5.820   9.538  69.025  1.00  0.00    -0.035 C  
HETATM   29  N   UNL     1      -6.472   9.193  70.314  1.00  0.00    -0.045 NA 
HETATM   30  C   UNL     1      -6.612   7.718  70.455  1.00  0.00    -0.038 C  
HETATM   31  C   UNL     1      -7.762   9.859  70.528  1.00  0.00     0.035 C  
HETATM   32  C   UNL     1      -7.600   7.264  71.626  1.00  0.00    -0.086 C  
HETATM   33  C   UNL     1      -8.690   6.364  71.148  1.00  0.00    -0.135 A  
HETATM   34  C   UNL     1      -9.959   6.056  71.602  1.00  0.00    -0.179 A  
HETATM   35  N   UNL     1     -10.466   5.070  70.789  1.00  0.00    -0.199 NA 
HETATM   36  C   UNL     1      -9.549   4.725  69.820  1.00  0.00    -0.179 A  
HETATM   37  H   UNL     1     -11.391   4.653  70.888  1.00  0.00     0.000 HD 
HETATM   38  C   UNL     1      -9.544   3.808  68.765  1.00  0.00    -0.172 A  
HETATM   39  C   UNL     1      -8.413   3.808  67.927  1.00  0.00    -0.106 A  
HETATM   40  C   UNL     1      -7.401   4.761  68.053  1.00  0.00    -0.070 A  
HETATM   41  C   UNL     1      -7.494   5.730  69.050  1.00  0.00    -0.084 A  
HETATM   42  C   UNL     1      -8.502   5.607  69.987  1.00  0.00    -0.122 A  
HETATM   43  C   UNL     1      -6.774   7.039  69.024  1.00  0.00    -0.056 C  
HETATM   44  C   UNL     1      -7.534   8.005  68.047  1.00  0.00    -0.097 C  
ENDBRANCH  26  27
ENDBRANCH  15  23
TORSDOF 2
ENDMDL
MODEL       38
REMARK 921   NORMALIZED FREE ENERGY PREDICTED BY IDOCK:   -6.23 KCAL/MOL
REMARK 922        TOTAL FREE ENERGY PREDICTED BY IDOCK:   -7.37 KCAL/MOL
REMARK 923 INTER-LIGAND FREE ENERGY PREDICTED BY IDOCK:   -7.57 KCAL/MOL
REMARK 924 INTRA-LIGAND FREE ENERGY PREDICTED BY IDOCK:    0.20 KCAL/MOL
REMARK 927      BINDING AFFINITY PREDICTED BY RF-SCORE:    0.00 PKD
ROOT
HETATM    1  C   UNL     1      -6.629   8.954  67.137  1.00  0.00    -0.062 C  
HETATM    2  C   UNL     1      -5.183   8.596  66.808  1.00  0.00    -0.031 C  
HETATM    3  C   UNL     1      -5.176   7.036  66.852  1.00  0.00    -0.017 C  
HETATM    4  C   UNL     1      -6.517   6.599  67.434  1.00  0.00    -0.048 C  
HETATM    5  N   UNL     1      -7.116   7.820  67.912  1.00  0.00    -0.083 N  
HETATM    6  C   UNL     1      -8.408   7.828  68.418  1.00  0.00    -0.125 C  
HETATM    7  O   UNL     1      -8.967   6.834  68.867  1.00  0.00    -0.131 OA 
HETATM    8  C   UNL     1      -8.892   9.252  68.556  1.00  0.00    -0.129 C  
HETATM    9  C   UNL     1     -10.086   9.477  69.476  1.00  0.00    -0.218 C  
HETATM   10  N   UNL     1      -8.648  10.008  67.142  1.00  0.00    -0.128 N  
HETATM   11  C   UNL     1     -11.408   8.985  68.931  1.00  0.00     0.406 C  
HETATM   12  C   UNL     1      -9.856   9.123  70.958  1.00  0.00    -0.366 C  
HETATM   13  C   UNL     1      -9.045  11.265  66.671  1.00  0.00    -0.179 C  
HETATM   14  O   UNL     1      -9.320  11.518  65.505  1.00  0.00    -0.223 OA 
HETATM   15  C   UNL     1      -8.894  12.235  67.827  1.00  0.00    -0.174 C  
HETATM   16  H   UNL     1      -7.090  12.030  66.338  1.00  0.00     0.000 HD 
HETATM   17  C   UNL     1     -10.552  12.146  68.086  1.00  0.00    -0.236 C  
HETATM   18  O   UNL     1      -7.653  11.383  68.327  1.00  0.00    -0.099 OA 
HETATM   19  O   UNL     1      -6.693  11.172  66.248  1.00  0.00    -0.127 OA 
HETATM   20  C   UNL     1      -7.307  10.418  67.291  1.00  0.00    -0.090 C  
HETATM   21  C   UNL     1     -11.494  12.765  67.008  1.00  0.00    -0.397 C  
HETATM   22  C   UNL     1     -11.167  12.575  69.408  1.00  0.00    -0.215 C  
ENDROOT
BRANCH  15  23
HETATM   23  N   UNL     1      -8.462  13.603  68.007  1.00  0.00    -0.164 N  
HETATM   24  H   UNL     1      -8.879  14.352  67.454  1.00  0.00     0.000 HD 
HETATM   25  O   UNL     1      -6.678  13.039  69.382  1.00  0.00    -0.095 OA 
HETATM   26  C   UNL     1      -7.465  13.889  68.948  1.00  0.00    -0.080 C  
BRANCH  26  27
HETATM   27  C   UNL     1      -7.492  15.326  69.503  1.00  0.00    -0.214 C  
HETATM   28  C   UNL     1      -6.064  15.722  69.943  1.00  0.00    -0.166 C  
HETATM   29  N   UNL     1      -5.294  16.539  68.971  1.00  0.00    -0.118 NA 
HETATM   30  C   UNL     1      -5.894  17.894  68.830  1.00  0.00    -0.188 C  
HETATM   31  C   UNL     1      -5.127  15.906  67.658  1.00  0.00    -0.098 C  
HETATM   32  C   UNL     1      -5.359  18.718  67.570  1.00  0.00    -0.159 C  
HETATM   33  C   UNL     1      -6.457  19.180  66.671  1.00  0.00    -0.199 A  
HETATM   34  C   UNL     1      -6.534  19.520  65.334  1.00  0.00    -0.266 A  
HETATM   35  N   UNL     1      -7.809  19.970  65.089  1.00  0.00    -0.279 NA 
HETATM   36  C   UNL     1      -8.562  19.938  66.243  1.00  0.00    -0.337 A  
HETATM   37  H   UNL     1      -8.151  20.284  64.181  1.00  0.00     0.000 HD 
HETATM   38  C   UNL     1      -9.883  20.273  66.555  1.00  0.00    -0.531 A  
HETATM   39  C   UNL     1     -10.311  20.017  67.871  1.00  0.00    -0.506 A  
HETATM   40  C   UNL     1      -9.506  19.339  68.790  1.00  0.00    -0.459 A  
HETATM   41  C   UNL     1      -8.233  18.922  68.408  1.00  0.00    -0.377 A  
HETATM   42  C   UNL     1      -7.748  19.345  67.185  1.00  0.00    -0.272 A  
HETATM   43  C   UNL     1      -7.466  17.829  69.079  1.00  0.00    -0.170 C  
HETATM   44  C   UNL     1      -8.038  16.450  68.594  1.00  0.00    -0.218 C  
ENDBRANCH  26  27
ENDBRANCH  15  23
TORSDOF 2
ENDMDL
MODEL       39
REMARK 921   NORMALIZED FREE ENERGY PREDICTED BY IDOCK:   -6.20 KCAL/MOL
REMARK 922        TOTAL FREE ENERGY PREDICTED BY IDOCK:   -7.32 KCAL/MOL
REMARK 923 INTER-LIGAND FREE ENERGY PREDICTED BY IDOCK:   -7.07 KCAL/MOL
REMARK 924 INTRA-LIGAND FREE ENERGY PREDICTED BY IDOCK:   -0.25 KCAL/MOL
REMARK 927      BINDING AFFINITY PREDICTED BY RF-SCORE:    0.00 PKD
ROOT
HETATM    1  C   UNL     1     -10.245   5.373  71.668  1.00  0.00    -0.209 C  
HETATM    2  C   UNL     1     -11.517   5.632  72.468  1.00  0.00    -0.335 C  
HETATM    3  C   UNL     1     -11.549   4.453  73.490  1.00  0.00    -0.193 C  
HETATM    4  C   UNL     1     -10.460   3.468  73.072  1.00  0.00    -0.166 C  
HETATM    5  N   UNL     1     -10.032   3.936  71.778  1.00  0.00    -0.182 N  
HETATM    6  C   UNL     1      -8.963   3.340  71.124  1.00  0.00    -0.098 C  
HETATM    7  O   UNL     1      -8.579   2.198  71.353  1.00  0.00    -0.060 OA 
HETATM    8  C   UNL     1      -8.536   4.199  69.958  1.00  0.00    -0.064 C  
HETATM    9  C   UNL     1      -7.687   3.519  68.890  1.00  0.00    -0.052 C  
HETATM   10  N   UNL     1      -8.320   5.713  70.497  1.00  0.00    -0.115 N  
HETATM   11  C   UNL     1      -6.265   3.219  69.306  1.00  0.00    -0.028 C  
HETATM   12  C   UNL     1      -8.371   2.360  68.139  1.00  0.00    -0.081 C  
HETATM   13  C   UNL     1      -7.786   6.857  69.891  1.00  0.00    -0.115 C  
HETATM   14  O   UNL     1      -7.160   7.729  70.478  1.00  0.00    -0.046 OA 
HETATM   15  C   UNL     1      -8.284   6.866  68.459  1.00  0.00    -0.121 C  
HETATM   16  H   UNL     1      -9.534   8.055  70.051  1.00  0.00     0.000 HD 
HETATM   17  C   UNL     1      -6.791   6.277  67.962  1.00  0.00    -0.070 C  
HETATM   18  O   UNL     1      -9.626   6.186  68.962  1.00  0.00    -0.126 OA 
HETATM   19  O   UNL     1      -9.890   7.566  70.783  1.00  0.00    -0.179 OA 
HETATM   20  C   UNL     1      -9.638   6.209  70.419  1.00  0.00    -0.164 C  
HETATM   21  C   UNL     1      -5.555   7.221  68.089  1.00  0.00    -0.022 C  
HETATM   22  C   UNL     1      -6.617   5.617  66.604  1.00  0.00    -0.056 C  
ENDROOT
BRANCH  15  23
HETATM   23  N   UNL     1      -8.741   7.855  67.507  1.00  0.00    -0.125 N  
HETATM   24  H   UNL     1      -9.171   7.565  66.629  1.00  0.00     0.000 HD 
HETATM   25  O   UNL     1      -7.781   9.639  68.641  1.00  0.00    -0.079 OA 
HETATM   26  C   UNL     1      -8.587   9.215  67.805  1.00  0.00    -0.121 C  
BRANCH  26  27
HETATM   27  C   UNL     1      -9.585  10.150  67.095  1.00  0.00    -0.202 C  
HETATM   28  C   UNL     1     -11.011   9.839  67.600  1.00  0.00    -0.162 C  
HETATM   29  N   UNL     1     -11.532  10.744  68.656  1.00  0.00    -0.291 NA 
HETATM   30  C   UNL     1     -11.753  12.113  68.116  1.00  0.00    -0.341 C  
HETATM   31  C   UNL     1     -10.701  10.791  69.865  1.00  0.00    -0.144 C  
HETATM   32  C   UNL     1     -11.975  13.230  69.235  1.00  0.00    -0.354 C  
HETATM   33  C   UNL     1     -11.019  14.370  69.116  1.00  0.00    -0.288 A  
HETATM   34  C   UNL     1     -10.516  15.307  69.998  1.00  0.00    -0.247 A  
HETATM   35  N   UNL     1      -9.734  16.180  69.279  1.00  0.00    -0.246 NA 
HETATM   36  C   UNL     1      -9.724  15.833  67.946  1.00  0.00    -0.216 A  
HETATM   37  H   UNL     1      -9.231  16.972  69.677  1.00  0.00     0.000 HD 
HETATM   38  C   UNL     1      -9.110  16.360  66.806  1.00  0.00    -0.259 A  
HETATM   39  C   UNL     1      -9.289  15.654  65.602  1.00  0.00    -0.207 A  
HETATM   40  C   UNL     1      -9.935  14.416  65.562  1.00  0.00    -0.359 A  
HETATM   41  C   UNL     1     -10.438  13.868  66.739  1.00  0.00    -0.270 A  
HETATM   42  C   UNL     1     -10.432  14.651  67.878  1.00  0.00    -0.242 A  
HETATM   43  C   UNL     1     -10.722  12.415  66.940  1.00  0.00    -0.269 C  
HETATM   44  C   UNL     1      -9.362  11.676  67.206  1.00  0.00    -0.170 C  
ENDBRANCH  26  27
ENDBRANCH  15  23
TORSDOF 2
ENDMDL
MODEL       40
REMARK 921   NORMALIZED FREE ENERGY PREDICTED BY IDOCK:   -6.19 KCAL/MOL
REMARK 922        TOTAL FREE ENERGY PREDICTED BY IDOCK:   -7.31 KCAL/MOL
REMARK 923 INTER-LIGAND FREE ENERGY PREDICTED BY IDOCK:   -7.55 KCAL/MOL
REMARK 924 INTRA-LIGAND FREE ENERGY PREDICTED BY IDOCK:    0.23 KCAL/MOL
REMARK 927      BINDING AFFINITY PREDICTED BY RF-SCORE:    0.00 PKD
ROOT
HETATM    1  C   UNL     1     -11.969  13.866  70.066  1.00  0.00    -0.336 C  
HETATM    2  C   UNL     1     -12.920  13.968  71.253  1.00  0.00    -0.418 C  
HETATM    3  C   UNL     1     -12.846  15.476  71.649  1.00  0.00    -0.518 C  
HETATM    4  C   UNL     1     -11.700  16.092  70.851  1.00  0.00    -0.334 C  
HETATM    5  N   UNL     1     -11.030  14.963  70.257  1.00  0.00    -0.196 N  
HETATM    6  C   UNL     1      -9.985  15.147  69.363  1.00  0.00    -0.228 C  
HETATM    7  O   UNL     1      -9.305  16.165  69.314  1.00  0.00    -0.250 OA 
HETATM    8  C   UNL     1      -9.673  13.842  68.668  1.00  0.00    -0.160 C  
HETATM    9  C   UNL     1      -8.312  13.743  67.991  1.00  0.00    -0.171 C  
HETATM   10  N   UNL     1     -11.058  13.244  68.072  1.00  0.00    -0.246 N  
HETATM   11  C   UNL     1      -8.172  14.555  66.723  1.00  0.00     0.045 C  
HETATM   12  C   UNL     1      -7.095  13.848  68.931  1.00  0.00    -0.110 C  
HETATM   13  C   UNL     1     -11.322  12.163  67.222  1.00  0.00    -0.334 C  
HETATM   14  O   UNL     1     -12.236  12.125  66.408  1.00  0.00    -0.592 OA 
HETATM   15  C   UNL     1     -10.391  11.041  67.636  1.00  0.00    -0.191 C  
HETATM   16  H   UNL     1     -12.539  11.074  68.583  1.00  0.00     0.000 HD 
HETATM   17  C   UNL     1      -9.393  11.424  66.339  1.00  0.00    -0.219 C  
HETATM   18  O   UNL     1     -10.500  11.555  69.133  1.00  0.00    -0.192 OA 
HETATM   19  O   UNL     1     -12.782  11.840  69.090  1.00  0.00     0.126 OA 
HETATM   20  C   UNL     1     -11.555  12.559  69.201  1.00  0.00    -0.320 C  
HETATM   21  C   UNL     1      -9.929  11.151  64.900  1.00  0.00    -0.331 C  
HETATM   22  C   UNL     1      -7.947  10.958  66.293  1.00  0.00    -0.161 C  
ENDROOT
BRANCH  15  23
HETATM   23  N   UNL     1     -10.464   9.602  67.765  1.00  0.00    -0.240 N  
HETATM   24  H   UNL     1     -10.904   9.041  67.037  1.00  0.00     0.000 HD 
HETATM   25  O   UNL     1      -9.707   9.589  69.960  1.00  0.00    -0.204 OA 
HETATM   26  C   UNL     1      -9.922   8.988  68.902  1.00  0.00    -0.189 C  
BRANCH  26  27
HETATM   27  C   UNL     1      -9.498   7.520  68.703  1.00  0.00    -0.146 C  
HETATM   28  C   UNL     1      -8.135   7.484  67.978  1.00  0.00    -0.124 C  
HETATM   29  N   UNL     1      -6.947   7.291  68.847  1.00  0.00    -0.075 NA 
HETATM   30  C   UNL     1      -6.947   5.926  69.443  1.00  0.00    -0.064 C  
HETATM   31  C   UNL     1      -6.798   8.312  69.890  1.00  0.00    -0.043 C  
HETATM   32  C   UNL     1      -5.916   5.740  70.650  1.00  0.00    -0.029 C  
HETATM   33  C   UNL     1      -6.569   5.249  71.899  1.00  0.00    -0.044 A  
HETATM   34  C   UNL     1      -6.264   5.327  73.245  1.00  0.00    -0.051 A  
HETATM   35  N   UNL     1      -7.203   4.592  73.929  1.00  0.00    -0.076 NA 
HETATM   36  C   UNL     1      -8.108   4.031  73.055  1.00  0.00    -0.089 A  
HETATM   37  H   UNL     1      -7.226   4.478  74.942  1.00  0.00     0.000 HD 
HETATM   38  C   UNL     1      -9.233   3.216  73.207  1.00  0.00    -0.103 A  
HETATM   39  C   UNL     1      -9.959   2.909  72.041  1.00  0.00    -0.227 A  
HETATM   40  C   UNL     1      -9.657   3.493  70.809  1.00  0.00    -0.246 A  
HETATM   41  C   UNL     1      -8.594   4.389  70.718  1.00  0.00    -0.117 A  
HETATM   42  C   UNL     1      -7.769   4.535  71.816  1.00  0.00    -0.091 A  
HETATM   43  C   UNL     1      -8.440   5.409  69.637  1.00  0.00    -0.100 C  
HETATM   44  C   UNL     1      -9.397   6.614  69.951  1.00  0.00    -0.153 C  
ENDBRANCH  26  27
ENDBRANCH  15  23
TORSDOF 2
ENDMDL
MODEL       41
REMARK 921   NORMALIZED FREE ENERGY PREDICTED BY IDOCK:   -6.16 KCAL/MOL
REMARK 922        TOTAL FREE ENERGY PREDICTED BY IDOCK:   -7.28 KCAL/MOL
REMARK 923 INTER-LIGAND FREE ENERGY PREDICTED BY IDOCK:   -7.81 KCAL/MOL
REMARK 924 INTRA-LIGAND FREE ENERGY PREDICTED BY IDOCK:    0.52 KCAL/MOL
REMARK 927      BINDING AFFINITY PREDICTED BY RF-SCORE:    0.00 PKD
ROOT
HETATM    1  C   UNL     1      -9.647   7.287  67.432  1.00  0.00    -0.142 C  
HETATM    2  C   UNL     1     -10.985   6.567  67.561  1.00  0.00    -0.444 C  
HETATM    3  C   UNL     1     -10.776   5.262  66.731  1.00  0.00    -0.241 C  
HETATM    4  C   UNL     1      -9.454   5.414  65.982  1.00  0.00    -0.146 C  
HETATM    5  N   UNL     1      -9.088   6.794  66.180  1.00  0.00    -0.140 N  
HETATM    6  C   UNL     1      -7.870   7.279  65.724  1.00  0.00    -0.108 C  
HETATM    7  O   UNL     1      -7.226   6.755  64.823  1.00  0.00    -0.073 OA 
HETATM    8  C   UNL     1      -7.609   8.642  66.320  1.00  0.00    -0.094 C  
HETATM    9  C   UNL     1      -6.561   9.499  65.620  1.00  0.00    -0.072 C  
HETATM   10  N   UNL     1      -7.808   8.538  67.927  1.00  0.00    -0.103 N  
HETATM   11  C   UNL     1      -5.134   9.041  65.815  1.00  0.00    -0.033 C  
HETATM   12  C   UNL     1      -6.892   9.895  64.168  1.00  0.00    -0.126 C  
HETATM   13  C   UNL     1      -7.545   9.442  68.963  1.00  0.00    -0.074 C  
HETATM   14  O   UNL     1      -7.189   9.124  70.091  1.00  0.00    -0.053 OA 
HETATM   15  C   UNL     1      -7.952  10.814  68.463  1.00  0.00    -0.130 C  
HETATM   16  H   UNL     1      -9.544   9.585  69.674  1.00  0.00     0.000 HD 
HETATM   17  C   UNL     1      -6.334  11.157  68.164  1.00  0.00    -0.053 C  
HETATM   18  O   UNL     1      -9.106  10.123  67.623  1.00  0.00    -0.137 OA 
HETATM   19  O   UNL     1      -9.804   8.741  69.324  1.00  0.00    -0.173 OA 
HETATM   20  C   UNL     1      -9.202   8.726  68.031  1.00  0.00    -0.139 C  
HETATM   21  C   UNL     1      -5.382  11.312  69.390  1.00  0.00    -0.044 C  
HETATM   22  C   UNL     1      -5.928  12.287  67.232  1.00  0.00    -0.150 C  
ENDROOT
BRANCH  15  23
HETATM   23  N   UNL     1      -8.590  11.991  69.011  1.00  0.00    -0.344 N  
HETATM   24  H   UNL     1      -8.886  12.010  69.987  1.00  0.00     0.000 HD 
HETATM   25  O   UNL     1      -8.803  13.043  66.952  1.00  0.00    -0.214 OA 
HETATM   26  C   UNL     1      -8.796  13.105  68.187  1.00  0.00    -0.194 C  
BRANCH  26  27
HETATM   27  C   UNL     1      -8.896  14.450  68.931  1.00  0.00    -0.067 C  
HETATM   28  C   UNL     1      -7.647  14.627  69.823  1.00  0.00     0.087 C  
HETATM   29  N   UNL     1      -6.568  15.477  69.259  1.00  0.00    -0.136 NA 
HETATM   30  C   UNL     1      -7.009  16.896  69.167  1.00  0.00    -0.234 C  
HETATM   31  C   UNL     1      -6.053  15.009  67.968  1.00  0.00    -0.150 C  
HETATM   32  C   UNL     1      -6.066  17.816  68.264  1.00  0.00    -0.171 C  
HETATM   33  C   UNL     1      -6.808  18.511  67.171  1.00  0.00    -0.212 A  
HETATM   34  C   UNL     1      -6.455  19.031  65.941  1.00  0.00    -0.224 A  
HETATM   35  N   UNL     1      -7.565  19.646  65.412  1.00  0.00    -0.366 NA 
HETATM   36  C   UNL     1      -8.632  19.542  66.278  1.00  0.00    -0.361 A  
HETATM   37  H   UNL     1      -7.595  20.112  64.506  1.00  0.00     0.000 HD 
HETATM   38  C   UNL     1      -9.961  19.975  66.243  1.00  0.00    -0.597 A  
HETATM   39  C   UNL     1     -10.782  19.594  67.321  1.00  0.00    -0.583 A  
HETATM   40  C   UNL     1     -10.339  18.717  68.313  1.00  0.00    -0.391 A  
HETATM   41  C   UNL     1      -9.039  18.219  68.255  1.00  0.00    -0.318 A  
HETATM   42  C   UNL     1      -8.181  18.745  67.309  1.00  0.00    -0.276 A  
HETATM   43  C   UNL     1      -8.583  16.970  68.937  1.00  0.00    -0.196 C  
HETATM   44  C   UNL     1      -9.069  15.738  68.094  1.00  0.00    -0.185 C  
ENDBRANCH  26  27
ENDBRANCH  15  23
TORSDOF 2
ENDMDL
MODEL       42
REMARK 921   NORMALIZED FREE ENERGY PREDICTED BY IDOCK:   -6.07 KCAL/MOL
REMARK 922        TOTAL FREE ENERGY PREDICTED BY IDOCK:   -7.18 KCAL/MOL
REMARK 923 INTER-LIGAND FREE ENERGY PREDICTED BY IDOCK:   -7.02 KCAL/MOL
REMARK 924 INTRA-LIGAND FREE ENERGY PREDICTED BY IDOCK:   -0.16 KCAL/MOL
REMARK 927      BINDING AFFINITY PREDICTED BY RF-SCORE:    0.00 PKD
ROOT
HETATM    1  C   UNL     1      -7.894   4.295  68.077  1.00  0.00    -0.079 C  
HETATM    2  C   UNL     1      -7.168   3.754  66.850  1.00  0.00    -0.064 C  
HETATM    3  C   UNL     1      -6.901   2.260  67.216  1.00  0.00    -0.040 C  
HETATM    4  C   UNL     1      -7.253   2.091  68.691  1.00  0.00    -0.043 C  
HETATM    5  N   UNL     1      -7.454   3.436  69.168  1.00  0.00    -0.049 N  
HETATM    6  C   UNL     1      -7.898   3.673  70.462  1.00  0.00    -0.047 C  
HETATM    7  O   UNL     1      -7.770   2.872  71.380  1.00  0.00    -0.046 OA 
HETATM    8  C   UNL     1      -8.312   5.119  70.601  1.00  0.00    -0.111 C  
HETATM    9  C   UNL     1      -8.412   5.661  72.022  1.00  0.00    -0.126 C  
HETATM   10  N   UNL     1      -9.335   5.471  69.393  1.00  0.00    -0.116 N  
HETATM   11  C   UNL     1      -9.595   5.152  72.813  1.00  0.00    -0.165 C  
HETATM   12  C   UNL     1      -7.094   5.677  72.820  1.00  0.00    -0.089 C  
HETATM   13  C   UNL     1     -10.129   6.594  69.135  1.00  0.00    -0.169 C  
HETATM   14  O   UNL     1     -11.222   6.564  68.585  1.00  0.00    -0.289 OA 
HETATM   15  C   UNL     1      -9.301   7.810  69.504  1.00  0.00    -0.149 C  
HETATM   16  H   UNL     1      -9.244   7.095  67.269  1.00  0.00     0.000 HD 
HETATM   17  C   UNL     1     -10.151   7.919  70.950  1.00  0.00    -0.205 C  
HETATM   18  O   UNL     1      -8.006   7.019  69.044  1.00  0.00    -0.113 OA 
HETATM   19  O   UNL     1      -8.933   6.214  67.099  1.00  0.00    -0.112 OA 
HETATM   20  C   UNL     1      -8.426   5.798  68.366  1.00  0.00    -0.110 C  
HETATM   21  C   UNL     1     -11.658   8.317  70.883  1.00  0.00    -0.282 C  
HETATM   22  C   UNL     1      -9.608   8.716  72.125  1.00  0.00    -0.378 C  
ENDROOT
BRANCH  15  23
HETATM   23  N   UNL     1      -9.091   9.142  68.980  1.00  0.00    -0.142 N  
HETATM   24  H   UNL     1      -8.471   9.793  69.462  1.00  0.00     0.000 HD 
HETATM   25  O   UNL     1     -10.754   8.957  67.371  1.00  0.00    -0.272 OA 
HETATM   26  C   UNL     1      -9.745   9.526  67.803  1.00  0.00    -0.147 C  
BRANCH  26  27
HETATM   27  C   UNL     1      -9.046  10.647  67.011  1.00  0.00    -0.155 C  
HETATM   28  C   UNL     1      -9.836  10.912  65.710  1.00  0.00    -0.237 C  
HETATM   29  N   UNL     1     -10.768  12.067  65.745  1.00  0.00    -0.269 NA 
HETATM   30  C   UNL     1     -10.016  13.348  65.843  1.00  0.00    -0.277 C  
HETATM   31  C   UNL     1     -11.786  11.981  66.799  1.00  0.00    -0.264 C  
HETATM   32  C   UNL     1     -10.918  14.607  66.234  1.00  0.00    -0.327 C  
HETATM   33  C   UNL     1     -10.418  15.325  67.443  1.00  0.00    -0.270 A  
HETATM   34  C   UNL     1     -11.002  16.138  68.396  1.00  0.00    -0.341 A  
HETATM   35  N   UNL     1     -10.005  16.591  69.227  1.00  0.00    -0.262 NA 
HETATM   36  C   UNL     1      -8.783  16.094  68.829  1.00  0.00    -0.240 A  
HETATM   37  H   UNL     1     -10.150  17.207  70.026  1.00  0.00     0.000 HD 
HETATM   38  C   UNL     1      -7.475  16.229  69.304  1.00  0.00    -0.217 A  
HETATM   39  C   UNL     1      -6.480  15.478  68.650  1.00  0.00    -0.102 A  
HETATM   40  C   UNL     1      -6.792  14.542  67.662  1.00  0.00    -0.203 A  
HETATM   41  C   UNL     1      -8.122  14.355  67.291  1.00  0.00    -0.209 A  
HETATM   42  C   UNL     1      -9.068  15.227  67.795  1.00  0.00    -0.182 A  
HETATM   43  C   UNL     1      -8.647  13.125  66.625  1.00  0.00     0.042 C  
HETATM   44  C   UNL     1      -8.818  12.006  67.713  1.00  0.00    -0.165 C  
ENDBRANCH  26  27
ENDBRANCH  15  23
TORSDOF 2
ENDMDL
MODEL       43
REMARK 921   NORMALIZED FREE ENERGY PREDICTED BY IDOCK:   -6.06 KCAL/MOL
REMARK 922        TOTAL FREE ENERGY PREDICTED BY IDOCK:   -7.17 KCAL/MOL
REMARK 923 INTER-LIGAND FREE ENERGY PREDICTED BY IDOCK:   -7.14 KCAL/MOL
REMARK 924 INTRA-LIGAND FREE ENERGY PREDICTED BY IDOCK:   -0.03 KCAL/MOL
REMARK 927      BINDING AFFINITY PREDICTED BY RF-SCORE:    0.00 PKD
ROOT
HETATM    1  C   UNL     1      -6.732  16.825  69.683  1.00  0.00    -0.093 C  
HETATM    2  C   UNL     1      -5.457  16.541  70.469  1.00  0.00    -0.153 C  
HETATM    3  C   UNL     1      -5.145  17.905  71.161  1.00  0.00    -0.193 C  
HETATM    4  C   UNL     1      -6.090  18.940  70.555  1.00  0.00     0.043 C  
HETATM    5  N   UNL     1      -6.696  18.261  69.438  1.00  0.00    -0.217 N  
HETATM    6  C   UNL     1      -7.704  18.866  68.700  1.00  0.00    -0.340 C  
HETATM    7  O   UNL     1      -7.874  20.079  68.651  1.00  0.00    -0.224 OA 
HETATM    8  C   UNL     1      -8.363  17.844  67.805  1.00  0.00    -0.241 C  
HETATM    9  C   UNL     1      -9.175  18.389  66.636  1.00  0.00    -0.305 C  
HETATM   10  N   UNL     1      -8.778  16.567  68.715  1.00  0.00    -0.250 N  
HETATM   11  C   UNL     1     -10.488  19.031  67.021  1.00  0.00    -0.514 C  
HETATM   12  C   UNL     1      -8.376  19.191  65.591  1.00  0.00     0.411 C  
HETATM   13  C   UNL     1      -9.541  15.427  68.436  1.00  0.00    -0.200 C  
HETATM   14  O   UNL     1     -10.251  14.848  69.249  1.00  0.00    -0.229 OA 
HETATM   15  C   UNL     1      -9.174  14.985  67.034  1.00  0.00    -0.230 C  
HETATM   16  H   UNL     1      -8.007  14.007  68.820  1.00  0.00     0.000 HD 
HETATM   17  C   UNL     1     -10.587  15.696  66.466  1.00  0.00    -0.307 C  
HETATM   18  O   UNL     1      -7.701  15.513  67.295  1.00  0.00    -0.174 OA 
HETATM   19  O   UNL     1      -7.515  14.585  69.391  1.00  0.00    -0.135 OA 
HETATM   20  C   UNL     1      -7.571  15.838  68.710  1.00  0.00    -0.173 C  
HETATM   21  C   UNL     1     -11.946  15.049  66.876  1.00  0.00    -0.005 C  
HETATM   22  C   UNL     1     -10.763  16.033  64.995  1.00  0.00    -0.400 C  
ENDROOT
BRANCH  15  23
HETATM   23  N   UNL     1      -8.968  13.731  66.342  1.00  0.00    -0.471 N  
HETATM   24  H   UNL     1      -8.431  13.703  65.475  1.00  0.00     0.000 HD 
HETATM   25  O   UNL     1     -10.445  12.549  67.688  1.00  0.00    -0.213 OA 
HETATM   26  C   UNL     1      -9.512  12.556  66.876  1.00  0.00    -0.219 C  
BRANCH  26  27
HETATM   27  C   UNL     1      -8.784  11.262  66.468  1.00  0.00    -0.178 C  
HETATM   28  C   UNL     1      -7.293  11.379  66.856  1.00  0.00    -0.147 C  
HETATM   29  N   UNL     1      -6.905  10.721  68.129  1.00  0.00    -0.067 NA 
HETATM   30  C   UNL     1      -7.015   9.241  68.012  1.00  0.00    -0.076 C  
HETATM   31  C   UNL     1      -7.645  11.204  69.301  1.00  0.00    -0.055 C  
HETATM   32  C   UNL     1      -6.958   8.468  69.409  1.00  0.00    -0.049 C  
HETATM   33  C   UNL     1      -8.139   7.583  69.630  1.00  0.00    -0.127 A  
HETATM   34  C   UNL     1      -8.768   7.070  70.749  1.00  0.00    -0.148 A  
HETATM   35  N   UNL     1      -9.763   6.225  70.318  1.00  0.00    -0.163 NA 
HETATM   36  C   UNL     1      -9.789   6.172  68.942  1.00  0.00    -0.140 A  
HETATM   37  H   UNL     1     -10.394   5.710  70.932  1.00  0.00     0.000 HD 
HETATM   38  C   UNL     1     -10.576   5.491  68.007  1.00  0.00    -0.213 A  
HETATM   39  C   UNL     1     -10.333   5.768  66.649  1.00  0.00    -0.300 A  
HETATM   40  C   UNL     1      -9.445   6.769  66.247  1.00  0.00    -0.116 A  
HETATM   41  C   UNL     1      -8.759   7.503  67.212  1.00  0.00    -0.121 A  
HETATM   42  C   UNL     1      -8.855   7.098  68.530  1.00  0.00    -0.125 A  
HETATM   43  C   UNL     1      -8.163   8.853  66.979  1.00  0.00    -0.106 C  
HETATM   44  C   UNL     1      -9.315   9.919  67.020  1.00  0.00    -0.175 C  
ENDBRANCH  26  27
ENDBRANCH  15  23
TORSDOF 2
ENDMDL
MODEL       44
REMARK 921   NORMALIZED FREE ENERGY PREDICTED BY IDOCK:   -5.96 KCAL/MOL
REMARK 922        TOTAL FREE ENERGY PREDICTED BY IDOCK:   -7.06 KCAL/MOL
REMARK 923 INTER-LIGAND FREE ENERGY PREDICTED BY IDOCK:   -7.17 KCAL/MOL
REMARK 924 INTRA-LIGAND FREE ENERGY PREDICTED BY IDOCK:    0.11 KCAL/MOL
REMARK 927      BINDING AFFINITY PREDICTED BY RF-SCORE:    0.00 PKD
ROOT
HETATM    1  C   UNL     1      -9.784   3.803  69.150  1.00  0.00    -0.037 C  
HETATM    2  C   UNL     1      -9.386   3.150  67.831  1.00  0.00    -0.252 C  
HETATM    3  C   UNL     1      -9.630   1.630  68.090  1.00  0.00    -0.158 C  
HETATM    4  C   UNL     1      -9.907   1.470  69.583  1.00  0.00     0.172 C  
HETATM    5  N   UNL     1      -9.589   2.757  70.146  1.00  0.00    -0.103 N  
HETATM    6  C   UNL     1      -9.824   3.024  71.488  1.00  0.00    -0.122 C  
HETATM    7  O   UNL     1      -9.914   2.154  72.346  1.00  0.00    -0.123 OA 
HETATM    8  C   UNL     1      -9.696   4.507  71.743  1.00  0.00    -0.171 C  
HETATM    9  C   UNL     1      -9.494   4.932  73.192  1.00  0.00    -0.144 C  
HETATM   10  N   UNL     1     -10.621   5.287  70.662  1.00  0.00    -0.233 N  
HETATM   11  C   UNL     1     -10.717   4.795  74.070  1.00  0.00    -0.358 C  
HETATM   12  C   UNL     1      -8.196   4.429  73.854  1.00  0.00    -0.100 C  
HETATM   13  C   UNL     1     -10.991   6.632  70.543  1.00  0.00    -0.286 C  
HETATM   14  O   UNL     1     -12.064   7.024  70.104  1.00  0.00    -0.166 OA 
HETATM   15  C   UNL     1      -9.766   7.456  70.890  1.00  0.00    -0.169 C  
HETATM   16  H   UNL     1     -10.130   6.953  68.626  1.00  0.00     0.000 HD 
HETATM   17  C   UNL     1     -10.413   7.729  72.417  1.00  0.00    -0.321 C  
HETATM   18  O   UNL     1      -8.866   6.310  70.262  1.00  0.00    -0.149 OA 
HETATM   19  O   UNL     1     -10.159   6.036  68.381  1.00  0.00    -0.142 OA 
HETATM   20  C   UNL     1      -9.735   5.368  69.568  1.00  0.00    -0.176 C  
HETATM   21  C   UNL     1     -11.687   8.623  72.520  1.00  0.00    -0.330 C  
HETATM   22  C   UNL     1      -9.538   8.191  73.571  1.00  0.00    -0.061 C  
ENDROOT
BRANCH  15  23
HETATM   23  N   UNL     1      -9.144   8.674  70.417  1.00  0.00    -0.150 N  
HETATM   24  H   UNL     1      -8.250   8.979  70.801  1.00  0.00     0.000 HD 
HETATM   25  O   UNL     1     -10.990   9.336  69.174  1.00  0.00    -0.175 OA 
HETATM   26  C   UNL     1      -9.783   9.428  69.425  1.00  0.00    -0.177 C  
BRANCH  26  27
HETATM   27  C   UNL     1      -8.845  10.308  68.577  1.00  0.00    -0.127 C  
HETATM   28  C   UNL     1      -8.546   9.586  67.245  1.00  0.00    -0.128 C  
HETATM   29  N   UNL     1      -9.354  10.023  66.079  1.00  0.00    -0.164 NA 
HETATM   30  C   UNL     1      -9.006  11.417  65.689  1.00  0.00    -0.123 C  
HETATM   31  C   UNL     1     -10.803   9.885  66.271  1.00  0.00     0.212 C  
HETATM   32  C   UNL     1     -10.047  12.095  64.685  1.00  0.00    -0.282 C  
HETATM   33  C   UNL     1     -10.589  13.388  65.197  1.00  0.00    -0.353 A  
HETATM   34  C   UNL     1     -11.743  14.112  64.968  1.00  0.00    -0.376 A  
HETATM   35  N   UNL     1     -11.641  15.293  65.663  1.00  0.00    -0.129 NA 
HETATM   36  C   UNL     1     -10.439  15.355  66.335  1.00  0.00    -0.303 A  
HETATM   37  H   UNL     1     -12.355  16.021  65.681  1.00  0.00     0.000 HD 
HETATM   38  C   UNL     1      -9.837  16.301  67.170  1.00  0.00    -0.243 A  
HETATM   39  C   UNL     1      -8.598  15.952  67.737  1.00  0.00    -0.164 A  
HETATM   40  C   UNL     1      -8.052  14.675  67.588  1.00  0.00    -0.185 A  
HETATM   41  C   UNL     1      -8.736  13.721  66.838  1.00  0.00    -0.172 A  
HETATM   42  C   UNL     1      -9.849  14.127  66.127  1.00  0.00    -0.326 A  
HETATM   43  C   UNL     1      -8.536  12.246  66.965  1.00  0.00    -0.181 C  
HETATM   44  C   UNL     1      -9.296  11.750  68.246  1.00  0.00    -0.193 C  
ENDBRANCH  26  27
ENDBRANCH  15  23
TORSDOF 2
ENDMDL
MODEL       45
REMARK 921   NORMALIZED FREE ENERGY PREDICTED BY IDOCK:   -5.90 KCAL/MOL
REMARK 922        TOTAL FREE ENERGY PREDICTED BY IDOCK:   -7.00 KCAL/MOL
REMARK 923 INTER-LIGAND FREE ENERGY PREDICTED BY IDOCK:   -7.64 KCAL/MOL
REMARK 924 INTRA-LIGAND FREE ENERGY PREDICTED BY IDOCK:    0.64 KCAL/MOL
REMARK 927      BINDING AFFINITY PREDICTED BY RF-SCORE:    0.00 PKD
ROOT
HETATM    1  C   UNL     1     -10.424  13.847  67.364  1.00  0.00    -0.263 C  
HETATM    2  C   UNL     1     -11.450  14.896  67.780  1.00  0.00    -0.353 C  
HETATM    3  C   UNL     1     -10.724  16.247  67.494  1.00  0.00    -0.300 C  
HETATM    4  C   UNL     1      -9.269  15.915  67.174  1.00  0.00    -0.209 C  
HETATM    5  N   UNL     1      -9.139  14.519  67.507  1.00  0.00    -0.186 N  
HETATM    6  C   UNL     1      -7.962  13.832  67.244  1.00  0.00    -0.119 C  
HETATM    7  O   UNL     1      -6.873  14.378  67.110  1.00  0.00    -0.190 OA 
HETATM    8  C   UNL     1      -8.194  12.347  67.400  1.00  0.00    -0.180 C  
HETATM    9  C   UNL     1      -6.951  11.482  67.575  1.00  0.00    -0.102 C  
HETATM   10  N   UNL     1      -9.497  11.943  66.523  1.00  0.00    -0.212 N  
HETATM   11  C   UNL     1      -6.116  11.312  66.326  1.00  0.00    -0.084 C  
HETATM   12  C   UNL     1      -6.121  11.763  68.842  1.00  0.00    -0.054 C  
HETATM   13  C   UNL     1     -10.053  10.703  66.189  1.00  0.00    -0.249 C  
HETATM   14  O   UNL     1     -10.630  10.459  65.138  1.00  0.00    -0.191 OA 
HETATM   15  C   UNL     1      -9.950   9.829  67.424  1.00  0.00    -0.191 C  
HETATM   16  H   UNL     1     -11.943  11.029  67.107  1.00  0.00     0.000 HD 
HETATM   17  C   UNL     1      -8.613   9.070  66.744  1.00  0.00    -0.129 C  
HETATM   18  O   UNL     1     -10.146  11.128  68.312  1.00  0.00    -0.172 OA 
HETATM   19  O   UNL     1     -11.881  11.975  67.063  1.00  0.00    -0.573 OA 
HETATM   20  C   UNL     1     -10.529  12.231  67.440  1.00  0.00    -0.210 C  
HETATM   21  C   UNL     1      -8.844   8.172  65.489  1.00  0.00    -0.130 C  
HETATM   22  C   UNL     1      -7.640   8.274  67.598  1.00  0.00    -0.098 C  
ENDROOT
BRANCH  15  23
HETATM   23  N   UNL     1     -10.768   8.837  68.087  1.00  0.00    -0.439 N  
HETATM   24  H   UNL     1     -11.576   8.435  67.613  1.00  0.00     0.000 HD 
HETATM   25  O   UNL     1      -9.726   9.104  70.144  1.00  0.00    -0.179 OA 
HETATM   26  C   UNL     1     -10.438   8.435  69.387  1.00  0.00    -0.217 C  
BRANCH  26  27
HETATM   27  C   UNL     1     -10.931   7.027  69.773  1.00  0.00    -0.283 C  
HETATM   28  C   UNL     1     -10.874   6.114  68.528  1.00  0.00    -0.314 C  
HETATM   29  N   UNL     1      -9.683   5.233  68.430  1.00  0.00    -0.134 NA 
HETATM   30  C   UNL     1      -9.706   4.195  69.497  1.00  0.00    -0.183 C  
HETATM   31  C   UNL     1      -8.404   5.953  68.435  1.00  0.00    -0.112 C  
HETATM   32  C   UNL     1      -8.319   3.428  69.693  1.00  0.00    -0.080 C  
HETATM   33  C   UNL     1      -7.812   3.496  71.095  1.00  0.00    -0.058 A  
HETATM   34  C   UNL     1      -6.563   3.397  71.678  1.00  0.00    -0.022 A  
HETATM   35  N   UNL     1      -6.733   3.443  73.042  1.00  0.00    -0.032 NA 
HETATM   36  C   UNL     1      -8.069   3.563  73.357  1.00  0.00    -0.075 A  
HETATM   37  H   UNL     1      -5.976   3.396  73.724  1.00  0.00     0.000 HD 
HETATM   38  C   UNL     1      -8.782   3.653  74.556  1.00  0.00    -0.093 A  
HETATM   39  C   UNL     1     -10.173   3.847  74.456  1.00  0.00    -0.252 A  
HETATM   40  C   UNL     1     -10.799   4.075  73.228  1.00  0.00    -0.301 A  
HETATM   41  C   UNL     1     -10.037   4.088  72.063  1.00  0.00    -0.227 A  
HETATM   42  C   UNL     1      -8.712   3.705  72.146  1.00  0.00    -0.113 A  
HETATM   43  C   UNL     1     -10.453   4.750  70.789  1.00  0.00    -0.091 C  
HETATM   44  C   UNL     1     -10.217   6.295  70.933  1.00  0.00    -0.236 C  
ENDBRANCH  26  27
ENDBRANCH  15  23
TORSDOF 2
ENDMDL
MODEL       46
REMARK 921   NORMALIZED FREE ENERGY PREDICTED BY IDOCK:   -5.86 KCAL/MOL
REMARK 922        TOTAL FREE ENERGY PREDICTED BY IDOCK:   -6.95 KCAL/MOL
REMARK 923 INTER-LIGAND FREE ENERGY PREDICTED BY IDOCK:   -6.61 KCAL/MOL
REMARK 924 INTRA-LIGAND FREE ENERGY PREDICTED BY IDOCK:   -0.33 KCAL/MOL
REMARK 927      BINDING AFFINITY PREDICTED BY RF-SCORE:    0.00 PKD
ROOT
HETATM    1  C   UNL     1      -8.182   8.809  70.894  1.00  0.00    -0.161 C  
HETATM    2  C   UNL     1      -8.337   9.082  72.386  1.00  0.00     0.447 C  
HETATM    3  C   UNL     1      -8.534   7.659  72.997  1.00  0.00    -0.191 C  
HETATM    4  C   UNL     1      -8.728   6.694  71.830  1.00  0.00    -0.128 C  
HETATM    5  N   UNL     1      -8.883   7.549  70.680  1.00  0.00    -0.145 N  
HETATM    6  C   UNL     1      -8.976   7.013  69.403  1.00  0.00    -0.139 C  
HETATM    7  O   UNL     1      -9.331   5.863  69.175  1.00  0.00    -0.119 OA 
HETATM    8  C   UNL     1      -8.822   8.112  68.378  1.00  0.00    -0.133 C  
HETATM    9  C   UNL     1      -9.316   7.799  66.971  1.00  0.00    -0.196 C  
HETATM   10  N   UNL     1      -7.479   8.950  68.731  1.00  0.00    -0.082 N  
HETATM   11  C   UNL     1      -8.452   6.831  66.195  1.00  0.00    -0.135 C  
HETATM   12  C   UNL     1     -10.826   7.518  66.845  1.00  0.00    -0.174 C  
HETATM   13  C   UNL     1      -6.790   9.952  68.037  1.00  0.00    -0.072 C  
HETATM   14  O   UNL     1      -5.577  10.110  68.066  1.00  0.00    -0.039 OA 
HETATM   15  C   UNL     1      -7.838  10.858  67.422  1.00  0.00    -0.113 C  
HETATM   16  H   UNL     1      -6.985  11.457  69.526  1.00  0.00     0.000 HD 
HETATM   17  C   UNL     1      -7.596  10.093  65.945  1.00  0.00    -0.128 C  
HETATM   18  O   UNL     1      -8.768  10.569  68.674  1.00  0.00    -0.128 OA 
HETATM   19  O   UNL     1      -7.102  10.839  70.237  1.00  0.00    -0.210 OA 
HETATM   20  C   UNL     1      -7.983   9.864  69.680  1.00  0.00    -0.162 C  
HETATM   21  C   UNL     1      -6.231  10.313  65.224  1.00  0.00    -0.127 C  
HETATM   22  C   UNL     1      -8.625  10.190  64.831  1.00  0.00    -0.188 C  
ENDROOT
BRANCH  15  23
HETATM   23  N   UNL     1      -8.005  12.277  67.196  1.00  0.00    -0.220 N  
HETATM   24  H   UNL     1      -7.198  12.901  67.221  1.00  0.00     0.000 HD 
HETATM   25  O   UNL     1     -10.324  12.186  67.242  1.00  0.00    -0.210 OA 
HETATM   26  C   UNL     1      -9.285  12.785  66.941  1.00  0.00    -0.229 C  
BRANCH  26  27
HETATM   27  C   UNL     1      -9.312  14.103  66.145  1.00  0.00    -0.166 C  
HETATM   28  C   UNL     1     -10.768  14.611  66.061  1.00  0.00    -0.312 C  
HETATM   29  N   UNL     1     -11.142  15.662  67.041  1.00  0.00    -0.257 NA 
HETATM   30  C   UNL     1     -10.420  16.932  66.752  1.00  0.00    -0.260 C  
HETATM   31  C   UNL     1     -10.955  15.266  68.441  1.00  0.00    -0.271 C  
HETATM   32  C   UNL     1     -10.482  18.003  67.935  1.00  0.00    -0.408 C  
HETATM   33  C   UNL     1      -9.131  18.450  68.385  1.00  0.00    -0.340 A  
HETATM   34  C   UNL     1      -8.628  18.979  69.558  1.00  0.00     0.398 A  
HETATM   35  N   UNL     1      -7.306  19.290  69.344  1.00  0.00    -0.244 NA 
HETATM   36  C   UNL     1      -6.942  18.981  68.051  1.00  0.00    -0.232 A  
HETATM   37  H   UNL     1      -6.683  19.692  70.043  1.00  0.00     0.000 HD 
HETATM   38  C   UNL     1      -5.754  19.087  67.322  1.00  0.00    -0.170 A  
HETATM   39  C   UNL     1      -5.765  18.577  66.010  1.00  0.00    -0.206 A  
HETATM   40  C   UNL     1      -6.861  17.878  65.499  1.00  0.00    -0.033 A  
HETATM   41  C   UNL     1      -7.988  17.696  66.296  1.00  0.00    -0.292 A  
HETATM   42  C   UNL     1      -8.047  18.362  67.505  1.00  0.00    -0.253 A  
HETATM   43  C   UNL     1      -9.007  16.623  66.085  1.00  0.00    -0.321 C  
HETATM   44  C   UNL     1      -8.428  15.273  66.636  1.00  0.00    -0.264 C  
ENDBRANCH  26  27
ENDBRANCH  15  23
TORSDOF 2
ENDMDL
MODEL       47
REMARK 921   NORMALIZED FREE ENERGY PREDICTED BY IDOCK:   -5.79 KCAL/MOL
REMARK 922        TOTAL FREE ENERGY PREDICTED BY IDOCK:   -6.87 KCAL/MOL
REMARK 923 INTER-LIGAND FREE ENERGY PREDICTED BY IDOCK:   -7.16 KCAL/MOL
REMARK 924 INTRA-LIGAND FREE ENERGY PREDICTED BY IDOCK:    0.28 KCAL/MOL
REMARK 927      BINDING AFFINITY PREDICTED BY RF-SCORE:    0.00 PKD
ROOT
HETATM    1  C   UNL     1     -12.576  12.982  70.662  1.00  0.00    -0.193 C  
HETATM    2  C   UNL     1     -13.327  12.720  71.964  1.00  0.00    -0.565 C  
HETATM    3  C   UNL     1     -14.214  13.993  72.134  1.00  0.00    -0.628 C  
HETATM    4  C   UNL     1     -13.755  15.002  71.084  1.00  0.00    -0.414 C  
HETATM    5  N   UNL     1     -12.544  14.434  70.547  1.00  0.00    -0.342 N  
HETATM    6  C   UNL     1     -11.891  15.032  69.478  1.00  0.00    -0.330 C  
HETATM    7  O   UNL     1     -12.018  16.215  69.182  1.00  0.00    -0.281 OA 
HETATM    8  C   UNL     1     -10.849  14.089  68.926  1.00  0.00    -0.258 C  
HETATM    9  C   UNL     1      -9.764  14.712  68.056  1.00  0.00    -0.216 C  
HETATM   10  N   UNL     1     -11.558  12.657  68.651  1.00  0.00    -0.294 N  
HETATM   11  C   UNL     1     -10.224  15.151  66.685  1.00  0.00    -0.270 C  
HETATM   12  C   UNL     1      -8.856  15.738  68.763  1.00  0.00    -0.207 C  
HETATM   13  C   UNL     1     -11.107  11.497  68.009  1.00  0.00    -0.254 C  
HETATM   14  O   UNL     1     -11.819  10.735  67.368  1.00  0.00    -0.382 OA 
HETATM   15  C   UNL     1      -9.659  11.305  68.415  1.00  0.00    -0.195 C  
HETATM   16  H   UNL     1     -11.296  10.203  69.685  1.00  0.00     0.000 HD 
HETATM   17  C   UNL     1      -9.186  11.942  66.933  1.00  0.00    -0.193 C  
HETATM   18  O   UNL     1     -10.011  11.940  69.825  1.00  0.00     0.836 OA 
HETATM   19  O   UNL     1     -11.951  10.739  70.116  1.00  0.00    -0.290 OA 
HETATM   20  C   UNL     1     -11.460  12.066  69.927  1.00  0.00    -0.162 C  
HETATM   21  C   UNL     1      -9.482  11.104  65.651  1.00  0.00    -0.252 C  
HETATM   22  C   UNL     1      -7.778  12.470  66.716  1.00  0.00     0.162 C  
ENDROOT
BRANCH  15  23
HETATM   23  N   UNL     1      -8.794  10.195  68.748  1.00  0.00    -0.138 N  
HETATM   24  H   UNL     1      -7.789  10.337  68.852  1.00  0.00     0.000 HD 
HETATM   25  O   UNL     1     -10.457   8.597  68.481  1.00  0.00    -0.209 OA 
HETATM   26  C   UNL     1      -9.351   8.923  68.927  1.00  0.00    -0.140 C  
BRANCH  26  27
HETATM   27  C   UNL     1      -8.533   7.980  69.830  1.00  0.00    -0.127 C  
HETATM   28  C   UNL     1      -9.337   7.694  71.118  1.00  0.00    -0.154 C  
HETATM   29  N   UNL     1     -10.085   6.412  71.139  1.00  0.00    -0.184 NA 
HETATM   30  C   UNL     1      -9.149   5.255  71.170  1.00  0.00    -0.144 C  
HETATM   31  C   UNL     1     -11.053   6.267  70.045  1.00  0.00    -0.388 C  
HETATM   32  C   UNL     1      -9.835   3.849  70.845  1.00  0.00    -0.213 C  
HETATM   33  C   UNL     1      -9.178   3.130  69.715  1.00  0.00    -0.220 A  
HETATM   34  C   UNL     1      -9.589   2.172  68.808  1.00  0.00    -0.030 A  
HETATM   35  N   UNL     1      -8.498   1.816  68.052  1.00  0.00    -0.064 NA 
HETATM   36  C   UNL     1      -7.383   2.519  68.454  1.00  0.00    -0.048 A  
HETATM   37  H   UNL     1      -8.511   1.129  67.299  1.00  0.00     0.000 HD 
HETATM   38  C   UNL     1      -6.047   2.549  68.039  1.00  0.00    -0.024 A  
HETATM   39  C   UNL     1      -5.206   3.485  68.669  1.00  0.00    -0.012 A  
HETATM   40  C   UNL     1      -5.700   4.433  69.569  1.00  0.00    -0.017 A  
HETATM   41  C   UNL     1      -7.059   4.443  69.875  1.00  0.00    -0.046 A  
HETATM   42  C   UNL     1      -7.841   3.404  69.406  1.00  0.00    -0.054 A  
HETATM   43  C   UNL     1      -7.792   5.624  70.423  1.00  0.00    -0.102 C  
HETATM   44  C   UNL     1      -8.073   6.624  69.245  1.00  0.00    -0.116 C  
ENDBRANCH  26  27
ENDBRANCH  15  23
TORSDOF 2
ENDMDL
MODEL       48
REMARK 921   NORMALIZED FREE ENERGY PREDICTED BY IDOCK:   -5.78 KCAL/MOL
REMARK 922        TOTAL FREE ENERGY PREDICTED BY IDOCK:   -6.86 KCAL/MOL
REMARK 923 INTER-LIGAND FREE ENERGY PREDICTED BY IDOCK:   -7.19 KCAL/MOL
REMARK 924 INTRA-LIGAND FREE ENERGY PREDICTED BY IDOCK:    0.33 KCAL/MOL
REMARK 927      BINDING AFFINITY PREDICTED BY RF-SCORE:    0.00 PKD
ROOT
HETATM    1  C   UNL     1      -7.323   3.753  69.566  1.00  0.00    -0.052 C  
HETATM    2  C   UNL     1      -6.200   3.476  68.572  1.00  0.00    -0.032 C  
HETATM    3  C   UNL     1      -5.774   2.012  68.904  1.00  0.00    -0.022 C  
HETATM    4  C   UNL     1      -6.482   1.622  70.199  1.00  0.00    -0.025 C  
HETATM    5  N   UNL     1      -7.050   2.856  70.682  1.00  0.00    -0.033 N  
HETATM    6  C   UNL     1      -7.868   2.872  71.802  1.00  0.00    -0.053 C  
HETATM    7  O   UNL     1      -7.853   2.002  72.665  1.00  0.00    -0.049 OA 
HETATM    8  C   UNL     1      -8.563   4.209  71.907  1.00  0.00    -0.105 C  
HETATM    9  C   UNL     1      -9.149   4.564  73.268  1.00  0.00    -0.119 C  
HETATM   10  N   UNL     1      -9.261   4.529  70.478  1.00  0.00    -0.114 N  
HETATM   11  C   UNL     1     -10.390   3.789  73.647  1.00  0.00    -0.238 C  
HETATM   12  C   UNL     1      -8.128   4.698  74.414  1.00  0.00    -0.099 C  
HETATM   13  C   UNL     1     -10.146   5.535  70.072  1.00  0.00    -0.241 C  
HETATM   14  O   UNL     1     -11.020   5.395  69.227  1.00  0.00    -0.168 OA 
HETATM   15  C   UNL     1      -9.689   6.817  70.742  1.00  0.00    -0.179 C  
HETATM   16  H   UNL     1      -8.888   6.378  68.579  1.00  0.00     0.000 HD 
HETATM   17  C   UNL     1     -10.910   6.626  71.881  1.00  0.00    -0.267 C  
HETATM   18  O   UNL     1      -8.195   6.298  70.629  1.00  0.00    -0.121 OA 
HETATM   19  O   UNL     1      -8.386   5.582  68.452  1.00  0.00    -0.098 OA 
HETATM   20  C   UNL     1      -8.180   5.111  69.783  1.00  0.00    -0.089 C  
HETATM   21  C   UNL     1     -12.386   6.786  71.404  1.00  0.00    -0.403 C  
HETATM   22  C   UNL     1     -10.867   7.360  73.212  1.00  0.00    -0.417 C  
ENDROOT
BRANCH  15  23
HETATM   23  N   UNL     1      -9.591   8.216  70.387  1.00  0.00    -0.170 N  
HETATM   24  H   UNL     1      -9.395   8.916  71.102  1.00  0.00     0.000 HD 
HETATM   25  O   UNL     1     -10.346   7.895  68.215  1.00  0.00    -0.199 OA 
HETATM   26  C   UNL     1      -9.767   8.598  69.052  1.00  0.00    -0.173 C  
BRANCH  26  27
HETATM   27  C   UNL     1      -9.079   9.920  68.661  1.00  0.00    -0.132 C  
HETATM   28  C   UNL     1      -8.330   9.721  67.324  1.00  0.00    -0.121 C  
HETATM   29  N   UNL     1      -9.040  10.197  66.110  1.00  0.00    -0.151 NA 
HETATM   30  C   UNL     1      -9.151  11.682  66.113  1.00  0.00    -0.203 C  
HETATM   31  C   UNL     1     -10.355   9.579  65.907  1.00  0.00     0.019 C  
HETATM   32  C   UNL     1     -10.188  12.262  65.045  1.00  0.00    -0.312 C  
HETATM   33  C   UNL     1     -11.229  13.135  65.663  1.00  0.00    -0.306 A  
HETATM   34  C   UNL     1     -12.512  13.508  65.309  1.00  0.00    -0.482 A  
HETATM   35  N   UNL     1     -12.952  14.423  66.236  1.00  0.00    -0.216 NA 
HETATM   36  C   UNL     1     -11.977  14.659  67.181  1.00  0.00    -0.283 A  
HETATM   37  H   UNL     1     -13.870  14.865  66.226  1.00  0.00     0.000 HD 
HETATM   38  C   UNL     1     -11.895  15.473  68.315  1.00  0.00    -0.189 A  
HETATM   39  C   UNL     1     -10.722  15.373  69.087  1.00  0.00    -0.246 A  
HETATM   40  C   UNL     1      -9.741  14.415  68.818  1.00  0.00    -0.190 A  
HETATM   41  C   UNL     1      -9.910  13.546  67.743  1.00  0.00    -0.233 A  
HETATM   42  C   UNL     1     -10.962  13.775  66.877  1.00  0.00    -0.296 A  
HETATM   43  C   UNL     1      -9.221  12.226  67.608  1.00  0.00    -0.183 C  
HETATM   44  C   UNL     1      -9.953  11.189  68.532  1.00  0.00    -0.204 C  
ENDBRANCH  26  27
ENDBRANCH  15  23
TORSDOF 2
ENDMDL
MODEL       49
REMARK 921   NORMALIZED FREE ENERGY PREDICTED BY IDOCK:   -5.71 KCAL/MOL
REMARK 922        TOTAL FREE ENERGY PREDICTED BY IDOCK:   -6.78 KCAL/MOL
REMARK 923 INTER-LIGAND FREE ENERGY PREDICTED BY IDOCK:   -6.59 KCAL/MOL
REMARK 924 INTRA-LIGAND FREE ENERGY PREDICTED BY IDOCK:   -0.19 KCAL/MOL
REMARK 927      BINDING AFFINITY PREDICTED BY RF-SCORE:    0.00 PKD
ROOT
HETATM    1  C   UNL     1      -7.786  15.765  67.399  1.00  0.00    -0.175 C  
HETATM    2  C   UNL     1      -6.787  16.752  66.805  1.00  0.00    -0.265 C  
HETATM    3  C   UNL     1      -7.282  18.134  67.337  1.00  0.00    -0.208 C  
HETATM    4  C   UNL     1      -8.645  17.902  67.984  1.00  0.00    -0.256 C  
HETATM    5  N   UNL     1      -8.993  16.554  67.614  1.00  0.00    -0.197 N  
HETATM    6  C   UNL     1     -10.136  15.951  68.118  1.00  0.00    -0.229 C  
HETATM    7  O   UNL     1     -11.100  16.575  68.546  1.00  0.00    -0.348 OA 
HETATM    8  C   UNL     1     -10.102  14.469  67.826  1.00  0.00    -0.225 C  
HETATM    9  C   UNL     1     -11.431  13.730  67.912  1.00  0.00    -0.347 C  
HETATM   10  N   UNL     1      -8.675  13.887  68.332  1.00  0.00    -0.181 N  
HETATM   11  C   UNL     1     -11.958  13.532  69.316  1.00  0.00    -0.378 C  
HETATM   12  C   UNL     1     -12.507  14.181  66.906  1.00  0.00    -0.142 C  
HETATM   13  C   UNL     1      -8.185  12.581  68.448  1.00  0.00    -0.136 C  
HETATM   14  O   UNL     1      -7.402  12.204  69.311  1.00  0.00     0.005 OA 
HETATM   15  C   UNL     1      -8.669  11.820  67.229  1.00  0.00    -0.163 C  
HETATM   16  H   UNL     1      -6.546  12.816  67.115  1.00  0.00     0.000 HD 
HETATM   17  C   UNL     1      -9.874  11.126  68.172  1.00  0.00    -0.188 C  
HETATM   18  O   UNL     1      -8.558  13.165  66.395  1.00  0.00     0.074 OA 
HETATM   19  O   UNL     1      -6.498  13.758  67.227  1.00  0.00    -0.281 OA 
HETATM   20  C   UNL     1      -7.867  14.158  67.208  1.00  0.00    -0.132 C  
HETATM   21  C   UNL     1      -9.444  10.114  69.278  1.00  0.00    -0.231 C  
HETATM   22  C   UNL     1     -11.099  10.486  67.538  1.00  0.00    -0.358 C  
ENDROOT
BRANCH  15  23
HETATM   23  N   UNL     1      -8.138  10.819  66.331  1.00  0.00    -0.148 N  
HETATM   24  H   UNL     1      -7.318  10.272  66.594  1.00  0.00     0.000 HD 
HETATM   25  O   UNL     1      -9.506  11.437  64.559  1.00  0.00    -0.213 OA 
HETATM   26  C   UNL     1      -8.763  10.606  65.095  1.00  0.00    -0.186 C  
BRANCH  26  27
HETATM   27  C   UNL     1      -8.553   9.203  64.497  1.00  0.00    -0.198 C  
HETATM   28  C   UNL     1      -7.176   9.154  63.799  1.00  0.00    -0.096 C  
HETATM   29  N   UNL     1      -6.076   8.543  64.587  1.00  0.00    -0.064 NA 
HETATM   30  C   UNL     1      -6.309   7.085  64.777  1.00  0.00    -0.037 C  
HETATM   31  C   UNL     1      -5.828   9.201  65.876  1.00  0.00    -0.050 C  
HETATM   32  C   UNL     1      -5.381   6.414  65.890  1.00  0.00    -0.014 C  
HETATM   33  C   UNL     1      -6.161   5.707  66.947  1.00  0.00    -0.034 A  
HETATM   34  C   UNL     1      -5.916   5.361  68.263  1.00  0.00    -0.018 A  
HETATM   35  N   UNL     1      -6.987   4.624  68.708  1.00  0.00    -0.051 NA 
HETATM   36  C   UNL     1      -7.921   4.475  67.705  1.00  0.00    -0.096 A  
HETATM   37  H   UNL     1      -7.079   4.240  69.648  1.00  0.00     0.000 HD 
HETATM   38  C   UNL     1      -9.162   3.837  67.615  1.00  0.00    -0.212 A  
HETATM   39  C   UNL     1      -9.866   3.983  66.405  1.00  0.00    -0.178 A  
HETATM   40  C   UNL     1      -9.418   4.829  65.388  1.00  0.00    -0.159 A  
HETATM   41  C   UNL     1      -8.230   5.535  65.559  1.00  0.00    -0.130 A  
HETATM   42  C   UNL     1      -7.449   5.241  66.660  1.00  0.00    -0.087 A  
HETATM   43  C   UNL     1      -7.871   6.777  64.808  1.00  0.00    -0.119 C  
HETATM   44  C   UNL     1      -8.652   7.983  65.441  1.00  0.00    -0.138 C  
ENDBRANCH  26  27
ENDBRANCH  15  23
TORSDOF 2
ENDMDL
MODEL       50
REMARK 921   NORMALIZED FREE ENERGY PREDICTED BY IDOCK:   -5.60 KCAL/MOL
REMARK 922        TOTAL FREE ENERGY PREDICTED BY IDOCK:   -6.66 KCAL/MOL
REMARK 923 INTER-LIGAND FREE ENERGY PREDICTED BY IDOCK:   -6.67 KCAL/MOL
REMARK 924 INTRA-LIGAND FREE ENERGY PREDICTED BY IDOCK:    0.01 KCAL/MOL
REMARK 927      BINDING AFFINITY PREDICTED BY RF-SCORE:    0.00 PKD
ROOT
HETATM    1  C   UNL     1      -8.468   8.287  64.124  1.00  0.00     0.036 C  
HETATM    2  C   UNL     1      -8.519   8.158  62.605  1.00  0.00    -0.038 C  
HETATM    3  C   UNL     1      -8.304   6.631  62.363  1.00  0.00     0.006 C  
HETATM    4  C   UNL     1      -7.901   6.018  63.702  1.00  0.00    -0.112 C  
HETATM    5  N   UNL     1      -7.663   7.153  64.558  1.00  0.00    -0.108 N  
HETATM    6  C   UNL     1      -7.375   6.980  65.905  1.00  0.00    -0.075 C  
HETATM    7  O   UNL     1      -6.916   5.945  66.373  1.00  0.00    -0.057 OA 
HETATM    8  C   UNL     1      -7.474   8.307  66.621  1.00  0.00    -0.086 C  
HETATM    9  C   UNL     1      -6.789   8.397  67.979  1.00  0.00    -0.070 C  
HETATM   10  N   UNL     1      -8.904   8.976  66.251  1.00  0.00    -0.143 N  
HETATM   11  C   UNL     1      -7.482   7.642  69.091  1.00  0.00    -0.095 C  
HETATM   12  C   UNL     1      -5.259   8.209  67.963  1.00  0.00    -0.033 C  
HETATM   13  C   UNL     1      -9.568  10.103  66.749  1.00  0.00    -0.177 C  
HETATM   14  O   UNL     1     -10.783  10.209  66.849  1.00  0.00    -0.226 OA 
HETATM   15  C   UNL     1      -8.516  11.175  66.957  1.00  0.00    -0.146 C  
HETATM   16  H   UNL     1      -9.663  11.163  64.909  1.00  0.00     0.000 HD 
HETATM   17  C   UNL     1      -8.519  10.824  68.601  1.00  0.00    -0.143 C  
HETATM   18  O   UNL     1      -7.732  10.593  65.707  1.00  0.00    -0.153 OA 
HETATM   19  O   UNL     1      -9.594  10.382  64.373  1.00  0.00    -0.265 OA 
HETATM   20  C   UNL     1      -8.586   9.621  65.037  1.00  0.00    -0.162 C  
HETATM   21  C   UNL     1      -9.796  11.183  69.422  1.00  0.00     0.099 C  
HETATM   22  C   UNL     1      -7.368  11.247  69.499  1.00  0.00     0.027 C  
ENDROOT
BRANCH  15  23
HETATM   23  N   UNL     1      -8.419  12.608  66.782  1.00  0.00    -0.384 N  
HETATM   24  H   UNL     1      -7.510  13.069  66.800  1.00  0.00     0.000 HD 
HETATM   25  O   UNL     1     -10.713  12.949  66.903  1.00  0.00    -0.254 OA 
HETATM   26  C   UNL     1      -9.588  13.354  66.587  1.00  0.00    -0.270 C  
BRANCH  26  27
HETATM   27  C   UNL     1      -9.389  14.683  65.835  1.00  0.00    -0.155 C  
HETATM   28  C   UNL     1     -10.765  15.351  65.618  1.00  0.00    -0.369 C  
HETATM   29  N   UNL     1     -11.124  16.416  66.588  1.00  0.00     0.043 NA 
HETATM   30  C   UNL     1     -10.244  17.604  66.416  1.00  0.00    -0.364 C  
HETATM   31  C   UNL     1     -11.130  15.974  67.987  1.00  0.00    -0.334 C  
HETATM   32  C   UNL     1     -10.314  18.651  67.620  1.00  0.00    -0.455 C  
HETATM   33  C   UNL     1      -8.978  18.937  68.219  1.00  0.00    -0.364 A  
HETATM   34  C   UNL     1      -8.546  19.383  69.454  1.00  0.00     0.146 A  
HETATM   35  N   UNL     1      -7.184  19.550  69.386  1.00  0.00    -0.316 NA 
HETATM   36  C   UNL     1      -6.721  19.229  68.128  1.00  0.00    -0.247 A  
HETATM   37  H   UNL     1      -6.598  19.866  70.158  1.00  0.00     0.000 HD 
HETATM   38  C   UNL     1      -5.458  19.218  67.528  1.00  0.00    -0.170 A  
HETATM   39  C   UNL     1      -5.386  18.740  66.206  1.00  0.00    -0.167 A  
HETATM   40  C   UNL     1      -6.491  18.177  65.564  1.00  0.00    -0.235 A  
HETATM   41  C   UNL     1      -7.709  18.104  66.235  1.00  0.00    -0.290 A  
HETATM   42  C   UNL     1      -7.823  18.748  67.453  1.00  0.00    -0.245 A  
HETATM   43  C   UNL     1      -8.810  17.155  65.887  1.00  0.00    -0.008 C  
HETATM   44  C   UNL     1      -8.441  15.738  66.451  1.00  0.00    -0.313 C  
ENDBRANCH  26  27
ENDBRANCH  15  23
TORSDOF 2
ENDMDL
MODEL       51
REMARK 921   NORMALIZED FREE ENERGY PREDICTED BY IDOCK:   -5.60 KCAL/MOL
REMARK 922        TOTAL FREE ENERGY PREDICTED BY IDOCK:   -6.65 KCAL/MOL
REMARK 923 INTER-LIGAND FREE ENERGY PREDICTED BY IDOCK:   -7.18 KCAL/MOL
REMARK 924 INTRA-LIGAND FREE ENERGY PREDICTED BY IDOCK:    0.53 KCAL/MOL
REMARK 927      BINDING AFFINITY PREDICTED BY RF-SCORE:    0.00 PKD
ROOT
HETATM    1  C   UNL     1      -6.846   4.705  70.047  1.00  0.00    -0.044 C  
HETATM    2  C   UNL     1      -5.794   3.940  69.250  1.00  0.00    -0.022 C  
HETATM    3  C   UNL     1      -5.133   3.014  70.318  1.00  0.00    -0.004 C  
HETATM    4  C   UNL     1      -5.651   3.462  71.682  1.00  0.00    -0.008 C  
HETATM    5  N   UNL     1      -6.342   4.698  71.414  1.00  0.00    -0.018 N  
HETATM    6  C   UNL     1      -7.044   5.352  72.417  1.00  0.00    -0.083 C  
HETATM    7  O   UNL     1      -6.822   5.196  73.612  1.00  0.00    -0.075 OA 
HETATM    8  C   UNL     1      -7.911   6.430  71.811  1.00  0.00    -0.101 C  
HETATM    9  C   UNL     1      -8.410   7.512  72.761  1.00  0.00    -0.150 C  
HETATM   10  N   UNL     1      -8.780   5.767  70.613  1.00  0.00    -0.134 N  
HETATM   11  C   UNL     1      -9.485   7.064  73.725  1.00  0.00    -0.258 C  
HETATM   12  C   UNL     1      -7.314   8.378  73.414  1.00  0.00    -0.114 C  
HETATM   13  C   UNL     1      -9.834   6.262  69.836  1.00  0.00    -0.167 C  
HETATM   14  O   UNL     1     -10.756   5.584  69.400  1.00  0.00    -0.295 OA 
HETATM   15  C   UNL     1      -9.506   7.708  69.520  1.00  0.00    -0.152 C  
HETATM   16  H   UNL     1      -8.859   6.081  67.956  1.00  0.00     0.000 HD 
HETATM   17  C   UNL     1     -10.572   8.188  70.727  1.00  0.00    -0.234 C  
HETATM   18  O   UNL     1      -7.970   7.313  69.499  1.00  0.00    -0.122 OA 
HETATM   19  O   UNL     1      -8.262   5.404  68.251  1.00  0.00    -0.095 OA 
HETATM   20  C   UNL     1      -7.865   5.860  69.543  1.00  0.00    -0.098 C  
HETATM   21  C   UNL     1     -12.095   7.939  70.497  1.00  0.00     0.104 C  
HETATM   22  C   UNL     1     -10.509   9.585  71.323  1.00  0.00    -0.320 C  
ENDROOT
BRANCH  15  23
HETATM   23  N   UNL     1      -9.643   8.598  68.388  1.00  0.00    -0.145 N  
HETATM   24  H   UNL     1     -10.087   8.275  67.529  1.00  0.00     0.000 HD 
HETATM   25  O   UNL     1      -8.318  10.262  69.319  1.00  0.00    -0.141 OA 
HETATM   26  C   UNL     1      -9.161   9.910  68.486  1.00  0.00    -0.125 C  
BRANCH  26  27
HETATM   27  C   UNL     1      -9.847  10.923  67.550  1.00  0.00    -0.192 C  
HETATM   28  C   UNL     1     -11.379  10.761  67.670  1.00  0.00    -0.252 C  
HETATM   29  N   UNL     1     -12.062  11.731  68.563  1.00  0.00    -0.455 NA 
HETATM   30  C   UNL     1     -12.002  13.104  67.993  1.00  0.00    -0.304 C  
HETATM   31  C   UNL     1     -11.567  11.720  69.945  1.00  0.00    -0.274 C  
HETATM   32  C   UNL     1     -12.393  14.259  69.026  1.00  0.00    -0.147 C  
HETATM   33  C   UNL     1     -11.331  15.298  69.163  1.00  0.00    -0.307 A  
HETATM   34  C   UNL     1     -10.981  16.199  70.151  1.00  0.00    -0.358 A  
HETATM   35  N   UNL     1      -9.959  16.979  69.663  1.00  0.00     0.035 NA 
HETATM   36  C   UNL     1      -9.643  16.608  68.374  1.00  0.00    -0.233 A  
HETATM   37  H   UNL     1      -9.500  17.727  70.182  1.00  0.00     0.000 HD 
HETATM   38  C   UNL     1      -8.709  17.052  67.434  1.00  0.00    -0.211 A  
HETATM   39  C   UNL     1      -8.642  16.344  66.219  1.00  0.00    -0.375 A  
HETATM   40  C   UNL     1      -9.374  15.173  66.007  1.00  0.00    -0.326 A  
HETATM   41  C   UNL     1     -10.213  14.699  67.012  1.00  0.00    -0.261 A  
HETATM   42  C   UNL     1     -10.422  15.498  68.119  1.00  0.00    -0.259 A  
HETATM   43  C   UNL     1     -10.680  13.283  67.124  1.00  0.00    -0.264 C  
HETATM   44  C   UNL     1      -9.513  12.422  67.724  1.00  0.00    -0.199 C  
ENDBRANCH  26  27
ENDBRANCH  15  23
TORSDOF 2
ENDMDL
MODEL       52
REMARK 921   NORMALIZED FREE ENERGY PREDICTED BY IDOCK:   -5.52 KCAL/MOL
REMARK 922        TOTAL FREE ENERGY PREDICTED BY IDOCK:   -6.57 KCAL/MOL
REMARK 923 INTER-LIGAND FREE ENERGY PREDICTED BY IDOCK:   -6.31 KCAL/MOL
REMARK 924 INTRA-LIGAND FREE ENERGY PREDICTED BY IDOCK:   -0.26 KCAL/MOL
REMARK 927      BINDING AFFINITY PREDICTED BY RF-SCORE:    0.00 PKD
ROOT
HETATM    1  C   UNL     1     -10.464   4.300  73.053  1.00  0.00    -0.180 C  
HETATM    2  C   UNL     1     -11.885   3.837  73.359  1.00  0.00     0.119 C  
HETATM    3  C   UNL     1     -11.705   2.328  73.717  1.00  0.00    -0.116 C  
HETATM    4  C   UNL     1     -10.268   1.952  73.365  1.00  0.00    -0.103 C  
HETATM    5  N   UNL     1      -9.770   3.090  72.633  1.00  0.00    -0.123 N  
HETATM    6  C   UNL     1      -8.442   3.153  72.236  1.00  0.00    -0.075 C  
HETATM    7  O   UNL     1      -7.727   2.167  72.100  1.00  0.00    -0.043 OA 
HETATM    8  C   UNL     1      -8.115   4.553  71.772  1.00  0.00    -0.102 C  
HETATM    9  C   UNL     1      -6.866   4.709  70.913  1.00  0.00    -0.036 C  
HETATM   10  N   UNL     1      -8.592   5.592  72.922  1.00  0.00    -0.119 N  
HETATM   11  C   UNL     1      -5.560   4.555  71.659  1.00  0.00    -0.011 C  
HETATM   12  C   UNL     1      -6.896   3.973  69.560  1.00  0.00    -0.042 C  
HETATM   13  C   UNL     1      -8.396   6.969  73.081  1.00  0.00    -0.112 C  
HETATM   14  O   UNL     1      -8.276   7.536  74.159  1.00  0.00    -0.153 OA 
HETATM   15  C   UNL     1      -8.538   7.593  71.707  1.00  0.00    -0.113 C  
HETATM   16  H   UNL     1     -10.451   7.512  73.065  1.00  0.00     0.000 HD 
HETATM   17  C   UNL     1      -6.862   7.675  71.599  1.00  0.00    -0.053 C  
HETATM   18  O   UNL     1      -9.612   6.481  71.355  1.00  0.00    -0.165 OA 
HETATM   19  O   UNL     1     -10.753   6.656  73.344  1.00  0.00    -0.281 OA 
HETATM   20  C   UNL     1      -9.949   5.761  72.577  1.00  0.00    -0.170 C  
HETATM   21  C   UNL     1      -6.117   8.666  72.546  1.00  0.00    -0.079 C  
HETATM   22  C   UNL     1      -6.167   7.847  70.258  1.00  0.00    -0.033 C  
ENDROOT
BRANCH  15  23
HETATM   23  N   UNL     1      -9.105   8.802  71.150  1.00  0.00    -0.203 N  
HETATM   24  H   UNL     1      -9.307   9.601  71.751  1.00  0.00     0.000 HD 
HETATM   25  O   UNL     1      -9.498   7.860  69.064  1.00  0.00    -0.151 OA 
HETATM   26  C   UNL     1      -9.373   8.863  69.777  1.00  0.00    -0.166 C  
BRANCH  26  27
HETATM   27  C   UNL     1      -9.386  10.285  69.183  1.00  0.00    -0.214 C  
HETATM   28  C   UNL     1      -7.930  10.780  69.032  1.00  0.00    -0.137 C  
HETATM   29  N   UNL     1      -7.343  10.651  67.675  1.00  0.00    -0.089 NA 
HETATM   30  C   UNL     1      -8.018  11.572  66.719  1.00  0.00    -0.152 C  
HETATM   31  C   UNL     1      -7.335   9.279  67.155  1.00  0.00    -0.091 C  
HETATM   32  C   UNL     1      -7.704  11.264  65.183  1.00  0.00     0.654 C  
HETATM   33  C   UNL     1      -8.938  11.052  64.371  1.00  0.00    -0.053 A  
HETATM   34  C   UNL     1      -9.219  10.382  63.195  1.00  0.00    -0.294 A  
HETATM   35  N   UNL     1     -10.536  10.622  62.881  1.00  0.00    -0.670 NA 
HETATM   36  C   UNL     1     -11.114  11.442  63.825  1.00  0.00    -0.334 A  
HETATM   37  H   UNL     1     -11.016  10.246  62.064  1.00  0.00     0.000 HD 
HETATM   38  C   UNL     1     -12.392  11.986  63.992  1.00  0.00    -0.504 A  
HETATM   39  C   UNL     1     -12.617  12.735  65.162  1.00  0.00    -0.513 A  
HETATM   40  C   UNL     1     -11.660  12.826  66.176  1.00  0.00    -0.431 A  
HETATM   41  C   UNL     1     -10.436  12.178  66.022  1.00  0.00    -0.281 A  
HETATM   42  C   UNL     1     -10.149  11.609  64.795  1.00  0.00    -0.304 A  
HETATM   43  C   UNL     1      -9.533  11.800  67.151  1.00  0.00    -0.180 C  
HETATM   44  C   UNL     1     -10.106  10.507  67.834  1.00  0.00    -0.204 C  
ENDBRANCH  26  27
ENDBRANCH  15  23
TORSDOF 2
ENDMDL
MODEL       53
REMARK 921   NORMALIZED FREE ENERGY PREDICTED BY IDOCK:   -5.45 KCAL/MOL
REMARK 922        TOTAL FREE ENERGY PREDICTED BY IDOCK:   -6.49 KCAL/MOL
REMARK 923 INTER-LIGAND FREE ENERGY PREDICTED BY IDOCK:   -6.25 KCAL/MOL
REMARK 924 INTRA-LIGAND FREE ENERGY PREDICTED BY IDOCK:   -0.24 KCAL/MOL
REMARK 927      BINDING AFFINITY PREDICTED BY RF-SCORE:    0.00 PKD
ROOT
HETATM    1  C   UNL     1     -10.642  13.774  68.441  1.00  0.00    -0.253 C  
HETATM    2  C   UNL     1     -12.036  14.182  68.906  1.00  0.00    -0.376 C  
HETATM    3  C   UNL     1     -11.903  15.719  69.145  1.00  0.00    -0.367 C  
HETATM    4  C   UNL     1     -10.418  16.060  69.049  1.00  0.00    -0.246 C  
HETATM    5  N   UNL     1      -9.758  14.779  69.016  1.00  0.00    -0.213 N  
HETATM    6  C   UNL     1      -8.386  14.691  68.822  1.00  0.00    -0.163 C  
HETATM    7  O   UNL     1      -7.607  15.606  69.063  1.00  0.00    -0.156 OA 
HETATM    8  C   UNL     1      -8.005  13.260  68.525  1.00  0.00    -0.097 C  
HETATM    9  C   UNL     1      -6.537  12.897  68.709  1.00  0.00    -0.090 C  
HETATM   10  N   UNL     1      -8.957  12.721  67.327  1.00  0.00    -0.191 N  
HETATM   11  C   UNL     1      -5.607  13.458  67.656  1.00  0.00    -0.050 C  
HETATM   12  C   UNL     1      -5.996  13.031  70.146  1.00  0.00    -0.135 C  
HETATM   13  C   UNL     1      -8.931  11.546  66.567  1.00  0.00    -0.189 C  
HETATM   14  O   UNL     1      -9.273  11.466  65.394  1.00  0.00    -0.210 OA 
HETATM   15  C   UNL     1      -8.580  10.417  67.517  1.00  0.00    -0.125 C  
HETATM   16  H   UNL     1     -10.856  10.847  67.137  1.00  0.00     0.000 HD 
HETATM   17  C   UNL     1      -7.001  10.460  66.944  1.00  0.00    -0.093 C  
HETATM   18  O   UNL     1      -9.358  11.191  68.662  1.00  0.00    -0.184 OA 
HETATM   19  O   UNL     1     -11.182  11.710  67.361  1.00  0.00    -0.261 OA 
HETATM   20  C   UNL     1     -10.086  12.300  68.058  1.00  0.00    -0.206 C  
HETATM   21  C   UNL     1      -6.745  10.002  65.475  1.00  0.00    -0.105 C  
HETATM   22  C   UNL     1      -5.859   9.839  67.732  1.00  0.00    -0.040 C  
ENDROOT
BRANCH  15  23
HETATM   23  N   UNL     1      -8.974   9.039  67.710  1.00  0.00    -0.128 N  
HETATM   24  H   UNL     1      -9.364   8.501  66.937  1.00  0.00     0.000 HD 
HETATM   25  O   UNL     1      -8.696   9.104  70.014  1.00  0.00    -0.145 OA 
HETATM   26  C   UNL     1      -8.812   8.451  68.971  1.00  0.00    -0.146 C  
BRANCH  26  27
HETATM   27  C   UNL     1      -8.670   6.917  68.956  1.00  0.00    -0.131 C  
HETATM   28  C   UNL     1     -10.068   6.280  69.120  1.00  0.00    -0.168 C  
HETATM   29  N   UNL     1     -10.723   5.831  67.865  1.00  0.00    -0.238 NA 
HETATM   30  C   UNL     1      -9.993   4.676  67.275  1.00  0.00    -0.159 C  
HETATM   31  C   UNL     1     -10.902   6.895  66.871  1.00  0.00    -0.310 C  
HETATM   32  C   UNL     1     -10.402   4.345  65.767  1.00  0.00    -0.246 C  
HETATM   33  C   UNL     1      -9.235   4.335  64.837  1.00  0.00    -0.156 A  
HETATM   34  C   UNL     1      -9.078   4.527  63.478  1.00  0.00    -0.115 A  
HETATM   35  N   UNL     1      -7.758   4.297  63.172  1.00  0.00    -0.064 NA 
HETATM   36  C   UNL     1      -7.054   3.952  64.305  1.00  0.00    -0.050 A  
HETATM   37  H   UNL     1      -7.356   4.372  62.238  1.00  0.00     0.000 HD 
HETATM   38  C   UNL     1      -5.719   3.624  64.560  1.00  0.00    -0.014 A  
HETATM   39  C   UNL     1      -5.364   3.400  65.904  1.00  0.00    -0.009 A  
HETATM   40  C   UNL     1      -6.262   3.623  66.950  1.00  0.00    -0.028 A  
HETATM   41  C   UNL     1      -7.554   4.057  66.664  1.00  0.00    -0.088 A  
HETATM   42  C   UNL     1      -7.953   4.087  65.341  1.00  0.00    -0.093 A  
HETATM   43  C   UNL     1      -8.444   4.759  67.637  1.00  0.00    -0.104 C  
HETATM   44  C   UNL     1      -7.988   6.258  67.735  1.00  0.00    -0.114 C  
ENDBRANCH  26  27
ENDBRANCH  15  23
TORSDOF 2
ENDMDL
MODEL       54
REMARK 921   NORMALIZED FREE ENERGY PREDICTED BY IDOCK:   -5.44 KCAL/MOL
REMARK 922        TOTAL FREE ENERGY PREDICTED BY IDOCK:   -6.48 KCAL/MOL
REMARK 923 INTER-LIGAND FREE ENERGY PREDICTED BY IDOCK:   -6.48 KCAL/MOL
REMARK 924 INTRA-LIGAND FREE ENERGY PREDICTED BY IDOCK:    0.00 KCAL/MOL
REMARK 927      BINDING AFFINITY PREDICTED BY RF-SCORE:    0.00 PKD
ROOT
HETATM    1  C   UNL     1     -10.432   5.495  72.739  1.00  0.00    -0.212 C  
HETATM    2  C   UNL     1     -11.938   5.257  72.759  1.00  0.00    -0.062 C  
HETATM    3  C   UNL     1     -12.075   3.852  73.425  1.00  0.00     0.331 C  
HETATM    4  C   UNL     1     -10.670   3.263  73.522  1.00  0.00    -0.213 C  
HETATM    5  N   UNL     1      -9.853   4.157  72.740  1.00  0.00    -0.139 N  
HETATM    6  C   UNL     1      -8.475   3.996  72.685  1.00  0.00    -0.100 C  
HETATM    7  O   UNL     1      -7.907   2.936  72.919  1.00  0.00    -0.053 OA 
HETATM    8  C   UNL     1      -7.844   5.221  72.065  1.00  0.00    -0.108 C  
HETATM    9  C   UNL     1      -6.425   5.057  71.535  1.00  0.00    -0.031 C  
HETATM   10  N   UNL     1      -8.404   6.528  72.845  1.00  0.00    -0.116 N  
HETATM   11  C   UNL     1      -5.359   4.936  72.600  1.00  0.00    -0.008 C  
HETATM   12  C   UNL     1      -6.262   4.052  70.379  1.00  0.00    -0.019 C  
HETATM   13  C   UNL     1      -8.042   7.879  72.789  1.00  0.00    -0.136 C  
HETATM   14  O   UNL     1      -8.083   8.652  73.737  1.00  0.00    -0.400 OA 
HETATM   15  C   UNL     1      -7.774   8.201  71.332  1.00  0.00    -0.092 C  
HETATM   16  H   UNL     1      -9.933   8.613  72.155  1.00  0.00     0.000 HD 
HETATM   17  C   UNL     1      -6.125   8.086  71.635  1.00  0.00    -0.036 C  
HETATM   18  O   UNL     1      -8.898   7.155  70.934  1.00  0.00    -0.148 OA 
HETATM   19  O   UNL     1     -10.417   7.874  72.504  1.00  0.00    -0.249 OA 
HETATM   20  C   UNL     1      -9.607   6.756  72.144  1.00  0.00    -0.145 C  
HETATM   21  C   UNL     1      -5.471   9.177  72.537  1.00  0.00    -0.073 C  
HETATM   22  C   UNL     1      -5.128   7.890  70.504  1.00  0.00    -0.023 C  
ENDROOT
BRANCH  15  23
HETATM   23  N   UNL     1      -8.011   9.311  70.435  1.00  0.00    -0.139 N  
HETATM   24  H   UNL     1      -8.105  10.259  70.801  1.00  0.00     0.000 HD 
HETATM   25  O   UNL     1      -8.365   7.960  68.581  1.00  0.00    -0.126 OA 
HETATM   26  C   UNL     1      -8.111   9.072  69.059  1.00  0.00    -0.107 C  
BRANCH  26  27
HETATM   27  C   UNL     1      -7.760  10.276  68.165  1.00  0.00    -0.092 C  
HETATM   28  C   UNL     1      -7.484   9.775  66.730  1.00  0.00    -0.095 C  
HETATM   29  N   UNL     1      -8.612   9.905  65.774  1.00  0.00    -0.135 NA 
HETATM   30  C   UNL     1      -8.896  11.338  65.486  1.00  0.00    -0.088 C  
HETATM   31  C   UNL     1      -9.834   9.209  66.194  1.00  0.00    -0.293 C  
HETATM   32  C   UNL     1     -10.292  11.594  64.754  1.00  0.00    -0.331 C  
HETATM   33  C   UNL     1     -11.165  12.556  65.490  1.00  0.00    -0.349 A  
HETATM   34  C   UNL     1     -12.527  12.782  65.542  1.00  0.00    -0.354 A  
HETATM   35  N   UNL     1     -12.738  13.885  66.335  1.00  0.00    -0.439 NA 
HETATM   36  C   UNL     1     -11.539  14.385  66.795  1.00  0.00    -0.385 A  
HETATM   37  H   UNL     1     -13.653  14.277  66.554  1.00  0.00     0.000 HD 
HETATM   38  C   UNL     1     -11.181  15.460  67.614  1.00  0.00    -0.311 A  
HETATM   39  C   UNL     1      -9.814  15.599  67.920  1.00  0.00    -0.217 A  
HETATM   40  C   UNL     1      -8.872  14.641  67.541  1.00  0.00    -0.191 A  
HETATM   41  C   UNL     1      -9.284  13.523  66.819  1.00  0.00    -0.248 A  
HETATM   42  C   UNL     1     -10.586  13.490  66.355  1.00  0.00    -0.283 A  
HETATM   43  C   UNL     1      -8.526  12.238  66.746  1.00  0.00    -0.119 C  
HETATM   44  C   UNL     1      -8.773  11.440  68.076  1.00  0.00    -0.148 C  
ENDBRANCH  26  27
ENDBRANCH  15  23
TORSDOF 2
ENDMDL
MODEL       55
REMARK 921   NORMALIZED FREE ENERGY PREDICTED BY IDOCK:   -5.44 KCAL/MOL
REMARK 922        TOTAL FREE ENERGY PREDICTED BY IDOCK:   -6.47 KCAL/MOL
REMARK 923 INTER-LIGAND FREE ENERGY PREDICTED BY IDOCK:   -6.04 KCAL/MOL
REMARK 924 INTRA-LIGAND FREE ENERGY PREDICTED BY IDOCK:   -0.43 KCAL/MOL
REMARK 927      BINDING AFFINITY PREDICTED BY RF-SCORE:    0.00 PKD
ROOT
HETATM    1  C   UNL     1      -6.821  12.742  69.662  1.00  0.00     0.178 C  
HETATM    2  C   UNL     1      -5.748  11.873  70.309  1.00  0.00    -0.157 C  
HETATM    3  C   UNL     1      -5.165  12.790  71.429  1.00  0.00    -0.143 C  
HETATM    4  C   UNL     1      -5.743  14.186  71.211  1.00  0.00    -0.228 C  
HETATM    5  N   UNL     1      -6.389  14.109  69.925  1.00  0.00    -0.142 N  
HETATM    6  C   UNL     1      -7.126  15.177  69.435  1.00  0.00    -0.189 C  
HETATM    7  O   UNL     1      -6.971  16.335  69.805  1.00  0.00    -0.162 OA 
HETATM    8  C   UNL     1      -7.934  14.732  68.239  1.00  0.00    -0.130 C  
HETATM    9  C   UNL     1      -8.456  15.834  67.325  1.00  0.00    -0.212 C  
HETATM   10  N   UNL     1      -8.756  13.396  68.652  1.00  0.00    -0.055 N  
HETATM   11  C   UNL     1      -9.590  16.653  67.900  1.00  0.00    -0.234 C  
HETATM   12  C   UNL     1      -7.375  16.681  66.624  1.00  0.00    -0.290 C  
HETATM   13  C   UNL     1      -9.756  12.671  67.995  1.00  0.00    -0.215 C  
HETATM   14  O   UNL     1     -10.670  12.078  68.555  1.00  0.00    -0.217 OA 
HETATM   15  C   UNL     1      -9.377  12.631  66.528  1.00  0.00    -0.228 C  
HETATM   16  H   UNL     1      -8.689  10.836  67.875  1.00  0.00     0.000 HD 
HETATM   17  C   UNL     1     -10.493  13.853  66.232  1.00  0.00    -0.287 C  
HETATM   18  O   UNL     1      -7.852  12.613  66.962  1.00  0.00    -0.136 OA 
HETATM   19  O   UNL     1      -8.124  11.034  68.613  1.00  0.00    -0.134 OA 
HETATM   20  C   UNL     1      -7.784  12.404  68.403  1.00  0.00    -0.144 C  
HETATM   21  C   UNL     1     -12.007  13.511  66.387  1.00  0.00    -0.459 C  
HETATM   22  C   UNL     1     -10.428  14.689  64.965  1.00  0.00    -0.447 C  
ENDROOT
BRANCH  15  23
HETATM   23  N   UNL     1      -9.434  11.670  65.448  1.00  0.00    -0.326 N  
HETATM   24  H   UNL     1      -9.126  11.928  64.511  1.00  0.00     0.000 HD 
HETATM   25  O   UNL     1     -10.625  10.102  66.680  1.00  0.00    -0.212 OA 
HETATM   26  C   UNL     1      -9.917  10.380  65.704  1.00  0.00    -0.272 C  
BRANCH  26  27
HETATM   27  C   UNL     1      -9.404   9.294  64.740  1.00  0.00    -0.080 C  
HETATM   28  C   UNL     1      -8.205   9.854  63.943  1.00  0.00    -0.156 C  
HETATM   29  N   UNL     1      -6.862   9.474  64.449  1.00  0.00    -0.095 NA 
HETATM   30  C   UNL     1      -6.622   8.016  64.264  1.00  0.00    -0.061 C  
HETATM   31  C   UNL     1      -6.613   9.868  65.840  1.00  0.00    -0.091 C  
HETATM   32  C   UNL     1      -5.370   7.451  65.079  1.00  0.00    -0.029 C  
HETATM   33  C   UNL     1      -5.727   6.310  65.972  1.00  0.00    -0.024 A  
HETATM   34  C   UNL     1      -5.181   5.776  67.125  1.00  0.00    -0.005 A  
HETATM   35  N   UNL     1      -5.901   4.650  67.445  1.00  0.00    -0.022 NA 
HETATM   36  C   UNL     1      -6.899   4.436  66.520  1.00  0.00    -0.055 A  
HETATM   37  H   UNL     1      -5.722   4.056  68.255  1.00  0.00     0.000 HD 
HETATM   38  C   UNL     1      -7.895   3.466  66.367  1.00  0.00    -0.084 A  
HETATM   39  C   UNL     1      -8.797   3.643  65.300  1.00  0.00    -0.122 A  
HETATM   40  C   UNL     1      -8.789   4.795  64.510  1.00  0.00    -0.147 A  
HETATM   41  C   UNL     1      -7.850   5.792  64.763  1.00  0.00    -0.114 A  
HETATM   42  C   UNL     1      -6.849   5.528  65.679  1.00  0.00    -0.064 A  
HETATM   43  C   UNL     1      -7.998   7.218  64.341  1.00  0.00    -0.106 C  
HETATM   44  C   UNL     1      -8.985   7.929  65.333  1.00  0.00     0.056 C  
ENDBRANCH  26  27
ENDBRANCH  15  23
TORSDOF 2
ENDMDL
MODEL       56
REMARK 921   NORMALIZED FREE ENERGY PREDICTED BY IDOCK:   -5.37 KCAL/MOL
REMARK 922        TOTAL FREE ENERGY PREDICTED BY IDOCK:   -6.40 KCAL/MOL
REMARK 923 INTER-LIGAND FREE ENERGY PREDICTED BY IDOCK:   -6.27 KCAL/MOL
REMARK 924 INTRA-LIGAND FREE ENERGY PREDICTED BY IDOCK:   -0.13 KCAL/MOL
REMARK 927      BINDING AFFINITY PREDICTED BY RF-SCORE:    0.00 PKD
ROOT
HETATM    1  C   UNL     1      -6.775  13.273  69.664  1.00  0.00     0.071 C  
HETATM    2  C   UNL     1      -5.573  12.714  70.419  1.00  0.00    -0.167 C  
HETATM    3  C   UNL     1      -5.237  13.838  71.449  1.00  0.00    -0.174 C  
HETATM    4  C   UNL     1      -6.081  15.054  71.076  1.00  0.00     0.173 C  
HETATM    5  N   UNL     1      -6.645  14.718  69.793  1.00  0.00    -0.160 N  
HETATM    6  C   UNL     1      -7.567  15.556  69.180  1.00  0.00    -0.204 C  
HETATM    7  O   UNL     1      -7.668  16.751  69.431  1.00  0.00    -0.157 OA 
HETATM    8  C   UNL     1      -8.217  14.837  68.022  1.00  0.00    -0.142 C  
HETATM    9  C   UNL     1      -8.917  15.711  66.988  1.00  0.00    -0.244 C  
HETATM   10  N   UNL     1      -8.761  13.405  68.556  1.00  0.00    -0.123 N  
HETATM   11  C   UNL     1     -10.217  16.326  67.453  1.00  0.00    -0.275 C  
HETATM   12  C   UNL     1      -8.007  16.692  66.224  1.00  0.00    -0.340 C  
HETATM   13  C   UNL     1      -9.563  12.426  67.958  1.00  0.00    -0.211 C  
HETATM   14  O   UNL     1     -10.356  11.713  68.559  1.00  0.00    -0.201 OA 
HETATM   15  C   UNL     1      -9.125  12.323  66.510  1.00  0.00    -0.188 C  
HETATM   16  H   UNL     1      -8.136  10.853  68.050  1.00  0.00     0.000 HD 
HETATM   17  C   UNL     1     -10.456  13.250  66.068  1.00  0.00    -0.289 C  
HETATM   18  O   UNL     1      -7.647  12.667  66.974  1.00  0.00    -0.105 OA 
HETATM   19  O   UNL     1      -7.655  11.235  68.773  1.00  0.00    -0.116 OA 
HETATM   20  C   UNL     1      -7.596  12.619  68.430  1.00  0.00    -0.132 C  
HETATM   21  C   UNL     1     -11.872  12.616  66.229  1.00  0.00    -0.471 C  
HETATM   22  C   UNL     1     -10.513  13.954  64.722  1.00  0.00    -0.451 C  
ENDROOT
BRANCH  15  23
HETATM   23  N   UNL     1      -8.939  11.271  65.535  1.00  0.00    -0.323 N  
HETATM   24  H   UNL     1      -8.701  11.498  64.570  1.00  0.00     0.000 HD 
HETATM   25  O   UNL     1      -9.708   9.595  66.946  1.00  0.00    -0.167 OA 
HETATM   26  C   UNL     1      -9.089   9.936  65.932  1.00  0.00    -0.162 C  
BRANCH  26  27
HETATM   27  C   UNL     1      -8.319   8.916  65.072  1.00  0.00    -0.174 C  
HETATM   28  C   UNL     1      -6.856   8.845  65.563  1.00  0.00    -0.076 C  
HETATM   29  N   UNL     1      -6.536   7.716  66.473  1.00  0.00    -0.048 NA 
HETATM   30  C   UNL     1      -6.617   6.417  65.750  1.00  0.00    -0.047 C  
HETATM   31  C   UNL     1      -7.350   7.683  67.693  1.00  0.00    -0.095 C  
HETATM   32  C   UNL     1      -6.634   5.138  66.706  1.00  0.00    -0.053 C  
HETATM   33  C   UNL     1      -7.813   4.254  66.472  1.00  0.00    -0.098 A  
HETATM   34  C   UNL     1      -8.501   3.334  67.240  1.00  0.00    -0.099 A  
HETATM   35  N   UNL     1      -9.457   2.753  66.442  1.00  0.00    -0.386 NA 
HETATM   36  C   UNL     1      -9.399   3.271  65.166  1.00  0.00    -0.149 A  
HETATM   37  H   UNL     1     -10.116   2.038  66.750  1.00  0.00     0.000 HD 
HETATM   38  C   UNL     1     -10.119   3.045  63.989  1.00  0.00    -0.157 A  
HETATM   39  C   UNL     1      -9.799   3.853  62.882  1.00  0.00    -0.154 A  
HETATM   40  C   UNL     1      -8.903   4.920  62.982  1.00  0.00    -0.090 A  
HETATM   41  C   UNL     1      -8.287   5.184  64.203  1.00  0.00    -0.137 A  
HETATM   42  C   UNL     1      -8.455   4.274  65.229  1.00  0.00    -0.115 A  
HETATM   43  C   UNL     1      -7.696   6.503  64.582  1.00  0.00    -0.108 C  
HETATM   44  C   UNL     1      -8.863   7.471  64.989  1.00  0.00     0.280 C  
ENDBRANCH  26  27
ENDBRANCH  15  23
TORSDOF 2
ENDMDL
MODEL       57
REMARK 921   NORMALIZED FREE ENERGY PREDICTED BY IDOCK:   -5.32 KCAL/MOL
REMARK 922        TOTAL FREE ENERGY PREDICTED BY IDOCK:   -6.35 KCAL/MOL
REMARK 923 INTER-LIGAND FREE ENERGY PREDICTED BY IDOCK:   -6.74 KCAL/MOL
REMARK 924 INTRA-LIGAND FREE ENERGY PREDICTED BY IDOCK:    0.39 KCAL/MOL
REMARK 927      BINDING AFFINITY PREDICTED BY RF-SCORE:    0.00 PKD
ROOT
HETATM    1  C   UNL     1      -7.731   6.752  68.710  1.00  0.00    -0.110 C  
HETATM    2  C   UNL     1      -6.492   6.222  67.998  1.00  0.00    -0.052 C  
HETATM    3  C   UNL     1      -6.300   4.800  68.613  1.00  0.00    -0.036 C  
HETATM    4  C   UNL     1      -7.262   4.690  69.793  1.00  0.00    -0.054 C  
HETATM    5  N   UNL     1      -7.761   6.030  69.975  1.00  0.00    -0.097 N  
HETATM    6  C   UNL     1      -8.755   6.298  70.906  1.00  0.00    -0.136 C  
HETATM    7  O   UNL     1      -8.989   5.583  71.873  1.00  0.00    -0.135 OA 
HETATM    8  C   UNL     1      -9.300   7.689  70.682  1.00  0.00    -0.163 C  
HETATM    9  C   UNL     1     -10.069   8.311  71.841  1.00  0.00    -0.314 C  
HETATM   10  N   UNL     1      -9.697   7.830  69.115  1.00  0.00    -0.160 N  
HETATM   11  C   UNL     1     -11.437   7.716  72.086  1.00  0.00    -0.345 C  
HETATM   12  C   UNL     1      -9.255   8.542  73.129  1.00  0.00    -0.093 C  
HETATM   13  C   UNL     1     -10.377   8.829  68.408  1.00  0.00    -0.204 C  
HETATM   14  O   UNL     1     -11.101   8.628  67.441  1.00  0.00     0.025 OA 
HETATM   15  C   UNL     1      -9.901  10.158  68.959  1.00  0.00    -0.205 C  
HETATM   16  H   UNL     1      -8.791   9.305  67.075  1.00  0.00     0.000 HD 
HETATM   17  C   UNL     1     -11.315  10.261  69.862  1.00  0.00    -0.354 C  
HETATM   18  O   UNL     1      -8.479   9.502  69.209  1.00  0.00    -0.123 OA 
HETATM   19  O   UNL     1      -8.368   8.459  67.162  1.00  0.00    -0.120 OA 
HETATM   20  C   UNL     1      -8.453   8.196  68.561  1.00  0.00    -0.127 C  
HETATM   21  C   UNL     1     -12.657  10.467  69.096  1.00  0.00     0.648 C  
HETATM   22  C   UNL     1     -11.421  11.196  71.056  1.00  0.00     0.492 C  
ENDROOT
BRANCH  15  23
HETATM   23  N   UNL     1      -9.583  11.467  68.431  1.00  0.00    -0.192 N  
HETATM   24  H   UNL     1      -8.918  12.071  68.915  1.00  0.00     0.000 HD 
HETATM   25  O   UNL     1     -11.245  11.405  66.811  1.00  0.00    -0.305 OA 
HETATM   26  C   UNL     1     -10.198  11.896  67.249  1.00  0.00    -0.200 C  
BRANCH  26  27
HETATM   27  C   UNL     1      -9.408  12.956  66.457  1.00  0.00    -0.224 C  
HETATM   28  C   UNL     1     -10.203  13.330  65.186  1.00  0.00    -0.287 C  
HETATM   29  N   UNL     1     -11.007  14.576  65.273  1.00  0.00    -0.338 NA 
HETATM   30  C   UNL     1     -10.122  15.768  65.372  1.00  0.00    -0.302 C  
HETATM   31  C   UNL     1     -11.997  14.573  66.356  1.00  0.00    -0.334 C  
HETATM   32  C   UNL     1     -10.874  17.106  65.815  1.00  0.00    -0.039 C  
HETATM   33  C   UNL     1     -10.267  17.740  67.022  1.00  0.00    -0.346 A  
HETATM   34  C   UNL     1     -10.734  18.588  68.008  1.00  0.00    -0.232 A  
HETATM   35  N   UNL     1      -9.671  18.915  68.816  1.00  0.00    -0.395 NA 
HETATM   36  C   UNL     1      -8.520  18.302  68.371  1.00  0.00    -0.303 A  
HETATM   37  H   UNL     1      -9.727  19.525  69.631  1.00  0.00     0.000 HD 
HETATM   38  C   UNL     1      -7.192  18.289  68.807  1.00  0.00    -0.291 A  
HETATM   39  C   UNL     1      -6.301  17.453  68.108  1.00  0.00    -0.167 A  
HETATM   40  C   UNL     1      -6.739  16.577  67.112  1.00  0.00    -0.232 A  
HETATM   41  C   UNL     1      -8.091  16.539  66.780  1.00  0.00    -0.286 A  
HETATM   42  C   UNL     1      -8.925  17.494  67.330  1.00  0.00    -0.238 A  
HETATM   43  C   UNL     1      -8.762  15.386  66.106  1.00  0.00    -0.129 C  
HETATM   44  C   UNL     1      -9.018  14.266  67.177  1.00  0.00    -0.237 C  
ENDBRANCH  26  27
ENDBRANCH  15  23
TORSDOF 2
ENDMDL
MODEL       58
REMARK 921   NORMALIZED FREE ENERGY PREDICTED BY IDOCK:   -5.20 KCAL/MOL
REMARK 922        TOTAL FREE ENERGY PREDICTED BY IDOCK:   -6.21 KCAL/MOL
REMARK 923 INTER-LIGAND FREE ENERGY PREDICTED BY IDOCK:   -5.71 KCAL/MOL
REMARK 924 INTRA-LIGAND FREE ENERGY PREDICTED BY IDOCK:   -0.50 KCAL/MOL
REMARK 927      BINDING AFFINITY PREDICTED BY RF-SCORE:    0.00 PKD
ROOT
HETATM    1  C   UNL     1      -9.201   3.926  68.913  1.00  0.00    -0.152 C  
HETATM    2  C   UNL     1      -9.386   2.758  67.949  1.00  0.00    -0.251 C  
HETATM    3  C   UNL     1      -9.236   1.504  68.865  1.00  0.00    -0.188 C  
HETATM    4  C   UNL     1      -8.738   1.996  70.221  1.00  0.00    -0.063 C  
HETATM    5  N   UNL     1      -8.394   3.378  69.996  1.00  0.00    -0.051 N  
HETATM    6  C   UNL     1      -7.998   4.192  71.047  1.00  0.00    -0.071 C  
HETATM    7  O   UNL     1      -7.531   3.766  72.097  1.00  0.00    -0.054 OA 
HETATM    8  C   UNL     1      -7.997   5.635  70.601  1.00  0.00    -0.104 C  
HETATM    9  C   UNL     1      -7.195   6.609  71.457  1.00  0.00    -0.082 C  
HETATM   10  N   UNL     1      -9.434   5.956  69.920  1.00  0.00    -0.148 N  
HETATM   11  C   UNL     1      -7.812   6.931  72.799  1.00  0.00    -0.099 C  
HETATM   12  C   UNL     1      -5.679   6.342  71.520  1.00  0.00    -0.028 C  
HETATM   13  C   UNL     1     -10.019   7.151  69.487  1.00  0.00    -0.164 C  
HETATM   14  O   UNL     1     -11.218   7.394  69.528  1.00  0.00    -0.134 OA 
HETATM   15  C   UNL     1      -8.923   7.961  68.823  1.00  0.00    -0.141 C  
HETATM   16  H   UNL     1     -10.241   6.588  67.449  1.00  0.00     0.000 HD 
HETATM   17  C   UNL     1      -8.795   8.886  70.221  1.00  0.00    -0.191 C  
HETATM   18  O   UNL     1      -8.266   6.601  68.337  1.00  0.00    -0.114 OA 
HETATM   19  O   UNL     1     -10.240   5.656  67.632  1.00  0.00    -0.165 OA 
HETATM   20  C   UNL     1      -9.202   5.516  68.600  1.00  0.00    -0.122 C  
HETATM   21  C   UNL     1      -9.986   9.825  70.586  1.00  0.00    -0.215 C  
HETATM   22  C   UNL     1      -7.560   9.727  70.499  1.00  0.00    -0.110 C  
ENDROOT
BRANCH  15  23
HETATM   23  N   UNL     1      -8.800   8.828  67.672  1.00  0.00    -0.135 N  
HETATM   24  H   UNL     1      -9.629   9.110  67.148  1.00  0.00     0.000 HD 
HETATM   25  O   UNL     1      -6.482   8.718  67.622  1.00  0.00    -0.059 OA 
HETATM   26  C   UNL     1      -7.532   9.277  67.285  1.00  0.00    -0.091 C  
BRANCH  26  27
HETATM   27  C   UNL     1      -7.527  10.601  66.497  1.00  0.00    -0.134 C  
HETATM   28  C   UNL     1      -7.043  10.327  65.055  1.00  0.00    -0.111 C  
HETATM   29  N   UNL     1      -8.110  10.188  64.033  1.00  0.00    -0.156 NA 
HETATM   30  C   UNL     1      -8.807  11.486  63.818  1.00  0.00     0.366 C  
HETATM   31  C   UNL     1      -9.077   9.122  64.320  1.00  0.00     0.073 C  
HETATM   32  C   UNL     1     -10.178  11.366  63.009  1.00  0.00    -0.311 C  
HETATM   33  C   UNL     1     -11.338  11.954  63.742  1.00  0.00    -0.532 A  
HETATM   34  C   UNL     1     -12.705  11.752  63.712  1.00  0.00    -0.255 A  
HETATM   35  N   UNL     1     -13.281  12.669  64.558  1.00  0.00    -0.714 NA 
HETATM   36  C   UNL     1     -12.317  13.469  65.131  1.00  0.00    -0.449 A  
HETATM   37  H   UNL     1     -14.282  12.746  64.736  1.00  0.00     0.000 HD 
HETATM   38  C   UNL     1     -12.346  14.531  66.041  1.00  0.00    -0.234 A  
HETATM   39  C   UNL     1     -11.104  15.052  66.451  1.00  0.00    -0.329 A  
HETATM   40  C   UNL     1      -9.896  14.459  66.078  1.00  0.00    -0.342 A  
HETATM   41  C   UNL     1      -9.911  13.333  65.258  1.00  0.00    -0.097 A  
HETATM   42  C   UNL     1     -11.116  12.945  64.704  1.00  0.00    -0.352 A  
HETATM   43  C   UNL     1      -8.791  12.348  65.157  1.00  0.00     0.992 C  
HETATM   44  C   UNL     1      -8.844  11.406  66.412  1.00  0.00    -0.193 C  
ENDBRANCH  26  27
ENDBRANCH  15  23
TORSDOF 2
ENDMDL
MODEL       59
REMARK 921   NORMALIZED FREE ENERGY PREDICTED BY IDOCK:   -5.14 KCAL/MOL
REMARK 922        TOTAL FREE ENERGY PREDICTED BY IDOCK:   -6.14 KCAL/MOL
REMARK 923 INTER-LIGAND FREE ENERGY PREDICTED BY IDOCK:   -6.21 KCAL/MOL
REMARK 924 INTRA-LIGAND FREE ENERGY PREDICTED BY IDOCK:    0.06 KCAL/MOL
REMARK 927      BINDING AFFINITY PREDICTED BY RF-SCORE:    0.00 PKD
ROOT
HETATM    1  C   UNL     1     -10.564  12.943  67.260  1.00  0.00    -0.234 C  
HETATM    2  C   UNL     1     -11.871  13.727  67.193  1.00  0.00    -0.441 C  
HETATM    3  C   UNL     1     -11.448  15.084  66.549  1.00  0.00    -0.239 C  
HETATM    4  C   UNL     1      -9.922  15.105  66.510  1.00  0.00    -0.266 C  
HETATM    5  N   UNL     1      -9.528  13.967  67.302  1.00  0.00    -0.223 N  
HETATM    6  C   UNL     1      -8.193  13.602  67.407  1.00  0.00    -0.179 C  
HETATM    7  O   UNL     1      -7.262  14.373  67.211  1.00  0.00    -0.170 OA 
HETATM    8  C   UNL     1      -8.089  12.227  68.025  1.00  0.00    -0.156 C  
HETATM    9  C   UNL     1      -6.732  11.846  68.605  1.00  0.00    -0.074 C  
HETATM   10  N   UNL     1      -9.067  11.227  67.203  1.00  0.00    -0.156 N  
HETATM   11  C   UNL     1      -5.659  11.565  67.579  1.00  0.00    -0.062 C  
HETATM   12  C   UNL     1      -6.249  12.713  69.784  1.00  0.00    -0.111 C  
HETATM   13  C   UNL     1      -9.237   9.838  67.247  1.00  0.00    -0.134 C  
HETATM   14  O   UNL     1      -9.527   9.142  66.283  1.00  0.00    -0.196 OA 
HETATM   15  C   UNL     1      -9.164   9.433  68.706  1.00  0.00    -0.132 C  
HETATM   16  H   UNL     1     -11.288   9.862  67.803  1.00  0.00     0.000 HD 
HETATM   17  C   UNL     1      -7.581   8.926  68.460  1.00  0.00    -0.097 C  
HETATM   18  O   UNL     1      -9.830  10.822  69.084  1.00  0.00    -0.209 OA 
HETATM   19  O   UNL     1     -11.447  10.730  67.451  1.00  0.00    -0.467 OA 
HETATM   20  C   UNL     1     -10.293  11.462  67.859  1.00  0.00    -0.182 C  
HETATM   21  C   UNL     1      -7.347   7.673  67.561  1.00  0.00    -0.095 C  
HETATM   22  C   UNL     1      -6.626   8.730  69.627  1.00  0.00    -0.039 C  
ENDROOT
BRANCH  15  23
HETATM   23  N   UNL     1      -9.832   8.488  69.574  1.00  0.00    -0.184 N  
HETATM   24  H   UNL     1     -10.380   7.724  69.179  1.00  0.00     0.000 HD 
HETATM   25  O   UNL     1      -9.396   9.696  71.508  1.00  0.00    -0.053 OA 
HETATM   26  C   UNL     1      -9.719   8.634  70.962  1.00  0.00    -0.210 C  
BRANCH  26  27
HETATM   27  C   UNL     1      -9.913   7.335  71.767  1.00  0.00    -0.186 C  
HETATM   28  C   UNL     1     -11.104   6.549  71.175  1.00  0.00    -0.282 C  
HETATM   29  N   UNL     1     -10.750   5.447  70.246  1.00  0.00    -0.263 NA 
HETATM   30  C   UNL     1     -10.062   4.345  70.973  1.00  0.00    -0.125 C  
HETATM   31  C   UNL     1      -9.960   5.874  69.085  1.00  0.00    -0.165 C  
HETATM   32  C   UNL     1      -9.340   3.284  70.022  1.00  0.00    -0.238 C  
HETATM   33  C   UNL     1      -7.891   3.114  70.338  1.00  0.00    -0.046 A  
HETATM   34  C   UNL     1      -6.786   2.698  69.620  1.00  0.00    -0.034 A  
HETATM   35  N   UNL     1      -5.718   2.655  70.484  1.00  0.00    -0.016 NA 
HETATM   36  C   UNL     1      -6.108   3.027  71.752  1.00  0.00    -0.014 A  
HETATM   37  H   UNL     1      -4.770   2.385  70.222  1.00  0.00     0.000 HD 
HETATM   38  C   UNL     1      -5.445   3.157  72.976  1.00  0.00     0.000 A  
HETATM   39  C   UNL     1      -6.198   3.652  74.058  1.00  0.00    -0.024 A  
HETATM   40  C   UNL     1      -7.504   4.119  73.895  1.00  0.00    -0.076 A  
HETATM   41  C   UNL     1      -8.094   4.076  72.634  1.00  0.00    -0.094 A  
HETATM   42  C   UNL     1      -7.425   3.413  71.623  1.00  0.00    -0.051 A  
HETATM   43  C   UNL     1      -9.250   4.925  72.213  1.00  0.00    -0.151 C  
HETATM   44  C   UNL     1      -8.715   6.365  71.888  1.00  0.00    -0.134 C  
ENDBRANCH  26  27
ENDBRANCH  15  23
TORSDOF 2
ENDMDL
MODEL       60
REMARK 921   NORMALIZED FREE ENERGY PREDICTED BY IDOCK:   -5.04 KCAL/MOL
REMARK 922        TOTAL FREE ENERGY PREDICTED BY IDOCK:   -6.03 KCAL/MOL
REMARK 923 INTER-LIGAND FREE ENERGY PREDICTED BY IDOCK:   -6.77 KCAL/MOL
REMARK 924 INTRA-LIGAND FREE ENERGY PREDICTED BY IDOCK:    0.74 KCAL/MOL
REMARK 927      BINDING AFFINITY PREDICTED BY RF-SCORE:    0.00 PKD
ROOT
HETATM    1  C   UNL     1      -7.415   4.208  72.217  1.00  0.00    -0.067 C  
HETATM    2  C   UNL     1      -6.120   3.547  72.676  1.00  0.00    -0.009 C  
HETATM    3  C   UNL     1      -6.578   2.625  73.849  1.00  0.00    -0.022 C  
HETATM    4  C   UNL     1      -8.029   2.983  74.158  1.00  0.00    -0.068 C  
HETATM    5  N   UNL     1      -8.274   4.180  73.394  1.00  0.00    -0.089 N  
HETATM    6  C   UNL     1      -9.541   4.744  73.344  1.00  0.00    -0.125 C  
HETATM    7  O   UNL     1     -10.401   4.557  74.195  1.00  0.00    -0.192 OA 
HETATM    8  C   UNL     1      -9.591   5.786  72.251  1.00  0.00    -0.147 C  
HETATM    9  C   UNL     1     -10.731   6.793  72.326  1.00  0.00    -0.250 C  
HETATM   10  N   UNL     1      -9.026   5.115  70.886  1.00  0.00    -0.133 N  
HETATM   11  C   UNL     1     -12.094   6.236  71.981  1.00  0.00    -0.321 C  
HETATM   12  C   UNL     1     -10.731   7.703  73.570  1.00  0.00    -0.203 C  
HETATM   13  C   UNL     1      -8.997   5.569  69.562  1.00  0.00    -0.113 C  
HETATM   14  O   UNL     1      -9.094   4.849  68.577  1.00  0.00    -0.106 OA 
HETATM   15  C   UNL     1      -8.654   7.045  69.612  1.00  0.00    -0.134 C  
HETATM   16  H   UNL     1      -6.883   5.528  69.338  1.00  0.00     0.000 HD 
HETATM   17  C   UNL     1     -10.279   7.404  69.377  1.00  0.00    -0.201 C  
HETATM   18  O   UNL     1      -7.762   6.755  70.891  1.00  0.00    -0.090 OA 
HETATM   19  O   UNL     1      -6.751   4.881  70.021  1.00  0.00    -0.035 OA 
HETATM   20  C   UNL     1      -7.639   5.311  71.052  1.00  0.00    -0.088 C  
HETATM   21  C   UNL     1     -10.910   7.063  67.992  1.00  0.00    -0.229 C  
HETATM   22  C   UNL     1     -10.839   8.777  69.713  1.00  0.00    -0.196 C  
ENDROOT
BRANCH  15  23
HETATM   23  N   UNL     1      -7.851   7.968  68.840  1.00  0.00    -0.111 N  
HETATM   24  H   UNL     1      -7.539   7.721  67.902  1.00  0.00     0.000 HD 
HETATM   25  O   UNL     1      -7.530   9.435  70.612  1.00  0.00    -0.122 OA 
HETATM   26  C   UNL     1      -7.508   9.207  69.397  1.00  0.00    -0.077 C  
BRANCH  26  27
HETATM   27  C   UNL     1      -7.211  10.317  68.370  1.00  0.00    -0.080 C  
HETATM   28  C   UNL     1      -6.983   9.673  66.984  1.00  0.00    -0.085 C  
HETATM   29  N   UNL     1      -8.149   9.691  66.066  1.00  0.00    -0.111 NA 
HETATM   30  C   UNL     1      -8.466  11.083  65.643  1.00  0.00    -0.099 C  
HETATM   31  C   UNL     1      -9.343   9.028  66.604  1.00  0.00    -0.177 C  
HETATM   32  C   UNL     1      -9.894  11.246  64.946  1.00  0.00    -0.310 C  
HETATM   33  C   UNL     1     -10.751  12.269  65.614  1.00  0.00    -0.302 A  
HETATM   34  C   UNL     1     -12.114  12.484  65.696  1.00  0.00    -0.400 A  
HETATM   35  N   UNL     1     -12.311  13.660  66.380  1.00  0.00    -0.415 NA 
HETATM   36  C   UNL     1     -11.103  14.218  66.737  1.00  0.00    -0.314 A  
HETATM   37  H   UNL     1     -13.223  14.062  66.593  1.00  0.00     0.000 HD 
HETATM   38  C   UNL     1     -10.730  15.377  67.426  1.00  0.00    -0.296 A  
HETATM   39  C   UNL     1      -9.355  15.562  67.662  1.00  0.00    -0.203 A  
HETATM   40  C   UNL     1      -8.413  14.580  67.346  1.00  0.00    -0.220 A  
HETATM   41  C   UNL     1      -8.836  13.390  66.759  1.00  0.00    -0.145 A  
HETATM   42  C   UNL     1     -10.154  13.294  66.354  1.00  0.00    -0.290 A  
HETATM   43  C   UNL     1      -8.061  12.112  66.789  1.00  0.00    -0.055 C  
HETATM   44  C   UNL     1      -8.245  11.454  68.202  1.00  0.00    -0.143 C  
ENDBRANCH  26  27
ENDBRANCH  15  23
TORSDOF 2
ENDMDL
MODEL       61
REMARK 921   NORMALIZED FREE ENERGY PREDICTED BY IDOCK:   -5.01 KCAL/MOL
REMARK 922        TOTAL FREE ENERGY PREDICTED BY IDOCK:   -6.00 KCAL/MOL
REMARK 923 INTER-LIGAND FREE ENERGY PREDICTED BY IDOCK:   -5.60 KCAL/MOL
REMARK 924 INTRA-LIGAND FREE ENERGY PREDICTED BY IDOCK:   -0.39 KCAL/MOL
REMARK 927      BINDING AFFINITY PREDICTED BY RF-SCORE:    0.00 PKD
ROOT
HETATM    1  C   UNL     1      -7.536  10.278  67.208  1.00  0.00    -0.095 C  
HETATM    2  C   UNL     1      -6.400  10.863  66.374  1.00  0.00    -0.132 C  
HETATM    3  C   UNL     1      -5.518   9.620  66.041  1.00  0.00    -0.043 C  
HETATM    4  C   UNL     1      -6.040   8.460  66.885  1.00  0.00    -0.054 C  
HETATM    5  N   UNL     1      -6.969   9.073  67.801  1.00  0.00    -0.077 N  
HETATM    6  C   UNL     1      -7.730   8.300  68.666  1.00  0.00    -0.114 C  
HETATM    7  O   UNL     1      -7.419   7.167  69.014  1.00  0.00    -0.090 OA 
HETATM    8  C   UNL     1      -8.819   9.147  69.281  1.00  0.00    -0.144 C  
HETATM    9  C   UNL     1      -9.466   8.603  70.549  1.00  0.00    -0.206 C  
HETATM   10  N   UNL     1      -9.606   9.907  68.084  1.00  0.00    -0.139 N  
HETATM   11  C   UNL     1     -10.382   7.419  70.337  1.00  0.00    -0.215 C  
HETATM   12  C   UNL     1      -8.524   8.448  71.759  1.00  0.00    -0.220 C  
HETATM   13  C   UNL     1     -10.775  10.676  68.073  1.00  0.00    -0.233 C  
HETATM   14  O   UNL     1     -11.571  10.721  67.143  1.00  0.00    -0.385 OA 
HETATM   15  C   UNL     1     -10.748  11.535  69.322  1.00  0.00    -0.125 C  
HETATM   16  H   UNL     1      -9.884  12.465  67.348  1.00  0.00     0.000 HD 
HETATM   17  C   UNL     1     -11.822  10.465  70.049  1.00  0.00    -0.351 C  
HETATM   18  O   UNL     1      -9.168  11.597  69.198  1.00  0.00     0.097 OA 
HETATM   19  O   UNL     1      -9.153  12.019  66.938  1.00  0.00    -0.184 OA 
HETATM   20  C   UNL     1      -8.784  11.040  67.907  1.00  0.00    -0.133 C  
HETATM   21  C   UNL     1     -13.278  10.402  69.494  1.00  0.00     1.347 C  
HETATM   22  C   UNL     1     -11.998  10.430  71.559  1.00  0.00    -0.300 C  
ENDROOT
BRANCH  15  23
HETATM   23  N   UNL     1     -11.114  12.887  69.682  1.00  0.00    -0.472 N  
HETATM   24  H   UNL     1     -11.245  13.143  70.661  1.00  0.00     0.000 HD 
HETATM   25  O   UNL     1     -11.502  13.547  67.490  1.00  0.00    -0.296 OA 
HETATM   26  C   UNL     1     -11.288  13.841  68.672  1.00  0.00    -0.287 C  
BRANCH  26  27
HETATM   27  C   UNL     1     -11.074  15.301  69.117  1.00  0.00    -0.266 C  
HETATM   28  C   UNL     1     -10.070  15.327  70.292  1.00  0.00     0.006 C  
HETATM   29  N   UNL     1      -8.667  15.653  69.932  1.00  0.00     0.034 NA 
HETATM   30  C   UNL     1      -8.554  17.066  69.478  1.00  0.00     0.526 C  
HETATM   31  C   UNL     1      -8.076  14.742  68.945  1.00  0.00    -0.160 C  
HETATM   32  C   UNL     1      -7.176  17.410  68.748  1.00  0.00    -0.249 C  
HETATM   33  C   UNL     1      -7.369  17.988  67.386  1.00  0.00    -0.215 A  
HETATM   34  C   UNL     1      -6.595  18.052  66.243  1.00  0.00    -0.241 A  
HETATM   35  N   UNL     1      -7.276  18.807  65.318  1.00  0.00    -0.432 NA 
HETATM   36  C   UNL     1      -8.474  19.243  65.840  1.00  0.00     0.000 A  
HETATM   37  H   UNL     1      -6.941  19.015  64.378  1.00  0.00     0.000 HD 
HETATM   38  C   UNL     1      -9.527  20.020  65.347  1.00  0.00     0.479 A  
HETATM   39  C   UNL     1     -10.645  20.183  66.186  1.00  0.00    -0.369 A  
HETATM   40  C   UNL     1     -10.765  19.498  67.397  1.00  0.00    -0.589 A  
HETATM   41  C   UNL     1      -9.742  18.645  67.805  1.00  0.00    -0.344 A  
HETATM   42  C   UNL     1      -8.568  18.639  67.076  1.00  0.00    -0.280 A  
HETATM   43  C   UNL     1      -9.912  17.534  68.790  1.00  0.00    -0.342 C  
HETATM   44  C   UNL     1     -10.598  16.325  68.062  1.00  0.00    -0.308 C  
ENDBRANCH  26  27
ENDBRANCH  15  23
TORSDOF 2
ENDMDL
MODEL       62
REMARK 921   NORMALIZED FREE ENERGY PREDICTED BY IDOCK:   -4.99 KCAL/MOL
REMARK 922        TOTAL FREE ENERGY PREDICTED BY IDOCK:   -5.98 KCAL/MOL
REMARK 923 INTER-LIGAND FREE ENERGY PREDICTED BY IDOCK:   -5.47 KCAL/MOL
REMARK 924 INTRA-LIGAND FREE ENERGY PREDICTED BY IDOCK:   -0.51 KCAL/MOL
REMARK 927      BINDING AFFINITY PREDICTED BY RF-SCORE:    0.00 PKD
ROOT
HETATM    1  C   UNL     1     -10.884  13.093  65.632  1.00  0.00    -0.278 C  
HETATM    2  C   UNL     1     -12.322  13.135  65.126  1.00  0.00    -0.525 C  
HETATM    3  C   UNL     1     -12.500  14.613  64.658  1.00  0.00    -0.302 C  
HETATM    4  C   UNL     1     -11.273  15.385  65.137  1.00  0.00    -0.350 C  
HETATM    5  N   UNL     1     -10.595  14.468  66.019  1.00  0.00    -0.297 N  
HETATM    6  C   UNL     1      -9.362  14.791  66.568  1.00  0.00    -0.290 C  
HETATM    7  O   UNL     1      -8.957  15.940  66.697  1.00  0.00    -0.219 OA 
HETATM    8  C   UNL     1      -8.744  13.561  67.189  1.00  0.00    -0.215 C  
HETATM    9  C   UNL     1      -7.624  13.798  68.195  1.00  0.00    -0.128 C  
HETATM   10  N   UNL     1      -8.773  12.369  66.089  1.00  0.00     0.096 N  
HETATM   11  C   UNL     1      -6.317  14.261  67.592  1.00  0.00    -0.126 C  
HETATM   12  C   UNL     1      -8.027  14.571  69.465  1.00  0.00     0.137 C  
HETATM   13  C   UNL     1      -8.201  11.092  66.076  1.00  0.00    -0.129 C  
HETATM   14  O   UNL     1      -7.794  10.520  65.073  1.00  0.00    -0.134 OA 
HETATM   15  C   UNL     1      -8.356  10.528  67.475  1.00  0.00    -0.118 C  
HETATM   16  H   UNL     1     -10.024  10.011  65.907  1.00  0.00     0.000 HD 
HETATM   17  C   UNL     1      -6.748  10.912  67.780  1.00  0.00    -0.064 C  
HETATM   18  O   UNL     1      -9.722  11.324  67.603  1.00  0.00    -0.168 OA 
HETATM   19  O   UNL     1     -10.501  10.736  65.520  1.00  0.00    -0.252 OA 
HETATM   20  C   UNL     1     -10.071  11.856  66.291  1.00  0.00    -0.220 C  
HETATM   21  C   UNL     1      -5.649  10.111  67.015  1.00  0.00    -0.045 C  
HETATM   22  C   UNL     1      -6.217  11.009  69.201  1.00  0.00    -0.049 C  
ENDROOT
BRANCH  15  23
HETATM   23  N   UNL     1      -8.654   9.243  68.069  1.00  0.00    -0.121 N  
HETATM   24  H   UNL     1      -8.706   8.407  67.488  1.00  0.00     0.000 HD 
HETATM   25  O   UNL     1      -9.176  10.134  70.149  1.00  0.00    -0.117 OA 
HETATM   26  C   UNL     1      -8.870   9.161  69.450  1.00  0.00    -0.146 C  
BRANCH  26  27
HETATM   27  C   UNL     1      -8.581   7.779  70.068  1.00  0.00    -0.140 C  
HETATM   28  C   UNL     1      -9.895   7.194  70.630  1.00  0.00    -0.182 C  
HETATM   29  N   UNL     1     -10.589   6.213  69.758  1.00  0.00    -0.249 NA 
HETATM   30  C   UNL     1      -9.793   4.961  69.637  1.00  0.00    -0.218 C  
HETATM   31  C   UNL     1     -10.939   6.736  68.432  1.00  0.00    -0.187 C  
HETATM   32  C   UNL     1     -10.272   3.993  68.460  1.00  0.00     0.466 C  
HETATM   33  C   UNL     1      -9.176   3.653  67.506  1.00  0.00    -0.224 A  
HETATM   34  C   UNL     1      -9.134   3.252  66.184  1.00  0.00    -0.153 A  
HETATM   35  N   UNL     1      -7.822   2.991  65.868  1.00  0.00    -0.081 NA 
HETATM   36  C   UNL     1      -7.011   3.206  66.960  1.00  0.00    -0.053 A  
HETATM   37  H   UNL     1      -7.495   2.681  64.953  1.00  0.00     0.000 HD 
HETATM   38  C   UNL     1      -5.636   3.097  67.189  1.00  0.00    -0.021 A  
HETATM   39  C   UNL     1      -5.169   3.493  68.457  1.00  0.00    -0.012 A  
HETATM   40  C   UNL     1      -6.009   4.090  69.400  1.00  0.00    -0.023 A  
HETATM   41  C   UNL     1      -7.354   4.283  69.093  1.00  0.00    -0.055 A  
HETATM   42  C   UNL     1      -7.845   3.720  67.931  1.00  0.00    -0.073 A  
HETATM   43  C   UNL     1      -8.238   5.282  69.767  1.00  0.00    -0.098 C  
HETATM   44  C   UNL     1      -7.924   6.702  69.176  1.00  0.00    -0.112 C  
ENDBRANCH  26  27
ENDBRANCH  15  23
TORSDOF 2
ENDMDL
MODEL       63
REMARK 921   NORMALIZED FREE ENERGY PREDICTED BY IDOCK:   -4.99 KCAL/MOL
REMARK 922        TOTAL FREE ENERGY PREDICTED BY IDOCK:   -5.97 KCAL/MOL
REMARK 923 INTER-LIGAND FREE ENERGY PREDICTED BY IDOCK:   -6.08 KCAL/MOL
REMARK 924 INTRA-LIGAND FREE ENERGY PREDICTED BY IDOCK:    0.11 KCAL/MOL
REMARK 927      BINDING AFFINITY PREDICTED BY RF-SCORE:    0.00 PKD
ROOT
HETATM    1  C   UNL     1      -8.172  15.925  67.270  1.00  0.00    -0.185 C  
HETATM    2  C   UNL     1      -6.823  16.633  67.341  1.00  0.00    -0.195 C  
HETATM    3  C   UNL     1      -7.011  17.866  66.403  1.00  0.00    -0.284 C  
HETATM    4  C   UNL     1      -8.334  17.672  65.668  1.00  0.00     0.532 C  
HETATM    5  N   UNL     1      -8.723  16.320  65.980  1.00  0.00    -0.315 N  
HETATM    6  C   UNL     1      -9.948  15.818  65.564  1.00  0.00    -0.306 C  
HETATM    7  O   UNL     1     -10.583  16.274  64.621  1.00  0.00    -0.621 OA 
HETATM    8  C   UNL     1     -10.231  14.514  66.272  1.00  0.00    -0.297 C  
HETATM    9  C   UNL     1     -11.291  13.618  65.645  1.00  0.00    -0.309 C  
HETATM   10  N   UNL     1     -10.030  14.749  67.865  1.00  0.00    -0.212 N  
HETATM   11  C   UNL     1     -12.712  14.112  65.798  1.00  0.00    -0.443 C  
HETATM   12  C   UNL     1     -10.966  13.096  64.232  1.00  0.00    -0.428 C  
HETATM   13  C   UNL     1     -10.308  13.940  68.973  1.00  0.00    -0.096 C  
HETATM   14  O   UNL     1     -10.660  14.357  70.069  1.00  0.00     0.039 OA 
HETATM   15  C   UNL     1      -9.923  12.525  68.591  1.00  0.00    -0.103 C  
HETATM   16  H   UNL     1      -8.313  13.826  69.697  1.00  0.00     0.000 HD 
HETATM   17  C   UNL     1     -11.546  12.183  68.319  1.00  0.00    -0.382 C  
HETATM   18  O   UNL     1      -8.757  13.125  67.698  1.00  0.00    -0.168 OA 
HETATM   19  O   UNL     1      -8.038  14.633  69.278  1.00  0.00    -0.123 OA 
HETATM   20  C   UNL     1      -8.640  14.549  67.987  1.00  0.00    -0.162 C  
HETATM   21  C   UNL     1     -12.501  12.147  69.552  1.00  0.00     0.147 C  
HETATM   22  C   UNL     1     -11.969  10.986  67.484  1.00  0.00     0.451 C  
ENDROOT
BRANCH  15  23
HETATM   23  N   UNL     1      -9.304  11.388  69.237  1.00  0.00    -0.381 N  
HETATM   24  H   UNL     1      -9.031  11.439  70.218  1.00  0.00     0.000 HD 
HETATM   25  O   UNL     1      -9.050  10.189  67.265  1.00  0.00    -0.137 OA 
HETATM   26  C   UNL     1      -9.086  10.217  68.501  1.00  0.00    -0.134 C  
BRANCH  26  27
HETATM   27  C   UNL     1      -9.009   8.928  69.342  1.00  0.00    -0.145 C  
HETATM   28  C   UNL     1     -10.430   8.341  69.494  1.00  0.00    -0.227 C  
HETATM   29  N   UNL     1     -10.772   7.235  68.563  1.00  0.00    -0.167 NA 
HETATM   30  C   UNL     1      -9.968   6.021  68.870  1.00  0.00    -0.154 C  
HETATM   31  C   UNL     1     -10.654   7.590  67.144  1.00  0.00    -0.345 C  
HETATM   32  C   UNL     1     -10.006   4.906  67.727  1.00  0.00    -0.186 C  
HETATM   33  C   UNL     1      -8.646   4.521  67.247  1.00  0.00    -0.104 A  
HETATM   34  C   UNL     1      -8.150   3.980  66.076  1.00  0.00    -0.101 A  
HETATM   35  N   UNL     1      -6.806   3.754  66.255  1.00  0.00    -0.056 NA 
HETATM   36  C   UNL     1      -6.419   4.130  67.524  1.00  0.00    -0.038 A  
HETATM   37  H   UNL     1      -6.183   3.364  65.549  1.00  0.00     0.000 HD 
HETATM   38  C   UNL     1      -5.204   4.119  68.215  1.00  0.00    -0.008 A  
HETATM   39  C   UNL     1      -5.203   4.674  69.509  1.00  0.00     0.000 A  
HETATM   40  C   UNL     1      -6.321   5.327  70.032  1.00  0.00    -0.030 A  
HETATM   41  C   UNL     1      -7.483   5.415  69.268  1.00  0.00    -0.073 A  
HETATM   42  C   UNL     1      -7.541   4.703  68.085  1.00  0.00    -0.077 A  
HETATM   43  C   UNL     1      -8.555   6.434  69.478  1.00  0.00    -0.133 C  
HETATM   44  C   UNL     1      -8.074   7.795  68.861  1.00  0.00    -0.126 C  
ENDBRANCH  26  27
ENDBRANCH  15  23
TORSDOF 2
ENDMDL
MODEL       64
REMARK 921   NORMALIZED FREE ENERGY PREDICTED BY IDOCK:   -4.98 KCAL/MOL
REMARK 922        TOTAL FREE ENERGY PREDICTED BY IDOCK:   -5.96 KCAL/MOL
REMARK 923 INTER-LIGAND FREE ENERGY PREDICTED BY IDOCK:   -6.44 KCAL/MOL
REMARK 924 INTRA-LIGAND FREE ENERGY PREDICTED BY IDOCK:    0.48 KCAL/MOL
REMARK 927      BINDING AFFINITY PREDICTED BY RF-SCORE:    0.00 PKD
ROOT
HETATM    1  C   UNL     1      -9.831   5.605  71.950  1.00  0.00    -0.166 C  
HETATM    2  C   UNL     1     -11.053   5.118  72.722  1.00  0.00    -0.330 C  
HETATM    3  C   UNL     1     -10.649   3.679  73.170  1.00  0.00    -0.269 C  
HETATM    4  C   UNL     1      -9.354   3.330  72.441  1.00  0.00    -0.108 C  
HETATM    5  N   UNL     1      -9.192   4.385  71.473  1.00  0.00    -0.130 N  
HETATM    6  C   UNL     1      -8.052   4.460  70.686  1.00  0.00    -0.067 C  
HETATM    7  O   UNL     1      -7.329   3.500  70.447  1.00  0.00    -0.040 OA 
HETATM    8  C   UNL     1      -7.997   5.802  69.995  1.00  0.00    -0.099 C  
HETATM    9  C   UNL     1      -7.076   5.905  68.786  1.00  0.00    -0.081 C  
HETATM   10  N   UNL     1      -8.198   6.957  71.116  1.00  0.00    -0.117 N  
HETATM   11  C   UNL     1      -5.599   5.911  69.111  1.00  0.00    -0.008 C  
HETATM   12  C   UNL     1      -7.443   4.999  67.594  1.00  0.00    -0.079 C  
HETATM   13  C   UNL     1      -8.079   8.350  71.057  1.00  0.00    -0.119 C  
HETATM   14  O   UNL     1      -7.694   9.057  71.979  1.00  0.00    -0.348 OA 
HETATM   15  C   UNL     1      -8.674   8.785  69.731  1.00  0.00    -0.133 C  
HETATM   16  H   UNL     1     -10.085   8.788  71.607  1.00  0.00     0.000 HD 
HETATM   17  C   UNL     1      -7.119   8.932  69.111  1.00  0.00    -0.063 C  
HETATM   18  O   UNL     1      -9.707   7.587  69.846  1.00  0.00    -0.170 OA 
HETATM   19  O   UNL     1     -10.218   7.963  72.057  1.00  0.00    -0.190 OA 
HETATM   20  C   UNL     1      -9.605   7.015  71.183  1.00  0.00    -0.165 C  
HETATM   21  C   UNL     1      -6.213  10.071  69.673  1.00  0.00    -0.049 C  
HETATM   22  C   UNL     1      -6.869   8.962  67.612  1.00  0.00    -0.070 C  
ENDROOT
BRANCH  15  23
HETATM   23  N   UNL     1      -9.480   9.883  69.246  1.00  0.00    -0.196 N  
HETATM   24  H   UNL     1      -9.263  10.328  68.354  1.00  0.00     0.000 HD 
HETATM   25  O   UNL     1     -10.677  10.103  71.223  1.00  0.00    -0.000 OA 
HETATM   26  C   UNL     1     -10.564  10.329  70.013  1.00  0.00    -0.269 C  
BRANCH  26  27
HETATM   27  C   UNL     1     -11.680  11.027  69.212  1.00  0.00    -0.397 C  
HETATM   28  C   UNL     1     -12.233  12.207  70.043  1.00  0.00    -0.198 C  
HETATM   29  N   UNL     1     -11.696  13.547  69.695  1.00  0.00    -0.308 NA 
HETATM   30  C   UNL     1     -12.153  13.962  68.340  1.00  0.00    -0.291 C  
HETATM   31  C   UNL     1     -10.237  13.652  69.805  1.00  0.00     0.930 C  
HETATM   32  C   UNL     1     -11.361  15.211  67.738  1.00  0.00    -0.335 C  
HETATM   33  C   UNL     1     -10.757  14.926  66.403  1.00  0.00    -0.316 A  
HETATM   34  C   UNL     1      -9.694  15.448  65.690  1.00  0.00    -0.331 A  
HETATM   35  N   UNL     1      -9.679  14.840  64.458  1.00  0.00    -0.216 NA 
HETATM   36  C   UNL     1     -10.715  13.939  64.351  1.00  0.00    -0.268 A  
HETATM   37  H   UNL     1      -8.995  15.029  63.725  1.00  0.00     0.000 HD 
HETATM   38  C   UNL     1     -11.154  13.072  63.345  1.00  0.00    -0.033 A  
HETATM   39  C   UNL     1     -12.239  12.231  63.658  1.00  0.00    -0.665 A  
HETATM   40  C   UNL     1     -12.771  12.163  64.947  1.00  0.00     0.061 A  
HETATM   41  C   UNL     1     -12.235  12.963  65.953  1.00  0.00    -0.469 A  
HETATM   42  C   UNL     1     -11.305  13.922  65.597  1.00  0.00    -0.310 A  
HETATM   43  C   UNL     1     -12.367  12.684  67.415  1.00  0.00     0.344 C  
HETATM   44  C   UNL     1     -11.344  11.556  67.799  1.00  0.00    -0.364 C  
ENDBRANCH  26  27
ENDBRANCH  15  23
TORSDOF 2
ENDMDL
MODEL       65
REMARK 921   NORMALIZED FREE ENERGY PREDICTED BY IDOCK:   -4.83 KCAL/MOL
REMARK 922        TOTAL FREE ENERGY PREDICTED BY IDOCK:   -5.80 KCAL/MOL
REMARK 923 INTER-LIGAND FREE ENERGY PREDICTED BY IDOCK:   -5.33 KCAL/MOL
REMARK 924 INTRA-LIGAND FREE ENERGY PREDICTED BY IDOCK:   -0.46 KCAL/MOL
REMARK 927      BINDING AFFINITY PREDICTED BY RF-SCORE:    0.00 PKD
ROOT
HETATM    1  C   UNL     1      -6.536   7.069  65.222  1.00  0.00    -0.047 C  
HETATM    2  C   UNL     1      -5.161   6.820  64.612  1.00  0.00    -0.026 C  
HETATM    3  C   UNL     1      -5.196   5.304  64.243  1.00  0.00    -0.010 C  
HETATM    4  C   UNL     1      -6.460   4.720  64.869  1.00  0.00    -0.036 C  
HETATM    5  N   UNL     1      -6.950   5.768  65.730  1.00  0.00    -0.067 N  
HETATM    6  C   UNL     1      -8.161   5.634  66.395  1.00  0.00    -0.106 C  
HETATM    7  O   UNL     1      -8.684   4.553  66.639  1.00  0.00    -0.111 OA 
HETATM    8  C   UNL     1      -8.577   6.968  66.968  1.00  0.00    -0.122 C  
HETATM    9  C   UNL     1      -9.628   6.933  68.071  1.00  0.00    -0.125 C  
HETATM   10  N   UNL     1      -8.503   8.073  65.784  1.00  0.00    -0.140 N  
HETATM   11  C   UNL     1     -11.026   6.596  67.605  1.00  0.00    -0.392 C  
HETATM   12  C   UNL     1      -9.211   6.200  69.361  1.00  0.00    -0.137 C  
HETATM   13  C   UNL     1      -8.920   9.408  65.720  1.00  0.00    -0.186 C  
HETATM   14  O   UNL     1      -9.342   9.959  64.712  1.00  0.00    -0.244 OA 
HETATM   15  C   UNL     1      -8.584  10.037  67.058  1.00  0.00    -0.125 C  
HETATM   16  H   UNL     1      -7.005  10.245  65.333  1.00  0.00     0.000 HD 
HETATM   17  C   UNL     1     -10.194   9.873  67.512  1.00  0.00    -0.265 C  
HETATM   18  O   UNL     1      -7.313   9.090  67.139  1.00  0.00    -0.085 OA 
HETATM   19  O   UNL     1      -6.651   9.444  64.966  1.00  0.00    -0.079 OA 
HETATM   20  C   UNL     1      -7.141   8.436  65.848  1.00  0.00    -0.072 C  
HETATM   21  C   UNL     1     -11.253  10.751  66.777  1.00  0.00    -0.053 C  
HETATM   22  C   UNL     1     -10.610   9.932  68.973  1.00  0.00    -0.240 C  
ENDROOT
BRANCH  15  23
HETATM   23  N   UNL     1      -8.089  11.311  67.531  1.00  0.00    -0.121 N  
HETATM   24  H   UNL     1      -8.247  12.159  66.987  1.00  0.00     0.000 HD 
HETATM   25  O   UNL     1      -6.856  10.382  69.265  1.00  0.00    -0.058 OA 
HETATM   26  C   UNL     1      -7.390  11.368  68.743  1.00  0.00    -0.114 C  
BRANCH  26  27
HETATM   27  C   UNL     1      -7.434  12.735  69.452  1.00  0.00     0.442 C  
HETATM   28  C   UNL     1      -6.004  13.121  69.890  1.00  0.00    -0.138 C  
HETATM   29  N   UNL     1      -5.287  14.060  68.991  1.00  0.00    -0.076 NA 
HETATM   30  C   UNL     1      -5.925  15.405  69.016  1.00  0.00    -0.103 C  
HETATM   31  C   UNL     1      -5.147  13.578  67.612  1.00  0.00     0.035 C  
HETATM   32  C   UNL     1      -5.452  16.375  67.839  1.00  0.00    -0.130 C  
HETATM   33  C   UNL     1      -6.590  16.902  67.029  1.00  0.00    -0.241 A  
HETATM   34  C   UNL     1      -6.719  17.382  65.740  1.00  0.00     0.073 A  
HETATM   35  N   UNL     1      -8.012  17.820  65.584  1.00  0.00    -0.432 NA 
HETATM   36  C   UNL     1      -8.725  17.641  66.749  1.00  0.00    -0.258 A  
HETATM   37  H   UNL     1      -8.391  18.220  64.726  1.00  0.00     0.000 HD 
HETATM   38  C   UNL     1     -10.044  17.903  67.135  1.00  0.00    -0.340 A  
HETATM   39  C   UNL     1     -10.421  17.493  68.428  1.00  0.00    -0.372 A  
HETATM   40  C   UNL     1      -9.570  16.743  69.243  1.00  0.00    -0.112 A  
HETATM   41  C   UNL     1      -8.301  16.406  68.779  1.00  0.00    -0.242 A  
HETATM   42  C   UNL     1      -7.866  16.973  67.596  1.00  0.00    -0.183 A  
HETATM   43  C   UNL     1      -7.485  15.269  69.304  1.00  0.00    -0.200 C  
HETATM   44  C   UNL     1      -8.038  13.935  68.688  1.00  0.00    -0.097 C  
ENDBRANCH  26  27
ENDBRANCH  15  23
TORSDOF 2
ENDMDL
MODEL       66
REMARK 921   NORMALIZED FREE ENERGY PREDICTED BY IDOCK:   -4.81 KCAL/MOL
REMARK 922        TOTAL FREE ENERGY PREDICTED BY IDOCK:   -5.78 KCAL/MOL
REMARK 923 INTER-LIGAND FREE ENERGY PREDICTED BY IDOCK:   -6.40 KCAL/MOL
REMARK 924 INTRA-LIGAND FREE ENERGY PREDICTED BY IDOCK:    0.63 KCAL/MOL
REMARK 927      BINDING AFFINITY PREDICTED BY RF-SCORE:    0.00 PKD
ROOT
HETATM    1  C   UNL     1      -8.694   4.138  66.483  1.00  0.00    -0.115 C  
HETATM    2  C   UNL     1      -8.897   3.261  65.252  1.00  0.00    -0.132 C  
HETATM    3  C   UNL     1      -7.830   2.136  65.427  1.00  0.00    -0.077 C  
HETATM    4  C   UNL     1      -6.927   2.552  66.586  1.00  0.00    -0.048 C  
HETATM    5  N   UNL     1      -7.304   3.915  66.863  1.00  0.00    -0.071 N  
HETATM    6  C   UNL     1      -6.761   4.598  67.941  1.00  0.00    -0.054 C  
HETATM    7  O   UNL     1      -5.694   4.299  68.465  1.00  0.00    -0.022 OA 
HETATM    8  C   UNL     1      -7.538   5.870  68.182  1.00  0.00    -0.089 C  
HETATM    9  C   UNL     1      -6.848   6.939  69.021  1.00  0.00    -0.069 C  
HETATM   10  N   UNL     1      -9.114   5.492  68.266  1.00  0.00    -0.108 N  
HETATM   11  C   UNL     1      -6.740   6.618  70.494  1.00  0.00    -0.057 C  
HETATM   12  C   UNL     1      -5.554   7.521  68.418  1.00  0.00    -0.027 C  
HETATM   13  C   UNL     1     -10.240   6.243  68.623  1.00  0.00    -0.178 C  
HETATM   14  O   UNL     1     -11.227   5.793  69.189  1.00  0.00    -0.270 OA 
HETATM   15  C   UNL     1     -10.054   7.623  68.023  1.00  0.00    -0.187 C  
HETATM   16  H   UNL     1     -11.260   6.048  66.768  1.00  0.00     0.000 HD 
HETATM   17  C   UNL     1      -9.577   8.188  69.533  1.00  0.00    -0.168 C  
HETATM   18  O   UNL     1      -9.292   6.949  66.807  1.00  0.00    -0.147 OA 
HETATM   19  O   UNL     1     -10.812   5.247  66.524  1.00  0.00    -0.280 OA 
HETATM   20  C   UNL     1      -9.459   5.504  66.899  1.00  0.00    -0.135 C  
HETATM   21  C   UNL     1     -10.652   8.252  70.661  1.00  0.00    -0.235 C  
HETATM   22  C   UNL     1      -8.805   9.489  69.679  1.00  0.00    -0.196 C  
ENDROOT
BRANCH  15  23
HETATM   23  N   UNL     1     -10.890   8.620  67.390  1.00  0.00    -0.463 N  
HETATM   24  H   UNL     1     -11.890   8.458  67.278  1.00  0.00     0.000 HD 
HETATM   25  O   UNL     1      -9.100   9.932  66.705  1.00  0.00    -0.144 OA 
HETATM   26  C   UNL     1     -10.309   9.810  66.933  1.00  0.00    -0.234 C  
BRANCH  26  27
HETATM   27  C   UNL     1     -11.274  11.008  66.846  1.00  0.00    -0.210 C  
HETATM   28  C   UNL     1     -12.170  11.026  68.104  1.00  0.00     0.500 C  
HETATM   29  N   UNL     1     -11.750  11.957  69.182  1.00  0.00    -0.297 NA 
HETATM   30  C   UNL     1     -11.907  13.371  68.746  1.00  0.00    -0.351 C  
HETATM   31  C   UNL     1     -10.392  11.716  69.683  1.00  0.00     0.496 C  
HETATM   32  C   UNL     1     -11.165  14.430  69.685  1.00  0.00    -0.274 C  
HETATM   33  C   UNL     1     -10.215  15.304  68.936  1.00  0.00    -0.232 A  
HETATM   34  C   UNL     1      -9.089  16.027  69.281  1.00  0.00    -0.235 A  
HETATM   35  N   UNL     1      -8.684  16.726  68.169  1.00  0.00    -0.212 NA 
HETATM   36  C   UNL     1      -9.530  16.479  67.109  1.00  0.00    -0.239 A  
HETATM   37  H   UNL     1      -7.872  17.341  68.132  1.00  0.00     0.000 HD 
HETATM   38  C   UNL     1      -9.583  16.915  65.782  1.00  0.00    -0.077 A  
HETATM   39  C   UNL     1     -10.588  16.358  64.969  1.00  0.00    -0.217 A  
HETATM   40  C   UNL     1     -11.411  15.323  65.418  1.00  0.00    -0.253 A  
HETATM   41  C   UNL     1     -11.255  14.837  66.714  1.00  0.00    -0.344 A  
HETATM   42  C   UNL     1     -10.405  15.515  67.566  1.00  0.00    -0.271 A  
HETATM   43  C   UNL     1     -11.709  13.489  67.171  1.00  0.00    -0.419 C  
HETATM   44  C   UNL     1     -10.671  12.421  66.671  1.00  0.00    -0.263 C  
ENDBRANCH  26  27
ENDBRANCH  15  23
TORSDOF 2
ENDMDL
MODEL       67
REMARK 921   NORMALIZED FREE ENERGY PREDICTED BY IDOCK:   -4.79 KCAL/MOL
REMARK 922        TOTAL FREE ENERGY PREDICTED BY IDOCK:   -5.76 KCAL/MOL
REMARK 923 INTER-LIGAND FREE ENERGY PREDICTED BY IDOCK:   -5.56 KCAL/MOL
REMARK 924 INTRA-LIGAND FREE ENERGY PREDICTED BY IDOCK:   -0.20 KCAL/MOL
REMARK 927      BINDING AFFINITY PREDICTED BY RF-SCORE:    0.00 PKD
ROOT
HETATM    1  C   UNL     1     -10.310  15.315  68.165  1.00  0.00    -0.242 C  
HETATM    2  C   UNL     1     -11.710  15.859  68.430  1.00  0.00    -0.246 C  
HETATM    3  C   UNL     1     -11.524  17.405  68.322  1.00  0.00     0.623 C  
HETATM    4  C   UNL     1     -10.023  17.672  68.252  1.00  0.00    -0.339 C  
HETATM    5  N   UNL     1      -9.418  16.399  68.555  1.00  0.00    -0.219 N  
HETATM    6  C   UNL     1      -8.043  16.230  68.480  1.00  0.00    -0.193 C  
HETATM    7  O   UNL     1      -7.240  17.152  68.558  1.00  0.00    -0.199 OA 
HETATM    8  C   UNL     1      -7.707  14.758  68.542  1.00  0.00    -0.120 C  
HETATM    9  C   UNL     1      -6.269  14.406  68.903  1.00  0.00    -0.088 C  
HETATM   10  N   UNL     1      -8.608  13.986  67.436  1.00  0.00    -0.192 N  
HETATM   11  C   UNL     1      -5.256  14.683  67.815  1.00  0.00    -0.005 C  
HETATM   12  C   UNL     1      -5.810  14.850  70.305  1.00  0.00    -0.149 C  
HETATM   13  C   UNL     1      -8.589  12.667  66.968  1.00  0.00    -0.181 C  
HETATM   14  O   UNL     1      -8.864  12.331  65.823  1.00  0.00     0.112 OA 
HETATM   15  C   UNL     1      -8.344  11.778  68.171  1.00  0.00    -0.156 C  
HETATM   16  H   UNL     1     -10.573  12.173  67.550  1.00  0.00     0.000 HD 
HETATM   17  C   UNL     1      -6.733  11.642  67.711  1.00  0.00    -0.072 C  
HETATM   18  O   UNL     1      -9.155  12.816  69.055  1.00  0.00     0.251 OA 
HETATM   19  O   UNL     1     -10.874  13.074  67.549  1.00  0.00    -0.240 OA 
HETATM   20  C   UNL     1      -9.797  13.777  68.166  1.00  0.00    -0.239 C  
HETATM   21  C   UNL     1      -6.411  10.851  66.406  1.00  0.00    -0.130 C  
HETATM   22  C   UNL     1      -5.669  11.186  68.695  1.00  0.00    -0.042 C  
ENDROOT
BRANCH  15  23
HETATM   23  N   UNL     1      -8.808  10.493  68.646  1.00  0.00    -0.139 N  
HETATM   24  H   UNL     1      -8.620  10.198  69.604  1.00  0.00     0.000 HD 
HETATM   25  O   UNL     1      -9.479   9.768  66.544  1.00  0.00    -0.160 OA 
HETATM   26  C   UNL     1      -9.520   9.657  67.775  1.00  0.00    -0.127 C  
BRANCH  26  27
HETATM   27  C   UNL     1     -10.461   8.654  68.467  1.00  0.00    -0.209 C  
HETATM   28  C   UNL     1     -10.762   7.492  67.494  1.00  0.00    -0.226 C  
HETATM   29  N   UNL     1      -9.956   6.260  67.693  1.00  0.00    -0.123 NA 
HETATM   30  C   UNL     1     -10.309   5.602  68.981  1.00  0.00    -0.243 C  
HETATM   31  C   UNL     1      -8.507   6.473  67.599  1.00  0.00    -0.117 C  
HETATM   32  C   UNL     1      -9.272   4.481  69.448  1.00  0.00    -0.192 C  
HETATM   33  C   UNL     1      -8.732   4.726  70.818  1.00  0.00    -0.134 A  
HETATM   34  C   UNL     1      -7.580   4.354  71.485  1.00  0.00    -0.073 A  
HETATM   35  N   UNL     1      -7.684   4.802  72.781  1.00  0.00    -0.091 NA 
HETATM   36  C   UNL     1      -8.885   5.450  72.972  1.00  0.00    -0.120 A  
HETATM   37  H   UNL     1      -6.972   4.673  73.499  1.00  0.00     0.000 HD 
HETATM   38  C   UNL     1      -9.488   6.082  74.064  1.00  0.00    -0.152 A  
HETATM   39  C   UNL     1     -10.725   6.711  73.831  1.00  0.00    -0.141 A  
HETATM   40  C   UNL     1     -11.268   6.820  72.549  1.00  0.00    -0.305 A  
HETATM   41  C   UNL     1     -10.583   6.272  71.467  1.00  0.00    -0.282 A  
HETATM   42  C   UNL     1      -9.472   5.492  71.725  1.00  0.00    -0.175 A  
HETATM   43  C   UNL     1     -10.779   6.690  70.045  1.00  0.00    -0.287 C  
HETATM   44  C   UNL     1     -10.015   8.042  69.815  1.00  0.00    -0.191 C  
ENDBRANCH  26  27
ENDBRANCH  15  23
TORSDOF 2
ENDMDL
MODEL       68
REMARK 921   NORMALIZED FREE ENERGY PREDICTED BY IDOCK:   -4.76 KCAL/MOL
REMARK 922        TOTAL FREE ENERGY PREDICTED BY IDOCK:   -5.72 KCAL/MOL
REMARK 923 INTER-LIGAND FREE ENERGY PREDICTED BY IDOCK:   -6.50 KCAL/MOL
REMARK 924 INTRA-LIGAND FREE ENERGY PREDICTED BY IDOCK:    0.78 KCAL/MOL
REMARK 927      BINDING AFFINITY PREDICTED BY RF-SCORE:    0.00 PKD
ROOT
HETATM    1  C   UNL     1     -12.051  13.240  70.174  1.00  0.00    -0.333 C  
HETATM    2  C   UNL     1     -12.993  13.237  71.374  1.00  0.00    -0.398 C  
HETATM    3  C   UNL     1     -13.292  14.752  71.604  1.00  0.00    -0.443 C  
HETATM    4  C   UNL     1     -12.337  15.538  70.709  1.00  0.00    -0.414 C  
HETATM    5  N   UNL     1     -11.411  14.549  70.217  1.00  0.00    -0.251 N  
HETATM    6  C   UNL     1     -10.448  14.883  69.276  1.00  0.00    -0.241 C  
HETATM    7  O   UNL     1     -10.041  16.025  69.098  1.00  0.00    -0.214 OA 
HETATM    8  C   UNL     1      -9.827  13.625  68.715  1.00  0.00    -0.062 C  
HETATM    9  C   UNL     1      -8.486  13.788  68.009  1.00  0.00    -0.176 C  
HETATM   10  N   UNL     1     -11.023  12.643  68.230  1.00  0.00    -0.235 N  
HETATM   11  C   UNL     1      -8.557  14.464  66.659  1.00  0.00    -0.053 C  
HETATM   12  C   UNL     1      -7.329  14.292  68.893  1.00  0.00    -0.126 C  
HETATM   13  C   UNL     1     -11.016  11.444  67.509  1.00  0.00    -0.260 C  
HETATM   14  O   UNL     1     -11.895  11.092  66.733  1.00  0.00    -0.271 OA 
HETATM   15  C   UNL     1      -9.835  10.637  68.010  1.00  0.00    -0.160 C  
HETATM   16  H   UNL     1     -11.920  10.248  69.016  1.00  0.00     0.000 HD 
HETATM   17  C   UNL     1      -8.968  11.107  66.648  1.00  0.00    -0.175 C  
HETATM   18  O   UNL     1     -10.061  11.271  69.446  1.00  0.00    -0.073 OA 
HETATM   19  O   UNL     1     -12.342  10.981  69.446  1.00  0.00    -0.348 OA 
HETATM   20  C   UNL     1     -11.331  11.987  69.441  1.00  0.00    -0.251 C  
HETATM   21  C   UNL     1      -9.427  10.552  65.264  1.00  0.00    -0.281 C  
HETATM   22  C   UNL     1      -7.452  11.007  66.606  1.00  0.00    -0.146 C  
ENDROOT
BRANCH  15  23
HETATM   23  N   UNL     1      -9.549   9.248  68.294  1.00  0.00    -0.145 N  
HETATM   24  H   UNL     1      -8.912   8.996  69.049  1.00  0.00     0.000 HD 
HETATM   25  O   UNL     1     -10.635   8.461  66.398  1.00  0.00    -0.087 OA 
HETATM   26  C   UNL     1     -10.157   8.252  67.519  1.00  0.00    -0.225 C  
BRANCH  26  27
HETATM   27  C   UNL     1     -10.299   6.886  68.217  1.00  0.00    -0.220 C  
HETATM   28  C   UNL     1     -11.212   5.977  67.365  1.00  0.00     0.060 C  
HETATM   29  N   UNL     1     -10.514   5.005  66.486  1.00  0.00    -0.287 NA 
HETATM   30  C   UNL     1      -9.819   3.967  67.295  1.00  0.00    -0.083 C  
HETATM   31  C   UNL     1      -9.589   5.622  65.529  1.00  0.00     0.188 C  
HETATM   32  C   UNL     1      -8.766   3.092  66.472  1.00  0.00    -0.133 C  
HETATM   33  C   UNL     1      -7.400   3.114  67.071  1.00  0.00    -0.062 A  
HETATM   34  C   UNL     1      -6.124   2.914  66.578  1.00  0.00    -0.024 A  
HETATM   35  N   UNL     1      -5.252   2.967  67.640  1.00  0.00    -0.012 NA 
HETATM   36  C   UNL     1      -5.937   3.190  68.815  1.00  0.00    -0.024 A  
HETATM   37  H   UNL     1      -4.241   2.857  67.568  1.00  0.00     0.000 HD 
HETATM   38  C   UNL     1      -5.556   3.330  70.153  1.00  0.00    -0.017 A  
HETATM   39  C   UNL     1      -6.575   3.634  71.076  1.00  0.00    -0.031 A  
HETATM   40  C   UNL     1      -7.880   3.916  70.667  1.00  0.00    -0.054 A  
HETATM   41  C   UNL     1      -8.198   3.874  69.312  1.00  0.00    -0.072 A  
HETATM   42  C   UNL     1      -7.247   3.388  68.434  1.00  0.00    -0.050 A  
HETATM   43  C   UNL     1      -9.367   4.573  68.697  1.00  0.00    -0.199 C  
HETATM   44  C   UNL     1      -9.011   6.094  68.543  1.00  0.00    -0.115 C  
ENDBRANCH  26  27
ENDBRANCH  15  23
TORSDOF 2
ENDMDL
MODEL       69
REMARK 921   NORMALIZED FREE ENERGY PREDICTED BY IDOCK:   -4.61 KCAL/MOL
REMARK 922        TOTAL FREE ENERGY PREDICTED BY IDOCK:   -5.55 KCAL/MOL
REMARK 923 INTER-LIGAND FREE ENERGY PREDICTED BY IDOCK:   -5.62 KCAL/MOL
REMARK 924 INTRA-LIGAND FREE ENERGY PREDICTED BY IDOCK:    0.07 KCAL/MOL
REMARK 927      BINDING AFFINITY PREDICTED BY RF-SCORE:    0.00 PKD
ROOT
HETATM    1  C   UNL     1      -8.256   6.425  65.523  1.00  0.00    -0.142 C  
HETATM    2  C   UNL     1      -8.150   6.136  64.029  1.00  0.00    -0.074 C  
HETATM    3  C   UNL     1      -7.947   4.590  63.973  1.00  0.00    -0.093 C  
HETATM    4  C   UNL     1      -7.703   4.117  65.403  1.00  0.00    -0.086 C  
HETATM    5  N   UNL     1      -7.528   5.333  66.157  1.00  0.00    -0.082 N  
HETATM    6  C   UNL     1      -7.388   5.301  67.537  1.00  0.00    -0.079 C  
HETATM    7  O   UNL     1      -7.007   4.315  68.157  1.00  0.00    -0.053 OA 
HETATM    8  C   UNL     1      -7.530   6.697  68.097  1.00  0.00    -0.095 C  
HETATM    9  C   UNL     1      -6.989   6.921  69.503  1.00  0.00    -0.063 C  
HETATM   10  N   UNL     1      -8.897   7.342  67.508  1.00  0.00    -0.120 N  
HETATM   11  C   UNL     1      -7.814   6.299  70.607  1.00  0.00    -0.107 C  
HETATM   12  C   UNL     1      -5.472   6.713  69.672  1.00  0.00    -0.014 C  
HETATM   13  C   UNL     1      -9.581   8.524  67.812  1.00  0.00    -0.156 C  
HETATM   14  O   UNL     1     -10.797   8.656  67.768  1.00  0.00    -0.158 OA 
HETATM   15  C   UNL     1      -8.531   9.598  68.018  1.00  0.00    -0.118 C  
HETATM   16  H   UNL     1      -9.456   9.384  65.872  1.00  0.00     0.000 HD 
HETATM   17  C   UNL     1      -8.716   9.423  69.680  1.00  0.00    -0.172 C  
HETATM   18  O   UNL     1      -7.634   8.877  66.927  1.00  0.00    -0.086 OA 
HETATM   19  O   UNL     1      -9.350   8.549  65.431  1.00  0.00    -0.067 OA 
HETATM   20  C   UNL     1      -8.437   7.849  66.275  1.00  0.00    -0.135 C  
HETATM   21  C   UNL     1     -10.063   9.884  70.317  1.00  0.00    -0.295 C  
HETATM   22  C   UNL     1      -7.656   9.924  70.647  1.00  0.00     0.091 C  
ENDROOT
BRANCH  15  23
HETATM   23  N   UNL     1      -8.382  11.003  67.706  1.00  0.00    -0.116 N  
HETATM   24  H   UNL     1      -7.504  11.484  67.901  1.00  0.00     0.000 HD 
HETATM   25  O   UNL     1     -10.627  11.303  67.198  1.00  0.00    -0.212 OA 
HETATM   26  C   UNL     1      -9.456  11.695  67.134  1.00  0.00    -0.176 C  
BRANCH  26  27
HETATM   27  C   UNL     1      -9.061  12.932  66.306  1.00  0.00    -0.019 C  
HETATM   28  C   UNL     1     -10.214  13.281  65.339  1.00  0.00    -0.293 C  
HETATM   29  N   UNL     1     -11.123  14.367  65.785  1.00  0.00    -0.309 NA 
HETATM   30  C   UNL     1     -10.412  15.675  65.804  1.00  0.00    -0.366 C  
HETATM   31  C   UNL     1     -11.771  14.111  67.077  1.00  0.00    -0.405 C  
HETATM   32  C   UNL     1     -11.186  16.829  66.590  1.00  0.00     0.464 C  
HETATM   33  C   UNL     1     -10.363  17.448  67.671  1.00  0.00    -0.355 A  
HETATM   34  C   UNL     1     -10.653  18.121  68.842  1.00  0.00     0.108 A  
HETATM   35  N   UNL     1      -9.464  18.545  69.386  1.00  0.00     0.107 NA 
HETATM   36  C   UNL     1      -8.406  18.168  68.587  1.00  0.00    -0.275 A  
HETATM   37  H   UNL     1      -9.376  19.066  70.258  1.00  0.00     0.000 HD 
HETATM   38  C   UNL     1      -7.020  18.332  68.663  1.00  0.00    -0.270 A  
HETATM   39  C   UNL     1      -6.250  17.716  67.658  1.00  0.00    -0.172 A  
HETATM   40  C   UNL     1      -6.821  16.869  66.706  1.00  0.00    -0.267 A  
HETATM   41  C   UNL     1      -8.195  16.641  66.729  1.00  0.00    -0.274 A  
HETATM   42  C   UNL     1      -8.967  17.397  67.590  1.00  0.00    -0.233 A  
HETATM   43  C   UNL     1      -8.865  15.456  66.111  1.00  0.00    -0.222 C  
HETATM   44  C   UNL     1      -8.667  14.222  67.061  1.00  0.00    -0.231 C  
ENDBRANCH  26  27
ENDBRANCH  15  23
TORSDOF 2
ENDMDL
MODEL       70
REMARK 921   NORMALIZED FREE ENERGY PREDICTED BY IDOCK:   -4.29 KCAL/MOL
REMARK 922        TOTAL FREE ENERGY PREDICTED BY IDOCK:   -5.20 KCAL/MOL
REMARK 923 INTER-LIGAND FREE ENERGY PREDICTED BY IDOCK:   -4.81 KCAL/MOL
REMARK 924 INTRA-LIGAND FREE ENERGY PREDICTED BY IDOCK:   -0.39 KCAL/MOL
REMARK 927      BINDING AFFINITY PREDICTED BY RF-SCORE:    0.00 PKD
ROOT
HETATM    1  C   UNL     1      -9.091   7.244  71.725  1.00  0.00    -0.130 C  
HETATM    2  C   UNL     1      -9.697   7.407  73.115  1.00  0.00    -0.281 C  
HETATM    3  C   UNL     1     -10.300   5.999  73.415  1.00  0.00    -0.247 C  
HETATM    4  C   UNL     1     -10.232   5.196  72.118  1.00  0.00    -0.202 C  
HETATM    5  N   UNL     1      -9.859   6.164  71.117  1.00  0.00    -0.179 N  
HETATM    6  C   UNL     1      -9.595   5.773  69.813  1.00  0.00    -0.157 C  
HETATM    7  O   UNL     1     -10.022   4.737  69.316  1.00  0.00    -0.200 OA 
HETATM    8  C   UNL     1      -8.942   6.909  69.062  1.00  0.00    -0.132 C  
HETATM    9  C   UNL     1      -8.973   6.823  67.541  1.00  0.00    -0.115 C  
HETATM   10  N   UNL     1      -7.687   7.441  69.942  1.00  0.00    -0.097 N  
HETATM   11  C   UNL     1      -8.054   5.782  66.945  1.00  0.00    -0.102 C  
HETATM   12  C   UNL     1     -10.376   6.848  66.904  1.00  0.00    -0.332 C  
HETATM   13  C   UNL     1      -6.662   8.351  69.657  1.00  0.00    -0.037 C  
HETATM   14  O   UNL     1      -5.520   8.272  70.090  1.00  0.00    -0.023 OA 
HETATM   15  C   UNL     1      -7.292   9.492  68.882  1.00  0.00    -0.073 C  
HETATM   16  H   UNL     1      -7.119   9.726  71.212  1.00  0.00     0.000 HD 
HETATM   17  C   UNL     1      -6.684   8.830  67.462  1.00  0.00    -0.066 C  
HETATM   18  O   UNL     1      -8.621   9.275  69.719  1.00  0.00    -0.133 OA 
HETATM   19  O   UNL     1      -7.560   9.081  71.751  1.00  0.00    -0.321 OA 
HETATM   20  C   UNL     1      -8.337   8.346  70.806  1.00  0.00    -0.130 C  
HETATM   21  C   UNL     1      -5.139   8.849  67.251  1.00  0.00    -0.033 C  
HETATM   22  C   UNL     1      -7.250   9.220  66.106  1.00  0.00    -0.091 C  
ENDROOT
BRANCH  15  23
HETATM   23  N   UNL     1      -7.157  10.931  68.827  1.00  0.00    -0.076 N  
HETATM   24  H   UNL     1      -7.736  11.479  68.191  1.00  0.00     0.000 HD 
HETATM   25  O   UNL     1      -5.262  10.976  70.169  1.00  0.00    -0.051 OA 
HETATM   26  C   UNL     1      -6.222  11.564  69.656  1.00  0.00    -0.124 C  
BRANCH  26  27
HETATM   27  C   UNL     1      -6.540  13.035  69.985  1.00  0.00     0.197 C  
HETATM   28  C   UNL     1      -5.366  13.921  69.515  1.00  0.00    -0.084 C  
HETATM   29  N   UNL     1      -5.552  14.593  68.203  1.00  0.00    -0.115 NA 
HETATM   30  C   UNL     1      -6.622  15.624  68.286  1.00  0.00    -0.122 C  
HETATM   31  C   UNL     1      -5.804  13.671  67.090  1.00  0.00     0.726 C  
HETATM   32  C   UNL     1      -7.134  16.151  66.868  1.00  0.00    -0.222 C  
HETATM   33  C   UNL     1      -8.608  16.005  66.692  1.00  0.00    -0.316 A  
HETATM   34  C   UNL     1      -9.446  15.898  65.598  1.00  0.00    -0.182 A  
HETATM   35  N   UNL     1     -10.740  15.884  66.062  1.00  0.00    -0.311 NA 
HETATM   36  C   UNL     1     -10.761  15.988  67.436  1.00  0.00    -0.306 A  
HETATM   37  H   UNL     1     -11.568  15.807  65.472  1.00  0.00     0.000 HD 
HETATM   38  C   UNL     1     -11.777  16.022  68.395  1.00  0.00    -0.196 A  
HETATM   39  C   UNL     1     -11.378  16.060  69.745  1.00  0.00    -0.331 A  
HETATM   40  C   UNL     1     -10.038  15.936  70.121  1.00  0.00    -0.019 A  
HETATM   41  C   UNL     1      -9.061  15.793  69.139  1.00  0.00    -0.262 A  
HETATM   42  C   UNL     1      -9.436  15.951  67.818  1.00  0.00    -0.216 A  
HETATM   43  C   UNL     1      -7.708  15.205  69.374  1.00  0.00    -0.213 C  
HETATM   44  C   UNL     1      -7.848  13.642  69.429  1.00  0.00     0.497 C  
ENDBRANCH  26  27
ENDBRANCH  15  23
TORSDOF 2
ENDMDL
MODEL       71
REMARK 921   NORMALIZED FREE ENERGY PREDICTED BY IDOCK:   -4.29 KCAL/MOL
REMARK 922        TOTAL FREE ENERGY PREDICTED BY IDOCK:   -5.19 KCAL/MOL
REMARK 923 INTER-LIGAND FREE ENERGY PREDICTED BY IDOCK:   -5.02 KCAL/MOL
REMARK 924 INTRA-LIGAND FREE ENERGY PREDICTED BY IDOCK:   -0.18 KCAL/MOL
REMARK 927      BINDING AFFINITY PREDICTED BY RF-SCORE:    0.00 PKD
ROOT
HETATM    1  C   UNL     1     -10.077   3.713  64.390  1.00  0.00    -0.203 C  
HETATM    2  C   UNL     1     -11.408   3.249  63.806  1.00  0.00     0.623 C  
HETATM    3  C   UNL     1     -11.035   1.937  63.049  1.00  0.00    -0.234 C  
HETATM    4  C   UNL     1      -9.511   1.851  63.026  1.00  0.00    -0.091 C  
HETATM    5  N   UNL     1      -9.073   3.137  63.504  1.00  0.00    -0.095 N  
HETATM    6  C   UNL     1      -7.726   3.394  63.722  1.00  0.00    -0.079 C  
HETATM    7  O   UNL     1      -6.821   2.770  63.181  1.00  0.00    -0.027 OA 
HETATM    8  C   UNL     1      -7.572   4.680  64.499  1.00  0.00    -0.073 C  
HETATM    9  C   UNL     1      -6.198   5.337  64.458  1.00  0.00    -0.022 C  
HETATM   10  N   UNL     1      -8.529   4.599  65.806  1.00  0.00    -0.115 N  
HETATM   11  C   UNL     1      -5.129   4.622  65.254  1.00  0.00    -0.009 C  
HETATM   12  C   UNL     1      -5.727   5.801  63.066  1.00  0.00    -0.017 C  
HETATM   13  C   UNL     1      -8.656   5.429  66.927  1.00  0.00    -0.109 C  
HETATM   14  O   UNL     1      -8.938   5.040  68.053  1.00  0.00    -0.106 OA 
HETATM   15  C   UNL     1      -8.553   6.857  66.429  1.00  0.00    -0.134 C  
HETATM   16  H   UNL     1     -10.700   5.929  66.628  1.00  0.00     0.000 HD 
HETATM   17  C   UNL     1      -6.958   6.899  66.958  1.00  0.00    -0.070 C  
HETATM   18  O   UNL     1      -9.257   6.398  65.084  1.00  0.00     0.265 OA 
HETATM   19  O   UNL     1     -10.891   5.152  66.117  1.00  0.00    -0.282 OA 
HETATM   20  C   UNL     1      -9.754   5.039  65.262  1.00  0.00     0.037 C  
HETATM   21  C   UNL     1      -6.698   6.865  68.496  1.00  0.00    -0.064 C  
HETATM   22  C   UNL     1      -5.984   7.944  66.439  1.00  0.00    -0.041 C  
ENDROOT
BRANCH  15  23
HETATM   23  N   UNL     1      -9.181   8.126  66.725  1.00  0.00    -0.154 N  
HETATM   24  H   UNL     1      -9.078   8.914  66.086  1.00  0.00     0.000 HD 
HETATM   25  O   UNL     1      -9.816   7.505  68.871  1.00  0.00    -0.154 OA 
HETATM   26  C   UNL     1      -9.934   8.260  67.899  1.00  0.00    -0.183 C  
BRANCH  26  27
HETATM   27  C   UNL     1     -11.016   9.355  67.852  1.00  0.00    -0.122 C  
HETATM   28  C   UNL     1     -11.241   9.904  69.278  1.00  0.00    -0.130 C  
HETATM   29  N   UNL     1     -10.539  11.173  69.598  1.00  0.00    -0.104 NA 
HETATM   30  C   UNL     1     -11.105  12.301  68.808  1.00  0.00    -0.251 C  
HETATM   31  C   UNL     1      -9.082  11.106  69.439  1.00  0.00     0.324 C  
HETATM   32  C   UNL     1     -10.205  13.621  68.817  1.00  0.00    -0.155 C  
HETATM   33  C   UNL     1      -9.851  14.090  67.446  1.00  0.00    -0.240 A  
HETATM   34  C   UNL     1      -8.825  14.852  66.919  1.00  0.00    -0.258 A  
HETATM   35  N   UNL     1      -9.084  15.035  65.582  1.00  0.00    -0.329 NA 
HETATM   36  C   UNL     1     -10.263  14.414  65.230  1.00  0.00    -0.389 A  
HETATM   37  H   UNL     1      -8.488  15.558  64.940  1.00  0.00     0.000 HD 
HETATM   38  C   UNL     1     -10.978  14.286  64.035  1.00  0.00     0.381 A  
HETATM   39  C   UNL     1     -12.134  13.484  64.068  1.00  0.00    -0.494 A  
HETATM   40  C   UNL     1     -12.486  12.743  65.198  1.00  0.00    -0.565 A  
HETATM   41  C   UNL     1     -11.687  12.810  66.337  1.00  0.00    -0.464 A  
HETATM   42  C   UNL     1     -10.668  13.743  66.364  1.00  0.00    -0.281 A  
HETATM   43  C   UNL     1     -11.658  11.772  67.412  1.00  0.00    -0.352 C  
HETATM   44  C   UNL     1     -10.797  10.560  66.908  1.00  0.00    -0.252 C  
ENDBRANCH  26  27
ENDBRANCH  15  23
TORSDOF 2
ENDMDL
MODEL       72
REMARK 921   NORMALIZED FREE ENERGY PREDICTED BY IDOCK:   -4.27 KCAL/MOL
REMARK 922        TOTAL FREE ENERGY PREDICTED BY IDOCK:   -5.17 KCAL/MOL
REMARK 923 INTER-LIGAND FREE ENERGY PREDICTED BY IDOCK:   -5.81 KCAL/MOL
REMARK 924 INTRA-LIGAND FREE ENERGY PREDICTED BY IDOCK:    0.64 KCAL/MOL
REMARK 927      BINDING AFFINITY PREDICTED BY RF-SCORE:    0.00 PKD
ROOT
HETATM    1  C   UNL     1     -10.874  12.035  64.442  1.00  0.00    -0.329 C  
HETATM    2  C   UNL     1     -11.964  11.946  63.379  1.00  0.00    -0.528 C  
HETATM    3  C   UNL     1     -12.427  13.427  63.210  1.00  0.00    -0.137 C  
HETATM    4  C   UNL     1     -11.774  14.232  64.330  1.00  0.00    -0.389 C  
HETATM    5  N   UNL     1     -11.203  13.235  65.201  1.00  0.00    -0.297 N  
HETATM    6  C   UNL     1     -10.426  13.603  66.290  1.00  0.00    -0.291 C  
HETATM    7  O   UNL     1     -10.487  14.704  66.826  1.00  0.00    -0.271 OA 
HETATM    8  C   UNL     1      -9.712  12.391  66.840  1.00  0.00    -0.215 C  
HETATM    9  C   UNL     1      -9.170  12.508  68.259  1.00  0.00    -0.186 C  
HETATM   10  N   UNL     1      -8.957  11.648  65.611  1.00  0.00    -0.086 N  
HETATM   11  C   UNL     1      -7.958  13.400  68.404  1.00  0.00    -0.139 C  
HETATM   12  C   UNL     1     -10.230  12.722  69.357  1.00  0.00     0.570 C  
HETATM   13  C   UNL     1      -8.041  10.591  65.577  1.00  0.00    -0.155 C  
HETATM   14  O   UNL     1      -7.139  10.476  64.757  1.00  0.00    -0.077 OA 
HETATM   15  C   UNL     1      -8.499   9.580  66.610  1.00  0.00    -0.133 C  
HETATM   16  H   UNL     1      -9.228   9.278  64.399  1.00  0.00     0.000 HD 
HETATM   17  C   UNL     1      -7.324  10.162  67.663  1.00  0.00    -0.089 C  
HETATM   18  O   UNL     1      -9.997   9.993  66.293  1.00  0.00    -0.218 OA 
HETATM   19  O   UNL     1      -9.739   9.976  64.008  1.00  0.00    -0.273 OA 
HETATM   20  C   UNL     1     -10.001  10.844  65.109  1.00  0.00    -0.284 C  
HETATM   21  C   UNL     1      -5.829   9.898  67.305  1.00  0.00    -0.050 C  
HETATM   22  C   UNL     1      -7.403   9.893  69.157  1.00  0.00    -0.083 C  
ENDROOT
BRANCH  15  23
HETATM   23  N   UNL     1      -8.560   8.139  66.723  1.00  0.00    -0.128 N  
HETATM   24  H   UNL     1      -8.086   7.548  66.040  1.00  0.00     0.000 HD 
HETATM   25  O   UNL     1     -10.148   8.168  68.416  1.00  0.00    -0.188 OA 
HETATM   26  C   UNL     1      -9.276   7.565  67.780  1.00  0.00    -0.135 C  
BRANCH  26  27
HETATM   27  C   UNL     1      -8.816   6.150  68.180  1.00  0.00    -0.112 C  
HETATM   28  C   UNL     1      -7.285   6.049  68.000  1.00  0.00    -0.080 C  
HETATM   29  N   UNL     1      -6.479   6.224  69.235  1.00  0.00    -0.041 NA 
HETATM   30  C   UNL     1      -6.694   5.087  70.171  1.00  0.00    -0.037 C  
HETATM   31  C   UNL     1      -6.700   7.505  69.916  1.00  0.00    -0.046 C  
HETATM   32  C   UNL     1      -6.153   5.347  71.651  1.00  0.00    -0.029 C  
HETATM   33  C   UNL     1      -7.205   5.162  72.694  1.00  0.00    -0.092 A  
HETATM   34  C   UNL     1      -7.392   5.641  73.977  1.00  0.00    -0.089 A  
HETATM   35  N   UNL     1      -8.514   5.036  74.490  1.00  0.00    -0.109 NA 
HETATM   36  C   UNL     1      -9.057   4.166  73.569  1.00  0.00    -0.102 A  
HETATM   37  H   UNL     1      -8.892   5.206  75.422  1.00  0.00     0.000 HD 
HETATM   38  C   UNL     1     -10.168   3.317  73.568  1.00  0.00    -0.210 A  
HETATM   39  C   UNL     1     -10.440   2.627  72.371  1.00  0.00    -0.109 A  
HETATM   40  C   UNL     1      -9.722   2.873  71.198  1.00  0.00    -0.187 A  
HETATM   41  C   UNL     1      -8.691   3.808  71.210  1.00  0.00    -0.121 A  
HETATM   42  C   UNL     1      -8.303   4.337  72.427  1.00  0.00    -0.104 A  
HETATM   43  C   UNL     1      -8.163   4.498  69.994  1.00  0.00    -0.069 C  
HETATM   44  C   UNL     1      -9.163   5.641  69.598  1.00  0.00    -0.163 C  
ENDBRANCH  26  27
ENDBRANCH  15  23
TORSDOF 2
ENDMDL
MODEL       73
REMARK 921   NORMALIZED FREE ENERGY PREDICTED BY IDOCK:   -4.19 KCAL/MOL
REMARK 922        TOTAL FREE ENERGY PREDICTED BY IDOCK:   -5.08 KCAL/MOL
REMARK 923 INTER-LIGAND FREE ENERGY PREDICTED BY IDOCK:   -5.25 KCAL/MOL
REMARK 924 INTRA-LIGAND FREE ENERGY PREDICTED BY IDOCK:    0.17 KCAL/MOL
REMARK 927      BINDING AFFINITY PREDICTED BY RF-SCORE:    0.00 PKD
ROOT
HETATM    1  C   UNL     1      -9.974   7.092  67.011  1.00  0.00    -0.210 C  
HETATM    2  C   UNL     1     -11.257   6.314  66.736  1.00  0.00    -0.098 C  
HETATM    3  C   UNL     1     -10.757   4.848  66.544  1.00  0.00    -0.120 C  
HETATM    4  C   UNL     1      -9.234   4.899  66.473  1.00  0.00    -0.135 C  
HETATM    5  N   UNL     1      -8.927   6.304  66.374  1.00  0.00    -0.148 N  
HETATM    6  C   UNL     1      -7.612   6.748  66.396  1.00  0.00    -0.089 C  
HETATM    7  O   UNL     1      -6.654   6.045  66.100  1.00  0.00    -0.045 OA 
HETATM    8  C   UNL     1      -7.584   8.246  66.587  1.00  0.00    -0.090 C  
HETATM    9  C   UNL     1      -6.288   8.953  66.211  1.00  0.00    -0.065 C  
HETATM   10  N   UNL     1      -8.508   8.610  67.869  1.00  0.00    -0.129 N  
HETATM   11  C   UNL     1      -5.138   8.720  67.165  1.00  0.00    -0.033 C  
HETATM   12  C   UNL     1      -5.889   8.860  64.726  1.00  0.00    -0.063 C  
HETATM   13  C   UNL     1      -8.707   9.805  68.572  1.00  0.00    -0.120 C  
HETATM   14  O   UNL     1      -8.929   9.877  69.773  1.00  0.00    -0.207 OA 
HETATM   15  C   UNL     1      -8.763  10.916  67.542  1.00  0.00    -0.130 C  
HETATM   16  H   UNL     1     -10.796   9.955  68.213  1.00  0.00     0.000 HD 
HETATM   17  C   UNL     1      -7.174  11.312  67.920  1.00  0.00    -0.086 C  
HETATM   18  O   UNL     1      -9.433   9.893  66.532  1.00  0.00    -0.165 OA 
HETATM   19  O   UNL     1     -10.910   9.023  68.065  1.00  0.00    -0.163 OA 
HETATM   20  C   UNL     1      -9.780   8.681  67.264  1.00  0.00    -0.185 C  
HETATM   21  C   UNL     1      -6.889  11.922  69.327  1.00  0.00    -0.080 C  
HETATM   22  C   UNL     1      -6.323  12.145  66.975  1.00  0.00    -0.096 C  
ENDROOT
BRANCH  15  23
HETATM   23  N   UNL     1      -9.517  12.133  67.343  1.00  0.00    -0.176 N  
HETATM   24  H   UNL     1      -9.889  12.646  68.142  1.00  0.00     0.000 HD 
HETATM   25  O   UNL     1      -9.640  11.883  65.037  1.00  0.00    -0.200 OA 
HETATM   26  C   UNL     1      -9.732  12.601  66.040  1.00  0.00    -0.229 C  
BRANCH  26  27
HETATM   27  C   UNL     1      -9.979  14.117  65.929  1.00  0.00    -0.331 C  
HETATM   28  C   UNL     1     -11.139  14.508  66.872  1.00  0.00    -0.325 C  
HETATM   29  N   UNL     1     -10.739  15.075  68.185  1.00  0.00    -0.250 NA 
HETATM   30  C   UNL     1     -10.101  16.409  68.010  1.00  0.00    -0.248 C  
HETATM   31  C   UNL     1      -9.881  14.190  68.981  1.00  0.00    -0.025 C  
HETATM   32  C   UNL     1      -9.331  16.940  69.305  1.00  0.00    -0.031 C  
HETATM   33  C   UNL     1      -7.904  17.282  69.032  1.00  0.00    -0.144 A  
HETATM   34  C   UNL     1      -6.762  17.359  69.806  1.00  0.00     0.104 A  
HETATM   35  N   UNL     1      -5.746  17.826  69.007  1.00  0.00    -0.182 NA 
HETATM   36  C   UNL     1      -6.206  18.061  67.730  1.00  0.00    -0.174 A  
HETATM   37  H   UNL     1      -4.786  17.976  69.316  1.00  0.00     0.000 HD 
HETATM   38  C   UNL     1      -5.614  18.526  66.551  1.00  0.00    -0.173 A  
HETATM   39  C   UNL     1      -6.425  18.556  65.401  1.00  0.00    -0.282 A  
HETATM   40  C   UNL     1      -7.717  18.025  65.395  1.00  0.00     0.828 A  
HETATM   41  C   UNL     1      -8.234  17.469  66.563  1.00  0.00    -0.311 A  
HETATM   42  C   UNL     1      -7.511  17.617  67.732  1.00  0.00    -0.205 A  
HETATM   43  C   UNL     1      -9.358  16.485  66.604  1.00  0.00    -0.279 C  
HETATM   44  C   UNL     1      -8.797  15.073  66.208  1.00  0.00    -0.159 C  
ENDBRANCH  26  27
ENDBRANCH  15  23
TORSDOF 2
ENDMDL
MODEL       74
REMARK 921   NORMALIZED FREE ENERGY PREDICTED BY IDOCK:   -4.19 KCAL/MOL
REMARK 922        TOTAL FREE ENERGY PREDICTED BY IDOCK:   -5.08 KCAL/MOL
REMARK 923 INTER-LIGAND FREE ENERGY PREDICTED BY IDOCK:   -4.71 KCAL/MOL
REMARK 924 INTRA-LIGAND FREE ENERGY PREDICTED BY IDOCK:   -0.37 KCAL/MOL
REMARK 927      BINDING AFFINITY PREDICTED BY RF-SCORE:    0.00 PKD
ROOT
HETATM    1  C   UNL     1     -12.040  13.289  69.209  1.00  0.00    -0.242 C  
HETATM    2  C   UNL     1     -12.314  12.926  70.665  1.00  0.00    -0.385 C  
HETATM    3  C   UNL     1     -12.750  14.283  71.301  1.00  0.00    -0.427 C  
HETATM    4  C   UNL     1     -12.471  15.372  70.268  1.00  0.00    -0.374 C  
HETATM    5  N   UNL     1     -11.706  14.706  69.244  1.00  0.00    -0.295 N  
HETATM    6  C   UNL     1     -11.357  15.367  68.074  1.00  0.00    -0.341 C  
HETATM    7  O   UNL     1     -11.295  16.587  67.978  1.00  0.00    -0.269 OA 
HETATM    8  C   UNL     1     -10.839  14.372  67.063  1.00  0.00    -0.297 C  
HETATM    9  C   UNL     1     -10.023  14.942  65.909  1.00  0.00    -0.357 C  
HETATM   10  N   UNL     1     -11.920  13.169  66.937  1.00  0.00    -0.380 N  
HETATM   11  C   UNL     1     -10.825  15.707  64.880  1.00  0.00    -0.438 C  
HETATM   12  C   UNL     1      -8.706  15.635  66.308  1.00  0.00    -0.325 C  
HETATM   13  C   UNL     1     -12.020  12.089  66.053  1.00  0.00    -0.030 C  
HETATM   14  O   UNL     1     -13.074  11.603  65.664  1.00  0.00     2.258 OA 
HETATM   15  C   UNL     1     -10.613  11.566  65.837  1.00  0.00    -0.268 C  
HETATM   16  H   UNL     1     -11.899  10.559  67.523  1.00  0.00     0.000 HD 
HETATM   17  C   UNL     1     -10.566  12.374  64.364  1.00  0.00    -0.366 C  
HETATM   18  O   UNL     1     -10.274  11.977  67.331  1.00  0.00    -0.199 OA 
HETATM   19  O   UNL     1     -12.207  11.114  68.229  1.00  0.00    -0.613 OA 
HETATM   20  C   UNL     1     -11.515  12.341  68.004  1.00  0.00    -0.321 C  
HETATM   21  C   UNL     1     -11.492  11.860  63.219  1.00  0.00    -0.376 C  
HETATM   22  C   UNL     1      -9.246  12.671  63.671  1.00  0.00     1.528 C  
ENDROOT
BRANCH  15  23
HETATM   23  N   UNL     1      -9.978  10.275  65.687  1.00  0.00    -0.269 N  
HETATM   24  H   UNL     1     -10.528   9.459  65.418  1.00  0.00     0.000 HD 
HETATM   25  O   UNL     1      -7.950  10.980  66.570  1.00  0.00    -0.149 OA 
HETATM   26  C   UNL     1      -8.601  10.159  65.913  1.00  0.00    -0.147 C  
BRANCH  26  27
HETATM   27  C   UNL     1      -7.922   8.986  65.181  1.00  0.00    -0.119 C  
HETATM   28  C   UNL     1      -6.497   8.797  65.746  1.00  0.00    -0.057 C  
HETATM   29  N   UNL     1      -6.344   7.726  66.763  1.00  0.00    -0.052 NA 
HETATM   30  C   UNL     1      -6.547   6.385  66.150  1.00  0.00    -0.048 C  
HETATM   31  C   UNL     1      -7.203   7.893  67.941  1.00  0.00    -0.091 C  
HETATM   32  C   UNL     1      -6.747   5.205  67.208  1.00  0.00    -0.055 C  
HETATM   33  C   UNL     1      -8.011   4.442  66.993  1.00  0.00    -0.101 A  
HETATM   34  C   UNL     1      -8.829   3.676  67.802  1.00  0.00    -0.118 A  
HETATM   35  N   UNL     1      -9.814   3.136  67.010  1.00  0.00    -0.301 NA 
HETATM   36  C   UNL     1      -9.648   3.528  65.699  1.00  0.00    -0.115 A  
HETATM   37  H   UNL     1     -10.563   2.530  67.345  1.00  0.00     0.000 HD 
HETATM   38  C   UNL     1     -10.344   3.279  64.512  1.00  0.00     0.009 A  
HETATM   39  C   UNL     1      -9.890   3.945  63.358  1.00  0.00    -0.155 A  
HETATM   40  C   UNL     1      -8.882   4.910  63.411  1.00  0.00    -0.076 A  
HETATM   41  C   UNL     1      -8.286   5.212  64.633  1.00  0.00    -0.140 A  
HETATM   42  C   UNL     1      -8.598   4.421  65.723  1.00  0.00    -0.115 A  
HETATM   43  C   UNL     1      -7.563   6.485  64.928  1.00  0.00    -0.097 C  
HETATM   44  C   UNL     1      -8.626   7.610  65.194  1.00  0.00     0.000 C  
ENDBRANCH  26  27
ENDBRANCH  15  23
TORSDOF 2
ENDMDL
MODEL       75
REMARK 921   NORMALIZED FREE ENERGY PREDICTED BY IDOCK:   -4.18 KCAL/MOL
REMARK 922        TOTAL FREE ENERGY PREDICTED BY IDOCK:   -5.08 KCAL/MOL
REMARK 923 INTER-LIGAND FREE ENERGY PREDICTED BY IDOCK:   -5.84 KCAL/MOL
REMARK 924 INTRA-LIGAND FREE ENERGY PREDICTED BY IDOCK:    0.76 KCAL/MOL
REMARK 927      BINDING AFFINITY PREDICTED BY RF-SCORE:    0.00 PKD
ROOT
HETATM    1  C   UNL     1     -11.232  12.074  65.191  1.00  0.00    -0.315 C  
HETATM    2  C   UNL     1     -12.258  13.043  64.614  1.00  0.00    -0.477 C  
HETATM    3  C   UNL     1     -12.770  12.310  63.334  1.00  0.00    -0.461 C  
HETATM    4  C   UNL     1     -11.857  11.107  63.112  1.00  0.00     0.853 C  
HETATM    5  N   UNL     1     -10.774  11.303  64.043  1.00  0.00    -0.372 N  
HETATM    6  C   UNL     1      -9.789  10.337  64.202  1.00  0.00    -0.250 C  
HETATM    7  O   UNL     1      -9.522   9.496  63.353  1.00  0.00    -0.017 OA 
HETATM    8  C   UNL     1      -8.967  10.646  65.431  1.00  0.00    -0.189 C  
HETATM    9  C   UNL     1      -7.607   9.967  65.525  1.00  0.00    -0.125 C  
HETATM   10  N   UNL     1      -9.983  10.877  66.674  1.00  0.00    -0.201 N  
HETATM   11  C   UNL     1      -7.656   8.485  65.820  1.00  0.00    -0.085 C  
HETATM   12  C   UNL     1      -6.600  10.344  64.421  1.00  0.00    -0.014 C  
HETATM   13  C   UNL     1      -9.762  11.033  68.048  1.00  0.00    -0.172 C  
HETATM   14  O   UNL     1     -10.523  10.645  68.924  1.00  0.00    -0.187 OA 
HETATM   15  C   UNL     1      -8.529  11.903  68.198  1.00  0.00    -0.163 C  
HETATM   16  H   UNL     1     -10.620  12.971  68.214  1.00  0.00     0.000 HD 
HETATM   17  C   UNL     1      -7.625  10.523  68.519  1.00  0.00    -0.097 C  
HETATM   18  O   UNL     1      -8.951  12.661  66.870  1.00  0.00    -0.209 OA 
HETATM   19  O   UNL     1     -11.168  12.873  67.444  1.00  0.00    -0.265 OA 
HETATM   20  C   UNL     1     -10.298  12.242  66.505  1.00  0.00    -0.227 C  
HETATM   21  C   UNL     1      -7.895   9.769  69.857  1.00  0.00    -0.168 C  
HETATM   22  C   UNL     1      -6.111  10.527  68.392  1.00  0.00    -0.047 C  
ENDROOT
BRANCH  15  23
HETATM   23  N   UNL     1      -8.089  12.969  69.072  1.00  0.00    -0.315 N  
HETATM   24  H   UNL     1      -7.135  12.978  69.432  1.00  0.00     0.000 HD 
HETATM   25  O   UNL     1     -10.215  13.867  69.329  1.00  0.00    -0.043 OA 
HETATM   26  C   UNL     1      -8.987  13.986  69.417  1.00  0.00     0.622 C  
BRANCH  26  27
HETATM   27  C   UNL     1      -8.330  15.324  69.808  1.00  0.00     0.006 C  
HETATM   28  C   UNL     1      -6.837  15.078  70.123  1.00  0.00    -0.062 C  
HETATM   29  N   UNL     1      -5.887  15.392  69.025  1.00  0.00    -0.098 NA 
HETATM   30  C   UNL     1      -5.847  16.857  68.766  1.00  0.00    -0.143 C  
HETATM   31  C   UNL     1      -6.143  14.652  67.784  1.00  0.00    -0.119 C  
HETATM   32  C   UNL     1      -5.133  17.260  67.395  1.00  0.00    -0.140 C  
HETATM   33  C   UNL     1      -6.002  18.091  66.511  1.00  0.00    -0.206 A  
HETATM   34  C   UNL     1      -6.054  18.327  65.150  1.00  0.00    -0.118 A  
HETATM   35  N   UNL     1      -7.023  19.276  64.927  1.00  0.00    -0.318 NA 
HETATM   36  C   UNL     1      -7.597  19.668  66.116  1.00  0.00    -0.316 A  
HETATM   37  H   UNL     1      -7.281  19.638  64.009  1.00  0.00     0.000 HD 
HETATM   38  C   UNL     1      -8.602  20.577  66.460  1.00  0.00    -0.094 A  
HETATM   39  C   UNL     1      -8.967  20.639  67.818  1.00  0.00    -0.170 A  
HETATM   40  C   UNL     1      -8.452  19.747  68.762  1.00  0.00    -0.190 A  
HETATM   41  C   UNL     1      -7.533  18.781  68.360  1.00  0.00    -0.325 A  
HETATM   42  C   UNL     1      -7.034  18.850  67.073  1.00  0.00    -0.211 A  
HETATM   43  C   UNL     1      -7.257  17.516  69.106  1.00  0.00    -0.161 C  
HETATM   44  C   UNL     1      -8.418  16.501  68.810  1.00  0.00    -0.248 C  
ENDBRANCH  26  27
ENDBRANCH  15  23
TORSDOF 2
ENDMDL
MODEL       76
REMARK 921   NORMALIZED FREE ENERGY PREDICTED BY IDOCK:   -4.18 KCAL/MOL
REMARK 922        TOTAL FREE ENERGY PREDICTED BY IDOCK:   -5.07 KCAL/MOL
REMARK 923 INTER-LIGAND FREE ENERGY PREDICTED BY IDOCK:   -5.67 KCAL/MOL
REMARK 924 INTRA-LIGAND FREE ENERGY PREDICTED BY IDOCK:    0.59 KCAL/MOL
REMARK 927      BINDING AFFINITY PREDICTED BY RF-SCORE:    0.00 PKD
ROOT
HETATM    1  C   UNL     1      -9.621   6.460  72.565  1.00  0.00    -0.152 C  
HETATM    2  C   UNL     1     -10.434   6.162  73.821  1.00  0.00    -0.295 C  
HETATM    3  C   UNL     1     -10.066   4.682  74.149  1.00  0.00    -0.236 C  
HETATM    4  C   UNL     1      -9.279   4.141  72.958  1.00  0.00    -0.110 C  
HETATM    5  N   UNL     1      -9.421   5.157  71.945  1.00  0.00    -0.145 N  
HETATM    6  C   UNL     1      -8.740   5.058  70.739  1.00  0.00    -0.127 C  
HETATM    7  O   UNL     1      -8.327   4.001  70.278  1.00  0.00    -0.060 OA 
HETATM    8  C   UNL     1      -8.819   6.374  70.001  1.00  0.00    -0.143 C  
HETATM    9  C   UNL     1      -8.515   6.333  68.509  1.00  0.00    -0.115 C  
HETATM   10  N   UNL     1      -8.356   7.552  71.016  1.00  0.00    -0.112 N  
HETATM   11  C   UNL     1      -7.058   6.123  68.163  1.00  0.00    -0.082 C  
HETATM   12  C   UNL     1      -9.481   5.486  67.659  1.00  0.00    -0.125 C  
HETATM   13  C   UNL     1      -8.096   8.912  70.816  1.00  0.00    -0.156 C  
HETATM   14  O   UNL     1      -7.257   9.559  71.430  1.00  0.00    -0.330 OA 
HETATM   15  C   UNL     1      -9.148   9.423  69.851  1.00  0.00    -0.204 C  
HETATM   16  H   UNL     1      -9.583   9.644  72.147  1.00  0.00     0.000 HD 
HETATM   17  C   UNL     1      -8.016   9.335  68.611  1.00  0.00    -0.100 C  
HETATM   18  O   UNL     1     -10.173   8.390  70.483  1.00  0.00    -0.191 OA 
HETATM   19  O   UNL     1      -9.612   8.849  72.665  1.00  0.00    -0.208 OA 
HETATM   20  C   UNL     1      -9.572   7.817  71.681  1.00  0.00    -0.155 C  
HETATM   21  C   UNL     1      -6.816  10.331  68.646  1.00  0.00    -0.057 C  
HETATM   22  C   UNL     1      -8.446   9.321  67.153  1.00  0.00    -0.124 C  
ENDROOT
BRANCH  15  23
HETATM   23  N   UNL     1      -9.935  10.625  69.686  1.00  0.00    -0.435 N  
HETATM   24  H   UNL     1      -9.512  11.468  69.298  1.00  0.00     0.000 HD 
HETATM   25  O   UNL     1     -11.763   9.792  70.850  1.00  0.00    -0.296 OA 
HETATM   26  C   UNL     1     -11.283  10.619  70.065  1.00  0.00    -0.309 C  
BRANCH  26  27
HETATM   27  C   UNL     1     -12.164  11.651  69.338  1.00  0.00    -0.246 C  
HETATM   28  C   UNL     1     -12.982  12.442  70.384  1.00  0.00     0.431 C  
HETATM   29  N   UNL     1     -12.434  13.770  70.760  1.00  0.00    -0.360 NA 
HETATM   30  C   UNL     1     -12.517  14.717  69.615  1.00  0.00    -0.158 C  
HETATM   31  C   UNL     1     -11.070  13.722  71.297  1.00  0.00     2.161 C  
HETATM   32  C   UNL     1     -11.649  16.045  69.801  1.00  0.00    -0.297 C  
HETATM   33  C   UNL     1     -10.686  16.270  68.684  1.00  0.00    -0.309 A  
HETATM   34  C   UNL     1      -9.493  16.957  68.559  1.00  0.00    -0.266 A  
HETATM   35  N   UNL     1      -9.106  16.886  67.242  1.00  0.00    -0.216 NA 
HETATM   36  C   UNL     1     -10.028  16.174  66.506  1.00  0.00    -0.280 A  
HETATM   37  H   UNL     1      -8.256  17.303  66.862  1.00  0.00     0.000 HD 
HETATM   38  C   UNL     1     -10.128  15.808  65.160  1.00  0.00    -0.157 A  
HETATM   39  C   UNL     1     -11.216  14.989  64.802  1.00  0.00    -0.393 A  
HETATM   40  C   UNL     1     -12.082  14.454  65.758  1.00  0.00    -0.362 A  
HETATM   41  C   UNL     1     -11.885  14.752  67.104  1.00  0.00    -0.307 A  
HETATM   42  C   UNL     1     -10.940  15.707  67.429  1.00  0.00    -0.293 A  
HETATM   43  C   UNL     1     -12.404  13.927  68.237  1.00  0.00     0.003 C  
HETATM   44  C   UNL     1     -11.475  12.672  68.403  1.00  0.00    -0.350 C  
ENDBRANCH  26  27
ENDBRANCH  15  23
TORSDOF 2
ENDMDL
MODEL       77
REMARK 921   NORMALIZED FREE ENERGY PREDICTED BY IDOCK:   -4.17 KCAL/MOL
REMARK 922        TOTAL FREE ENERGY PREDICTED BY IDOCK:   -5.06 KCAL/MOL
REMARK 923 INTER-LIGAND FREE ENERGY PREDICTED BY IDOCK:   -5.35 KCAL/MOL
REMARK 924 INTRA-LIGAND FREE ENERGY PREDICTED BY IDOCK:    0.28 KCAL/MOL
REMARK 927      BINDING AFFINITY PREDICTED BY RF-SCORE:    0.00 PKD
ROOT
HETATM    1  C   UNL     1      -9.681  18.618  66.620  1.00  0.00    -0.341 C  
HETATM    2  C   UNL     1     -11.034  18.977  66.014  1.00  0.00    -0.084 C  
HETATM    3  C   UNL     1     -10.850  20.462  65.570  1.00  0.00     0.184 C  
HETATM    4  C   UNL     1      -9.524  20.943  66.152  1.00  0.00     0.723 C  
HETATM    5  N   UNL     1      -9.129  19.894  67.058  1.00  0.00    -0.331 N  
HETATM    6  C   UNL     1      -7.900  19.934  67.702  1.00  0.00    -0.290 C  
HETATM    7  O   UNL     1      -7.265  20.966  67.886  1.00  0.00    -0.234 OA 
HETATM    8  C   UNL     1      -7.613  18.594  68.336  1.00  0.00    -0.297 C  
HETATM    9  C   UNL     1      -6.546  18.573  69.424  1.00  0.00    -0.231 C  
HETATM   10  N   UNL     1      -7.818  17.446  67.208  1.00  0.00    -0.194 N  
HETATM   11  C   UNL     1      -5.128  18.743  68.926  1.00  0.00    -0.192 C  
HETATM   12  C   UNL     1      -6.864  19.407  70.680  1.00  0.00     0.551 C  
HETATM   13  C   UNL     1      -7.540  16.074  67.206  1.00  0.00    -0.194 C  
HETATM   14  O   UNL     1      -7.193  15.435  66.222  1.00  0.00     0.583 OA 
HETATM   15  C   UNL     1      -7.917  15.548  68.577  1.00  0.00    -0.137 C  
HETATM   16  H   UNL     1      -9.536  15.421  66.883  1.00  0.00     0.000 HD 
HETATM   17  C   UNL     1      -6.291  15.568  69.004  1.00  0.00    -0.113 C  
HETATM   18  O   UNL     1      -9.083  16.623  68.626  1.00  0.00    -0.228 OA 
HETATM   19  O   UNL     1      -9.814  16.235  66.480  1.00  0.00    -0.243 OA 
HETATM   20  C   UNL     1      -9.209  17.228  67.306  1.00  0.00    -0.232 C  
HETATM   21  C   UNL     1      -5.340  14.552  68.301  1.00  0.00    -0.114 C  
HETATM   22  C   UNL     1      -5.859  15.537  70.461  1.00  0.00    -0.056 C  
ENDROOT
BRANCH  15  23
HETATM   23  N   UNL     1      -8.531  14.356  69.118  1.00  0.00    -0.358 N  
HETATM   24  H   UNL     1      -8.739  14.289  70.115  1.00  0.00     0.000 HD 
HETATM   25  O   UNL     1      -8.312  13.144  67.150  1.00  0.00    -0.181 OA 
HETATM   26  C   UNL     1      -8.838  13.293  68.259  1.00  0.00    -0.168 C  
BRANCH  26  27
HETATM   27  C   UNL     1      -9.977  12.377  68.744  1.00  0.00    -0.040 C  
HETATM   28  C   UNL     1     -10.916  12.068  67.556  1.00  0.00    -0.253 C  
HETATM   29  N   UNL     1     -10.694  10.764  66.882  1.00  0.00    -0.262 NA 
HETATM   30  C   UNL     1     -11.057   9.637  67.783  1.00  0.00    -0.023 C  
HETATM   31  C   UNL     1      -9.337  10.589  66.352  1.00  0.00    -0.168 C  
HETATM   32  C   UNL     1     -10.534   8.210  67.289  1.00  0.00    -0.379 C  
HETATM   33  C   UNL     1      -9.705   7.510  68.314  1.00  0.00    -0.163 A  
HETATM   34  C   UNL     1      -8.724   6.538  68.265  1.00  0.00    -0.117 A  
HETATM   35  N   UNL     1      -8.391   6.215  69.559  1.00  0.00    -0.119 NA 
HETATM   36  C   UNL     1      -9.142   6.952  70.449  1.00  0.00    -0.156 A  
HETATM   37  H   UNL     1      -7.686   5.527  69.823  1.00  0.00     0.000 HD 
HETATM   38  C   UNL     1      -9.209   7.021  71.844  1.00  0.00    -0.147 A  
HETATM   39  C   UNL     1     -10.077   7.984  72.392  1.00  0.00    -0.332 A  
HETATM   40  C   UNL     1     -10.742   8.917  71.593  1.00  0.00    -0.418 A  
HETATM   41  C   UNL     1     -10.565   8.887  70.212  1.00  0.00    -0.246 A  
HETATM   42  C   UNL     1      -9.869   7.824  69.667  1.00  0.00    -0.182 A  
HETATM   43  C   UNL     1     -10.815  10.046  69.303  1.00  0.00    -0.261 C  
HETATM   44  C   UNL     1      -9.601  11.035  69.414  1.00  0.00     0.094 C  
ENDBRANCH  26  27
ENDBRANCH  15  23
TORSDOF 2
ENDMDL
MODEL       78
REMARK 921   NORMALIZED FREE ENERGY PREDICTED BY IDOCK:   -4.11 KCAL/MOL
REMARK 922        TOTAL FREE ENERGY PREDICTED BY IDOCK:   -5.00 KCAL/MOL
REMARK 923 INTER-LIGAND FREE ENERGY PREDICTED BY IDOCK:   -5.75 KCAL/MOL
REMARK 924 INTRA-LIGAND FREE ENERGY PREDICTED BY IDOCK:    0.75 KCAL/MOL
REMARK 927      BINDING AFFINITY PREDICTED BY RF-SCORE:    0.00 PKD
ROOT
HETATM    1  C   UNL     1     -10.007  14.369  67.791  1.00  0.00    -0.226 C  
HETATM    2  C   UNL     1     -11.202  15.251  68.137  1.00  0.00    -0.328 C  
HETATM    3  C   UNL     1     -10.575  16.675  68.268  1.00  0.00    -0.338 C  
HETATM    4  C   UNL     1      -9.059  16.501  68.239  1.00  0.00    -0.214 C  
HETATM    5  N   UNL     1      -8.859  15.078  68.342  1.00  0.00    -0.171 N  
HETATM    6  C   UNL     1      -7.589  14.529  68.241  1.00  0.00    -0.121 C  
HETATM    7  O   UNL     1      -6.559  15.156  68.460  1.00  0.00    -0.093 OA 
HETATM    8  C   UNL     1      -7.693  13.031  68.076  1.00  0.00    -0.145 C  
HETATM    9  C   UNL     1      -6.435  12.226  68.377  1.00  0.00    -0.057 C  
HETATM   10  N   UNL     1      -8.729  12.726  66.865  1.00  0.00    -0.197 N  
HETATM   11  C   UNL     1      -5.338  12.354  67.344  1.00  0.00    -0.107 C  
HETATM   12  C   UNL     1      -5.929  12.305  69.830  1.00  0.00    -0.148 C  
HETATM   13  C   UNL     1      -9.069  11.543  66.198  1.00  0.00    -0.209 C  
HETATM   14  O   UNL     1      -9.378  11.473  65.016  1.00  0.00    -0.191 OA 
HETATM   15  C   UNL     1      -9.143  10.453  67.250  1.00  0.00    -0.135 C  
HETATM   16  H   UNL     1     -11.135  11.567  66.699  1.00  0.00     0.000 HD 
HETATM   17  C   UNL     1      -7.620   9.925  66.774  1.00  0.00    -0.095 C  
HETATM   18  O   UNL     1      -9.659  11.540  68.284  1.00  0.00    -0.177 OA 
HETATM   19  O   UNL     1     -11.164  12.506  66.837  1.00  0.00    -0.271 OA 
HETATM   20  C   UNL     1      -9.958  12.766  67.555  1.00  0.00    -0.210 C  
HETATM   21  C   UNL     1      -7.482   9.276  65.362  1.00  0.00    -0.098 C  
HETATM   22  C   UNL     1      -6.777   9.038  67.675  1.00  0.00    -0.065 C  
ENDROOT
BRANCH  15  23
HETATM   23  N   UNL     1      -9.977   9.303  67.521  1.00  0.00    -0.189 N  
HETATM   24  H   UNL     1     -10.699   9.022  66.858  1.00  0.00     0.000 HD 
HETATM   25  O   UNL     1      -9.206   9.043  69.696  1.00  0.00    -0.149 OA 
HETATM   26  C   UNL     1      -9.783   8.580  68.705  1.00  0.00    -0.164 C  
BRANCH  26  27
HETATM   27  C   UNL     1     -10.238   7.109  68.647  1.00  0.00    -0.186 C  
HETATM   28  C   UNL     1     -11.065   6.889  67.360  1.00  0.00    -0.252 C  
HETATM   29  N   UNL     1     -10.330   6.288  66.218  1.00  0.00     0.024 NA 
HETATM   30  C   UNL     1      -9.954   4.879  66.516  1.00  0.00    -0.232 C  
HETATM   31  C   UNL     1      -9.156   7.058  65.791  1.00  0.00     0.058 C  
HETATM   32  C   UNL     1      -8.875   4.263  65.512  1.00  0.00    -0.124 C  
HETATM   33  C   UNL     1      -7.670   3.730  66.212  1.00  0.00    -0.089 A  
HETATM   34  C   UNL     1      -6.356   3.508  65.845  1.00  0.00    -0.032 A  
HETATM   35  N   UNL     1      -5.723   2.899  66.903  1.00  0.00    -0.021 NA 
HETATM   36  C   UNL     1      -6.602   2.714  67.948  1.00  0.00    -0.036 A  
HETATM   37  H   UNL     1      -4.741   2.625  66.913  1.00  0.00     0.000 HD 
HETATM   38  C   UNL     1      -6.491   2.160  69.227  1.00  0.00    -0.029 A  
HETATM   39  C   UNL     1      -7.631   2.227  70.050  1.00  0.00    -0.043 A  
HETATM   40  C   UNL     1      -8.777   2.927  69.668  1.00  0.00    -0.131 A  
HETATM   41  C   UNL     1      -8.810   3.561  68.428  1.00  0.00    -0.158 A  
HETATM   42  C   UNL     1      -7.769   3.329  67.549  1.00  0.00    -0.076 A  
HETATM   43  C   UNL     1      -9.728   4.687  68.080  1.00  0.00    -0.197 C  
HETATM   44  C   UNL     1      -9.158   6.006  68.713  1.00  0.00    -0.124 C  
ENDBRANCH  26  27
ENDBRANCH  15  23
TORSDOF 2
ENDMDL
MODEL       79
REMARK 921   NORMALIZED FREE ENERGY PREDICTED BY IDOCK:   -3.96 KCAL/MOL
REMARK 922        TOTAL FREE ENERGY PREDICTED BY IDOCK:   -4.83 KCAL/MOL
REMARK 923 INTER-LIGAND FREE ENERGY PREDICTED BY IDOCK:   -5.54 KCAL/MOL
REMARK 924 INTRA-LIGAND FREE ENERGY PREDICTED BY IDOCK:    0.71 KCAL/MOL
REMARK 927      BINDING AFFINITY PREDICTED BY RF-SCORE:    0.00 PKD
ROOT
HETATM    1  C   UNL     1     -10.833  12.540  64.584  1.00  0.00    -0.310 C  
HETATM    2  C   UNL     1     -12.198  12.889  64.000  1.00  0.00    -0.500 C  
HETATM    3  C   UNL     1     -12.321  14.423  64.257  1.00  0.00    -0.402 C  
HETATM    4  C   UNL     1     -11.165  14.818  65.173  1.00  0.00    -0.382 C  
HETATM    5  N   UNL     1     -10.598  13.562  65.596  1.00  0.00    -0.278 N  
HETATM    6  C   UNL     1      -9.444  13.526  66.365  1.00  0.00    -0.224 C  
HETATM    7  O   UNL     1      -9.062  14.462  67.058  1.00  0.00    -0.214 OA 
HETATM    8  C   UNL     1      -8.903  12.116  66.406  1.00  0.00    -0.100 C  
HETATM    9  C   UNL     1      -7.917  11.801  67.524  1.00  0.00    -0.148 C  
HETATM   10  N   UNL     1      -8.792  11.573  64.882  1.00  0.00     0.178 N  
HETATM   11  C   UNL     1      -6.547  12.418  67.355  1.00  0.00    -0.157 C  
HETATM   12  C   UNL     1      -8.476  11.920  68.955  1.00  0.00     0.133 C  
HETATM   13  C   UNL     1      -8.219  10.416  64.340  1.00  0.00    -0.125 C  
HETATM   14  O   UNL     1      -7.689  10.352  63.238  1.00  0.00    -0.149 OA 
HETATM   15  C   UNL     1      -8.543   9.279  65.289  1.00  0.00    -0.166 C  
HETATM   16  H   UNL     1     -10.003   9.638  63.486  1.00  0.00     0.000 HD 
HETATM   17  C   UNL     1      -6.986   9.390  65.913  1.00  0.00    -0.090 C  
HETATM   18  O   UNL     1      -9.917   9.999  65.620  1.00  0.00    -0.272 OA 
HETATM   19  O   UNL     1     -10.431  10.484  63.431  1.00  0.00    -0.028 OA 
HETATM   20  C   UNL     1     -10.103  11.096  64.678  1.00  0.00    -0.302 C  
HETATM   21  C   UNL     1      -5.799   8.975  64.991  1.00  0.00    -0.059 C  
HETATM   22  C   UNL     1      -6.635   8.791  67.265  1.00  0.00    -0.058 C  
ENDROOT
BRANCH  15  23
HETATM   23  N   UNL     1      -8.908   7.884  65.179  1.00  0.00    -0.386 N  
HETATM   24  H   UNL     1      -8.907   7.421  64.271  1.00  0.00     0.000 HD 
HETATM   25  O   UNL     1      -9.630   7.723  67.380  1.00  0.00    -0.140 OA 
HETATM   26  C   UNL     1      -9.262   7.176  66.335  1.00  0.00    -0.157 C  
BRANCH  26  27
HETATM   27  C   UNL     1      -9.046   5.653  66.251  1.00  0.00    -0.153 C  
HETATM   28  C   UNL     1      -7.805   5.367  65.376  1.00  0.00    -0.095 C  
HETATM   29  N   UNL     1      -6.544   5.102  66.113  1.00  0.00    -0.051 NA 
HETATM   30  C   UNL     1      -6.626   3.813  66.852  1.00  0.00    -0.045 C  
HETATM   31  C   UNL     1      -6.136   6.189  67.010  1.00  0.00    -0.022 C  
HETATM   32  C   UNL     1      -5.475   3.607  67.939  1.00  0.00    -0.017 C  
HETATM   33  C   UNL     1      -6.009   3.329  69.305  1.00  0.00    -0.024 A  
HETATM   34  C   UNL     1      -5.521   3.493  70.587  1.00  0.00    -0.012 A  
HETATM   35  N   UNL     1      -6.440   2.957  71.457  1.00  0.00    -0.018 NA 
HETATM   36  C   UNL     1      -7.514   2.440  70.765  1.00  0.00    -0.033 A  
HETATM   37  H   UNL     1      -6.342   2.944  72.472  1.00  0.00     0.000 HD 
HETATM   38  C   UNL     1      -8.699   1.799  71.141  1.00  0.00    -0.099 A  
HETATM   39  C   UNL     1      -9.605   1.481  70.111  1.00  0.00    -0.103 A  
HETATM   40  C   UNL     1      -9.402   1.901  68.795  1.00  0.00    -0.221 A  
HETATM   41  C   UNL     1      -8.261   2.635  68.478  1.00  0.00    -0.076 A  
HETATM   42  C   UNL     1      -7.286   2.775  69.447  1.00  0.00    -0.044 A  
HETATM   43  C   UNL     1      -8.132   3.519  67.280  1.00  0.00    -0.082 C  
HETATM   44  C   UNL     1      -8.888   4.863  67.571  1.00  0.00    -0.105 C  
ENDBRANCH  26  27
ENDBRANCH  15  23
TORSDOF 2
ENDMDL
MODEL       80
REMARK 921   NORMALIZED FREE ENERGY PREDICTED BY IDOCK:   -3.83 KCAL/MOL
REMARK 922        TOTAL FREE ENERGY PREDICTED BY IDOCK:   -4.68 KCAL/MOL
REMARK 923 INTER-LIGAND FREE ENERGY PREDICTED BY IDOCK:   -4.83 KCAL/MOL
REMARK 924 INTRA-LIGAND FREE ENERGY PREDICTED BY IDOCK:    0.14 KCAL/MOL
REMARK 927      BINDING AFFINITY PREDICTED BY RF-SCORE:    0.00 PKD
ROOT
HETATM    1  C   UNL     1     -11.113  13.560  69.127  1.00  0.00    -0.225 C  
HETATM    2  C   UNL     1     -12.469  13.656  69.817  1.00  0.00    -0.193 C  
HETATM    3  C   UNL     1     -12.670  15.191  70.014  1.00  0.00    -0.200 C  
HETATM    4  C   UNL     1     -11.345  15.864  69.664  1.00  0.00    -0.342 C  
HETATM    5  N   UNL     1     -10.413  14.773  69.533  1.00  0.00    -0.193 N  
HETATM    6  C   UNL     1      -9.110  14.997  69.110  1.00  0.00    -0.183 C  
HETATM    7  O   UNL     1      -8.543  16.079  69.205  1.00  0.00    -0.251 OA 
HETATM    8  C   UNL     1      -8.452  13.681  68.768  1.00  0.00     0.056 C  
HETATM    9  C   UNL     1      -6.929  13.681  68.704  1.00  0.00    -0.103 C  
HETATM   10  N   UNL     1      -9.429  12.875  67.754  1.00  0.00    -0.195 N  
HETATM   11  C   UNL     1      -6.344  14.389  67.503  1.00  0.00    -0.029 C  
HETATM   12  C   UNL     1      -6.211  14.010  70.027  1.00  0.00    -0.142 C  
HETATM   13  C   UNL     1      -9.247  11.701  67.015  1.00  0.00    -0.183 C  
HETATM   14  O   UNL     1      -9.745  11.484  65.918  1.00  0.00    -0.218 OA 
HETATM   15  C   UNL     1      -8.487  10.735  67.903  1.00  0.00    -0.122 C  
HETATM   16  H   UNL     1     -10.831  10.602  67.910  1.00  0.00     0.000 HD 
HETATM   17  C   UNL     1      -7.079  11.116  67.070  1.00  0.00    -0.124 C  
HETATM   18  O   UNL     1      -9.232  11.363  69.155  1.00  0.00    -0.009 OA 
HETATM   19  O   UNL     1     -11.313  11.375  68.177  1.00  0.00    -0.253 OA 
HETATM   20  C   UNL     1     -10.291  12.240  68.672  1.00  0.00    -0.188 C  
HETATM   21  C   UNL     1      -6.962  10.656  65.584  1.00  0.00    -0.078 C  
HETATM   22  C   UNL     1      -5.710  10.819  67.660  1.00  0.00    -0.043 C  
ENDROOT
BRANCH  15  23
HETATM   23  N   UNL     1      -8.504   9.315  68.175  1.00  0.00    -0.120 N  
HETATM   24  H   UNL     1      -8.984   8.674  67.543  1.00  0.00     0.000 HD 
HETATM   25  O   UNL     1      -7.573   9.536  70.291  1.00  0.00    -0.120 OA 
HETATM   26  C   UNL     1      -7.854   8.828  69.317  1.00  0.00    -0.100 C  
BRANCH  26  27
HETATM   27  C   UNL     1      -7.401   7.359  69.226  1.00  0.00    -0.086 C  
HETATM   28  C   UNL     1      -5.884   7.281  69.509  1.00  0.00    -0.023 C  
HETATM   29  N   UNL     1      -5.506   6.894  70.892  1.00  0.00    -0.026 NA 
HETATM   30  C   UNL     1      -5.881   5.479  71.164  1.00  0.00    -0.024 C  
HETATM   31  C   UNL     1      -6.044   7.781  71.929  1.00  0.00    -0.039 C  
HETATM   32  C   UNL     1      -5.838   5.076  72.709  1.00  0.00    -0.025 C  
HETATM   33  C   UNL     1      -7.131   4.514  73.199  1.00  0.00    -0.077 A  
HETATM   34  C   UNL     1      -7.738   4.421  74.436  1.00  0.00    -0.084 A  
HETATM   35  N   UNL     1      -8.899   3.702  74.280  1.00  0.00    -0.087 NA 
HETATM   36  C   UNL     1      -9.055   3.319  72.965  1.00  0.00    -0.090 A  
HETATM   37  H   UNL     1      -9.554   3.484  75.030  1.00  0.00     0.000 HD 
HETATM   38  C   UNL     1     -10.027   2.593  72.271  1.00  0.00    -0.237 A  
HETATM   39  C   UNL     1      -9.860   2.476  70.878  1.00  0.00    -0.015 A  
HETATM   40  C   UNL     1      -8.851   3.160  70.196  1.00  0.00    -0.147 A  
HETATM   41  C   UNL     1      -7.966   3.964  70.910  1.00  0.00    -0.058 A  
HETATM   42  C   UNL     1      -8.013   3.920  72.291  1.00  0.00    -0.080 A  
HETATM   43  C   UNL     1      -7.166   5.076  70.313  1.00  0.00    -0.054 C  
HETATM   44  C   UNL     1      -8.107   6.319  70.126  1.00  0.00    -0.116 C  
ENDBRANCH  26  27
ENDBRANCH  15  23
TORSDOF 2
ENDMDL
MODEL       81
REMARK 921   NORMALIZED FREE ENERGY PREDICTED BY IDOCK:   -3.73 KCAL/MOL
REMARK 922        TOTAL FREE ENERGY PREDICTED BY IDOCK:   -4.57 KCAL/MOL
REMARK 923 INTER-LIGAND FREE ENERGY PREDICTED BY IDOCK:   -4.99 KCAL/MOL
REMARK 924 INTRA-LIGAND FREE ENERGY PREDICTED BY IDOCK:    0.42 KCAL/MOL
REMARK 927      BINDING AFFINITY PREDICTED BY RF-SCORE:    0.00 PKD
ROOT
HETATM    1  C   UNL     1      -7.072   8.091  66.747  1.00  0.00    -0.081 C  
HETATM    2  C   UNL     1      -5.839   7.807  65.896  1.00  0.00    -0.037 C  
HETATM    3  C   UNL     1      -5.488   6.327  66.248  1.00  0.00    -0.013 C  
HETATM    4  C   UNL     1      -6.361   5.930  67.435  1.00  0.00    -0.042 C  
HETATM    5  N   UNL     1      -6.960   7.167  67.869  1.00  0.00    -0.077 N  
HETATM    6  C   UNL     1      -7.913   7.181  68.878  1.00  0.00    -0.120 C  
HETATM    7  O   UNL     1      -8.024   6.295  69.717  1.00  0.00    -0.113 OA 
HETATM    8  C   UNL     1      -8.588   8.531  68.922  1.00  0.00    -0.127 C  
HETATM    9  C   UNL     1      -9.333   8.875  70.206  1.00  0.00    -0.208 C  
HETATM   10  N   UNL     1      -9.093   8.894  67.424  1.00  0.00    -0.132 N  
HETATM   11  C   UNL     1     -10.628   8.121  70.410  1.00  0.00    -0.226 C  
HETATM   12  C   UNL     1      -8.462   8.963  71.475  1.00  0.00    -0.182 C  
HETATM   13  C   UNL     1      -9.899   9.928  66.932  1.00  0.00    -0.199 C  
HETATM   14  O   UNL     1     -10.662   9.823  65.981  1.00  0.00     0.012 OA 
HETATM   15  C   UNL     1      -9.505  11.186  67.681  1.00  0.00    -0.166 C  
HETATM   16  H   UNL     1      -8.447  10.769  65.628  1.00  0.00     0.000 HD 
HETATM   17  C   UNL     1     -10.863  11.002  68.654  1.00  0.00    -0.256 C  
HETATM   18  O   UNL     1      -8.019  10.635  67.746  1.00  0.00    -0.108 OA 
HETATM   19  O   UNL     1      -7.949   9.964  65.547  1.00  0.00    -0.118 OA 
HETATM   20  C   UNL     1      -7.922   9.464  66.883  1.00  0.00    -0.109 C  
HETATM   21  C   UNL     1     -12.264  11.204  67.999  1.00  0.00     0.437 C  
HETATM   22  C   UNL     1     -10.973  11.709  69.995  1.00  0.00     0.244 C  
ENDROOT
BRANCH  15  23
HETATM   23  N   UNL     1      -9.334  12.588  67.372  1.00  0.00    -0.181 N  
HETATM   24  H   UNL     1      -8.655  13.150  67.885  1.00  0.00     0.000 HD 
HETATM   25  O   UNL     1     -11.170  12.675  65.953  1.00  0.00    -0.292 OA 
HETATM   26  C   UNL     1     -10.110  13.166  66.360  1.00  0.00    -0.281 C  
BRANCH  26  27
HETATM   27  C   UNL     1      -9.488  14.410  65.697  1.00  0.00    -0.045 C  
HETATM   28  C   UNL     1     -10.598  15.204  64.974  1.00  0.00    -0.413 C  
HETATM   29  N   UNL     1     -11.144  16.368  65.716  1.00  0.00     0.003 NA 
HETATM   30  C   UNL     1     -10.118  17.439  65.846  1.00  0.00    -0.205 C  
HETATM   31  C   UNL     1     -11.708  16.029  67.028  1.00  0.00     0.603 C  
HETATM   32  C   UNL     1     -10.485  18.571  66.912  1.00  0.00    -0.434 C  
HETATM   33  C   UNL     1      -9.429  18.753  67.951  1.00  0.00    -0.339 A  
HETATM   34  C   UNL     1      -9.418  19.236  69.245  1.00  0.00    -0.154 A  
HETATM   35  N   UNL     1      -8.113  19.250  69.676  1.00  0.00     0.216 NA 
HETATM   36  C   UNL     1      -7.273  18.793  68.684  1.00  0.00    -0.303 A  
HETATM   37  H   UNL     1      -7.808  19.555  70.600  1.00  0.00     0.000 HD 
HETATM   38  C   UNL     1      -5.891  18.603  68.587  1.00  0.00    -0.206 A  
HETATM   39  C   UNL     1      -5.409  18.027  67.397  1.00  0.00    -0.144 A  
HETATM   40  C   UNL     1      -6.271  17.543  66.410  1.00  0.00    -0.262 A  
HETATM   41  C   UNL     1      -7.647  17.649  66.591  1.00  0.00    -0.273 A  
HETATM   42  C   UNL     1      -8.109  18.386  67.665  1.00  0.00    -0.257 A  
HETATM   43  C   UNL     1      -8.659  16.802  65.890  1.00  0.00    -0.065 C  
HETATM   44  C   UNL     1      -8.700  15.397  66.589  1.00  0.00    -0.332 C  
ENDBRANCH  26  27
ENDBRANCH  15  23
TORSDOF 2
ENDMDL
MODEL       82
REMARK 921   NORMALIZED FREE ENERGY PREDICTED BY IDOCK:   -3.71 KCAL/MOL
REMARK 922        TOTAL FREE ENERGY PREDICTED BY IDOCK:   -4.54 KCAL/MOL
REMARK 923 INTER-LIGAND FREE ENERGY PREDICTED BY IDOCK:   -5.72 KCAL/MOL
REMARK 924 INTRA-LIGAND FREE ENERGY PREDICTED BY IDOCK:    1.17 KCAL/MOL
REMARK 927      BINDING AFFINITY PREDICTED BY RF-SCORE:    0.00 PKD
ROOT
HETATM    1  C   UNL     1      -8.278  15.568  66.980  1.00  0.00    -0.240 C  
HETATM    2  C   UNL     1      -7.065  16.477  67.154  1.00  0.00    -0.228 C  
HETATM    3  C   UNL     1      -7.551  17.843  66.577  1.00  0.00    -0.285 C  
HETATM    4  C   UNL     1      -8.891  17.590  65.893  1.00  0.00     0.094 C  
HETATM    5  N   UNL     1      -9.015  16.154  65.868  1.00  0.00    -0.286 N  
HETATM    6  C   UNL     1     -10.175  15.548  65.407  1.00  0.00    -0.377 C  
HETATM    7  O   UNL     1     -10.970  16.092  64.650  1.00  0.00    -0.642 OA 
HETATM    8  C   UNL     1     -10.163  14.082  65.771  1.00  0.00    -0.328 C  
HETATM    9  C   UNL     1     -11.117  13.183  64.995  1.00  0.00    -0.322 C  
HETATM   10  N   UNL     1      -9.843  13.956  67.356  1.00  0.00    -0.233 N  
HETATM   11  C   UNL     1     -12.577  13.351  65.350  1.00  0.00    -0.528 C  
HETATM   12  C   UNL     1     -10.855  13.090  63.479  1.00  0.00    -0.029 C  
HETATM   13  C   UNL     1      -9.868  12.865  68.233  1.00  0.00    -0.228 C  
HETATM   14  O   UNL     1     -10.170  12.930  69.418  1.00  0.00     0.299 OA 
HETATM   15  C   UNL     1      -9.292  11.683  67.478  1.00  0.00    -0.168 C  
HETATM   16  H   UNL     1      -7.818  12.955  68.790  1.00  0.00     0.000 HD 
HETATM   17  C   UNL     1     -10.855  11.120  67.220  1.00  0.00    -0.326 C  
HETATM   18  O   UNL     1      -8.341  12.689  66.705  1.00  0.00    -0.126 OA 
HETATM   19  O   UNL     1      -7.726  13.876  68.577  1.00  0.00    -0.130 OA 
HETATM   20  C   UNL     1      -8.433  13.996  67.344  1.00  0.00    -0.200 C  
HETATM   21  C   UNL     1     -11.660  10.608  68.454  1.00  0.00    -0.269 C  
HETATM   22  C   UNL     1     -11.156  10.104  66.130  1.00  0.00     0.440 C  
ENDROOT
BRANCH  15  23
HETATM   23  N   UNL     1      -8.430  10.560  67.774  1.00  0.00    -0.114 N  
HETATM   24  H   UNL     1      -7.793  10.198  67.065  1.00  0.00     0.000 HD 
HETATM   25  O   UNL     1      -9.440  10.104  69.815  1.00  0.00    -0.220 OA 
HETATM   26  C   UNL     1      -8.480   9.975  69.046  1.00  0.00    -0.147 C  
BRANCH  26  27
HETATM   27  C   UNL     1      -7.192   9.246  69.474  1.00  0.00    -0.061 C  
HETATM   28  C   UNL     1      -6.748   9.779  70.854  1.00  0.00    -0.024 C  
HETATM   29  N   UNL     1      -7.130   8.943  72.021  1.00  0.00    -0.303 NA 
HETATM   30  C   UNL     1      -6.394   7.649  72.006  1.00  0.00    -0.042 C  
HETATM   31  C   UNL     1      -8.575   8.717  72.145  1.00  0.00    -0.120 C  
HETATM   32  C   UNL     1      -6.982   6.551  73.006  1.00  0.00    -0.077 C  
HETATM   33  C   UNL     1      -7.327   5.270  72.323  1.00  0.00    -0.093 A  
HETATM   34  C   UNL     1      -8.199   4.233  72.596  1.00  0.00    -0.097 A  
HETATM   35  N   UNL     1      -8.007   3.263  71.640  1.00  0.00    -0.057 NA 
HETATM   36  C   UNL     1      -7.022   3.646  70.756  1.00  0.00    -0.033 A  
HETATM   37  H   UNL     1      -8.522   2.384  71.592  1.00  0.00     0.000 HD 
HETATM   38  C   UNL     1      -6.444   3.058  69.627  1.00  0.00    -0.033 A  
HETATM   39  C   UNL     1      -5.490   3.822  68.929  1.00  0.00    -0.013 A  
HETATM   40  C   UNL     1      -5.225   5.153  69.261  1.00  0.00     0.000 A  
HETATM   41  C   UNL     1      -5.902   5.740  70.327  1.00  0.00    -0.024 A  
HETATM   42  C   UNL     1      -6.689   4.932  71.125  1.00  0.00    -0.035 A  
HETATM   43  C   UNL     1      -6.075   7.214  70.508  1.00  0.00    -0.027 C  
HETATM   44  C   UNL     1      -7.215   7.702  69.544  1.00  0.00    -0.080 C  
ENDBRANCH  26  27
ENDBRANCH  15  23
TORSDOF 2
ENDMDL
MODEL       83
REMARK 921   NORMALIZED FREE ENERGY PREDICTED BY IDOCK:   -3.64 KCAL/MOL
REMARK 922        TOTAL FREE ENERGY PREDICTED BY IDOCK:   -4.47 KCAL/MOL
REMARK 923 INTER-LIGAND FREE ENERGY PREDICTED BY IDOCK:   -4.49 KCAL/MOL
REMARK 924 INTRA-LIGAND FREE ENERGY PREDICTED BY IDOCK:    0.03 KCAL/MOL
REMARK 927      BINDING AFFINITY PREDICTED BY RF-SCORE:    0.00 PKD
ROOT
HETATM    1  C   UNL     1      -7.849  19.505  69.987  1.00  0.00     0.720 C  
HETATM    2  C   UNL     1      -7.729  19.979  71.432  1.00  0.00     1.720 C  
HETATM    3  C   UNL     1      -6.408  20.809  71.434  1.00  0.00     0.662 C  
HETATM    4  C   UNL     1      -5.725  20.567  70.090  1.00  0.00    -0.323 C  
HETATM    5  N   UNL     1      -6.477  19.491  69.495  1.00  0.00    -0.322 N  
HETATM    6  C   UNL     1      -6.207  19.064  68.203  1.00  0.00    -0.218 C  
HETATM    7  O   UNL     1      -5.133  19.243  67.640  1.00  0.00    -0.172 OA 
HETATM    8  C   UNL     1      -7.316  18.158  67.723  1.00  0.00    -0.215 C  
HETATM    9  C   UNL     1      -6.996  17.267  66.529  1.00  0.00    -0.298 C  
HETATM   10  N   UNL     1      -8.730  18.914  67.972  1.00  0.00    -0.291 N  
HETATM   11  C   UNL     1      -6.894  17.992  65.206  1.00  0.00     0.309 C  
HETATM   12  C   UNL     1      -5.877  16.232  66.756  1.00  0.00     0.256 C  
HETATM   13  C   UNL     1     -10.038  18.606  67.579  1.00  0.00    -0.360 C  
HETATM   14  O   UNL     1     -10.897  19.435  67.307  1.00  0.00    -0.484 OA 
HETATM   15  C   UNL     1     -10.201  17.107  67.732  1.00  0.00    -0.324 C  
HETATM   16  H   UNL     1     -10.852  18.459  69.537  1.00  0.00     0.000 HD 
HETATM   17  C   UNL     1      -9.989  16.939  66.074  1.00  0.00    -0.313 C  
HETATM   18  O   UNL     1      -9.211  17.165  68.970  1.00  0.00    -0.236 OA 
HETATM   19  O   UNL     1     -10.188  19.012  69.932  1.00  0.00     0.285 OA 
HETATM   20  C   UNL     1      -8.982  18.563  69.314  1.00  0.00     0.211 C  
HETATM   21  C   UNL     1     -11.106  17.490  65.135  1.00  0.00     0.468 C  
HETATM   22  C   UNL     1      -9.613  15.601  65.459  1.00  0.00    -0.237 C  
ENDROOT
BRANCH  15  23
HETATM   23  N   UNL     1     -11.237  16.197  68.169  1.00  0.00    -0.339 N  
HETATM   24  H   UNL     1     -12.196  16.311  67.840  1.00  0.00     0.000 HD 
HETATM   25  O   UNL     1      -9.896  15.160  69.756  1.00  0.00    -0.201 OA 
HETATM   26  C   UNL     1     -10.910  15.156  69.047  1.00  0.00    -0.242 C  
BRANCH  26  27
HETATM   27  C   UNL     1     -11.849  13.937  68.984  1.00  0.00    -0.397 C  
HETATM   28  C   UNL     1     -11.960  13.462  67.518  1.00  0.00    -0.339 C  
HETATM   29  N   UNL     1     -11.098  12.313  67.146  1.00  0.00    -0.262 NA 
HETATM   30  C   UNL     1     -11.542  11.074  67.841  1.00  0.00    -0.226 C  
HETATM   31  C   UNL     1      -9.665  12.545  67.365  1.00  0.00    -0.194 C  
HETATM   32  C   UNL     1     -10.485   9.877  67.783  1.00  0.00    -0.292 C  
HETATM   33  C   UNL     1     -10.117   9.363  69.135  1.00  0.00    -0.200 A  
HETATM   34  C   UNL     1      -9.020   8.698  69.651  1.00  0.00    -0.145 A  
HETATM   35  N   UNL     1      -9.295   8.395  70.963  1.00  0.00    -0.161 NA 
HETATM   36  C   UNL     1     -10.552   8.842  71.309  1.00  0.00    -0.281 A  
HETATM   37  H   UNL     1      -8.658   7.907  71.593  1.00  0.00     0.000 HD 
HETATM   38  C   UNL     1     -11.312   8.802  72.481  1.00  0.00    -0.152 A  
HETATM   39  C   UNL     1     -12.558   9.457  72.454  1.00  0.00    -0.307 A  
HETATM   40  C   UNL     1     -12.965  10.224  71.361  1.00  0.00    -0.540 A  
HETATM   41  C   UNL     1     -12.130  10.331  70.251  1.00  0.00    -0.330 A  
HETATM   42  C   UNL     1     -11.002   9.534  70.204  1.00  0.00    -0.302 A  
HETATM   43  C   UNL     1     -12.198  11.435  69.246  1.00  0.00    -0.271 C  
HETATM   44  C   UNL     1     -11.510  12.707  69.858  1.00  0.00    -0.153 C  
ENDBRANCH  26  27
ENDBRANCH  15  23
TORSDOF 2
ENDMDL
MODEL       84
REMARK 921   NORMALIZED FREE ENERGY PREDICTED BY IDOCK:   -3.58 KCAL/MOL
REMARK 922        TOTAL FREE ENERGY PREDICTED BY IDOCK:   -4.40 KCAL/MOL
REMARK 923 INTER-LIGAND FREE ENERGY PREDICTED BY IDOCK:   -4.54 KCAL/MOL
REMARK 924 INTRA-LIGAND FREE ENERGY PREDICTED BY IDOCK:    0.14 KCAL/MOL
REMARK 927      BINDING AFFINITY PREDICTED BY RF-SCORE:    0.00 PKD
ROOT
HETATM    1  C   UNL     1     -10.107  17.528  66.343  1.00  0.00    -0.345 C  
HETATM    2  C   UNL     1     -10.427  18.496  65.208  1.00  0.00     0.577 C  
HETATM    3  C   UNL     1     -10.714  19.840  65.949  1.00  0.00    -0.488 C  
HETATM    4  C   UNL     1     -10.788  19.522  67.440  1.00  0.00    -0.414 C  
HETATM    5  N   UNL     1     -10.798  18.082  67.500  1.00  0.00    -0.325 N  
HETATM    6  C   UNL     1     -10.753  17.421  68.719  1.00  0.00    -0.197 C  
HETATM    7  O   UNL     1     -11.098  17.929  69.779  1.00  0.00     1.026 OA 
HETATM    8  C   UNL     1     -10.466  15.955  68.492  1.00  0.00    -0.241 C  
HETATM    9  C   UNL     1     -10.801  15.013  69.642  1.00  0.00    -0.283 C  
HETATM   10  N   UNL     1      -9.160  15.836  67.539  1.00  0.00    -0.194 N  
HETATM   11  C   UNL     1      -9.869  15.104  70.829  1.00  0.00     0.917 C  
HETATM   12  C   UNL     1     -12.291  14.943  70.029  1.00  0.00    -0.358 C  
HETATM   13  C   UNL     1      -8.381  14.740  67.149  1.00  0.00    -0.214 C  
HETATM   14  O   UNL     1      -7.176  14.782  66.936  1.00  0.00    -0.038 OA 
HETATM   15  C   UNL     1      -9.338  13.593  66.888  1.00  0.00    -0.257 C  
HETATM   16  H   UNL     1      -8.721  14.930  65.060  1.00  0.00     0.000 HD 
HETATM   17  C   UNL     1      -8.941  12.953  68.390  1.00  0.00    -0.124 C  
HETATM   18  O   UNL     1     -10.408  14.651  66.388  1.00  0.00    -0.276 OA 
HETATM   19  O   UNL     1      -8.928  15.856  65.105  1.00  0.00     0.365 OA 
HETATM   20  C   UNL     1      -9.754  15.948  66.264  1.00  0.00    -0.306 C  
HETATM   21  C   UNL     1      -7.499  12.392  68.587  1.00  0.00    -0.095 C  
HETATM   22  C   UNL     1      -9.835  11.929  69.071  1.00  0.00     0.118 C  
ENDROOT
BRANCH  15  23
HETATM   23  N   UNL     1      -9.455  12.514  65.932  1.00  0.00    -0.417 N  
HETATM   24  H   UNL     1      -8.709  12.337  65.260  1.00  0.00     0.000 HD 
HETATM   25  O   UNL     1     -11.673  12.066  66.454  1.00  0.00    -0.518 OA 
HETATM   26  C   UNL     1     -10.604  11.713  65.941  1.00  0.00    -0.271 C  
BRANCH  26  27
HETATM   27  C   UNL     1     -10.411  10.297  65.366  1.00  0.00    -0.233 C  
HETATM   28  C   UNL     1      -9.435  10.368  64.170  1.00  0.00    -0.300 C  
HETATM   29  N   UNL     1      -8.026  10.006  64.466  1.00  0.00    -0.145 NA 
HETATM   30  C   UNL     1      -7.911   8.558  64.793  1.00  0.00    -0.143 C  
HETATM   31  C   UNL     1      -7.406  10.825  65.515  1.00  0.00     0.016 C  
HETATM   32  C   UNL     1      -6.518   8.146  65.457  1.00  0.00    -0.049 C  
HETATM   33  C   UNL     1      -6.684   7.453  66.769  1.00  0.00    -0.064 A  
HETATM   34  C   UNL     1      -5.883   7.287  67.883  1.00  0.00    -0.030 A  
HETATM   35  N   UNL     1      -6.547   6.457  68.755  1.00  0.00    -0.049 NA 
HETATM   36  C   UNL     1      -7.761   6.074  68.226  1.00  0.00    -0.102 A  
HETATM   37  H   UNL     1      -6.192   6.167  69.666  1.00  0.00     0.000 HD 
HETATM   38  C   UNL     1      -8.807   5.261  68.676  1.00  0.00    -0.103 A  
HETATM   39  C   UNL     1      -9.945   5.177  67.852  1.00  0.00    -0.202 A  
HETATM   40  C   UNL     1     -10.088   5.965  66.708  1.00  0.00    -0.235 A  
HETATM   41  C   UNL     1      -9.070   6.845  66.351  1.00  0.00    -0.185 A  
HETATM   42  C   UNL     1      -7.879   6.783  67.050  1.00  0.00    -0.104 A  
HETATM   43  C   UNL     1      -9.256   8.038  65.470  1.00  0.00     0.092 C  
HETATM   44  C   UNL     1      -9.917   9.183  66.317  1.00  0.00    -0.352 C  
ENDBRANCH  26  27
ENDBRANCH  15  23
TORSDOF 2
ENDMDL
MODEL       85
REMARK 921   NORMALIZED FREE ENERGY PREDICTED BY IDOCK:   -3.55 KCAL/MOL
REMARK 922        TOTAL FREE ENERGY PREDICTED BY IDOCK:   -4.37 KCAL/MOL
REMARK 923 INTER-LIGAND FREE ENERGY PREDICTED BY IDOCK:   -5.40 KCAL/MOL
REMARK 924 INTRA-LIGAND FREE ENERGY PREDICTED BY IDOCK:    1.03 KCAL/MOL
REMARK 927      BINDING AFFINITY PREDICTED BY RF-SCORE:    0.00 PKD
ROOT
HETATM    1  C   UNL     1     -11.869   7.428  71.827  1.00  0.00    -0.294 C  
HETATM    2  C   UNL     1     -13.310   7.924  71.889  1.00  0.00    -0.318 C  
HETATM    3  C   UNL     1     -14.100   6.679  72.402  1.00  0.00     0.255 C  
HETATM    4  C   UNL     1     -13.138   5.494  72.369  1.00  0.00     1.114 C  
HETATM    5  N   UNL     1     -11.987   5.986  71.654  1.00  0.00    -0.114 N  
HETATM    6  C   UNL     1     -10.847   5.207  71.519  1.00  0.00    -0.032 C  
HETATM    7  O   UNL     1     -10.847   3.985  71.608  1.00  0.00     0.345 OA 
HETATM    8  C   UNL     1      -9.707   6.057  71.010  1.00  0.00    -0.177 C  
HETATM    9  C   UNL     1      -8.526   5.312  70.400  1.00  0.00    -0.116 C  
HETATM   10  N   UNL     1      -9.595   7.371  71.953  1.00  0.00    -0.151 N  
HETATM   11  C   UNL     1      -7.654   4.580  71.396  1.00  0.00    -0.073 C  
HETATM   12  C   UNL     1      -8.841   4.492  69.134  1.00  0.00    -0.127 C  
HETATM   13  C   UNL     1      -8.639   8.391  72.030  1.00  0.00    -0.191 C  
HETATM   14  O   UNL     1      -8.323   8.974  73.059  1.00  0.00    -0.210 OA 
HETATM   15  C   UNL     1      -8.234   8.720  70.606  1.00  0.00    -0.144 C  
HETATM   16  H   UNL     1      -9.955   9.994  71.568  1.00  0.00     0.000 HD 
HETATM   17  C   UNL     1      -6.837   7.811  70.820  1.00  0.00    -0.042 C  
HETATM   18  O   UNL     1      -9.713   8.378  70.148  1.00  0.00    -0.171 OA 
HETATM   19  O   UNL     1     -10.734   9.533  71.855  1.00  0.00    -0.177 OA 
HETATM   20  C   UNL     1     -10.541   8.217  71.337  1.00  0.00    -0.223 C  
HETATM   21  C   UNL     1      -5.757   8.352  71.806  1.00  0.00    -0.041 C  
HETATM   22  C   UNL     1      -6.036   7.306  69.630  1.00  0.00    -0.030 C  
ENDROOT
BRANCH  15  23
HETATM   23  N   UNL     1      -7.911   9.910  69.849  1.00  0.00    -0.160 N  
HETATM   24  H   UNL     1      -6.946  10.236  69.790  1.00  0.00     0.000 HD 
HETATM   25  O   UNL     1     -10.129  10.501  69.504  1.00  0.00    -0.222 OA 
HETATM   26  C   UNL     1      -8.936  10.608  69.199  1.00  0.00    -0.128 C  
BRANCH  26  27
HETATM   27  C   UNL     1      -8.483  11.439  67.984  1.00  0.00    -0.145 C  
HETATM   28  C   UNL     1      -7.694  10.529  67.017  1.00  0.00    -0.110 C  
HETATM   29  N   UNL     1      -8.460   9.999  65.861  1.00  0.00    -0.129 NA 
HETATM   30  C   UNL     1      -8.828  11.095  64.924  1.00  0.00     0.019 C  
HETATM   31  C   UNL     1      -9.646   9.220  66.238  1.00  0.00    -0.248 C  
HETATM   32  C   UNL     1      -9.935  10.692  63.847  1.00  0.00    -0.390 C  
HETATM   33  C   UNL     1     -11.120  11.599  63.865  1.00  0.00    -0.477 A  
HETATM   34  C   UNL     1     -12.444  11.470  63.489  1.00  0.00    -0.017 A  
HETATM   35  N   UNL     1     -13.047  12.694  63.654  1.00  0.00    -0.455 NA 
HETATM   36  C   UNL     1     -12.139  13.619  64.122  1.00  0.00    -0.435 A  
HETATM   37  H   UNL     1     -14.028  12.890  63.458  1.00  0.00     0.000 HD 
HETATM   38  C   UNL     1     -12.214  14.976  64.455  1.00  0.00    -0.353 A  
HETATM   39  C   UNL     1     -11.051  15.565  64.985  1.00  0.00    -0.411 A  
HETATM   40  C   UNL     1      -9.916  14.812  65.292  1.00  0.00    -0.331 A  
HETATM   41  C   UNL     1      -9.918  13.441  65.048  1.00  0.00    -0.179 A  
HETATM   42  C   UNL     1     -10.983  12.904  64.352  1.00  0.00    -0.400 A  
HETATM   43  C   UNL     1      -9.010  12.463  65.721  1.00  0.00     0.277 C  
HETATM   44  C   UNL     1      -9.562  12.183  67.164  1.00  0.00    -0.195 C  
ENDBRANCH  26  27
ENDBRANCH  15  23
TORSDOF 2
ENDMDL
MODEL       86
REMARK 921   NORMALIZED FREE ENERGY PREDICTED BY IDOCK:   -3.55 KCAL/MOL
REMARK 922        TOTAL FREE ENERGY PREDICTED BY IDOCK:   -4.36 KCAL/MOL
REMARK 923 INTER-LIGAND FREE ENERGY PREDICTED BY IDOCK:   -4.59 KCAL/MOL
REMARK 924 INTRA-LIGAND FREE ENERGY PREDICTED BY IDOCK:    0.22 KCAL/MOL
REMARK 927      BINDING AFFINITY PREDICTED BY RF-SCORE:    0.00 PKD
ROOT
HETATM    1  C   UNL     1      -8.965   3.842  68.780  1.00  0.00    -0.124 C  
HETATM    2  C   UNL     1      -9.314   3.231  67.426  1.00  0.00    -0.242 C  
HETATM    3  C   UNL     1      -8.624   1.832  67.470  1.00  0.00    -0.106 C  
HETATM    4  C   UNL     1      -7.732   1.812  68.709  1.00  0.00    -0.046 C  
HETATM    5  N   UNL     1      -7.728   3.177  69.170  1.00  0.00    -0.047 N  
HETATM    6  C   UNL     1      -7.097   3.525  70.356  1.00  0.00    -0.037 C  
HETATM    7  O   UNL     1      -6.202   2.863  70.867  1.00  0.00    -0.018 OA 
HETATM    8  C   UNL     1      -7.500   4.926  70.755  1.00  0.00    -0.065 C  
HETATM    9  C   UNL     1      -6.601   5.628  71.765  1.00  0.00    -0.053 C  
HETATM   10  N   UNL     1      -9.119   5.013  70.727  1.00  0.00    -0.131 N  
HETATM   11  C   UNL     1      -6.701   5.099  73.178  1.00  0.00    -0.072 C  
HETATM   12  C   UNL     1      -5.154   5.883  71.300  1.00  0.00    -0.013 C  
HETATM   13  C   UNL     1     -10.011   6.006  71.151  1.00  0.00    -0.186 C  
HETATM   14  O   UNL     1     -11.125   5.791  71.610  1.00  0.00    -0.265 OA 
HETATM   15  C   UNL     1      -9.398   7.339  70.768  1.00  0.00    -0.160 C  
HETATM   16  H   UNL     1     -10.901   6.360  69.254  1.00  0.00     0.000 HD 
HETATM   17  C   UNL     1      -8.897   7.537  72.360  1.00  0.00    -0.162 C  
HETATM   18  O   UNL     1      -8.767   6.638  69.493  1.00  0.00    -0.134 OA 
HETATM   19  O   UNL     1     -10.680   5.503  68.910  1.00  0.00    -0.219 OA 
HETATM   20  C   UNL     1      -9.343   5.305  69.365  1.00  0.00    -0.126 C  
HETATM   21  C   UNL     1      -9.993   7.762  73.448  1.00  0.00    -0.348 C  
HETATM   22  C   UNL     1      -7.803   8.527  72.724  1.00  0.00    -0.073 C  
ENDROOT
BRANCH  15  23
HETATM   23  N   UNL     1      -9.867   8.609  70.260  1.00  0.00    -0.174 N  
HETATM   24  H   UNL     1      -9.239   9.219  69.738  1.00  0.00     0.000 HD 
HETATM   25  O   UNL     1     -11.893   8.507  71.391  1.00  0.00    -0.277 OA 
HETATM   26  C   UNL     1     -11.194   8.992  70.494  1.00  0.00    -0.260 C  
BRANCH  26  27
HETATM   27  C   UNL     1     -11.770   9.988  69.469  1.00  0.00    -0.058 C  
HETATM   28  C   UNL     1     -13.125  10.518  69.988  1.00  0.00     0.260 C  
HETATM   29  N   UNL     1     -13.085  11.845  70.654  1.00  0.00     0.185 NA 
HETATM   30  C   UNL     1     -12.759  12.916  69.673  1.00  0.00     0.554 C  
HETATM   31  C   UNL     1     -12.181  11.907  71.808  1.00  0.00     0.652 C  
HETATM   32  C   UNL     1     -12.353  14.311  70.339  1.00  0.00    -0.419 C  
HETATM   33  C   UNL     1     -11.022  14.806  69.881  1.00  0.00    -0.229 A  
HETATM   34  C   UNL     1     -10.069  15.654  70.414  1.00  0.00     0.135 A  
HETATM   35  N   UNL     1      -9.076  15.810  69.476  1.00  0.00    -0.253 NA 
HETATM   36  C   UNL     1      -9.368  15.086  68.340  1.00  0.00    -0.193 A  
HETATM   37  H   UNL     1      -8.241  16.380  69.603  1.00  0.00     0.000 HD 
HETATM   38  C   UNL     1      -8.721  14.892  67.115  1.00  0.00    -0.240 A  
HETATM   39  C   UNL     1      -9.322  13.992  66.215  1.00  0.00    -0.199 A  
HETATM   40  C   UNL     1     -10.434  13.225  66.569  1.00  0.00    -0.282 A  
HETATM   41  C   UNL     1     -10.986  13.366  67.840  1.00  0.00    -0.276 A  
HETATM   42  C   UNL     1     -10.515  14.385  68.646  1.00  0.00    -0.247 A  
HETATM   43  C   UNL     1     -11.839  12.337  68.509  1.00  0.00    -0.359 C  
HETATM   44  C   UNL     1     -10.906  11.204  69.066  1.00  0.00    -0.276 C  
ENDBRANCH  26  27
ENDBRANCH  15  23
TORSDOF 2
ENDMDL
MODEL       87
REMARK 921   NORMALIZED FREE ENERGY PREDICTED BY IDOCK:   -3.50 KCAL/MOL
REMARK 922        TOTAL FREE ENERGY PREDICTED BY IDOCK:   -4.31 KCAL/MOL
REMARK 923 INTER-LIGAND FREE ENERGY PREDICTED BY IDOCK:   -5.00 KCAL/MOL
REMARK 924 INTRA-LIGAND FREE ENERGY PREDICTED BY IDOCK:    0.69 KCAL/MOL
REMARK 927      BINDING AFFINITY PREDICTED BY RF-SCORE:    0.00 PKD
ROOT
HETATM    1  C   UNL     1      -6.931   4.622  68.557  1.00  0.00    -0.052 C  
HETATM    2  C   UNL     1      -6.224   4.142  67.294  1.00  0.00    -0.036 C  
HETATM    3  C   UNL     1      -5.161   3.134  67.833  1.00  0.00    -0.012 C  
HETATM    4  C   UNL     1      -5.145   3.271  69.353  1.00  0.00    -0.007 C  
HETATM    5  N   UNL     1      -5.946   4.440  69.616  1.00  0.00    -0.018 N  
HETATM    6  C   UNL     1      -6.247   4.819  70.917  1.00  0.00    -0.019 C  
HETATM    7  O   UNL     1      -5.581   4.487  71.890  1.00  0.00    -0.007 OA 
HETATM    8  C   UNL     1      -7.331   5.870  70.903  1.00  0.00    -0.086 C  
HETATM    9  C   UNL     1      -7.485   6.701  72.171  1.00  0.00    -0.094 C  
HETATM   10  N   UNL     1      -8.556   5.323  69.992  1.00  0.00    -0.111 N  
HETATM   11  C   UNL     1      -8.090   5.963  73.344  1.00  0.00    -0.112 C  
HETATM   12  C   UNL     1      -6.268   7.569  72.547  1.00  0.00    -0.047 C  
HETATM   13  C   UNL     1      -9.849   5.810  69.770  1.00  0.00    -0.178 C  
HETATM   14  O   UNL     1     -10.832   5.109  69.567  1.00  0.00    -0.103 OA 
HETATM   15  C   UNL     1      -9.738   7.318  69.663  1.00  0.00    -0.159 C  
HETATM   16  H   UNL     1      -9.652   6.079  67.671  1.00  0.00     0.000 HD 
HETATM   17  C   UNL     1     -10.289   7.446  71.246  1.00  0.00    -0.203 C  
HETATM   18  O   UNL     1      -8.307   7.126  69.006  1.00  0.00    -0.124 OA 
HETATM   19  O   UNL     1      -8.955   5.440  67.582  1.00  0.00    -0.110 OA 
HETATM   20  C   UNL     1      -8.121   5.711  68.707  1.00  0.00    -0.100 C  
HETATM   21  C   UNL     1     -11.770   7.054  71.537  1.00  0.00    -0.337 C  
HETATM   22  C   UNL     1     -10.073   8.715  72.054  1.00  0.00    -0.401 C  
ENDROOT
BRANCH  15  23
HETATM   23  N   UNL     1     -10.339   8.367  68.869  1.00  0.00    -0.218 N  
HETATM   24  H   UNL     1     -11.040   8.142  68.163  1.00  0.00     0.000 HD 
HETATM   25  O   UNL     1      -8.886  10.010  69.630  1.00  0.00    -0.194 OA 
HETATM   26  C   UNL     1      -9.947   9.695  69.079  1.00  0.00    -0.185 C  
BRANCH  26  27
HETATM   27  C   UNL     1     -10.995  10.750  68.678  1.00  0.00    -0.285 C  
HETATM   28  C   UNL     1     -12.395  10.258  69.109  1.00  0.00     0.563 C  
HETATM   29  N   UNL     1     -12.909  10.817  70.385  1.00  0.00    -0.278 NA 
HETATM   30  C   UNL     1     -13.189  12.272  70.249  1.00  0.00     1.050 C  
HETATM   31  C   UNL     1     -12.041  10.562  71.541  1.00  0.00    -0.220 C  
HETATM   32  C   UNL     1     -13.409  13.029  71.638  1.00  0.00    -0.379 C  
HETATM   33  C   UNL     1     -12.492  14.193  71.816  1.00  0.00    -0.360 A  
HETATM   34  C   UNL     1     -11.990  14.871  72.911  1.00  0.00    -0.222 A  
HETATM   35  N   UNL     1     -11.258  15.937  72.443  1.00  0.00     0.021 NA 
HETATM   36  C   UNL     1     -11.281  15.970  71.066  1.00  0.00    -0.302 A  
HETATM   37  H   UNL     1     -10.767  16.608  73.033  1.00  0.00     0.000 HD 
HETATM   38  C   UNL     1     -10.721  16.814  70.102  1.00  0.00     0.016 A  
HETATM   39  C   UNL     1     -10.917  16.460  68.754  1.00  0.00    -0.344 A  
HETATM   40  C   UNL     1     -11.525  15.256  68.389  1.00  0.00    -0.358 A  
HETATM   41  C   UNL     1     -11.974  14.387  69.381  1.00  0.00    -0.370 A  
HETATM   42  C   UNL     1     -11.954  14.827  70.691  1.00  0.00    -0.371 A  
HETATM   43  C   UNL     1     -12.206  12.925  69.179  1.00  0.00    -0.083 C  
HETATM   44  C   UNL     1     -10.816  12.194  69.200  1.00  0.00    -0.165 C  
ENDBRANCH  26  27
ENDBRANCH  15  23
TORSDOF 2
ENDMDL
MODEL       88
REMARK 921   NORMALIZED FREE ENERGY PREDICTED BY IDOCK:   -3.46 KCAL/MOL
REMARK 922        TOTAL FREE ENERGY PREDICTED BY IDOCK:   -4.26 KCAL/MOL
REMARK 923 INTER-LIGAND FREE ENERGY PREDICTED BY IDOCK:   -4.41 KCAL/MOL
REMARK 924 INTRA-LIGAND FREE ENERGY PREDICTED BY IDOCK:    0.15 KCAL/MOL
REMARK 927      BINDING AFFINITY PREDICTED BY RF-SCORE:    0.00 PKD
ROOT
HETATM    1  C   UNL     1      -7.079  15.795  69.802  1.00  0.00    -0.077 C  
HETATM    2  C   UNL     1      -6.328  14.719  70.580  1.00  0.00    -0.085 C  
HETATM    3  C   UNL     1      -5.144  15.500  71.230  1.00  0.00    -0.137 C  
HETATM    4  C   UNL     1      -5.132  16.894  70.607  1.00  0.00    -0.234 C  
HETATM    5  N   UNL     1      -6.070  16.807  69.517  1.00  0.00    -0.206 N  
HETATM    6  C   UNL     1      -6.404  17.932  68.776  1.00  0.00    -0.217 C  
HETATM    7  O   UNL     1      -5.694  18.927  68.695  1.00  0.00    -0.201 OA 
HETATM    8  C   UNL     1      -7.611  17.636  67.917  1.00  0.00    -0.210 C  
HETATM    9  C   UNL     1      -7.857  18.577  66.744  1.00  0.00    -0.257 C  
HETATM   10  N   UNL     1      -8.766  17.007  68.867  1.00  0.00    -0.242 N  
HETATM   11  C   UNL     1      -8.355  19.952  67.128  1.00  0.00    -0.367 C  
HETATM   12  C   UNL     1      -6.755  18.596  65.668  1.00  0.00    -0.309 C  
HETATM   13  C   UNL     1     -10.112  16.704  68.630  1.00  0.00    -0.270 C  
HETATM   14  O   UNL     1     -11.002  16.784  69.467  1.00  0.00    -0.297 OA 
HETATM   15  C   UNL     1     -10.190  16.115  67.236  1.00  0.00    -0.277 C  
HETATM   16  H   UNL     1      -9.968  14.622  69.034  1.00  0.00     0.000 HD 
HETATM   17  C   UNL     1     -10.739  17.598  66.667  1.00  0.00    -0.117 C  
HETATM   18  O   UNL     1      -8.752  15.485  67.463  1.00  0.00    -0.164 OA 
HETATM   19  O   UNL     1      -9.198  14.709  69.582  1.00  0.00     0.117 OA 
HETATM   20  C   UNL     1      -8.394  15.647  68.867  1.00  0.00    -0.210 C  
HETATM   21  C   UNL     1     -12.158  18.071  67.111  1.00  0.00     3.389 C  
HETATM   22  C   UNL     1     -10.677  17.947  65.189  1.00  0.00     0.503 C  
ENDROOT
BRANCH  15  23
HETATM   23  N   UNL     1     -10.924  15.057  66.576  1.00  0.00    -0.325 N  
HETATM   24  H   UNL     1     -10.891  14.962  65.561  1.00  0.00     0.000 HD 
HETATM   25  O   UNL     1     -12.056  14.412  68.498  1.00  0.00    -0.318 OA 
HETATM   26  C   UNL     1     -11.679  14.164  67.347  1.00  0.00    -0.391 C  
BRANCH  26  27
HETATM   27  C   UNL     1     -11.910  12.786  66.699  1.00  0.00    -0.462 C  
HETATM   28  C   UNL     1     -12.131  12.974  65.181  1.00  0.00    -0.433 C  
HETATM   29  N   UNL     1     -10.944  12.732  64.323  1.00  0.00    -0.354 NA 
HETATM   30  C   UNL     1     -10.565  11.292  64.341  1.00  0.00    -0.345 C  
HETATM   31  C   UNL     1      -9.789  13.576  64.649  1.00  0.00     0.097 C  
HETATM   32  C   UNL     1      -9.117  10.989  63.740  1.00  0.00    -0.139 C  
HETATM   33  C   UNL     1      -8.236  10.251  64.693  1.00  0.00    -0.161 A  
HETATM   34  C   UNL     1      -6.869  10.129  64.851  1.00  0.00    -0.129 A  
HETATM   35  N   UNL     1      -6.643   9.222  65.859  1.00  0.00    -0.074 NA 
HETATM   36  C   UNL     1      -7.837   8.745  66.354  1.00  0.00    -0.099 A  
HETATM   37  H   UNL     1      -5.721   8.941  66.193  1.00  0.00     0.000 HD 
HETATM   38  C   UNL     1      -8.181   7.832  67.356  1.00  0.00    -0.123 A  
HETATM   39  C   UNL     1      -9.554   7.667  67.622  1.00  0.00    -0.175 A  
HETATM   40  C   UNL     1     -10.524   8.467  67.015  1.00  0.00    -0.362 A  
HETATM   41  C   UNL     1     -10.134   9.444  66.102  1.00  0.00    -0.324 A  
HETATM   42  C   UNL     1      -8.811   9.470  65.702  1.00  0.00    -0.194 A  
HETATM   43  C   UNL     1     -10.957  10.637  65.739  1.00  0.00     0.091 C  
HETATM   44  C   UNL     1     -10.830  11.696  66.891  1.00  0.00    -0.322 C  
ENDBRANCH  26  27
ENDBRANCH  15  23
TORSDOF 2
ENDMDL
MODEL       89
REMARK 921   NORMALIZED FREE ENERGY PREDICTED BY IDOCK:   -2.89 KCAL/MOL
REMARK 922        TOTAL FREE ENERGY PREDICTED BY IDOCK:   -3.63 KCAL/MOL
REMARK 923 INTER-LIGAND FREE ENERGY PREDICTED BY IDOCK:   -4.07 KCAL/MOL
REMARK 924 INTRA-LIGAND FREE ENERGY PREDICTED BY IDOCK:    0.44 KCAL/MOL
REMARK 927      BINDING AFFINITY PREDICTED BY RF-SCORE:    0.00 PKD
ROOT
HETATM    1  C   UNL     1      -8.036  15.964  68.334  1.00  0.00    -0.149 C  
HETATM    2  C   UNL     1      -6.733  16.601  68.806  1.00  0.00    -0.174 C  
HETATM    3  C   UNL     1      -7.125  18.093  69.045  1.00  0.00    -0.244 C  
HETATM    4  C   UNL     1      -8.528  18.284  68.475  1.00  0.00    -0.307 C  
HETATM    5  N   UNL     1      -8.789  17.066  67.750  1.00  0.00    -0.220 N  
HETATM    6  C   UNL     1     -10.031  16.832  67.177  1.00  0.00    -0.274 C  
HETATM    7  O   UNL     1     -10.821  17.722  66.884  1.00  0.00    -0.215 OA 
HETATM    8  C   UNL     1     -10.134  15.385  66.757  1.00  0.00    -0.262 C  
HETATM    9  C   UNL     1     -11.221  15.048  65.744  1.00  0.00    -0.318 C  
HETATM   10  N   UNL     1      -9.719  14.460  68.023  1.00  0.00    -0.215 N  
HETATM   11  C   UNL     1     -12.631  15.083  66.291  1.00  0.00     0.692 C  
HETATM   12  C   UNL     1     -11.075  15.723  64.366  1.00  0.00    -0.174 C  
HETATM   13  C   UNL     1      -9.786  13.078  68.235  1.00  0.00    -0.225 C  
HETATM   14  O   UNL     1      -9.998  12.549  69.318  1.00  0.00     0.278 OA 
HETATM   15  C   UNL     1      -9.380  12.414  66.934  1.00  0.00    -0.213 C  
HETATM   16  H   UNL     1      -7.704  12.776  68.536  1.00  0.00     0.000 HD 
HETATM   17  C   UNL     1     -11.004  12.134  66.600  1.00  0.00    -0.325 C  
HETATM   18  O   UNL     1      -8.393  13.626  66.668  1.00  0.00     0.023 OA 
HETATM   19  O   UNL     1      -7.539  13.672  68.803  1.00  0.00    -0.125 OA 
HETATM   20  C   UNL     1      -8.316  14.434  67.880  1.00  0.00    -0.162 C  
HETATM   21  C   UNL     1     -11.766  11.107  67.492  1.00  0.00    -0.102 C  
HETATM   22  C   UNL     1     -11.475  11.824  65.188  1.00  0.00    -0.248 C  
ENDROOT
BRANCH  15  23
HETATM   23  N   UNL     1      -8.611  11.256  66.535  1.00  0.00    -0.166 N  
HETATM   24  H   UNL     1      -8.296  11.154  65.570  1.00  0.00     0.000 HD 
HETATM   25  O   UNL     1      -8.928  10.140  68.546  1.00  0.00    -0.120 OA 
HETATM   26  C   UNL     1      -8.304  10.276  67.487  1.00  0.00    -0.114 C  
BRANCH  26  27
HETATM   27  C   UNL     1      -7.045   9.445  67.177  1.00  0.00    -0.086 C  
HETATM   28  C   UNL     1      -5.980   9.720  68.262  1.00  0.00    -0.046 C  
HETATM   29  N   UNL     1      -5.890   8.711  69.347  1.00  0.00    -0.034 NA 
HETATM   30  C   UNL     1      -5.378   7.415  68.822  1.00  0.00    -0.022 C  
HETATM   31  C   UNL     1      -7.144   8.513  70.084  1.00  0.00    -0.043 C  
HETATM   32  C   UNL     1      -5.573   6.183  69.819  1.00  0.00    -0.013 C  
HETATM   33  C   UNL     1      -6.319   5.048  69.200  1.00  0.00    -0.031 A  
HETATM   34  C   UNL     1      -7.083   4.008  69.694  1.00  0.00    -0.046 A  
HETATM   35  N   UNL     1      -7.439   3.210  68.634  1.00  0.00    -0.049 NA 
HETATM   36  C   UNL     1      -6.915   3.705  67.460  1.00  0.00    -0.055 A  
HETATM   37  H   UNL     1      -8.011   2.369  68.706  1.00  0.00     0.000 HD 
HETATM   38  C   UNL     1      -6.965   3.300  66.122  1.00  0.00    -0.057 A  
HETATM   39  C   UNL     1      -6.345   4.141  65.179  1.00  0.00    -0.031 A  
HETATM   40  C   UNL     1      -5.821   5.386  65.533  1.00  0.00    -0.021 A  
HETATM   41  C   UNL     1      -5.888   5.805  66.859  1.00  0.00    -0.018 A  
HETATM   42  C   UNL     1      -6.319   4.899  67.809  1.00  0.00    -0.040 A  
HETATM   43  C   UNL     1      -5.806   7.231  67.299  1.00  0.00    -0.030 C  
HETATM   44  C   UNL     1      -7.196   7.913  67.037  1.00  0.00    -0.090 C  
ENDBRANCH  26  27
ENDBRANCH  15  23
TORSDOF 2
ENDMDL
MODEL       90
REMARK 921   NORMALIZED FREE ENERGY PREDICTED BY IDOCK:   -2.72 KCAL/MOL
REMARK 922        TOTAL FREE ENERGY PREDICTED BY IDOCK:   -3.44 KCAL/MOL
REMARK 923 INTER-LIGAND FREE ENERGY PREDICTED BY IDOCK:   -4.71 KCAL/MOL
REMARK 924 INTRA-LIGAND FREE ENERGY PREDICTED BY IDOCK:    1.26 KCAL/MOL
REMARK 927      BINDING AFFINITY PREDICTED BY RF-SCORE:    0.00 PKD
ROOT
HETATM    1  C   UNL     1      -6.602  17.557  69.009  1.00  0.00    -0.243 C  
HETATM    2  C   UNL     1      -5.177  17.974  69.356  1.00  0.00    -0.186 C  
HETATM    3  C   UNL     1      -5.347  19.424  69.907  1.00  0.00    -0.223 C  
HETATM    4  C   UNL     1      -6.786  19.846  69.623  1.00  0.00    -0.302 C  
HETATM    5  N   UNL     1      -7.297  18.813  68.757  1.00  0.00    -0.307 N  
HETATM    6  C   UNL     1      -8.629  18.805  68.370  1.00  0.00    -0.341 C  
HETATM    7  O   UNL     1      -9.342  19.802  68.369  1.00  0.00    -0.349 OA 
HETATM    8  C   UNL     1      -8.966  17.477  67.733  1.00  0.00    -0.245 C  
HETATM    9  C   UNL     1     -10.225  17.436  66.875  1.00  0.00    -0.322 C  
HETATM   10  N   UNL     1      -8.481  16.298  68.735  1.00  0.00    -0.227 N  
HETATM   11  C   UNL     1     -11.523  17.496  67.650  1.00  0.00     0.704 C  
HETATM   12  C   UNL     1     -10.207  18.340  65.628  1.00  0.00     0.056 C  
HETATM   13  C   UNL     1      -8.681  14.912  68.717  1.00  0.00    -0.182 C  
HETATM   14  O   UNL     1      -8.791  14.212  69.715  1.00  0.00     0.703 OA 
HETATM   15  C   UNL     1      -8.556  14.469  67.272  1.00  0.00    -0.215 C  
HETATM   16  H   UNL     1      -6.628  14.371  68.607  1.00  0.00     0.000 HD 
HETATM   17  C   UNL     1     -10.233  14.406  67.174  1.00  0.00    -0.257 C  
HETATM   18  O   UNL     1      -7.482  15.615  67.054  1.00  0.00    -0.216 OA 
HETATM   19  O   UNL     1      -6.320  15.183  68.991  1.00  0.00    -0.095 OA 
HETATM   20  C   UNL     1      -7.128  16.171  68.355  1.00  0.00    -0.130 C  
HETATM   21  C   UNL     1     -10.972  13.304  67.994  1.00  0.00    -0.266 C  
HETATM   22  C   UNL     1     -10.944  14.410  65.830  1.00  0.00    -0.312 C  
ENDROOT
BRANCH  15  23
HETATM   23  N   UNL     1      -8.000  13.341  66.558  1.00  0.00    -0.033 N  
HETATM   24  H   UNL     1      -7.555  13.474  65.651  1.00  0.00     0.000 HD 
HETATM   25  O   UNL     1      -8.889  11.764  68.013  1.00  0.00    -0.151 OA 
HETATM   26  C   UNL     1      -8.079  12.064  67.128  1.00  0.00    -0.177 C  
BRANCH  26  27
HETATM   27  C   UNL     1      -6.996  11.076  66.654  1.00  0.00    -0.140 C  
HETATM   28  C   UNL     1      -6.086  10.716  67.849  1.00  0.00    -0.050 C  
HETATM   29  N   UNL     1      -6.392   9.431  68.527  1.00  0.00    -0.052 NA 
HETATM   30  C   UNL     1      -6.094   8.279  67.633  1.00  0.00    -0.051 C  
HETATM   31  C   UNL     1      -7.761   9.342  69.048  1.00  0.00    -0.075 C  
HETATM   32  C   UNL     1      -6.708   6.890  68.128  1.00  0.00    -0.068 C  
HETATM   33  C   UNL     1      -7.572   6.238  67.101  1.00  0.00    -0.096 A  
HETATM   34  C   UNL     1      -8.612   5.329  67.147  1.00  0.00    -0.105 A  
HETATM   35  N   UNL     1      -8.956   5.021  65.852  1.00  0.00    -0.136 NA 
HETATM   36  C   UNL     1      -8.155   5.706  64.965  1.00  0.00    -0.122 A  
HETATM   37  H   UNL     1      -9.700   4.377  65.586  1.00  0.00     0.000 HD 
HETATM   38  C   UNL     1      -8.075   5.765  63.570  1.00  0.00    -0.106 A  
HETATM   39  C   UNL     1      -7.145   6.670  63.024  1.00  0.00    -0.054 A  
HETATM   40  C   UNL     1      -6.428   7.564  63.823  1.00  0.00    -0.053 A  
HETATM   41  C   UNL     1      -6.616   7.550  65.203  1.00  0.00    -0.044 A  
HETATM   42  C   UNL     1      -7.380   6.535  65.748  1.00  0.00    -0.079 A  
HETATM   43  C   UNL     1      -6.300   8.696  66.109  1.00  0.00    -0.056 C  
HETATM   44  C   UNL     1      -7.450   9.758  65.986  1.00  0.00    -0.102 C  
ENDBRANCH  26  27
ENDBRANCH  15  23
TORSDOF 2
ENDMDL
MODEL       91
REMARK 921   NORMALIZED FREE ENERGY PREDICTED BY IDOCK:   -2.41 KCAL/MOL
REMARK 922        TOTAL FREE ENERGY PREDICTED BY IDOCK:   -3.10 KCAL/MOL
REMARK 923 INTER-LIGAND FREE ENERGY PREDICTED BY IDOCK:   -4.07 KCAL/MOL
REMARK 924 INTRA-LIGAND FREE ENERGY PREDICTED BY IDOCK:    0.97 KCAL/MOL
REMARK 927      BINDING AFFINITY PREDICTED BY RF-SCORE:    0.00 PKD
ROOT
HETATM    1  C   UNL     1     -11.321   9.395  70.278  1.00  0.00    -0.220 C  
HETATM    2  C   UNL     1     -10.687   8.021  70.464  1.00  0.00    -0.231 C  
HETATM    3  C   UNL     1     -11.738   7.249  71.322  1.00  0.00    -0.328 C  
HETATM    4  C   UNL     1     -12.776   8.269  71.782  1.00  0.00    -0.336 C  
HETATM    5  N   UNL     1     -12.208   9.545  71.425  1.00  0.00    -0.346 N  
HETATM    6  C   UNL     1     -12.929  10.718  71.597  1.00  0.00    -0.476 C  
HETATM    7  O   UNL     1     -13.859  10.832  72.387  1.00  0.00     0.058 OA 
HETATM    8  C   UNL     1     -12.240  11.850  70.872  1.00  0.00    -0.249 C  
HETATM    9  C   UNL     1     -12.631  13.262  71.293  1.00  0.00    -0.398 C  
HETATM   10  N   UNL     1     -11.956  11.376  69.347  1.00  0.00    -0.336 N  
HETATM   11  C   UNL     1     -14.009  13.697  70.851  1.00  0.00     0.716 C  
HETATM   12  C   UNL     1     -12.302  13.633  72.752  1.00  0.00     0.454 C  
HETATM   13  C   UNL     1     -11.495  12.068  68.222  1.00  0.00    -0.303 C  
HETATM   14  O   UNL     1     -11.834  11.830  67.070  1.00  0.00    -0.599 OA 
HETATM   15  C   UNL     1     -10.404  13.007  68.700  1.00  0.00    -0.191 C  
HETATM   16  H   UNL     1      -9.750  10.895  67.912  1.00  0.00     0.000 HD 
HETATM   17  C   UNL     1     -11.507  14.274  68.650  1.00  0.00    -0.328 C  
HETATM   18  O   UNL     1     -10.012  11.929  69.796  1.00  0.00     0.836 OA 
HETATM   19  O   UNL     1     -10.095  10.133  68.362  1.00  0.00    -0.155 OA 
HETATM   20  C   UNL     1     -10.731  10.694  69.509  1.00  0.00    -0.251 C  
HETATM   21  C   UNL     1     -12.019  14.741  67.253  1.00  0.00    -0.236 C  
HETATM   22  C   UNL     1     -11.255  15.568  69.406  1.00  0.00    -0.302 C  
ENDROOT
BRANCH  15  23
HETATM   23  N   UNL     1      -9.126  13.476  68.212  1.00  0.00    -0.195 N  
HETATM   24  H   UNL     1      -9.075  14.052  67.372  1.00  0.00     0.000 HD 
HETATM   25  O   UNL     1      -7.892  12.175  69.688  1.00  0.00     0.651 OA 
HETATM   26  C   UNL     1      -7.959  13.130  68.905  1.00  0.00     0.159 C  
BRANCH  26  27
HETATM   27  C   UNL     1      -6.781  14.105  68.715  1.00  0.00    -0.098 C  
HETATM   28  C   UNL     1      -6.439  14.193  67.211  1.00  0.00     0.360 C  
HETATM   29  N   UNL     1      -7.001  15.363  66.490  1.00  0.00     0.433 NA 
HETATM   30  C   UNL     1      -6.370  16.626  66.962  1.00  0.00    -0.187 C  
HETATM   31  C   UNL     1      -8.463  15.459  66.555  1.00  0.00    -0.213 C  
HETATM   32  C   UNL     1      -7.138  17.951  66.509  1.00  0.00    -0.270 C  
HETATM   33  C   UNL     1      -7.512  18.827  67.658  1.00  0.00    -0.244 A  
HETATM   34  C   UNL     1      -8.485  19.786  67.867  1.00  0.00    -0.307 A  
HETATM   35  N   UNL     1      -8.273  20.332  69.111  1.00  0.00     0.395 NA 
HETATM   36  C   UNL     1      -7.177  19.752  69.712  1.00  0.00    -0.001 A  
HETATM   37  H   UNL     1      -8.847  21.063  69.531  1.00  0.00     0.000 HD 
HETATM   38  C   UNL     1      -6.535  19.924  70.942  1.00  0.00    -0.039 A  
HETATM   39  C   UNL     1      -5.459  19.061  71.225  1.00  0.00    -0.228 A  
HETATM   40  C   UNL     1      -5.126  17.997  70.384  1.00  0.00    -0.248 A  
HETATM   41  C   UNL     1      -5.860  17.790  69.218  1.00  0.00    -0.221 A  
HETATM   42  C   UNL     1      -6.784  18.750  68.850  1.00  0.00    -0.303 A  
HETATM   43  C   UNL     1      -5.935  16.488  68.488  1.00  0.00    -0.127 C  
HETATM   44  C   UNL     1      -6.930  15.546  69.255  1.00  0.00    -0.171 C  
ENDBRANCH  26  27
ENDBRANCH  15  23
TORSDOF 2
ENDMDL
MODEL       92
REMARK 921   NORMALIZED FREE ENERGY PREDICTED BY IDOCK:   -2.23 KCAL/MOL
REMARK 922        TOTAL FREE ENERGY PREDICTED BY IDOCK:   -2.89 KCAL/MOL
REMARK 923 INTER-LIGAND FREE ENERGY PREDICTED BY IDOCK:   -4.23 KCAL/MOL
REMARK 924 INTRA-LIGAND FREE ENERGY PREDICTED BY IDOCK:    1.34 KCAL/MOL
REMARK 927      BINDING AFFINITY PREDICTED BY RF-SCORE:    0.00 PKD
ROOT
HETATM    1  C   UNL     1      -7.464  16.986  66.757  1.00  0.00    -0.231 C  
HETATM    2  C   UNL     1      -6.161  17.754  66.560  1.00  0.00    -0.226 C  
HETATM    3  C   UNL     1      -6.620  19.246  66.538  1.00  0.00    -0.198 C  
HETATM    4  C   UNL     1      -8.145  19.245  66.474  1.00  0.00    -0.299 C  
HETATM    5  N   UNL     1      -8.492  17.870  66.221  1.00  0.00    -0.223 N  
HETATM    6  C   UNL     1      -9.818  17.462  66.204  1.00  0.00    -0.245 C  
HETATM    7  O   UNL     1     -10.758  18.221  65.996  1.00  0.00    -0.355 OA 
HETATM    8  C   UNL     1      -9.888  15.954  66.225  1.00  0.00    -0.302 C  
HETATM    9  C   UNL     1     -11.206  15.329  65.784  1.00  0.00    -0.247 C  
HETATM   10  N   UNL     1      -8.968  15.422  67.451  1.00  0.00    -0.186 N  
HETATM   11  C   UNL     1     -12.344  15.486  66.767  1.00  0.00     1.200 C  
HETATM   12  C   UNL     1     -11.610  15.600  64.321  1.00  0.00    -0.191 C  
HETATM   13  C   UNL     1      -8.800  14.151  68.014  1.00  0.00    -0.182 C  
HETATM   14  O   UNL     1      -8.574  13.938  69.198  1.00  0.00     0.131 OA 
HETATM   15  C   UNL     1      -8.781  13.162  66.865  1.00  0.00    -0.148 C  
HETATM   16  H   UNL     1      -6.718  13.985  67.623  1.00  0.00     0.000 HD 
HETATM   17  C   UNL     1     -10.379  12.769  67.210  1.00  0.00    -0.235 C  
HETATM   18  O   UNL     1      -8.087  14.273  65.971  1.00  0.00     1.227 OA 
HETATM   19  O   UNL     1      -6.578  14.923  67.580  1.00  0.00    -0.198 OA 
HETATM   20  C   UNL     1      -7.702  15.385  66.831  1.00  0.00    -0.124 C  
HETATM   21  C   UNL     1     -10.673  12.013  68.542  1.00  0.00    -0.261 C  
HETATM   22  C   UNL     1     -11.257  12.073  66.184  1.00  0.00    -0.394 C  
ENDROOT
BRANCH  15  23
HETATM   23  N   UNL     1      -8.062  11.954  66.524  1.00  0.00    -0.373 N  
HETATM   24  H   UNL     1      -7.201  11.712  67.013  1.00  0.00     0.000 HD 
HETATM   25  O   UNL     1      -9.365  11.502  64.656  1.00  0.00    -0.151 OA 
HETATM   26  C   UNL     1      -8.563  11.120  65.516  1.00  0.00    -0.045 C  
BRANCH  26  27
HETATM   27  C   UNL     1      -8.132   9.645  65.623  1.00  0.00    -0.117 C  
HETATM   28  C   UNL     1      -6.593   9.577  65.736  1.00  0.00    -0.075 C  
HETATM   29  N   UNL     1      -6.054   9.417  67.111  1.00  0.00    -0.062 NA 
HETATM   30  C   UNL     1      -6.402   8.078  67.660  1.00  0.00    -0.052 C  
HETATM   31  C   UNL     1      -6.459  10.480  68.038  1.00  0.00    -0.059 C  
HETATM   32  C   UNL     1      -6.176   7.939  69.235  1.00  0.00    -0.035 C  
HETATM   33  C   UNL     1      -7.404   7.500  69.961  1.00  0.00    -0.081 A  
HETATM   34  C   UNL     1      -7.860   7.631  71.259  1.00  0.00    -0.090 A  
HETATM   35  N   UNL     1      -9.035   6.926  71.363  1.00  0.00    -0.141 NA 
HETATM   36  C   UNL     1      -9.349   6.332  70.160  1.00  0.00    -0.156 A  
HETATM   37  H   UNL     1      -9.596   6.853  72.211  1.00  0.00     0.000 HD 
HETATM   38  C   UNL     1     -10.401   5.525  69.717  1.00  0.00    -0.366 A  
HETATM   39  C   UNL     1     -10.403   5.173  68.354  1.00  0.00    -0.140 A  
HETATM   40  C   UNL     1      -9.479   5.707  67.453  1.00  0.00    -0.116 A  
HETATM   41  C   UNL     1      -8.510   6.596  67.912  1.00  0.00    -0.119 A  
HETATM   42  C   UNL     1      -8.392   6.785  69.276  1.00  0.00    -0.125 A  
HETATM   43  C   UNL     1      -7.781   7.572  67.046  1.00  0.00    -0.111 C  
HETATM   44  C   UNL     1      -8.731   8.789  66.763  1.00  0.00    -0.134 C  
ENDBRANCH  26  27
ENDBRANCH  15  23
TORSDOF 2
ENDMDL
MODEL       93
REMARK 921   NORMALIZED FREE ENERGY PREDICTED BY IDOCK:   -2.22 KCAL/MOL
REMARK 922        TOTAL FREE ENERGY PREDICTED BY IDOCK:   -2.89 KCAL/MOL
REMARK 923 INTER-LIGAND FREE ENERGY PREDICTED BY IDOCK:   -2.92 KCAL/MOL
REMARK 924 INTRA-LIGAND FREE ENERGY PREDICTED BY IDOCK:    0.04 KCAL/MOL
REMARK 927      BINDING AFFINITY PREDICTED BY RF-SCORE:    0.00 PKD
ROOT
HETATM    1  C   UNL     1      -9.960   5.048  65.743  1.00  0.00    -0.123 C  
HETATM    2  C   UNL     1     -11.147   4.565  64.916  1.00  0.00     0.108 C  
HETATM    3  C   UNL     1     -10.575   3.335  64.144  1.00  0.00    -0.109 C  
HETATM    4  C   UNL     1      -9.065   3.327  64.370  1.00  0.00    -0.128 C  
HETATM    5  N   UNL     1      -8.791   4.594  65.001  1.00  0.00    -0.145 N  
HETATM    6  C   UNL     1      -7.517   4.900  65.458  1.00  0.00    -0.081 C  
HETATM    7  O   UNL     1      -6.499   4.365  65.035  1.00  0.00    -0.034 OA 
HETATM    8  C   UNL     1      -7.572   6.129  66.335  1.00  0.00    -0.094 C  
HETATM    9  C   UNL     1      -6.252   6.854  66.569  1.00  0.00    -0.045 C  
HETATM   10  N   UNL     1      -8.722   5.899  67.455  1.00  0.00    -0.106 N  
HETATM   11  C   UNL     1      -5.285   6.135  67.481  1.00  0.00    -0.005 C  
HETATM   12  C   UNL     1      -5.591   7.448  65.310  1.00  0.00    -0.033 C  
HETATM   13  C   UNL     1      -9.081   6.632  68.593  1.00  0.00    -0.126 C  
HETATM   14  O   UNL     1      -9.518   6.144  69.627  1.00  0.00    -0.144 OA 
HETATM   15  C   UNL     1      -8.988   8.098  68.217  1.00  0.00    -0.136 C  
HETATM   16  H   UNL     1     -11.077   7.051  67.992  1.00  0.00     0.000 HD 
HETATM   17  C   UNL     1      -7.506   8.179  69.007  1.00  0.00    -0.088 C  
HETATM   18  O   UNL     1      -9.433   7.709  66.745  1.00  0.00    -0.169 OA 
HETATM   19  O   UNL     1     -11.132   6.307  67.404  1.00  0.00    -0.350 OA 
HETATM   20  C   UNL     1      -9.867   6.318  66.746  1.00  0.00    -0.164 C  
HETATM   21  C   UNL     1      -7.498   8.039  70.560  1.00  0.00    -0.071 C  
HETATM   22  C   UNL     1      -6.527   9.309  68.730  1.00  0.00    -0.048 C  
ENDROOT
BRANCH  15  23
HETATM   23  N   UNL     1      -9.733   9.307  68.490  1.00  0.00    -0.148 N  
HETATM   24  H   UNL     1      -9.484  10.182  68.028  1.00  0.00     0.000 HD 
HETATM   25  O   UNL     1     -10.938   8.373  70.241  1.00  0.00    -0.240 OA 
HETATM   26  C   UNL     1     -10.802   9.264  69.394  1.00  0.00    -0.169 C  
BRANCH  26  27
HETATM   27  C   UNL     1     -11.873  10.351  69.183  1.00  0.00    -0.135 C  
HETATM   28  C   UNL     1     -13.172   9.924  69.902  1.00  0.00     1.014 C  
HETATM   29  N   UNL     1     -13.397  10.528  71.239  1.00  0.00    -0.280 NA 
HETATM   30  C   UNL     1     -13.649  11.991  71.121  1.00  0.00     0.894 C  
HETATM   31  C   UNL     1     -12.322  10.264  72.203  1.00  0.00     0.210 C  
HETATM   32  C   UNL     1     -13.556  12.784  72.504  1.00  0.00    -0.378 C  
HETATM   33  C   UNL     1     -12.583  13.915  72.460  1.00  0.00    -0.168 A  
HETATM   34  C   UNL     1     -11.846  14.595  73.411  1.00  0.00     0.060 A  
HETATM   35  N   UNL     1     -11.188  15.621  72.776  1.00  0.00     0.009 NA 
HETATM   36  C   UNL     1     -11.489  15.627  71.431  1.00  0.00    -0.421 A  
HETATM   37  H   UNL     1     -10.565  16.285  73.235  1.00  0.00     0.000 HD 
HETATM   38  C   UNL     1     -11.107  16.428  70.350  1.00  0.00    -0.246 A  
HETATM   39  C   UNL     1     -11.585  16.053  69.080  1.00  0.00    -0.337 A  
HETATM   40  C   UNL     1     -12.295  14.867  68.880  1.00  0.00    -0.032 A  
HETATM   41  C   UNL     1     -12.563  14.038  69.966  1.00  0.00    -0.250 A  
HETATM   42  C   UNL     1     -12.263  14.503  71.232  1.00  0.00    -0.421 A  
HETATM   43  C   UNL     1     -12.881  12.581  69.857  1.00  0.00     0.599 C  
HETATM   44  C   UNL     1     -11.542  11.797  69.617  1.00  0.00    -0.393 C  
ENDBRANCH  26  27
ENDBRANCH  15  23
TORSDOF 2
ENDMDL
MODEL       94
REMARK 921   NORMALIZED FREE ENERGY PREDICTED BY IDOCK:   -1.76 KCAL/MOL
REMARK 922        TOTAL FREE ENERGY PREDICTED BY IDOCK:   -2.37 KCAL/MOL
REMARK 923 INTER-LIGAND FREE ENERGY PREDICTED BY IDOCK:   -2.31 KCAL/MOL
REMARK 924 INTRA-LIGAND FREE ENERGY PREDICTED BY IDOCK:   -0.05 KCAL/MOL
REMARK 927      BINDING AFFINITY PREDICTED BY RF-SCORE:    0.00 PKD
ROOT
HETATM    1  C   UNL     1      -7.302  15.036  68.232  1.00  0.00    -0.111 C  
HETATM    2  C   UNL     1      -5.804  14.929  68.501  1.00  0.00    -0.097 C  
HETATM    3  C   UNL     1      -5.537  16.075  69.526  1.00  0.00    -0.127 C  
HETATM    4  C   UNL     1      -6.808  16.916  69.599  1.00  0.00    -0.014 C  
HETATM    5  N   UNL     1      -7.623  16.429  68.514  1.00  0.00    -0.177 N  
HETATM    6  C   UNL     1      -8.918  16.894  68.333  1.00  0.00    -0.244 C  
HETATM    7  O   UNL     1      -9.319  17.968  68.766  1.00  0.00    -0.297 OA 
HETATM    8  C   UNL     1      -9.640  16.016  67.339  1.00  0.00    -0.225 C  
HETATM    9  C   UNL     1     -10.891  16.603  66.699  1.00  0.00    -0.024 C  
HETATM   10  N   UNL     1      -9.468  14.473  67.809  1.00  0.00    -0.207 N  
HETATM   11  C   UNL     1     -12.088  16.701  67.617  1.00  0.00     1.419 C  
HETATM   12  C   UNL     1     -10.667  17.862  65.838  1.00  0.00    -0.116 C  
HETATM   13  C   UNL     1     -10.052  13.285  67.354  1.00  0.00    -0.233 C  
HETATM   14  O   UNL     1     -10.316  12.322  68.062  1.00  0.00    -0.202 OA 
HETATM   15  C   UNL     1     -10.113  13.378  65.842  1.00  0.00    -0.293 C  
HETATM   16  H   UNL     1      -8.241  12.325  66.789  1.00  0.00     0.000 HD 
HETATM   17  C   UNL     1     -11.742  13.775  65.958  1.00  0.00    -0.383 C  
HETATM   18  O   UNL     1      -8.768  14.217  65.877  1.00  0.00     0.433 OA 
HETATM   19  O   UNL     1      -7.701  12.839  67.378  1.00  0.00    -0.160 OA 
HETATM   20  C   UNL     1      -8.222  14.159  67.228  1.00  0.00    -0.181 C  
HETATM   21  C   UNL     1     -12.729  12.673  66.452  1.00  0.00     0.954 C  
HETATM   22  C   UNL     1     -12.475  14.441  64.804  1.00  0.00    -0.371 C  
ENDROOT
BRANCH  15  23
HETATM   23  N   UNL     1      -9.926  12.483  64.721  1.00  0.00    -0.468 N  
HETATM   24  H   UNL     1      -9.790  12.855  63.781  1.00  0.00     0.000 HD 
HETATM   25  O   UNL     1     -10.434  10.574  65.940  1.00  0.00    -0.228 OA 
HETATM   26  C   UNL     1      -9.933  11.100  64.940  1.00  0.00    -0.278 C  
BRANCH  26  27
HETATM   27  C   UNL     1      -9.158  10.275  63.894  1.00  0.00    -0.284 C  
HETATM   28  C   UNL     1      -7.772  10.920  63.670  1.00  0.00     0.407 C  
HETATM   29  N   UNL     1      -6.645  10.297  64.407  1.00  0.00    -0.110 NA 
HETATM   30  C   UNL     1      -6.368   8.929  63.889  1.00  0.00    -0.086 C  
HETATM   31  C   UNL     1      -6.824  10.273  65.864  1.00  0.00    -0.125 C  
HETATM   32  C   UNL     1      -5.421   8.052  64.830  1.00  0.00    -0.040 C  
HETATM   33  C   UNL     1      -6.035   6.748  65.216  1.00  0.00    -0.035 A  
HETATM   34  C   UNL     1      -5.864   5.873  66.273  1.00  0.00    -0.017 A  
HETATM   35  N   UNL     1      -6.653   4.772  66.036  1.00  0.00    -0.044 NA 
HETATM   36  C   UNL     1      -7.327   4.910  64.842  1.00  0.00    -0.068 A  
HETATM   37  H   UNL     1      -6.728   3.966  66.656  1.00  0.00     0.000 HD 
HETATM   38  C   UNL     1      -8.236   4.113  64.139  1.00  0.00    -0.093 A  
HETATM   39  C   UNL     1      -8.775   4.655  62.956  1.00  0.00    -0.121 A  
HETATM   40  C   UNL     1      -8.524   5.973  62.568  1.00  0.00     0.007 A  
HETATM   41  C   UNL     1      -7.699   6.773  63.354  1.00  0.00    -0.106 A  
HETATM   42  C   UNL     1      -7.022   6.180  64.402  1.00  0.00    -0.051 A  
HETATM   43  C   UNL     1      -7.707   8.268  63.336  1.00  0.00    -0.142 C  
HETATM   44  C   UNL     1      -8.944   8.768  64.163  1.00  0.00     0.226 C  
ENDBRANCH  26  27
ENDBRANCH  15  23
TORSDOF 2
ENDMDL
MODEL       95
REMARK 921   NORMALIZED FREE ENERGY PREDICTED BY IDOCK:   -1.75 KCAL/MOL
REMARK 922        TOTAL FREE ENERGY PREDICTED BY IDOCK:   -2.35 KCAL/MOL
REMARK 923 INTER-LIGAND FREE ENERGY PREDICTED BY IDOCK:   -3.03 KCAL/MOL
REMARK 924 INTRA-LIGAND FREE ENERGY PREDICTED BY IDOCK:    0.68 KCAL/MOL
REMARK 927      BINDING AFFINITY PREDICTED BY RF-SCORE:    0.00 PKD
ROOT
HETATM    1  C   UNL     1     -10.204   7.443  69.066  1.00  0.00    -0.199 C  
HETATM    2  C   UNL     1     -11.524   7.285  69.814  1.00  0.00    -0.026 C  
HETATM    3  C   UNL     1     -11.704   5.738  69.910  1.00  0.00     0.839 C  
HETATM    4  C   UNL     1     -10.637   5.107  69.018  1.00  0.00     0.009 C  
HETATM    5  N   UNL     1     -10.079   6.217  68.288  1.00  0.00    -0.142 N  
HETATM    6  C   UNL     1      -8.992   6.039  67.444  1.00  0.00    -0.108 C  
HETATM    7  O   UNL     1      -8.690   4.960  66.946  1.00  0.00    -0.109 OA 
HETATM    8  C   UNL     1      -8.424   7.383  67.053  1.00  0.00    -0.118 C  
HETATM    9  C   UNL     1      -7.527   7.408  65.822  1.00  0.00    -0.080 C  
HETATM   10  N   UNL     1      -8.174   8.239  68.408  1.00  0.00    -0.130 N  
HETATM   11  C   UNL     1      -6.162   6.787  66.018  1.00  0.00    -0.038 C  
HETATM   12  C   UNL     1      -8.206   7.004  64.499  1.00  0.00     0.001 C  
HETATM   13  C   UNL     1      -7.531   9.461  68.638  1.00  0.00    -0.079 C  
HETATM   14  O   UNL     1      -6.910   9.741  69.656  1.00  0.00    -0.058 OA 
HETATM   15  C   UNL     1      -7.907  10.378  67.490  1.00  0.00    -0.106 C  
HETATM   16  H   UNL     1      -9.220  10.478  69.433  1.00  0.00     0.000 HD 
HETATM   17  C   UNL     1      -6.411  10.071  66.789  1.00  0.00    -0.069 C  
HETATM   18  O   UNL     1      -9.320   9.660  67.431  1.00  0.00    -0.133 OA 
HETATM   19  O   UNL     1      -9.661   9.682  69.705  1.00  0.00    -0.195 OA 
HETATM   20  C   UNL     1      -9.452   8.802  68.602  1.00  0.00    -0.141 C  
HETATM   21  C   UNL     1      -5.141  10.628  67.504  1.00  0.00    -0.036 C  
HETATM   22  C   UNL     1      -6.160  10.348  65.316  1.00  0.00    -0.130 C  
ENDROOT
BRANCH  15  23
HETATM   23  N   UNL     1      -8.230  11.777  67.319  1.00  0.00    -0.155 N  
HETATM   24  H   UNL     1      -7.506  12.489  67.420  1.00  0.00     0.000 HD 
HETATM   25  O   UNL     1     -10.521  11.413  67.222  1.00  0.00    -0.192 OA 
HETATM   26  C   UNL     1      -9.546  12.144  67.011  1.00  0.00    -0.205 C  
BRANCH  26  27
HETATM   27  C   UNL     1      -9.687  13.490  66.275  1.00  0.00    -0.287 C  
HETATM   28  C   UNL     1     -11.187  13.826  66.123  1.00  0.00    -0.300 C  
HETATM   29  N   UNL     1     -11.740  14.773  67.124  1.00  0.00    -0.365 NA 
HETATM   30  C   UNL     1     -11.163  16.132  66.938  1.00  0.00     0.128 C  
HETATM   31  C   UNL     1     -11.587  14.329  68.514  1.00  0.00    -0.320 C  
HETATM   32  C   UNL     1     -11.421  17.125  68.162  1.00  0.00     0.396 C  
HETATM   33  C   UNL     1     -10.162  17.705  68.715  1.00  0.00    -0.373 A  
HETATM   34  C   UNL     1      -9.794  18.227  69.940  1.00  0.00     0.890 A  
HETATM   35  N   UNL     1      -8.509  18.703  69.823  1.00  0.00     0.826 NA 
HETATM   36  C   UNL     1      -8.038  18.507  68.543  1.00  0.00    -0.330 A  
HETATM   37  H   UNL     1      -7.980  19.139  70.577  1.00  0.00     0.000 HD 
HETATM   38  C   UNL     1      -6.832  18.791  67.895  1.00  0.00    -0.226 A  
HETATM   39  C   UNL     1      -6.707  18.353  66.563  1.00  0.00    -0.234 A  
HETATM   40  C   UNL     1      -7.679  17.557  65.954  1.00  0.00    -0.119 A  
HETATM   41  C   UNL     1      -8.820  17.201  66.670  1.00  0.00    -0.279 A  
HETATM   42  C   UNL     1      -9.027  17.792  67.902  1.00  0.00    -0.255 A  
HETATM   43  C   UNL     1      -9.687  16.028  66.347  1.00  0.00    -0.307 C  
HETATM   44  C   UNL     1      -8.981  14.728  66.873  1.00  0.00    -0.276 C  
ENDBRANCH  26  27
ENDBRANCH  15  23
TORSDOF 2
ENDMDL
MODEL       96
REMARK 921   NORMALIZED FREE ENERGY PREDICTED BY IDOCK:   -1.11 KCAL/MOL
REMARK 922        TOTAL FREE ENERGY PREDICTED BY IDOCK:   -1.64 KCAL/MOL
REMARK 923 INTER-LIGAND FREE ENERGY PREDICTED BY IDOCK:   -2.08 KCAL/MOL
REMARK 924 INTRA-LIGAND FREE ENERGY PREDICTED BY IDOCK:    0.44 KCAL/MOL
REMARK 927      BINDING AFFINITY PREDICTED BY RF-SCORE:    0.00 PKD
ROOT
HETATM    1  C   UNL     1     -11.011  14.256  69.736  1.00  0.00    -0.069 C  
HETATM    2  C   UNL     1     -10.690  14.420  71.218  1.00  0.00     1.486 C  
HETATM    3  C   UNL     1     -11.503  15.687  71.628  1.00  0.00    -0.506 C  
HETATM    4  C   UNL     1     -12.034  16.314  70.342  1.00  0.00     0.092 C  
HETATM    5  N   UNL     1     -11.357  15.600  69.289  1.00  0.00    -0.319 N  
HETATM    6  C   UNL     1     -11.672  15.829  67.957  1.00  0.00    -0.110 C  
HETATM    7  O   UNL     1     -12.196  16.860  67.552  1.00  0.00     1.423 OA 
HETATM    8  C   UNL     1     -11.053  14.754  67.095  1.00  0.00    -0.333 C  
HETATM    9  C   UNL     1     -10.925  15.066  65.610  1.00  0.00    -0.357 C  
HETATM   10  N   UNL     1     -11.464  13.311  67.714  1.00  0.00    -0.298 N  
HETATM   11  C   UNL     1     -12.228  15.056  64.844  1.00  0.00    -0.149 C  
HETATM   12  C   UNL     1     -10.010  16.256  65.259  1.00  0.00     0.058 C  
HETATM   13  C   UNL     1     -11.298  12.006  67.236  1.00  0.00    -0.330 C  
HETATM   14  O   UNL     1     -12.080  11.086  67.438  1.00  0.00    -0.231 OA 
HETATM   15  C   UNL     1      -9.922  11.942  66.601  1.00  0.00    -0.199 C  
HETATM   16  H   UNL     1     -10.110  11.303  68.852  1.00  0.00     0.000 HD 
HETATM   17  C   UNL     1     -10.642  12.079  65.088  1.00  0.00    -0.330 C  
HETATM   18  O   UNL     1      -9.419  12.989  67.681  1.00  0.00    -0.189 OA 
HETATM   19  O   UNL     1     -10.433  11.952  69.466  1.00  0.00     0.090 OA 
HETATM   20  C   UNL     1     -10.459  13.149  68.690  1.00  0.00    -0.227 C  
HETATM   21  C   UNL     1     -11.505  10.884  64.579  1.00  0.00     0.694 C  
HETATM   22  C   UNL     1      -9.838  12.504  63.870  1.00  0.00    -0.067 C  
ENDROOT
BRANCH  15  23
HETATM   23  N   UNL     1      -8.839  10.987  66.523  1.00  0.00    -0.163 N  
HETATM   24  H   UNL     1      -7.883  11.303  66.363  1.00  0.00     0.000 HD 
HETATM   25  O   UNL     1     -10.244   9.138  66.505  1.00  0.00    -0.278 OA 
HETATM   26  C   UNL     1      -9.118   9.622  66.669  1.00  0.00    -0.148 C  
BRANCH  26  27
HETATM   27  C   UNL     1      -7.936   8.770  67.168  1.00  0.00    -0.096 C  
HETATM   28  C   UNL     1      -7.865   8.862  68.709  1.00  0.00    -0.101 C  
HETATM   29  N   UNL     1      -8.474   7.729  69.451  1.00  0.00    -0.133 NA 
HETATM   30  C   UNL     1      -7.691   6.481  69.241  1.00  0.00    -0.101 C  
HETATM   31  C   UNL     1      -9.892   7.510  69.146  1.00  0.00    -0.170 C  
HETATM   32  C   UNL     1      -8.446   5.151  69.703  1.00  0.00    -0.093 C  
HETATM   33  C   UNL     1      -8.552   4.136  68.614  1.00  0.00    -0.114 A  
HETATM   34  C   UNL     1      -9.410   3.085  68.351  1.00  0.00    -0.187 A  
HETATM   35  N   UNL     1      -8.945   2.435  67.232  1.00  0.00    -0.140 NA 
HETATM   36  C   UNL     1      -7.796   3.038  66.767  1.00  0.00    -0.076 A  
HETATM   37  H   UNL     1      -9.388   1.622  66.806  1.00  0.00     0.000 HD 
HETATM   38  C   UNL     1      -6.935   2.795  65.693  1.00  0.00    -0.052 A  
HETATM   39  C   UNL     1      -5.881   3.708  65.504  1.00  0.00    -0.022 A  
HETATM   40  C   UNL     1      -5.771   4.876  66.263  1.00  0.00    -0.018 A  
HETATM   41  C   UNL     1      -6.714   5.139  67.254  1.00  0.00    -0.055 A  
HETATM   42  C   UNL     1      -7.628   4.151  67.564  1.00  0.00    -0.069 A  
HETATM   43  C   UNL     1      -6.999   6.498  67.807  1.00  0.00    -0.082 C  
HETATM   44  C   UNL     1      -7.896   7.274  66.779  1.00  0.00    -0.113 C  
ENDBRANCH  26  27
ENDBRANCH  15  23
TORSDOF 2
ENDMDL
MODEL       97
REMARK 921   NORMALIZED FREE ENERGY PREDICTED BY IDOCK:   -1.03 KCAL/MOL
REMARK 922        TOTAL FREE ENERGY PREDICTED BY IDOCK:   -1.55 KCAL/MOL
REMARK 923 INTER-LIGAND FREE ENERGY PREDICTED BY IDOCK:   -2.24 KCAL/MOL
REMARK 924 INTRA-LIGAND FREE ENERGY PREDICTED BY IDOCK:    0.68 KCAL/MOL
REMARK 927      BINDING AFFINITY PREDICTED BY RF-SCORE:    0.00 PKD
ROOT
HETATM    1  C   UNL     1      -9.187   7.036  66.275  1.00  0.00    -0.126 C  
HETATM    2  C   UNL     1      -8.400   6.679  65.018  1.00  0.00    -0.067 C  
HETATM    3  C   UNL     1      -8.970   5.282  64.618  1.00  0.00     0.018 C  
HETATM    4  C   UNL     1      -9.850   4.810  65.772  1.00  0.00    -0.199 C  
HETATM    5  N   UNL     1      -9.584   5.750  66.832  1.00  0.00    -0.134 N  
HETATM    6  C   UNL     1     -10.296   5.699  68.023  1.00  0.00    -0.202 C  
HETATM    7  O   UNL     1     -10.866   4.693  68.430  1.00  0.00     0.575 OA 
HETATM    8  C   UNL     1     -10.044   6.957  68.821  1.00  0.00    -0.166 C  
HETATM    9  C   UNL     1     -10.381   6.896  70.306  1.00  0.00    -0.218 C  
HETATM   10  N   UNL     1     -10.312   8.231  67.854  1.00  0.00    -0.219 N  
HETATM   11  C   UNL     1     -11.859   6.884  70.621  1.00  0.00    -0.418 C  
HETATM   12  C   UNL     1      -9.563   5.883  71.130  1.00  0.00    -0.198 C  
HETATM   13  C   UNL     1     -10.379   9.605  68.113  1.00  0.00    -0.209 C  
HETATM   14  O   UNL     1     -11.103  10.392  67.517  1.00  0.00    -0.313 OA 
HETATM   15  C   UNL     1      -9.284   9.917  69.114  1.00  0.00    -0.180 C  
HETATM   16  H   UNL     1      -8.776  10.171  66.837  1.00  0.00     0.000 HD 
HETATM   17  C   UNL     1     -10.441   9.940  70.333  1.00  0.00    -0.347 C  
HETATM   18  O   UNL     1      -8.406   8.775  68.450  1.00  0.00    -0.123 OA 
HETATM   19  O   UNL     1      -8.851   9.404  66.283  1.00  0.00    -0.138 OA 
HETATM   20  C   UNL     1      -9.058   8.347  67.219  1.00  0.00    -0.137 C  
HETATM   21  C   UNL     1     -11.484  11.100  70.327  1.00  0.00    -0.329 C  
HETATM   22  C   UNL     1     -10.047   9.801  71.795  1.00  0.00     1.146 C  
ENDROOT
BRANCH  15  23
HETATM   23  N   UNL     1      -8.336  10.985  69.344  1.00  0.00    -0.381 N  
HETATM   24  H   UNL     1      -7.458  10.800  69.829  1.00  0.00     0.000 HD 
HETATM   25  O   UNL     1      -9.785  12.654  68.631  1.00  0.00    -0.160 OA 
HETATM   26  C   UNL     1      -8.636  12.276  68.892  1.00  0.00     0.260 C  
BRANCH  26  27
HETATM   27  C   UNL     1      -7.410  13.169  68.624  1.00  0.00    -0.102 C  
HETATM   28  C   UNL     1      -7.116  13.181  67.108  1.00  0.00     0.123 C  
HETATM   29  N   UNL     1      -7.633  14.355  66.360  1.00  0.00     1.071 NA 
HETATM   30  C   UNL     1      -6.912  15.594  66.761  1.00  0.00     0.317 C  
HETATM   31  C   UNL     1      -9.085  14.541  66.470  1.00  0.00    -0.219 C  
HETATM   32  C   UNL     1      -7.616  16.945  66.281  1.00  0.00    -0.312 C  
HETATM   33  C   UNL     1      -7.896  17.884  67.407  1.00  0.00    -0.217 A  
HETATM   34  C   UNL     1      -8.802  18.908  67.610  1.00  0.00    -0.288 A  
HETATM   35  N   UNL     1      -8.514  19.486  68.824  1.00  0.00    -0.343 NA 
HETATM   36  C   UNL     1      -7.434  18.863  69.410  1.00  0.00    -0.008 A  
HETATM   37  H   UNL     1      -9.029  20.265  69.233  1.00  0.00     0.000 HD 
HETATM   38  C   UNL     1      -6.740  19.042  70.611  1.00  0.00     0.781 A  
HETATM   39  C   UNL     1      -5.708  18.127  70.891  1.00  0.00     0.116 A  
HETATM   40  C   UNL     1      -5.469  17.014  70.083  1.00  0.00    -0.223 A  
HETATM   41  C   UNL     1      -6.255  16.808  68.951  1.00  0.00    -0.162 A  
HETATM   42  C   UNL     1      -7.132  17.808  68.576  1.00  0.00    -0.245 A  
HETATM   43  C   UNL     1      -6.433  15.487  68.276  1.00  0.00    -0.122 C  
HETATM   44  C   UNL     1      -7.454  14.636  69.111  1.00  0.00    -0.139 C  
ENDBRANCH  26  27
ENDBRANCH  15  23
TORSDOF 2
ENDMDL
MODEL       98
REMARK 921   NORMALIZED FREE ENERGY PREDICTED BY IDOCK:   -0.55 KCAL/MOL
REMARK 922        TOTAL FREE ENERGY PREDICTED BY IDOCK:   -1.01 KCAL/MOL
REMARK 923 INTER-LIGAND FREE ENERGY PREDICTED BY IDOCK:   -2.86 KCAL/MOL
REMARK 924 INTRA-LIGAND FREE ENERGY PREDICTED BY IDOCK:    1.85 KCAL/MOL
REMARK 927      BINDING AFFINITY PREDICTED BY RF-SCORE:    0.00 PKD
ROOT
HETATM    1  C   UNL     1      -7.204  19.502  70.033  1.00  0.00     0.225 C  
HETATM    2  C   UNL     1      -6.794  19.586  71.500  1.00  0.00     1.243 C  
HETATM    3  C   UNL     1      -5.619  20.613  71.490  1.00  0.00    -0.149 C  
HETATM    4  C   UNL     1      -5.260  20.868  70.029  1.00  0.00    -0.354 C  
HETATM    5  N   UNL     1      -6.001  19.871  69.298  1.00  0.00    -0.265 N  
HETATM    6  C   UNL     1      -6.005  19.863  67.911  1.00  0.00    -0.212 C  
HETATM    7  O   UNL     1      -5.129  20.380  67.227  1.00  0.00    -0.158 OA 
HETATM    8  C   UNL     1      -7.082  18.930  67.410  1.00  0.00    -0.206 C  
HETATM    9  C   UNL     1      -6.959  18.465  65.964  1.00  0.00    -0.310 C  
HETATM   10  N   UNL     1      -8.472  19.319  68.150  1.00  0.00    -0.315 N  
HETATM   11  C   UNL     1      -7.268  19.523  64.929  1.00  0.00     0.543 C  
HETATM   12  C   UNL     1      -5.704  17.631  65.641  1.00  0.00    -0.033 C  
HETATM   13  C   UNL     1      -9.791  18.893  67.950  1.00  0.00    -0.345 C  
HETATM   14  O   UNL     1     -10.782  19.592  68.117  1.00  0.00    -0.358 OA 
HETATM   15  C   UNL     1      -9.733  17.403  67.673  1.00  0.00    -0.270 C  
HETATM   16  H   UNL     1     -10.081  18.081  69.893  1.00  0.00     0.000 HD 
HETATM   17  C   UNL     1      -9.912  17.727  66.034  1.00  0.00    -0.219 C  
HETATM   18  O   UNL     1      -8.486  17.310  68.649  1.00  0.00    -0.262 OA 
HETATM   19  O   UNL     1      -9.411  18.620  70.297  1.00  0.00     1.372 OA 
HETATM   20  C   UNL     1      -8.348  18.582  69.346  1.00  0.00     0.385 C  
HETATM   21  C   UNL     1     -11.281  18.294  65.547  1.00  0.00     0.903 C  
HETATM   22  C   UNL     1      -9.541  16.695  64.982  1.00  0.00     1.435 C  
ENDROOT
BRANCH  15  23
HETATM   23  N   UNL     1     -10.517  16.236  68.011  1.00  0.00    -0.283 N  
HETATM   24  H   UNL     1     -11.451  16.111  67.620  1.00  0.00     0.000 HD 
HETATM   25  O   UNL     1      -9.047  15.513  69.656  1.00  0.00    -0.278 OA 
HETATM   26  C   UNL     1      -9.980  15.278  68.880  1.00  0.00    -0.225 C  
BRANCH  26  27
HETATM   27  C   UNL     1     -10.560  13.860  68.717  1.00  0.00    -0.258 C  
HETATM   28  C   UNL     1     -12.006  13.965  68.184  1.00  0.00    -0.350 C  
HETATM   29  N   UNL     1     -12.169  13.765  66.722  1.00  0.00    -0.420 NA 
HETATM   30  C   UNL     1     -11.869  12.357  66.346  1.00  0.00    -0.354 C  
HETATM   31  C   UNL     1     -11.390  14.699  65.901  1.00  0.00    -0.338 C  
HETATM   32  C   UNL     1     -11.677  12.126  64.777  1.00  0.00    -0.390 C  
HETATM   33  C   UNL     1     -10.369  11.492  64.439  1.00  0.00    -0.364 A  
HETATM   34  C   UNL     1      -9.566  11.469  63.315  1.00  0.00    -0.346 A  
HETATM   35  N   UNL     1      -8.512  10.625  63.570  1.00  0.00    -0.304 NA 
HETATM   36  C   UNL     1      -8.617  10.091  64.836  1.00  0.00    -0.173 A  
HETATM   37  H   UNL     1      -7.757  10.422  62.915  1.00  0.00     0.000 HD 
HETATM   38  C   UNL     1      -7.842   9.202  65.587  1.00  0.00    -0.095 A  
HETATM   39  C   UNL     1      -8.256   8.957  66.910  1.00  0.00    -0.112 A  
HETATM   40  C   UNL     1      -9.309   9.663  67.496  1.00  0.00    -0.149 A  
HETATM   41  C   UNL     1      -9.990  10.622  66.750  1.00  0.00    -0.254 A  
HETATM   42  C   UNL     1      -9.708  10.720  65.400  1.00  0.00    -0.297 A  
HETATM   43  C   UNL     1     -10.788  11.740  67.339  1.00  0.00    -0.299 C  
HETATM   44  C   UNL     1      -9.796  12.855  67.825  1.00  0.00    -0.221 C  
ENDBRANCH  26  27
ENDBRANCH  15  23
TORSDOF 2
ENDMDL
MODEL       99
REMARK 921   NORMALIZED FREE ENERGY PREDICTED BY IDOCK:   -0.54 KCAL/MOL
REMARK 922        TOTAL FREE ENERGY PREDICTED BY IDOCK:   -1.01 KCAL/MOL
REMARK 923 INTER-LIGAND FREE ENERGY PREDICTED BY IDOCK:   -4.55 KCAL/MOL
REMARK 924 INTRA-LIGAND FREE ENERGY PREDICTED BY IDOCK:    3.54 KCAL/MOL
REMARK 927      BINDING AFFINITY PREDICTED BY RF-SCORE:    0.00 PKD
ROOT
HETATM    1  C   UNL     1      -9.943   7.602  71.195  1.00  0.00    -0.177 C  
HETATM    2  C   UNL     1     -10.443   7.388  72.620  1.00  0.00    -0.303 C  
HETATM    3  C   UNL     1     -10.225   5.861  72.855  1.00  0.00    -0.212 C  
HETATM    4  C   UNL     1      -9.855   5.248  71.507  1.00  0.00    -0.172 C  
HETATM    5  N   UNL     1     -10.100   6.302  70.555  1.00  0.00    -0.185 N  
HETATM    6  C   UNL     1      -9.771   6.142  69.217  1.00  0.00    -0.137 C  
HETATM    7  O   UNL     1      -9.648   5.050  68.674  1.00  0.00    -0.131 OA 
HETATM    8  C   UNL     1      -9.841   7.476  68.512  1.00  0.00    -0.165 C  
HETATM    9  C   UNL     1      -9.936   7.436  66.992  1.00  0.00    -0.301 C  
HETATM   10  N   UNL     1      -8.968   8.545  69.365  1.00  0.00    -0.148 N  
HETATM   11  C   UNL     1      -8.663   7.029  66.286  1.00  0.00    -0.154 C  
HETATM   12  C   UNL     1     -11.201   6.762  66.425  1.00  0.00     0.880 C  
HETATM   13  C   UNL     1      -8.571   9.859  69.092  1.00  0.00    -0.157 C  
HETATM   14  O   UNL     1      -7.518  10.360  69.465  1.00  0.00    -0.119 OA 
HETATM   15  C   UNL     1      -9.747  10.544  68.424  1.00  0.00    -0.159 C  
HETATM   16  H   UNL     1      -9.546  10.758  70.753  1.00  0.00     0.000 HD 
HETATM   17  C   UNL     1      -8.994  10.331  66.937  1.00  0.00    -0.149 C  
HETATM   18  O   UNL     1     -10.717   9.652  69.307  1.00  0.00    -0.220 OA 
HETATM   19  O   UNL     1      -9.558   9.961  71.269  1.00  0.00     0.159 OA 
HETATM   20  C   UNL     1      -9.922   8.963  70.316  1.00  0.00    -0.186 C  
HETATM   21  C   UNL     1      -7.692  11.142  66.655  1.00  0.00    -0.155 C  
HETATM   22  C   UNL     1      -9.778  10.421  65.637  1.00  0.00    -0.294 C  
ENDROOT
BRANCH  15  23
HETATM   23  N   UNL     1     -10.365  11.851  68.456  1.00  0.00    -0.215 N  
HETATM   24  H   UNL     1     -11.261  11.987  68.925  1.00  0.00     0.000 HD 
HETATM   25  O   UNL     1      -8.850  12.792  66.970  1.00  0.00    -0.206 OA 
HETATM   26  C   UNL     1      -9.719  12.929  67.838  1.00  0.00    -0.218 C  
BRANCH  26  27
HETATM   27  C   UNL     1     -10.086  14.314  68.405  1.00  0.00    -0.243 C  
HETATM   28  C   UNL     1      -9.514  14.440  69.835  1.00  0.00     0.863 C  
HETATM   29  N   UNL     1      -8.230  15.176  69.953  1.00  0.00     0.014 NA 
HETATM   30  C   UNL     1      -8.418  16.618  69.633  1.00  0.00     0.586 C  
HETATM   31  C   UNL     1      -7.139  14.606  69.154  1.00  0.00    -0.135 C  
HETATM   32  C   UNL     1      -7.056  17.417  69.393  1.00  0.00    -0.060 C  
HETATM   33  C   UNL     1      -7.015  18.110  68.072  1.00  0.00    -0.217 A  
HETATM   34  C   UNL     1      -6.002  18.539  67.235  1.00  0.00    -0.157 A  
HETATM   35  N   UNL     1      -6.583  19.209  66.184  1.00  0.00    -0.202 NA 
HETATM   36  C   UNL     1      -7.954  19.231  66.325  1.00  0.00    -0.308 A  
HETATM   37  H   UNL     1      -6.072  19.630  65.409  1.00  0.00     0.000 HD 
HETATM   38  C   UNL     1      -9.003  19.760  65.568  1.00  0.00     0.473 A  
HETATM   39  C   UNL     1     -10.310  19.499  66.021  1.00  0.00    -0.604 A  
HETATM   40  C   UNL     1     -10.561  18.642  67.095  1.00  0.00    -0.468 A  
HETATM   41  C   UNL     1      -9.492  18.044  67.758  1.00  0.00    -0.264 A  
HETATM   42  C   UNL     1      -8.213  18.455  67.436  1.00  0.00    -0.248 A  
HETATM   43  C   UNL     1      -9.598  16.800  68.579  1.00  0.00    -0.245 C  
HETATM   44  C   UNL     1      -9.655  15.567  67.609  1.00  0.00    -0.210 C  
ENDBRANCH  26  27
ENDBRANCH  15  23
TORSDOF 2
ENDMDL
MODEL      100
REMARK 921   NORMALIZED FREE ENERGY PREDICTED BY IDOCK:   -0.24 KCAL/MOL
REMARK 922        TOTAL FREE ENERGY PREDICTED BY IDOCK:   -0.67 KCAL/MOL
REMARK 923 INTER-LIGAND FREE ENERGY PREDICTED BY IDOCK:   -2.02 KCAL/MOL
REMARK 924 INTRA-LIGAND FREE ENERGY PREDICTED BY IDOCK:    1.35 KCAL/MOL
REMARK 927      BINDING AFFINITY PREDICTED BY RF-SCORE:    0.00 PKD
ROOT
HETATM    1  C   UNL     1      -6.663   8.296  72.019  1.00  0.00    -0.079 C  
HETATM    2  C   UNL     1      -6.386   9.010  73.338  1.00  0.00     0.132 C  
HETATM    3  C   UNL     1      -5.798   7.884  74.244  1.00  0.00    -0.082 C  
HETATM    4  C   UNL     1      -5.995   6.564  73.503  1.00  0.00    -0.059 C  
HETATM    5  N   UNL     1      -6.852   6.901  72.394  1.00  0.00    -0.062 N  
HETATM    6  C   UNL     1      -7.166   5.957  71.426  1.00  0.00    -0.079 C  
HETATM    7  O   UNL     1      -7.107   4.748  71.614  1.00  0.00    -0.055 OA 
HETATM    8  C   UNL     1      -7.810   6.638  70.241  1.00  0.00    -0.107 C  
HETATM    9  C   UNL     1      -8.597   5.745  69.291  1.00  0.00    -0.111 C  
HETATM   10  N   UNL     1      -6.860   7.873  69.789  1.00  0.00    -0.041 N  
HETATM   11  C   UNL     1      -7.752   4.838  68.425  1.00  0.00    -0.081 C  
HETATM   12  C   UNL     1      -9.826   5.045  69.905  1.00  0.00    -0.296 C  
HETATM   13  C   UNL     1      -6.894   8.723  68.678  1.00  0.00    -0.063 C  
HETATM   14  O   UNL     1      -5.906   9.200  68.135  1.00  0.00    -0.038 OA 
HETATM   15  C   UNL     1      -8.352   9.050  68.421  1.00  0.00    -0.124 C  
HETATM   16  H   UNL     1      -7.126  10.535  69.764  1.00  0.00     0.000 HD 
HETATM   17  C   UNL     1      -8.360   7.921  67.175  1.00  0.00    -0.117 C  
HETATM   18  O   UNL     1      -8.605   8.969  69.984  1.00  0.00    -0.127 OA 
HETATM   19  O   UNL     1      -6.744  10.190  70.561  1.00  0.00    -0.178 OA 
HETATM   20  C   UNL     1      -7.315   8.886  70.658  1.00  0.00    -0.080 C  
HETATM   21  C   UNL     1      -7.523   8.238  65.898  1.00  0.00    -0.081 C  
HETATM   22  C   UNL     1      -9.662   7.353  66.636  1.00  0.00    -0.262 C  
ENDROOT
BRANCH  15  23
HETATM   23  N   UNL     1      -9.117  10.207  68.012  1.00  0.00    -0.131 N  
HETATM   24  H   UNL     1      -9.244  10.418  67.022  1.00  0.00     0.000 HD 
HETATM   25  O   UNL     1      -9.292  11.064  70.163  1.00  0.00     0.970 OA 
HETATM   26  C   UNL     1      -9.683  11.035  68.990  1.00  0.00    -0.134 C  
BRANCH  26  27
HETATM   27  C   UNL     1     -10.919  11.830  68.529  1.00  0.00    -0.270 C  
HETATM   28  C   UNL     1     -11.727  12.270  69.770  1.00  0.00    -0.298 C  
HETATM   29  N   UNL     1     -11.498  13.665  70.227  1.00  0.00    -0.072 NA 
HETATM   30  C   UNL     1     -12.024  14.638  69.231  1.00  0.00    -0.302 C  
HETATM   31  C   UNL     1     -10.099  13.963  70.555  1.00  0.00     2.574 C  
HETATM   32  C   UNL     1     -11.524  16.138  69.456  1.00  0.00    -0.292 C  
HETATM   33  C   UNL     1     -10.861  16.715  68.250  1.00  0.00    -0.356 A  
HETATM   34  C   UNL     1      -9.934  17.720  68.043  1.00  0.00    -0.333 A  
HETATM   35  N   UNL     1      -9.773  17.867  66.686  1.00  0.00    -0.305 NA 
HETATM   36  C   UNL     1     -10.584  16.984  66.006  1.00  0.00    -0.206 A  
HETATM   37  H   UNL     1      -9.143  18.536  66.244  1.00  0.00     0.000 HD 
HETATM   38  C   UNL     1     -10.811  16.713  64.653  1.00  0.00     0.086 A  
HETATM   39  C   UNL     1     -11.684  15.651  64.354  1.00  0.00    -0.218 A  
HETATM   40  C   UNL     1     -12.200  14.818  65.349  1.00  0.00    -0.126 A  
HETATM   41  C   UNL     1     -11.862  15.051  66.680  1.00  0.00    -0.071 A  
HETATM   42  C   UNL     1     -11.166  16.205  66.984  1.00  0.00     0.090 A  
HETATM   43  C   UNL     1     -11.941  14.025  67.764  1.00  0.00    -0.392 C  
HETATM   44  C   UNL     1     -10.697  13.075  67.640  1.00  0.00    -0.239 C  
ENDBRANCH  26  27
ENDBRANCH  15  23
TORSDOF 2
ENDMDL
MODEL      101
REMARK 921   NORMALIZED FREE ENERGY PREDICTED BY IDOCK:   -0.03 KCAL/MOL
REMARK 922        TOTAL FREE ENERGY PREDICTED BY IDOCK:   -0.44 KCAL/MOL
REMARK 923 INTER-LIGAND FREE ENERGY PREDICTED BY IDOCK:   -0.18 KCAL/MOL
REMARK 924 INTRA-LIGAND FREE ENERGY PREDICTED BY IDOCK:   -0.26 KCAL/MOL
REMARK 927      BINDING AFFINITY PREDICTED BY RF-SCORE:    0.00 PKD
ROOT
HETATM    1  C   UNL     1      -9.152   8.970  66.610  1.00  0.00    -0.160 C  
HETATM    2  C   UNL     1      -8.089   8.240  65.795  1.00  0.00    -0.109 C  
HETATM    3  C   UNL     1      -8.526   6.744  65.885  1.00  0.00    -0.146 C  
HETATM    4  C   UNL     1      -9.642   6.666  66.924  1.00  0.00    -0.157 C  
HETATM    5  N   UNL     1      -9.646   7.966  67.544  1.00  0.00    -0.147 N  
HETATM    6  C   UNL     1     -10.613   8.305  68.480  1.00  0.00    -0.100 C  
HETATM    7  O   UNL     1     -11.245   7.481  69.131  1.00  0.00     0.021 OA 
HETATM    8  C   UNL     1     -10.575   9.793  68.735  1.00  0.00    -0.219 C  
HETATM    9  C   UNL     1     -11.247  10.279  70.014  1.00  0.00    -0.376 C  
HETATM   10  N   UNL     1     -10.634  10.554  67.304  1.00  0.00    -0.247 N  
HETATM   11  C   UNL     1     -12.757  10.229  69.997  1.00  0.00     0.005 C  
HETATM   12  C   UNL     1     -10.625   9.761  71.326  1.00  0.00    -0.128 C  
HETATM   13  C   UNL     1     -10.782  11.905  66.966  1.00  0.00    -0.240 C  
HETATM   14  O   UNL     1     -11.362  12.314  65.969  1.00  0.00    -0.317 OA 
HETATM   15  C   UNL     1      -9.955  12.698  67.959  1.00  0.00    -0.220 C  
HETATM   16  H   UNL     1      -8.937  12.101  65.930  1.00  0.00     0.000 HD 
HETATM   17  C   UNL     1     -11.364  13.068  68.798  1.00  0.00    -0.332 C  
HETATM   18  O   UNL     1      -8.927  11.492  68.008  1.00  0.00    -0.156 OA 
HETATM   19  O   UNL     1      -8.868  11.175  65.731  1.00  0.00    -0.193 OA 
HETATM   20  C   UNL     1      -9.268  10.550  66.949  1.00  0.00    -0.155 C  
HETATM   21  C   UNL     1     -12.397  14.012  68.110  1.00  0.00    -0.013 C  
HETATM   22  C   UNL     1     -11.318  13.552  70.239  1.00  0.00     0.131 C  
ENDROOT
BRANCH  15  23
HETATM   23  N   UNL     1      -9.105  13.868  67.928  1.00  0.00    -0.186 N  
HETATM   24  H   UNL     1      -9.213  14.564  67.190  1.00  0.00     0.000 HD 
HETATM   25  O   UNL     1      -7.702  13.104  69.613  1.00  0.00     0.617 OA 
HETATM   26  C   UNL     1      -8.132  14.035  68.921  1.00  0.00    -0.001 C  
BRANCH  26  27
HETATM   27  C   UNL     1      -7.714  15.495  69.179  1.00  0.00    -0.210 C  
HETATM   28  C   UNL     1      -6.484  15.828  68.305  1.00  0.00    -0.118 C  
HETATM   29  N   UNL     1      -6.770  16.554  67.042  1.00  0.00    -0.192 NA 
HETATM   30  C   UNL     1      -7.253  17.933  67.325  1.00  0.00    -0.184 C  
HETATM   31  C   UNL     1      -7.696  15.853  66.146  1.00  0.00     0.644 C  
HETATM   32  C   UNL     1      -7.910  18.666  66.067  1.00  0.00    -0.187 C  
HETATM   33  C   UNL     1      -9.296  19.150  66.336  1.00  0.00    -0.379 A  
HETATM   34  C   UNL     1     -10.394  19.432  65.544  1.00  0.00    -0.023 A  
HETATM   35  N   UNL     1     -11.376  19.943  66.358  1.00  0.00     0.310 NA 
HETATM   36  C   UNL     1     -10.937  20.006  67.663  1.00  0.00     0.077 A  
HETATM   37  H   UNL     1     -12.301  20.233  66.041  1.00  0.00     0.000 HD 
HETATM   38  C   UNL     1     -11.512  20.430  68.865  1.00  0.00     2.432 A  
HETATM   39  C   UNL     1     -10.744  20.260  70.032  1.00  0.00     1.065 A  
HETATM   40  C   UNL     1      -9.524  19.580  70.020  1.00  0.00     0.648 A  
HETATM   41  C   UNL     1      -9.034  19.074  68.818  1.00  0.00    -0.358 A  
HETATM   42  C   UNL     1      -9.693  19.412  67.651  1.00  0.00    -0.428 A  
HETATM   43  C   UNL     1      -8.032  17.971  68.713  1.00  0.00    -0.255 C  
HETATM   44  C   UNL     1      -8.767  16.606  68.962  1.00  0.00    -0.193 C  
ENDBRANCH  26  27
ENDBRANCH  15  23
TORSDOF 2
ENDMDL
MODEL      102
REMARK 921   NORMALIZED FREE ENERGY PREDICTED BY IDOCK:    0.21 KCAL/MOL
REMARK 922        TOTAL FREE ENERGY PREDICTED BY IDOCK:   -0.17 KCAL/MOL
REMARK 923 INTER-LIGAND FREE ENERGY PREDICTED BY IDOCK:   -0.97 KCAL/MOL
REMARK 924 INTRA-LIGAND FREE ENERGY PREDICTED BY IDOCK:    0.80 KCAL/MOL
REMARK 927      BINDING AFFINITY PREDICTED BY RF-SCORE:    0.00 PKD
ROOT
HETATM    1  C   UNL     1     -11.887  15.568  70.093  1.00  0.00    -0.356 C  
HETATM    2  C   UNL     1     -12.405  15.765  71.513  1.00  0.00    -0.514 C  
HETATM    3  C   UNL     1     -11.970  17.223  71.860  1.00  0.00     2.120 C  
HETATM    4  C   UNL     1     -11.034  17.687  70.747  1.00  0.00     1.868 C  
HETATM    5  N   UNL     1     -10.768  16.495  69.983  1.00  0.00    -0.278 N  
HETATM    6  C   UNL     1     -10.025  16.552  68.811  1.00  0.00    -0.255 C  
HETATM    7  O   UNL     1      -9.235  17.452  68.553  1.00  0.00    -0.265 OA 
HETATM    8  C   UNL     1     -10.156  15.247  68.062  1.00  0.00    -0.229 C  
HETATM    9  C   UNL     1      -9.097  14.965  67.002  1.00  0.00    -0.255 C  
HETATM   10  N   UNL     1     -11.734  14.901  67.920  1.00  0.00    -0.344 N  
HETATM   11  C   UNL     1      -9.216  15.801  65.748  1.00  0.00    -0.255 C  
HETATM   12  C   UNL     1      -7.654  14.836  67.526  1.00  0.00    -0.215 C  
HETATM   13  C   UNL     1     -12.415  13.914  67.197  1.00  0.00    -0.047 C  
HETATM   14  O   UNL     1     -13.525  14.056  66.700  1.00  0.00     1.220 OA 
HETATM   15  C   UNL     1     -11.598  12.642  67.313  1.00  0.00    -0.364 C  
HETATM   16  H   UNL     1     -13.325  12.970  68.870  1.00  0.00     0.000 HD 
HETATM   17  C   UNL     1     -10.990  12.922  65.771  1.00  0.00    -0.303 C  
HETATM   18  O   UNL     1     -11.165  13.100  68.769  1.00  0.00    -0.252 OA 
HETATM   19  O   UNL     1     -13.275  13.740  69.422  1.00  0.00     1.029 OA 
HETATM   20  C   UNL     1     -11.972  14.253  69.150  1.00  0.00    -0.335 C  
HETATM   21  C   UNL     1     -11.972  12.800  64.566  1.00  0.00    -0.454 C  
HETATM   22  C   UNL     1      -9.722  12.237  65.289  1.00  0.00    -0.131 C  
ENDROOT
BRANCH  15  23
HETATM   23  N   UNL     1     -11.863  11.228  67.466  1.00  0.00    -0.086 N  
HETATM   24  H   UNL     1     -12.063  10.650  66.649  1.00  0.00     0.000 HD 
HETATM   25  O   UNL     1     -11.964  11.323  69.783  1.00  0.00    -0.306 OA 
HETATM   26  C   UNL     1     -11.840  10.662  68.746  1.00  0.00    -0.107 C  
BRANCH  26  27
HETATM   27  C   UNL     1     -11.528   9.153  68.780  1.00  0.00     0.580 C  
HETATM   28  C   UNL     1     -10.599   8.804  67.596  1.00  0.00    -0.213 C  
HETATM   29  N   UNL     1      -9.154   8.702  67.920  1.00  0.00    -0.139 NA 
HETATM   30  C   UNL     1      -8.891   7.527  68.795  1.00  0.00    -0.131 C  
HETATM   31  C   UNL     1      -8.585   9.922  68.505  1.00  0.00    -0.117 C  
HETATM   32  C   UNL     1      -7.446   7.529  69.476  1.00  0.00    -0.093 C  
HETATM   33  C   UNL     1      -7.506   7.421  70.963  1.00  0.00    -0.074 A  
HETATM   34  C   UNL     1      -6.661   7.785  71.994  1.00  0.00    -0.057 A  
HETATM   35  N   UNL     1      -7.216   7.336  73.169  1.00  0.00    -0.072 NA 
HETATM   36  C   UNL     1      -8.402   6.679  72.921  1.00  0.00    -0.118 A  
HETATM   37  H   UNL     1      -6.808   7.470  74.093  1.00  0.00     0.000 HD 
HETATM   38  C   UNL     1      -9.352   6.044  73.728  1.00  0.00    -0.130 A  
HETATM   39  C   UNL     1     -10.501   5.545  73.086  1.00  0.00    -0.252 A  
HETATM   40  C   UNL     1     -10.752   5.784  71.733  1.00  0.00    -0.305 A  
HETATM   41  C   UNL     1      -9.834   6.517  70.985  1.00  0.00    -0.196 A  
HETATM   42  C   UNL     1      -8.623   6.835  71.569  1.00  0.00    -0.120 A  
HETATM   43  C   UNL     1     -10.159   7.228  69.711  1.00  0.00    -0.196 C  
HETATM   44  C   UNL     1     -10.902   8.565  70.066  1.00  0.00    -0.225 C  
ENDBRANCH  26  27
ENDBRANCH  15  23
TORSDOF 2
ENDMDL
MODEL      103
REMARK 921   NORMALIZED FREE ENERGY PREDICTED BY IDOCK:    1.00 KCAL/MOL
REMARK 922        TOTAL FREE ENERGY PREDICTED BY IDOCK:    0.71 KCAL/MOL
REMARK 923 INTER-LIGAND FREE ENERGY PREDICTED BY IDOCK:   -1.10 KCAL/MOL
REMARK 924 INTRA-LIGAND FREE ENERGY PREDICTED BY IDOCK:    1.81 KCAL/MOL
REMARK 927      BINDING AFFINITY PREDICTED BY RF-SCORE:    0.00 PKD
ROOT
HETATM    1  C   UNL     1      -7.686   3.851  67.401  1.00  0.00    -0.079 C  
HETATM    2  C   UNL     1      -6.645   2.864  66.883  1.00  0.00    -0.037 C  
HETATM    3  C   UNL     1      -7.089   1.505  67.508  1.00  0.00    -0.035 C  
HETATM    4  C   UNL     1      -8.184   1.817  68.525  1.00  0.00    -0.056 C  
HETATM    5  N   UNL     1      -8.167   3.254  68.640  1.00  0.00    -0.060 N  
HETATM    6  C   UNL     1      -9.113   3.917  69.410  1.00  0.00    -0.131 C  
HETATM    7  O   UNL     1      -9.736   3.388  70.323  1.00  0.00    -0.176 OA 
HETATM    8  C   UNL     1      -9.061   5.398  69.116  1.00  0.00    -0.107 C  
HETATM    9  C   UNL     1      -9.702   6.317  70.149  1.00  0.00    -0.187 C  
HETATM   10  N   UNL     1      -9.144   5.598  67.509  1.00  0.00    -0.107 N  
HETATM   11  C   UNL     1     -11.213   6.284  70.176  1.00  0.00    -0.470 C  
HETATM   12  C   UNL     1      -9.057   6.293  71.548  1.00  0.00    -0.145 C  
HETATM   13  C   UNL     1      -9.291   6.741  66.714  1.00  0.00    -0.160 C  
HETATM   14  O   UNL     1      -9.888   6.775  65.646  1.00  0.00     0.459 OA 
HETATM   15  C   UNL     1      -8.438   7.826  67.343  1.00  0.00    -0.119 C  
HETATM   16  H   UNL     1      -7.466   6.530  65.644  1.00  0.00     0.000 HD 
HETATM   17  C   UNL     1      -9.827   8.489  68.019  1.00  0.00    -0.202 C  
HETATM   18  O   UNL     1      -7.417   6.703  67.802  1.00  0.00    -0.093 OA 
HETATM   19  O   UNL     1      -7.407   5.593  65.788  1.00  0.00    -0.071 OA 
HETATM   20  C   UNL     1      -7.786   5.450  67.156  1.00  0.00    -0.101 C  
HETATM   21  C   UNL     1     -10.868   9.139  67.057  1.00  0.00    -0.056 C  
HETATM   22  C   UNL     1      -9.749   9.455  69.190  1.00  0.00    -0.165 C  
ENDROOT
BRANCH  15  23
HETATM   23  N   UNL     1      -7.582   8.896  66.882  1.00  0.00    -0.086 N  
HETATM   24  H   UNL     1      -7.270   8.924  65.911  1.00  0.00     0.000 HD 
HETATM   25  O   UNL     1      -7.213   9.749  69.009  1.00  0.00    -0.071 OA 
HETATM   26  C   UNL     1      -7.186   9.893  67.782  1.00  0.00    -0.088 C  
BRANCH  26  27
HETATM   27  C   UNL     1      -6.822  11.242  67.133  1.00  0.00    -0.114 C  
HETATM   28  C   UNL     1      -7.516  11.344  65.757  1.00  0.00     0.400 C  
HETATM   29  N   UNL     1      -8.777  12.127  65.728  1.00  0.00     0.250 NA 
HETATM   30  C   UNL     1      -8.508  13.569  65.975  1.00  0.00     1.225 C  
HETATM   31  C   UNL     1      -9.811  11.628  66.642  1.00  0.00    -0.200 C  
HETATM   32  C   UNL     1      -9.811  14.431  66.307  1.00  0.00    -0.321 C  
HETATM   33  C   UNL     1      -9.705  15.169  67.600  1.00  0.00    -0.211 A  
HETATM   34  C   UNL     1     -10.620  15.666  68.508  1.00  0.00    -0.256 A  
HETATM   35  N   UNL     1      -9.921  16.347  69.477  1.00  0.00    -0.207 NA 
HETATM   36  C   UNL     1      -8.569  16.308  69.212  1.00  0.00    -0.148 A  
HETATM   37  H   UNL     1     -10.344  16.814  70.279  1.00  0.00     0.000 HD 
HETATM   38  C   UNL     1      -7.436  16.820  69.852  1.00  0.00     0.832 A  
HETATM   39  C   UNL     1      -6.187  16.491  69.294  1.00  0.00    -0.183 A  
HETATM   40  C   UNL     1      -6.067  15.589  68.233  1.00  0.00    -0.121 A  
HETATM   41  C   UNL     1      -7.214  15.013  67.692  1.00  0.00    -0.208 A  
HETATM   42  C   UNL     1      -8.442  15.486  68.113  1.00  0.00    -0.147 A  
HETATM   43  C   UNL     1      -7.230  13.739  66.911  1.00  0.00     0.763 C  
HETATM   44  C   UNL     1      -7.130  12.538  67.918  1.00  0.00    -0.111 C  
ENDBRANCH  26  27
ENDBRANCH  15  23
TORSDOF 2
ENDMDL
MODEL      104
REMARK 921   NORMALIZED FREE ENERGY PREDICTED BY IDOCK:    1.35 KCAL/MOL
REMARK 922        TOTAL FREE ENERGY PREDICTED BY IDOCK:    1.10 KCAL/MOL
REMARK 923 INTER-LIGAND FREE ENERGY PREDICTED BY IDOCK:    0.82 KCAL/MOL
REMARK 924 INTRA-LIGAND FREE ENERGY PREDICTED BY IDOCK:    0.28 KCAL/MOL
REMARK 927      BINDING AFFINITY PREDICTED BY RF-SCORE:    0.00 PKD
ROOT
HETATM    1  C   UNL     1     -10.412   8.561  68.157  1.00  0.00    -0.182 C  
HETATM    2  C   UNL     1     -11.329   7.621  67.380  1.00  0.00     0.657 C  
HETATM    3  C   UNL     1     -10.924   6.207  67.902  1.00  0.00    -0.399 C  
HETATM    4  C   UNL     1      -9.661   6.384  68.740  1.00  0.00    -0.125 C  
HETATM    5  N   UNL     1      -9.254   7.744  68.492  1.00  0.00    -0.138 N  
HETATM    6  C   UNL     1      -8.185   8.302  69.179  1.00  0.00    -0.121 C  
HETATM    7  O   UNL     1      -7.294   7.642  69.700  1.00  0.00    -0.084 OA 
HETATM    8  C   UNL     1      -8.166   9.797  68.962  1.00  0.00    -0.121 C  
HETATM    9  C   UNL     1      -6.854  10.510  69.268  1.00  0.00    -0.079 C  
HETATM   10  N   UNL     1      -9.643  10.376  69.299  1.00  0.00    -0.216 N  
HETATM   11  C   UNL     1      -6.524  10.628  70.739  1.00  0.00     0.163 C  
HETATM   12  C   UNL     1      -5.655  10.094  68.396  1.00  0.00    -0.038 C  
HETATM   13  C   UNL     1     -10.134  11.682  69.416  1.00  0.00     0.333 C  
HETATM   14  O   UNL     1     -11.024  12.026  70.182  1.00  0.00     0.295 OA 
HETATM   15  C   UNL     1      -9.481  12.495  68.316  1.00  0.00    -0.201 C  
HETATM   16  H   UNL     1     -11.576  11.540  67.861  1.00  0.00     0.000 HD 
HETATM   17  C   UNL     1      -8.410  13.122  69.449  1.00  0.00     1.012 C  
HETATM   18  O   UNL     1      -9.488  11.197  67.405  1.00  0.00    -0.163 OA 
HETATM   19  O   UNL     1     -11.648  10.594  67.916  1.00  0.00    -0.491 OA 
HETATM   20  C   UNL     1     -10.292  10.174  68.063  1.00  0.00    -0.190 C  
HETATM   21  C   UNL     1      -8.979  14.083  70.538  1.00  0.00     3.446 C  
HETATM   22  C   UNL     1      -7.104  13.773  69.023  1.00  0.00    -0.088 C  
ENDROOT
BRANCH  15  23
HETATM   23  N   UNL     1      -9.875  13.549  67.407  1.00  0.00    -0.224 N  
HETATM   24  H   UNL     1     -10.539  14.264  67.703  1.00  0.00     0.000 HD 
HETATM   25  O   UNL     1      -8.826  12.591  65.570  1.00  0.00     0.416 OA 
HETATM   26  C   UNL     1      -9.333  13.579  66.116  1.00  0.00    -0.061 C  
BRANCH  26  27
HETATM   27  C   UNL     1      -9.305  14.971  65.457  1.00  0.00     0.086 C  
HETATM   28  C   UNL     1     -10.756  15.465  65.263  1.00  0.00    -0.421 C  
HETATM   29  N   UNL     1     -11.259  16.406  66.296  1.00  0.00     0.214 NA 
HETATM   30  C   UNL     1     -10.542  17.708  66.218  1.00  0.00    -0.215 C  
HETATM   31  C   UNL     1     -11.217  15.872  67.662  1.00  0.00    -0.219 C  
HETATM   32  C   UNL     1     -10.758  18.652  67.488  1.00  0.00    -0.447 C  
HETATM   33  C   UNL     1      -9.475  19.069  68.126  1.00  0.00    -0.387 A  
HETATM   34  C   UNL     1      -9.115  19.481  69.395  1.00  0.00     0.116 A  
HETATM   35  N   UNL     1      -7.786  19.830  69.360  1.00  0.00    -0.077 NA 
HETATM   36  C   UNL     1      -7.276  19.659  68.092  1.00  0.00    -0.302 A  
HETATM   37  H   UNL     1      -7.252  20.166  70.161  1.00  0.00     0.000 HD 
HETATM   38  C   UNL     1      -6.019  19.855  67.512  1.00  0.00    -0.201 A  
HETATM   39  C   UNL     1      -5.875  19.481  66.163  1.00  0.00    -0.175 A  
HETATM   40  C   UNL     1      -6.892  18.824  65.467  1.00  0.00    -0.251 A  
HETATM   41  C   UNL     1      -8.094  18.547  66.112  1.00  0.00    -0.204 A  
HETATM   42  C   UNL     1      -8.300  19.085  67.368  1.00  0.00    -0.299 A  
HETATM   43  C   UNL     1      -9.058  17.488  65.683  1.00  0.00     0.487 C  
HETATM   44  C   UNL     1      -8.509  16.095  66.158  1.00  0.00    -0.288 C  
ENDBRANCH  26  27
ENDBRANCH  15  23
TORSDOF 2
ENDMDL
MODEL      105
REMARK 921   NORMALIZED FREE ENERGY PREDICTED BY IDOCK:    1.55 KCAL/MOL
REMARK 922        TOTAL FREE ENERGY PREDICTED BY IDOCK:    1.33 KCAL/MOL
REMARK 923 INTER-LIGAND FREE ENERGY PREDICTED BY IDOCK:    1.31 KCAL/MOL
REMARK 924 INTRA-LIGAND FREE ENERGY PREDICTED BY IDOCK:    0.02 KCAL/MOL
REMARK 927      BINDING AFFINITY PREDICTED BY RF-SCORE:    0.00 PKD
ROOT
HETATM    1  C   UNL     1      -8.623   7.028  68.271  1.00  0.00    -0.129 C  
HETATM    2  C   UNL     1      -7.309   6.900  67.507  1.00  0.00    -0.096 C  
HETATM    3  C   UNL     1      -7.159   5.361  67.297  1.00  0.00    -0.070 C  
HETATM    4  C   UNL     1      -8.235   4.687  68.144  1.00  0.00    -0.091 C  
HETATM    5  N   UNL     1      -8.771   5.751  68.956  1.00  0.00    -0.112 N  
HETATM    6  C   UNL     1      -9.858   5.531  69.790  1.00  0.00    -0.194 C  
HETATM    7  O   UNL     1     -10.180   4.425  70.208  1.00  0.00    -0.180 OA 
HETATM    8  C   UNL     1     -10.399   6.854  70.280  1.00  0.00    -0.199 C  
HETATM    9  C   UNL     1     -11.292   6.805  71.514  1.00  0.00    -0.316 C  
HETATM   10  N   UNL     1     -10.636   7.812  68.993  1.00  0.00    -0.200 N  
HETATM   11  C   UNL     1     -12.669   6.227  71.278  1.00  0.00     0.405 C  
HETATM   12  C   UNL     1     -10.617   6.292  72.801  1.00  0.00    -0.252 C  
HETATM   13  C   UNL     1     -11.255   9.060  68.856  1.00  0.00     0.295 C  
HETATM   14  O   UNL     1     -11.873   9.426  67.865  1.00  0.00     1.063 OA 
HETATM   15  C   UNL     1     -10.859   9.882  70.067  1.00  0.00    -0.294 C  
HETATM   16  H   UNL     1      -9.549  10.100  68.132  1.00  0.00     0.000 HD 
HETATM   17  C   UNL     1     -12.359   9.553  70.750  1.00  0.00    -0.233 C  
HETATM   18  O   UNL     1      -9.460   9.135  70.068  1.00  0.00    -0.173 OA 
HETATM   19  O   UNL     1      -9.124   9.319  67.800  1.00  0.00    -0.127 OA 
HETATM   20  C   UNL     1      -9.347   8.363  68.836  1.00  0.00    -0.147 C  
HETATM   21  C   UNL     1     -13.619  10.186  70.083  1.00  0.00     0.785 C  
HETATM   22  C   UNL     1     -12.601   9.726  72.241  1.00  0.00    -0.264 C  
ENDROOT
BRANCH  15  23
HETATM   23  N   UNL     1     -10.509  11.259  70.340  1.00  0.00     0.485 N  
HETATM   24  H   UNL     1     -10.249  11.547  71.283  1.00  0.00     0.000 HD 
HETATM   25  O   UNL     1     -11.158  12.018  68.244  1.00  0.00    -0.211 OA 
HETATM   26  C   UNL     1     -10.530  12.191  69.295  1.00  0.00     0.162 C  
BRANCH  26  27
HETATM   27  C   UNL     1      -9.610  13.410  69.497  1.00  0.00     1.141 C  
HETATM   28  C   UNL     1      -8.254  13.137  68.807  1.00  0.00     0.098 C  
HETATM   29  N   UNL     1      -8.085  13.737  67.460  1.00  0.00    -0.173 NA 
HETATM   30  C   UNL     1      -8.024  15.222  67.548  1.00  0.00    -0.176 C  
HETATM   31  C   UNL     1      -9.100  13.317  66.487  1.00  0.00    -0.117 C  
HETATM   32  C   UNL     1      -8.192  15.968  66.146  1.00  0.00    -0.057 C  
HETATM   33  C   UNL     1      -9.302  16.965  66.149  1.00  0.00    -0.268 A  
HETATM   34  C   UNL     1     -10.103  17.525  65.171  1.00  0.00     0.923 A  
HETATM   35  N   UNL     1     -10.897  18.472  65.773  1.00  0.00    -0.297 NA 
HETATM   36  C   UNL     1     -10.624  18.545  67.121  1.00  0.00    -0.398 A  
HETATM   37  H   UNL     1     -11.592  19.041  65.289  1.00  0.00     0.000 HD 
HETATM   38  C   UNL     1     -11.124  19.313  68.177  1.00  0.00     0.321 A  
HETATM   39  C   UNL     1     -10.625  19.030  69.463  1.00  0.00     0.893 A  
HETATM   40  C   UNL     1      -9.773  17.949  69.701  1.00  0.00     0.493 A  
HETATM   41  C   UNL     1      -9.382  17.137  68.639  1.00  0.00    -0.269 A  
HETATM   42  C   UNL     1      -9.717  17.534  67.358  1.00  0.00    -0.274 A  
HETATM   43  C   UNL     1      -8.883  15.737  68.786  1.00  0.00    -0.207 C  
HETATM   44  C   UNL     1     -10.114  14.793  69.024  1.00  0.00    -0.232 C  
ENDBRANCH  26  27
ENDBRANCH  15  23
TORSDOF 2
ENDMDL
MODEL      106
REMARK 921   NORMALIZED FREE ENERGY PREDICTED BY IDOCK:    1.87 KCAL/MOL
REMARK 922        TOTAL FREE ENERGY PREDICTED BY IDOCK:    1.68 KCAL/MOL
REMARK 923 INTER-LIGAND FREE ENERGY PREDICTED BY IDOCK:    0.80 KCAL/MOL
REMARK 924 INTRA-LIGAND FREE ENERGY PREDICTED BY IDOCK:    0.89 KCAL/MOL
REMARK 927      BINDING AFFINITY PREDICTED BY RF-SCORE:    0.00 PKD
ROOT
HETATM    1  C   UNL     1     -10.084  18.116  68.620  1.00  0.00    -0.392 C  
HETATM    2  C   UNL     1      -9.356  19.188  69.425  1.00  0.00     0.012 C  
HETATM    3  C   UNL     1      -9.961  20.521  68.884  1.00  0.00     0.166 C  
HETATM    4  C   UNL     1     -10.797  20.168  67.657  1.00  0.00     0.045 C  
HETATM    5  N   UNL     1     -10.475  18.789  67.388  1.00  0.00    -0.410 N  
HETATM    6  C   UNL     1     -11.136  18.086  66.391  1.00  0.00     0.519 C  
HETATM    7  O   UNL     1     -11.701  18.620  65.445  1.00  0.00     1.498 OA 
HETATM    8  C   UNL     1     -10.834  16.611  66.523  1.00  0.00    -0.017 C  
HETATM    9  C   UNL     1     -11.108  15.751  65.296  1.00  0.00    -0.280 C  
HETATM   10  N   UNL     1     -11.126  16.170  68.056  1.00  0.00    -0.339 N  
HETATM   11  C   UNL     1     -12.572  15.517  64.999  1.00  0.00     0.693 C  
HETATM   12  C   UNL     1     -10.270  16.090  64.048  1.00  0.00     3.379 C  
HETATM   13  C   UNL     1     -11.163  14.917  68.679  1.00  0.00    -0.275 C  
HETATM   14  O   UNL     1     -11.901  14.624  69.611  1.00  0.00    -0.284 OA 
HETATM   15  C   UNL     1     -10.023  14.104  68.098  1.00  0.00    -0.232 C  
HETATM   16  H   UNL     1      -9.608  15.295  70.079  1.00  0.00     0.000 HD 
HETATM   17  C   UNL     1     -11.126  13.308  67.112  1.00  0.00    -0.308 C  
HETATM   18  O   UNL     1      -9.188  15.446  67.960  1.00  0.00    -0.182 OA 
HETATM   19  O   UNL     1      -9.717  16.238  70.053  1.00  0.00     0.085 OA 
HETATM   20  C   UNL     1      -9.898  16.507  68.664  1.00  0.00    -0.250 C  
HETATM   21  C   UNL     1     -12.154  12.350  67.792  1.00  0.00    -0.074 C  
HETATM   22  C   UNL     1     -10.674  12.550  65.875  1.00  0.00    -0.294 C  
ENDROOT
BRANCH  15  23
HETATM   23  N   UNL     1      -9.052  13.149  68.586  1.00  0.00    -0.387 N  
HETATM   24  H   UNL     1      -9.356  12.252  68.964  1.00  0.00     0.000 HD 
HETATM   25  O   UNL     1      -7.268  14.628  68.435  1.00  0.00    -0.104 OA 
HETATM   26  C   UNL     1      -7.689  13.469  68.532  1.00  0.00    -0.125 C  
BRANCH  26  27
HETATM   27  C   UNL     1      -6.741  12.256  68.483  1.00  0.00    -0.076 C  
HETATM   28  C   UNL     1      -6.846  11.482  69.816  1.00  0.00     0.013 C  
HETATM   29  N   UNL     1      -7.727  10.286  69.799  1.00  0.00    -0.164 NA 
HETATM   30  C   UNL     1      -7.150   9.219  68.937  1.00  0.00    -0.068 C  
HETATM   31  C   UNL     1      -9.113  10.572  69.413  1.00  0.00    -0.104 C  
HETATM   32  C   UNL     1      -8.172   8.046  68.577  1.00  0.00    -0.126 C  
HETATM   33  C   UNL     1      -8.315   7.832  67.107  1.00  0.00    -0.118 A  
HETATM   34  C   UNL     1      -9.301   7.300  66.297  1.00  0.00    -0.108 A  
HETATM   35  N   UNL     1      -8.820   7.279  65.010  1.00  0.00    -0.343 NA 
HETATM   36  C   UNL     1      -7.536   7.779  64.967  1.00  0.00    -0.096 A  
HETATM   37  H   UNL     1      -9.340   6.942  64.200  1.00  0.00     0.000 HD 
HETATM   38  C   UNL     1      -6.603   7.982  63.946  1.00  0.00    -0.066 A  
HETATM   39  C   UNL     1      -5.393   8.606  64.304  1.00  0.00    -0.055 A  
HETATM   40  C   UNL     1      -5.180   9.121  65.584  1.00  0.00    -0.036 A  
HETATM   41  C   UNL     1      -6.178   8.998  66.547  1.00  0.00    -0.065 A  
HETATM   42  C   UNL     1      -7.279   8.218  66.249  1.00  0.00    -0.074 A  
HETATM   43  C   UNL     1      -6.293   9.864  67.760  1.00  0.00    -0.055 C  
HETATM   44  C   UNL     1      -6.910  11.242  67.329  1.00  0.00    -0.108 C  
ENDBRANCH  26  27
ENDBRANCH  15  23
TORSDOF 2
ENDMDL
MODEL      107
REMARK 921   NORMALIZED FREE ENERGY PREDICTED BY IDOCK:    1.87 KCAL/MOL
REMARK 922        TOTAL FREE ENERGY PREDICTED BY IDOCK:    1.69 KCAL/MOL
REMARK 923 INTER-LIGAND FREE ENERGY PREDICTED BY IDOCK:    1.95 KCAL/MOL
REMARK 924 INTRA-LIGAND FREE ENERGY PREDICTED BY IDOCK:   -0.27 KCAL/MOL
REMARK 927      BINDING AFFINITY PREDICTED BY RF-SCORE:    0.00 PKD
ROOT
HETATM    1  C   UNL     1      -7.093  12.174  70.120  1.00  0.00     1.143 C  
HETATM    2  C   UNL     1      -5.794  11.741  70.791  1.00  0.00    -0.004 C  
HETATM    3  C   UNL     1      -5.136  13.091  71.214  1.00  0.00    -0.170 C  
HETATM    4  C   UNL     1      -5.946  14.208  70.561  1.00  0.00    -0.182 C  
HETATM    5  N   UNL     1      -6.823  13.525  69.644  1.00  0.00     0.032 N  
HETATM    6  C   UNL     1      -7.795  14.220  68.938  1.00  0.00    -0.097 C  
HETATM    7  O   UNL     1      -7.739  15.423  68.713  1.00  0.00    -0.131 OA 
HETATM    8  C   UNL     1      -8.756  13.245  68.299  1.00  0.00    -0.168 C  
HETATM    9  C   UNL     1      -9.610  13.783  67.158  1.00  0.00    -0.244 C  
HETATM   10  N   UNL     1      -9.269  12.217  69.445  1.00  0.00     0.858 N  
HETATM   11  C   UNL     1     -10.710  14.730  67.581  1.00  0.00    -0.270 C  
HETATM   12  C   UNL     1      -8.833  14.253  65.914  1.00  0.00     0.640 C  
HETATM   13  C   UNL     1     -10.264  11.233  69.443  1.00  0.00     0.051 C  
HETATM   14  O   UNL     1     -10.946  10.930  70.413  1.00  0.00    -0.150 OA 
HETATM   15  C   UNL     1     -10.192  10.538  68.097  1.00  0.00    -0.162 C  
HETATM   16  H   UNL     1      -8.985   9.591  69.874  1.00  0.00     0.000 HD 
HETATM   17  C   UNL     1     -11.513  11.444  67.587  1.00  0.00    -0.348 C  
HETATM   18  O   UNL     1      -8.624  10.780  68.100  1.00  0.00    -0.121 OA 
HETATM   19  O   UNL     1      -8.317  10.127  70.284  1.00  0.00    -0.077 OA 
HETATM   20  C   UNL     1      -8.233  11.259  69.420  1.00  0.00     0.281 C  
HETATM   21  C   UNL     1     -12.896  11.155  68.247  1.00  0.00     2.796 C  
HETATM   22  C   UNL     1     -11.832  11.608  66.110  1.00  0.00     0.192 C  
ENDROOT
BRANCH  15  23
HETATM   23  N   UNL     1     -10.326   9.188  67.598  1.00  0.00    -0.240 N  
HETATM   24  H   UNL     1     -10.588   9.021  66.626  1.00  0.00     0.000 HD 
HETATM   25  O   UNL     1     -10.129   8.211  69.695  1.00  0.00    -0.190 OA 
HETATM   26  C   UNL     1     -10.093   8.111  68.463  1.00  0.00    -0.200 C  
BRANCH  26  27
HETATM   27  C   UNL     1      -9.666   6.804  67.769  1.00  0.00    -0.140 C  
HETATM   28  C   UNL     1      -8.541   7.115  66.756  1.00  0.00    -0.124 C  
HETATM   29  N   UNL     1      -7.159   6.846  67.227  1.00  0.00    -0.081 NA 
HETATM   30  C   UNL     1      -6.937   5.384  67.401  1.00  0.00    -0.065 C  
HETATM   31  C   UNL     1      -6.790   7.575  68.446  1.00  0.00    -0.063 C  
HETATM   32  C   UNL     1      -5.619   5.016  68.225  1.00  0.00    -0.016 C  
HETATM   33  C   UNL     1      -5.897   4.148  69.407  1.00  0.00    -0.018 A  
HETATM   34  C   UNL     1      -5.253   3.912  70.607  1.00  0.00    -0.004 A  
HETATM   35  N   UNL     1      -5.943   2.922  71.264  1.00  0.00    -0.014 NA 
HETATM   36  C   UNL     1      -7.018   2.502  70.511  1.00  0.00    -0.033 A  
HETATM   37  H   UNL     1      -5.694   2.549  72.180  1.00  0.00     0.000 HD 
HETATM   38  C   UNL     1      -8.024   1.549  70.696  1.00  0.00    -0.044 A  
HETATM   39  C   UNL     1      -9.016   1.469  69.700  1.00  0.00    -0.132 A  
HETATM   40  C   UNL     1      -9.076   2.381  68.644  1.00  0.00    -0.200 A  
HETATM   41  C   UNL     1      -8.118   3.388  68.554  1.00  0.00    -0.073 A  
HETATM   42  C   UNL     1      -7.041   3.343  69.419  1.00  0.00    -0.042 A  
HETATM   43  C   UNL     1      -8.301   4.663  67.796  1.00  0.00    -0.103 C  
HETATM   44  C   UNL     1      -9.198   5.625  68.653  1.00  0.00    -0.134 C  
ENDBRANCH  26  27
ENDBRANCH  15  23
TORSDOF 2
ENDMDL
MODEL      108
REMARK 921   NORMALIZED FREE ENERGY PREDICTED BY IDOCK:    1.91 KCAL/MOL
REMARK 922        TOTAL FREE ENERGY PREDICTED BY IDOCK:    1.73 KCAL/MOL
REMARK 923 INTER-LIGAND FREE ENERGY PREDICTED BY IDOCK:    1.85 KCAL/MOL
REMARK 924 INTRA-LIGAND FREE ENERGY PREDICTED BY IDOCK:   -0.12 KCAL/MOL
REMARK 927      BINDING AFFINITY PREDICTED BY RF-SCORE:    0.00 PKD
ROOT
HETATM    1  C   UNL     1     -10.971  12.246  64.611  1.00  0.00    -0.306 C  
HETATM    2  C   UNL     1     -11.612  11.498  63.447  1.00  0.00    -0.232 C  
HETATM    3  C   UNL     1     -12.514  12.579  62.773  1.00  0.00     0.624 C  
HETATM    4  C   UNL     1     -12.537  13.787  63.706  1.00  0.00     0.007 C  
HETATM    5  N   UNL     1     -11.910  13.318  64.916  1.00  0.00    -0.345 N  
HETATM    6  C   UNL     1     -11.656  14.186  65.968  1.00  0.00    -0.361 C  
HETATM    7  O   UNL     1     -12.260  15.239  66.140  1.00  0.00     0.274 OA 
HETATM    8  C   UNL     1     -10.735  13.523  66.965  1.00  0.00    -0.277 C  
HETATM    9  C   UNL     1     -10.691  14.135  68.359  1.00  0.00    -0.264 C  
HETATM   10  N   UNL     1      -9.452  12.943  66.159  1.00  0.00    -0.204 N  
HETATM   11  C   UNL     1      -9.977  15.464  68.447  1.00  0.00    -0.215 C  
HETATM   12  C   UNL     1     -12.017  14.091  69.144  1.00  0.00    -0.400 C  
HETATM   13  C   UNL     1      -8.243  12.388  66.597  1.00  0.00     0.060 C  
HETATM   14  O   UNL     1      -7.172  12.507  66.017  1.00  0.00     1.220 OA 
HETATM   15  C   UNL     1      -8.572  11.504  67.783  1.00  0.00    -0.138 C  
HETATM   16  H   UNL     1      -8.495  10.494  65.666  1.00  0.00     0.000 HD 
HETATM   17  C   UNL     1      -8.032  12.721  68.808  1.00  0.00     0.069 C  
HETATM   18  O   UNL     1      -9.965  11.174  67.102  1.00  0.00    -0.181 OA 
HETATM   19  O   UNL     1      -9.093  10.818  65.004  1.00  0.00    -0.194 OA 
HETATM   20  C   UNL     1      -9.949  11.692  65.740  1.00  0.00    -0.237 C  
HETATM   21  C   UNL     1      -6.507  13.050  68.811  1.00  0.00    -0.085 C  
HETATM   22  C   UNL     1      -8.420  12.744  70.278  1.00  0.00     4.617 C  
ENDROOT
BRANCH  15  23
HETATM   23  N   UNL     1      -8.135  10.225  68.300  1.00  0.00    -0.105 N  
HETATM   24  H   UNL     1      -8.142  10.045  69.304  1.00  0.00     0.000 HD 
HETATM   25  O   UNL     1      -7.328   9.482  66.253  1.00  0.00    -0.092 OA 
HETATM   26  C   UNL     1      -7.702   9.237  67.406  1.00  0.00    -0.095 C  
BRANCH  26  27
HETATM   27  C   UNL     1      -7.837   7.793  67.924  1.00  0.00    -0.127 C  
HETATM   28  C   UNL     1      -9.149   7.667  68.731  1.00  0.00    -0.139 C  
HETATM   29  N   UNL     1     -10.302   7.087  67.998  1.00  0.00    -0.182 NA 
HETATM   30  C   UNL     1     -10.062   5.650  67.692  1.00  0.00    -0.172 C  
HETATM   31  C   UNL     1     -10.670   7.822  66.783  1.00  0.00    -0.045 C  
HETATM   32  C   UNL     1     -11.071   5.033  66.618  1.00  0.00     0.535 C  
HETATM   33  C   UNL     1     -10.373   4.415  65.454  1.00  0.00    -0.238 A  
HETATM   34  C   UNL     1     -10.724   4.151  64.143  1.00  0.00    -0.082 A  
HETATM   35  N   UNL     1      -9.683   3.468  63.560  1.00  0.00    -0.129 NA 
HETATM   36  C   UNL     1      -8.665   3.275  64.469  1.00  0.00    -0.099 A  
HETATM   37  H   UNL     1      -9.666   3.149  62.592  1.00  0.00     0.000 HD 
HETATM   38  C   UNL     1      -7.410   2.659  64.410  1.00  0.00    -0.062 A  
HETATM   39  C   UNL     1      -6.608   2.740  65.564  1.00  0.00    -0.035 A  
HETATM   40  C   UNL     1      -6.980   3.507  66.670  1.00  0.00    -0.054 A  
HETATM   41  C   UNL     1      -8.190   4.197  66.648  1.00  0.00    -0.101 A  
HETATM   42  C   UNL     1      -9.058   3.959  65.599  1.00  0.00    -0.144 A  
HETATM   43  C   UNL     1      -8.504   5.378  67.508  1.00  0.00    -0.106 C  
HETATM   44  C   UNL     1      -7.800   6.640  66.894  1.00  0.00    -0.108 C  
ENDBRANCH  26  27
ENDBRANCH  15  23
TORSDOF 2
ENDMDL
MODEL      109
REMARK 921   NORMALIZED FREE ENERGY PREDICTED BY IDOCK:    1.98 KCAL/MOL
REMARK 922        TOTAL FREE ENERGY PREDICTED BY IDOCK:    1.81 KCAL/MOL
REMARK 923 INTER-LIGAND FREE ENERGY PREDICTED BY IDOCK:    1.14 KCAL/MOL
REMARK 924 INTRA-LIGAND FREE ENERGY PREDICTED BY IDOCK:    0.67 KCAL/MOL
REMARK 927      BINDING AFFINITY PREDICTED BY RF-SCORE:    0.00 PKD
ROOT
HETATM    1  C   UNL     1     -12.053  15.637  71.870  1.00  0.00    -0.432 C  
HETATM    2  C   UNL     1     -12.333  15.187  73.300  1.00  0.00    -0.567 C  
HETATM    3  C   UNL     1     -12.518  16.529  74.073  1.00  0.00    -0.484 C  
HETATM    4  C   UNL     1     -12.098  17.652  73.128  1.00  0.00     1.904 C  
HETATM    5  N   UNL     1     -11.488  16.973  72.014  1.00  0.00     0.342 N  
HETATM    6  C   UNL     1     -11.074  17.677  70.891  1.00  0.00     2.070 C  
HETATM    7  O   UNL     1     -10.815  18.874  70.900  1.00  0.00     1.965 OA 
HETATM    8  C   UNL     1     -10.762  16.712  69.772  1.00  0.00    -0.254 C  
HETATM    9  C   UNL     1      -9.902  17.249  68.634  1.00  0.00    -0.313 C  
HETATM   10  N   UNL     1     -12.030  15.716  69.593  1.00  0.00    -0.364 N  
HETATM   11  C   UNL     1     -10.600  18.228  67.718  1.00  0.00    -0.415 C  
HETATM   12  C   UNL     1      -8.476  17.680  69.028  1.00  0.00    -0.021 C  
HETATM   13  C   UNL     1     -12.336  14.755  68.623  1.00  0.00     0.040 C  
HETATM   14  O   UNL     1     -13.468  14.484  68.244  1.00  0.00     2.968 OA 
HETATM   15  C   UNL     1     -11.043  14.035  68.294  1.00  0.00    -0.254 C  
HETATM   16  H   UNL     1     -12.420  13.093  69.945  1.00  0.00     0.000 HD 
HETATM   17  C   UNL     1     -10.912  14.961  66.897  1.00  0.00    -0.327 C  
HETATM   18  O   UNL     1     -10.591  14.242  69.800  1.00  0.00    -0.036 OA 
HETATM   19  O   UNL     1     -12.609  13.620  70.711  1.00  0.00    -0.338 OA 
HETATM   20  C   UNL     1     -11.731  14.736  70.562  1.00  0.00    -0.293 C  
HETATM   21  C   UNL     1     -11.949  14.714  65.758  1.00  0.00    -0.236 C  
HETATM   22  C   UNL     1      -9.586  15.106  66.169  1.00  0.00    -0.344 C  
ENDROOT
BRANCH  15  23
HETATM   23  N   UNL     1     -10.635  12.679  68.000  1.00  0.00    -0.215 N  
HETATM   24  H   UNL     1      -9.714  12.345  68.284  1.00  0.00     0.000 HD 
HETATM   25  O   UNL     1     -12.467  12.241  66.642  1.00  0.00    -0.300 OA 
HETATM   26  C   UNL     1     -11.518  11.831  67.320  1.00  0.00    -0.303 C  
BRANCH  26  27
HETATM   27  C   UNL     1     -11.294  10.328  67.573  1.00  0.00    -0.032 C  
HETATM   28  C   UNL     1     -10.455   9.742  66.415  1.00  0.00    -0.120 C  
HETATM   29  N   UNL     1      -9.002   9.594  66.682  1.00  0.00    -0.144 NA 
HETATM   30  C   UNL     1      -8.760   8.550  67.715  1.00  0.00    -0.137 C  
HETATM   31  C   UNL     1      -8.331  10.848  67.044  1.00  0.00    -0.132 C  
HETATM   32  C   UNL     1      -7.281   8.558  68.319  1.00  0.00    -0.086 C  
HETATM   33  C   UNL     1      -7.263   8.681  69.806  1.00  0.00    -0.051 A  
HETATM   34  C   UNL     1      -6.341   9.140  70.728  1.00  0.00    -0.064 A  
HETATM   35  N   UNL     1      -6.855   8.912  71.982  1.00  0.00    -0.274 NA 
HETATM   36  C   UNL     1      -8.089   8.306  71.895  1.00  0.00    -0.141 A  
HETATM   37  H   UNL     1      -6.388   9.157  72.855  1.00  0.00     0.000 HD 
HETATM   38  C   UNL     1      -9.027   7.866  72.834  1.00  0.00    -0.273 A  
HETATM   39  C   UNL     1     -10.238   7.352  72.332  1.00  0.00    -0.240 A  
HETATM   40  C   UNL     1     -10.551   7.400  70.971  1.00  0.00    -0.234 A  
HETATM   41  C   UNL     1      -9.635   7.948  70.077  1.00  0.00    -0.168 A  
HETATM   42  C   UNL     1      -8.376   8.270  70.547  1.00  0.00    -0.124 A  
HETATM   43  C   UNL     1      -9.989   8.479  68.725  1.00  0.00    -0.197 C  
HETATM   44  C   UNL     1     -10.631   9.900  68.903  1.00  0.00    -0.239 C  
ENDBRANCH  26  27
ENDBRANCH  15  23
TORSDOF 2
ENDMDL
MODEL      110
REMARK 921   NORMALIZED FREE ENERGY PREDICTED BY IDOCK:    2.63 KCAL/MOL
REMARK 922        TOTAL FREE ENERGY PREDICTED BY IDOCK:    2.54 KCAL/MOL
REMARK 923 INTER-LIGAND FREE ENERGY PREDICTED BY IDOCK:    1.93 KCAL/MOL
REMARK 924 INTRA-LIGAND FREE ENERGY PREDICTED BY IDOCK:    0.61 KCAL/MOL
REMARK 927      BINDING AFFINITY PREDICTED BY RF-SCORE:    0.00 PKD
ROOT
HETATM    1  C   UNL     1      -9.677  14.342  68.788  1.00  0.00    -0.173 C  
HETATM    2  C   UNL     1      -8.692  14.485  69.944  1.00  0.00     0.750 C  
HETATM    3  C   UNL     1      -9.157  15.793  70.657  1.00  0.00     1.862 C  
HETATM    4  C   UNL     1     -10.197  16.450  69.753  1.00  0.00    -0.142 C  
HETATM    5  N   UNL     1     -10.127  15.703  68.523  1.00  0.00    -0.208 N  
HETATM    6  C   UNL     1     -11.017  15.951  67.488  1.00  0.00    -0.280 C  
HETATM    7  O   UNL     1     -11.619  17.010  67.351  1.00  0.00     0.398 OA 
HETATM    8  C   UNL     1     -10.927  14.846  66.462  1.00  0.00    -0.327 C  
HETATM    9  C   UNL     1     -11.493  15.154  65.082  1.00  0.00    -0.304 C  
HETATM   10  N   UNL     1     -11.069  13.427  67.234  1.00  0.00    -0.276 N  
HETATM   11  C   UNL     1     -13.002  15.216  65.014  1.00  0.00     0.743 C  
HETATM   12  C   UNL     1     -10.792  16.294  64.317  1.00  0.00     0.607 C  
HETATM   13  C   UNL     1     -11.210  12.115  66.765  1.00  0.00    -0.322 C  
HETATM   14  O   UNL     1     -11.850  11.238  67.330  1.00  0.00    -0.590 OA 
HETATM   15  C   UNL     1     -10.297  11.979  65.563  1.00  0.00    -0.263 C  
HETATM   16  H   UNL     1      -9.440  11.346  67.654  1.00  0.00     0.000 HD 
HETATM   17  C   UNL     1     -11.633  12.158  64.559  1.00  0.00    -0.403 C  
HETATM   18  O   UNL     1      -9.296  12.994  66.257  1.00  0.00    -0.230 OA 
HETATM   19  O   UNL     1      -9.407  12.010  68.333  1.00  0.00    -0.200 OA 
HETATM   20  C   UNL     1      -9.734  13.209  67.631  1.00  0.00    -0.213 C  
HETATM   21  C   UNL     1     -12.691  11.012  64.540  1.00  0.00     2.896 C  
HETATM   22  C   UNL     1     -11.473  12.542  63.096  1.00  0.00    -0.219 C  
ENDROOT
BRANCH  15  23
HETATM   23  N   UNL     1      -9.424  10.967  65.009  1.00  0.00    -0.220 N  
HETATM   24  H   UNL     1      -9.158  10.155  65.567  1.00  0.00     0.000 HD 
HETATM   25  O   UNL     1      -8.923  12.196  63.104  1.00  0.00     0.125 OA 
HETATM   26  C   UNL     1      -8.950  11.113  63.700  1.00  0.00    -0.025 C  
BRANCH  26  27
HETATM   27  C   UNL     1      -8.567   9.795  63.000  1.00  0.00    -0.196 C  
HETATM   28  C   UNL     1      -7.152   9.938  62.397  1.00  0.00    -0.115 C  
HETATM   29  N   UNL     1      -6.047   9.362  63.205  1.00  0.00    -0.090 NA 
HETATM   30  C   UNL     1      -6.146   7.878  63.253  1.00  0.00    -0.067 C  
HETATM   31  C   UNL     1      -5.944   9.919  64.559  1.00  0.00    -0.106 C  
HETATM   32  C   UNL     1      -5.226   7.196  64.366  1.00  0.00    -0.029 C  
HETATM   33  C   UNL     1      -5.996   6.326  65.303  1.00  0.00    -0.026 A  
HETATM   34  C   UNL     1      -5.798   5.886  66.598  1.00  0.00    -0.018 A  
HETATM   35  N   UNL     1      -6.817   5.015  66.903  1.00  0.00    -0.061 NA 
HETATM   36  C   UNL     1      -7.668   4.873  65.829  1.00  0.00    -0.091 A  
HETATM   37  H   UNL     1      -6.926   4.540  67.799  1.00  0.00     0.000 HD 
HETATM   38  C   UNL     1      -8.833   4.134  65.600  1.00  0.00    -0.122 A  
HETATM   39  C   UNL     1      -9.473   4.323  64.361  1.00  0.00    -0.149 A  
HETATM   40  C   UNL     1      -9.050   5.297  63.453  1.00  0.00     0.270 A  
HETATM   41  C   UNL     1      -7.950   6.092  63.765  1.00  0.00    -0.112 A  
HETATM   42  C   UNL     1      -7.212   5.772  64.888  1.00  0.00    -0.066 A  
HETATM   43  C   UNL     1      -7.670   7.424  63.150  1.00  0.00    -0.128 C  
HETATM   44  C   UNL     1      -8.602   8.490  63.828  1.00  0.00     0.049 C  
ENDBRANCH  26  27
ENDBRANCH  15  23
TORSDOF 2
ENDMDL
MODEL      111
REMARK 921   NORMALIZED FREE ENERGY PREDICTED BY IDOCK:    3.79 KCAL/MOL
REMARK 922        TOTAL FREE ENERGY PREDICTED BY IDOCK:    3.83 KCAL/MOL
REMARK 923 INTER-LIGAND FREE ENERGY PREDICTED BY IDOCK:    3.84 KCAL/MOL
REMARK 924 INTRA-LIGAND FREE ENERGY PREDICTED BY IDOCK:   -0.01 KCAL/MOL
REMARK 927      BINDING AFFINITY PREDICTED BY RF-SCORE:    0.00 PKD
ROOT
HETATM    1  C   UNL     1      -9.669  15.738  68.251  1.00  0.00    -0.201 C  
HETATM    2  C   UNL     1      -8.643  16.086  69.325  1.00  0.00    -0.224 C  
HETATM    3  C   UNL     1      -8.884  17.608  69.576  1.00  0.00     0.680 C  
HETATM    4  C   UNL     1      -9.836  18.096  68.488  1.00  0.00    -0.382 C  
HETATM    5  N   UNL     1      -9.913  16.997  67.559  1.00  0.00    -0.266 N  
HETATM    6  C   UNL     1     -10.782  17.039  66.478  1.00  0.00    -0.073 C  
HETATM    7  O   UNL     1     -11.220  18.078  65.999  1.00  0.00     0.391 OA 
HETATM    8  C   UNL     1     -10.888  15.666  65.857  1.00  0.00    -0.293 C  
HETATM    9  C   UNL     1     -11.438  15.605  64.437  1.00  0.00    -0.266 C  
HETATM   10  N   UNL     1     -11.225  14.602  67.034  1.00  0.00    -0.334 N  
HETATM   11  C   UNL     1     -12.921  15.872  64.318  1.00  0.00     1.548 C  
HETATM   12  C   UNL     1     -10.592  16.323  63.367  1.00  0.00     5.775 C  
HETATM   13  C   UNL     1     -11.576  13.248  67.000  1.00  0.00    -0.359 C  
HETATM   14  O   UNL     1     -12.326  12.702  67.799  1.00  0.00    -0.250 OA 
HETATM   15  C   UNL     1     -10.726  12.601  65.925  1.00  0.00    -0.266 C  
HETATM   16  H   UNL     1      -9.920  12.538  68.128  1.00  0.00     0.000 HD 
HETATM   17  C   UNL     1     -12.045  12.655  64.885  1.00  0.00    -0.494 C  
HETATM   18  O   UNL     1      -9.564  13.618  66.285  1.00  0.00    -0.276 OA 
HETATM   19  O   UNL     1      -9.768  13.369  68.563  1.00  0.00    -0.218 OA 
HETATM   20  C   UNL     1      -9.927  14.320  67.511  1.00  0.00    -0.235 C  
HETATM   21  C   UNL     1     -13.265  11.737  65.205  1.00  0.00     3.199 C  
HETATM   22  C   UNL     1     -11.868  12.528  63.381  1.00  0.00    -0.587 C  
ENDROOT
BRANCH  15  23
HETATM   23  N   UNL     1     -10.032  11.345  65.740  1.00  0.00    -0.220 N  
HETATM   24  H   UNL     1      -9.467  11.186  64.907  1.00  0.00     0.000 HD 
HETATM   25  O   UNL     1     -11.063  10.314  67.548  1.00  0.00    -0.311 OA 
HETATM   26  C   UNL     1     -10.146  10.349  66.719  1.00  0.00    -0.214 C  
BRANCH  26  27
HETATM   27  C   UNL     1      -8.971   9.354  66.769  1.00  0.00    -0.152 C  
HETATM   28  C   UNL     1      -7.906   9.882  67.756  1.00  0.00    -0.094 C  
HETATM   29  N   UNL     1      -7.940   9.292  69.118  1.00  0.00    -0.094 NA 
HETATM   30  C   UNL     1      -7.551   7.855  69.079  1.00  0.00    -0.099 C  
HETATM   31  C   UNL     1      -9.222   9.464  69.811  1.00  0.00    -0.196 C  
HETATM   32  C   UNL     1      -7.889   7.050  70.417  1.00  0.00    -0.108 C  
HETATM   33  C   UNL     1      -8.733   5.845  70.171  1.00  0.00    -0.141 A  
HETATM   34  C   UNL     1      -9.608   5.103  70.942  1.00  0.00    -0.175 A  
HETATM   35  N   UNL     1     -10.022   4.030  70.189  1.00  0.00    -0.126 NA 
HETATM   36  C   UNL     1      -9.427   4.054  68.947  1.00  0.00    -0.167 A  
HETATM   37  H   UNL     1     -10.677   3.315  70.506  1.00  0.00     0.000 HD 
HETATM   38  C   UNL     1      -9.490   3.230  67.819  1.00  0.00    -0.217 A  
HETATM   39  C   UNL     1      -8.771   3.648  66.684  1.00  0.00    -0.122 A  
HETATM   40  C   UNL     1      -8.131   4.888  66.631  1.00  0.00    -0.107 A  
HETATM   41  C   UNL     1      -8.182   5.732  67.738  1.00  0.00    -0.101 A  
HETATM   42  C   UNL     1      -8.721   5.238  68.911  1.00  0.00    -0.094 A  
HETATM   43  C   UNL     1      -7.965   7.210  67.683  1.00  0.00    -0.114 C  
HETATM   44  C   UNL     1      -9.274   7.884  67.138  1.00  0.00    -0.175 C  
ENDBRANCH  26  27
ENDBRANCH  15  23
TORSDOF 2
ENDMDL
MODEL      112
REMARK 921   NORMALIZED FREE ENERGY PREDICTED BY IDOCK:    4.19 KCAL/MOL
REMARK 922        TOTAL FREE ENERGY PREDICTED BY IDOCK:    4.28 KCAL/MOL
REMARK 923 INTER-LIGAND FREE ENERGY PREDICTED BY IDOCK:    2.95 KCAL/MOL
REMARK 924 INTRA-LIGAND FREE ENERGY PREDICTED BY IDOCK:    1.33 KCAL/MOL
REMARK 927      BINDING AFFINITY PREDICTED BY RF-SCORE:    0.00 PKD
ROOT
HETATM    1  C   UNL     1      -7.346  16.118  68.678  1.00  0.00    -0.175 C  
HETATM    2  C   UNL     1      -5.999  16.282  69.375  1.00  0.00    -0.157 C  
HETATM    3  C   UNL     1      -5.329  17.457  68.596  1.00  0.00    -0.147 C  
HETATM    4  C   UNL     1      -6.193  17.731  67.368  1.00  0.00    -0.147 C  
HETATM    5  N   UNL     1      -7.123  16.631  67.332  1.00  0.00    -0.146 N  
HETATM    6  C   UNL     1      -8.149  16.597  66.397  1.00  0.00    -0.324 C  
HETATM    7  O   UNL     1      -8.122  17.214  65.339  1.00  0.00     0.118 OA 
HETATM    8  C   UNL     1      -9.140  15.520  66.768  1.00  0.00    -0.255 C  
HETATM    9  C   UNL     1     -10.077  15.050  65.662  1.00  0.00    -0.390 C  
HETATM   10  N   UNL     1      -9.562  15.733  68.320  1.00  0.00    -0.199 N  
HETATM   11  C   UNL     1     -11.156  16.038  65.281  1.00  0.00    -0.219 C  
HETATM   12  C   UNL     1      -9.391  14.385  64.452  1.00  0.00     3.101 C  
HETATM   13  C   UNL     1     -10.545  15.131  69.115  1.00  0.00    -0.256 C  
HETATM   14  O   UNL     1     -11.155  15.695  70.014  1.00  0.00    -0.265 OA 
HETATM   15  C   UNL     1     -10.557  13.658  68.757  1.00  0.00    -0.231 C  
HETATM   16  H   UNL     1      -9.222  14.324  70.569  1.00  0.00     0.000 HD 
HETATM   17  C   UNL     1     -11.919  13.925  67.809  1.00  0.00    -0.390 C  
HETATM   18  O   UNL     1      -8.996  13.749  68.493  1.00  0.00    -0.180 OA 
HETATM   19  O   UNL     1      -8.533  14.954  70.397  1.00  0.00     0.650 OA 
HETATM   20  C   UNL     1      -8.521  15.041  68.972  1.00  0.00    -0.200 C  
HETATM   21  C   UNL     1     -13.251  14.295  68.533  1.00  0.00     2.973 C  
HETATM   22  C   UNL     1     -12.341  12.933  66.738  1.00  0.00    -0.010 C  
ENDROOT
BRANCH  15  23
HETATM   23  N   UNL     1     -10.711  12.403  69.458  1.00  0.00    -0.424 N  
HETATM   24  H   UNL     1     -10.069  11.630  69.280  1.00  0.00     0.000 HD 
HETATM   25  O   UNL     1     -12.753  12.982  70.398  1.00  0.00    -0.126 OA 
HETATM   26  C   UNL     1     -11.750  12.259  70.386  1.00  0.00    -0.037 C  
BRANCH  26  27
HETATM   27  C   UNL     1     -11.500  11.202  71.479  1.00  0.00     1.550 C  
HETATM   28  C   UNL     1     -12.859  10.740  72.052  1.00  0.00    -0.252 C  
HETATM   29  N   UNL     1     -13.389   9.466  71.503  1.00  0.00    -0.378 NA 
HETATM   30  C   UNL     1     -12.540   8.318  71.923  1.00  0.00    -0.344 C  
HETATM   31  C   UNL     1     -13.570   9.472  70.047  1.00  0.00     1.520 C  
HETATM   32  C   UNL     1     -12.816   6.969  71.114  1.00  0.00    -0.328 C  
HETATM   33  C   UNL     1     -11.587   6.414  70.475  1.00  0.00    -0.424 A  
HETATM   34  C   UNL     1     -11.348   5.588  69.392  1.00  0.00     0.781 A  
HETATM   35  N   UNL     1      -9.996   5.343  69.344  1.00  0.00    -0.190 NA 
HETATM   36  C   UNL     1      -9.352   5.985  70.379  1.00  0.00    -0.160 A  
HETATM   37  H   UNL     1      -9.535   4.766  68.641  1.00  0.00     0.000 HD 
HETATM   38  C   UNL     1      -8.020   6.075  70.792  1.00  0.00    -0.114 A  
HETATM   39  C   UNL     1      -7.747   6.917  71.886  1.00  0.00    -0.094 A  
HETATM   40  C   UNL     1      -8.731   7.731  72.454  1.00  0.00    -0.184 A  
HETATM   41  C   UNL     1     -10.026   7.696  71.943  1.00  0.00    -0.217 A  
HETATM   42  C   UNL     1     -10.331   6.730  71.003  1.00  0.00    -0.228 A  
HETATM   43  C   UNL     1     -11.031   8.789  72.115  1.00  0.00    -0.404 C  
HETATM   44  C   UNL     1     -10.688   9.941  71.104  1.00  0.00    -0.150 C  
ENDBRANCH  26  27
ENDBRANCH  15  23
TORSDOF 2
ENDMDL
MODEL      113
REMARK 921   NORMALIZED FREE ENERGY PREDICTED BY IDOCK:    4.49 KCAL/MOL
REMARK 922        TOTAL FREE ENERGY PREDICTED BY IDOCK:    4.61 KCAL/MOL
REMARK 923 INTER-LIGAND FREE ENERGY PREDICTED BY IDOCK:    3.08 KCAL/MOL
REMARK 924 INTRA-LIGAND FREE ENERGY PREDICTED BY IDOCK:    1.54 KCAL/MOL
REMARK 927      BINDING AFFINITY PREDICTED BY RF-SCORE:    0.00 PKD
ROOT
HETATM    1  C   UNL     1      -8.304   7.411  71.905  1.00  0.00    -0.106 C  
HETATM    2  C   UNL     1      -7.418   6.806  72.989  1.00  0.00    -0.086 C  
HETATM    3  C   UNL     1      -8.382   5.843  73.750  1.00  0.00    -0.115 C  
HETATM    4  C   UNL     1      -9.792   6.124  73.238  1.00  0.00    -0.166 C  
HETATM    5  N   UNL     1      -9.654   7.321  72.448  1.00  0.00    -0.148 N  
HETATM    6  C   UNL     1     -10.727   7.825  71.726  1.00  0.00    -0.223 C  
HETATM    7  O   UNL     1     -11.898   7.581  71.994  1.00  0.00    -0.278 OA 
HETATM    8  C   UNL     1     -10.242   8.882  70.762  1.00  0.00    -0.226 C  
HETATM    9  C   UNL     1     -11.297   9.832  70.210  1.00  0.00    -0.333 C  
HETATM   10  N   UNL     1      -9.006   8.263  69.913  1.00  0.00    -0.139 N  
HETATM   11  C   UNL     1     -12.239   9.216  69.201  1.00  0.00     1.949 C  
HETATM   12  C   UNL     1     -12.002  10.719  71.254  1.00  0.00    -0.286 C  
HETATM   13  C   UNL     1      -8.302   8.740  68.801  1.00  0.00    -0.124 C  
HETATM   14  O   UNL     1      -7.825   8.034  67.923  1.00  0.00    -0.121 OA 
HETATM   15  C   UNL     1      -8.112  10.230  69.009  1.00  0.00    -0.132 C  
HETATM   16  H   UNL     1      -6.392   8.805  69.734  1.00  0.00     0.000 HD 
HETATM   17  C   UNL     1      -9.381  10.514  67.944  1.00  0.00    -0.150 C  
HETATM   18  O   UNL     1      -8.022   9.961  70.570  1.00  0.00    -0.246 OA 
HETATM   19  O   UNL     1      -6.611   8.154  70.389  1.00  0.00    -0.036 OA 
HETATM   20  C   UNL     1      -7.930   8.523  70.787  1.00  0.00    -0.107 C  
HETATM   21  C   UNL     1      -9.162  10.167  66.439  1.00  0.00    -0.190 C  
HETATM   22  C   UNL     1     -10.101  11.852  67.917  1.00  0.00    -0.199 C  
ENDROOT
BRANCH  15  23
HETATM   23  N   UNL     1      -7.070  11.205  68.771  1.00  0.00    -0.085 N  
HETATM   24  H   UNL     1      -6.528  11.179  67.908  1.00  0.00     0.000 HD 
HETATM   25  O   UNL     1      -7.156  12.074  70.923  1.00  0.00     1.834 OA 
HETATM   26  C   UNL     1      -6.814  12.184  69.739  1.00  0.00     0.201 C  
BRANCH  26  27
HETATM   27  C   UNL     1      -6.174  13.476  69.198  1.00  0.00    -0.097 C  
HETATM   28  C   UNL     1      -6.193  13.440  67.654  1.00  0.00    -0.138 C  
HETATM   29  N   UNL     1      -7.297  14.191  67.005  1.00  0.00     0.083 NA 
HETATM   30  C   UNL     1      -7.133  15.655  67.215  1.00  0.00    -0.207 C  
HETATM   31  C   UNL     1      -8.637  13.755  67.414  1.00  0.00    -0.203 C  
HETATM   32  C   UNL     1      -8.432  16.516  66.864  1.00  0.00    -0.244 C  
HETATM   33  C   UNL     1      -8.888  17.368  68.001  1.00  0.00    -0.252 A  
HETATM   34  C   UNL     1     -10.098  17.926  68.367  1.00  0.00    -0.383 A  
HETATM   35  N   UNL     1      -9.880  18.705  69.479  1.00  0.00    -0.037 NA 
HETATM   36  C   UNL     1      -8.550  18.671  69.838  1.00  0.00     1.336 A  
HETATM   37  H   UNL     1     -10.602  19.234  69.969  1.00  0.00     0.000 HD 
HETATM   38  C   UNL     1      -7.802  19.262  70.861  1.00  0.00     2.669 A  
HETATM   39  C   UNL     1      -6.441  18.909  70.938  1.00  0.00     0.849 A  
HETATM   40  C   UNL     1      -5.888  17.919  70.124  1.00  0.00    -0.186 A  
HETATM   41  C   UNL     1      -6.693  17.273  69.189  1.00  0.00    -0.243 A  
HETATM   42  C   UNL     1      -7.972  17.756  68.984  1.00  0.00    -0.079 A  
HETATM   43  C   UNL     1      -6.392  15.934  68.597  1.00  0.00    -0.112 C  
HETATM   44  C   UNL     1      -6.768  14.831  69.649  1.00  0.00    -0.166 C  
ENDBRANCH  26  27
ENDBRANCH  15  23
TORSDOF 2
ENDMDL
MODEL      114
REMARK 921   NORMALIZED FREE ENERGY PREDICTED BY IDOCK:    6.26 KCAL/MOL
REMARK 922        TOTAL FREE ENERGY PREDICTED BY IDOCK:    6.58 KCAL/MOL
REMARK 923 INTER-LIGAND FREE ENERGY PREDICTED BY IDOCK:    5.25 KCAL/MOL
REMARK 924 INTRA-LIGAND FREE ENERGY PREDICTED BY IDOCK:    1.34 KCAL/MOL
REMARK 927      BINDING AFFINITY PREDICTED BY RF-SCORE:    0.00 PKD
ROOT
HETATM    1  C   UNL     1     -10.732  13.342  66.079  1.00  0.00    -0.278 C  
HETATM    2  C   UNL     1     -11.101  14.745  66.550  1.00  0.00    -0.334 C  
HETATM    3  C   UNL     1     -10.871  15.626  65.282  1.00  0.00    -0.420 C  
HETATM    4  C   UNL     1     -10.163  14.750  64.251  1.00  0.00     1.122 C  
HETATM    5  N   UNL     1      -9.800  13.561  64.980  1.00  0.00    -0.133 N  
HETATM    6  C   UNL     1      -9.224  12.478  64.332  1.00  0.00     0.816 C  
HETATM    7  O   UNL     1      -8.628  12.565  63.265  1.00  0.00     1.475 OA 
HETATM    8  C   UNL     1      -9.229  11.275  65.246  1.00  0.00    -0.172 C  
HETATM    9  C   UNL     1      -8.274  10.144  64.884  1.00  0.00    -0.157 C  
HETATM   10  N   UNL     1     -10.735  11.079  65.815  1.00  0.00    -0.194 N  
HETATM   11  C   UNL     1      -8.677   9.337  63.671  1.00  0.00    -0.188 C  
HETATM   12  C   UNL     1      -6.777  10.505  64.917  1.00  0.00     0.021 C  
HETATM   13  C   UNL     1     -11.329  10.054  66.561  1.00  0.00     0.935 C  
HETATM   14  O   UNL     1     -12.498   9.707  66.461  1.00  0.00     6.304 OA 
HETATM   15  C   UNL     1     -10.308   9.614  67.591  1.00  0.00    -0.237 C  
HETATM   16  H   UNL     1     -11.864  11.249  68.235  1.00  0.00     0.000 HD 
HETATM   17  C   UNL     1      -9.943   8.287  66.626  1.00  0.00    -0.348 C  
HETATM   18  O   UNL     1      -9.783  11.109  67.653  1.00  0.00    -0.167 OA 
HETATM   19  O   UNL     1     -11.875  12.061  67.743  1.00  0.00    -0.488 OA 
HETATM   20  C   UNL     1     -10.715  11.957  66.919  1.00  0.00    -0.246 C  
HETATM   21  C   UNL     1     -11.030   7.180  66.466  1.00  0.00     0.455 C  
HETATM   22  C   UNL     1      -8.648   7.513  66.809  1.00  0.00    -0.127 C  
ENDROOT
BRANCH  15  23
HETATM   23  N   UNL     1     -10.318   9.199  68.977  1.00  0.00    -0.211 N  
HETATM   24  H   UNL     1     -10.110   8.233  69.228  1.00  0.00     0.000 HD 
HETATM   25  O   UNL     1     -11.213  11.199  69.746  1.00  0.00    -0.259 OA 
HETATM   26  C   UNL     1     -10.616  10.140  69.971  1.00  0.00    -0.287 C  
BRANCH  26  27
HETATM   27  C   UNL     1     -10.037   9.817  71.362  1.00  0.00     0.391 C  
HETATM   28  C   UNL     1     -11.188   9.386  72.298  1.00  0.00     0.444 C  
HETATM   29  N   UNL     1     -11.363   7.922  72.473  1.00  0.00    -0.363 NA 
HETATM   30  C   UNL     1     -10.210   7.338  73.213  1.00  0.00    -0.319 C  
HETATM   31  C   UNL     1     -11.596   7.194  71.220  1.00  0.00    -0.294 C  
HETATM   32  C   UNL     1     -10.131   5.744  73.148  1.00  0.00    -0.200 C  
HETATM   33  C   UNL     1      -8.822   5.249  72.630  1.00  0.00    -0.123 A  
HETATM   34  C   UNL     1      -8.405   4.089  72.006  1.00  0.00    -0.099 A  
HETATM   35  N   UNL     1      -7.042   4.165  71.849  1.00  0.00    -0.048 NA 
HETATM   36  C   UNL     1      -6.562   5.350  72.365  1.00  0.00    -0.064 A  
HETATM   37  H   UNL     1      -6.466   3.447  71.411  1.00  0.00     0.000 HD 
HETATM   38  C   UNL     1      -5.292   5.925  72.466  1.00  0.00    -0.026 A  
HETATM   39  C   UNL     1      -5.223   7.223  73.007  1.00  0.00    -0.037 A  
HETATM   40  C   UNL     1      -6.371   7.959  73.307  1.00  0.00    -0.073 A  
HETATM   41  C   UNL     1      -7.625   7.392  73.089  1.00  0.00    -0.107 A  
HETATM   42  C   UNL     1      -7.685   6.056  72.744  1.00  0.00    -0.102 A  
HETATM   43  C   UNL     1      -8.887   8.174  72.919  1.00  0.00    -0.307 C  
HETATM   44  C   UNL     1      -8.921   8.753  71.460  1.00  0.00    -0.306 C  
ENDBRANCH  26  27
ENDBRANCH  15  23
TORSDOF 2
ENDMDL
MODEL      115
REMARK 921   NORMALIZED FREE ENERGY PREDICTED BY IDOCK:    6.30 KCAL/MOL
REMARK 922        TOTAL FREE ENERGY PREDICTED BY IDOCK:    6.63 KCAL/MOL
REMARK 923 INTER-LIGAND FREE ENERGY PREDICTED BY IDOCK:    7.09 KCAL/MOL
REMARK 924 INTRA-LIGAND FREE ENERGY PREDICTED BY IDOCK:   -0.46 KCAL/MOL
REMARK 927      BINDING AFFINITY PREDICTED BY RF-SCORE:    0.00 PKD
ROOT
HETATM    1  C   UNL     1      -9.781  15.952  68.171  1.00  0.00    -0.212 C  
HETATM    2  C   UNL     1      -8.737  16.285  69.232  1.00  0.00    -0.151 C  
HETATM    3  C   UNL     1      -8.900  17.825  69.431  1.00  0.00     0.469 C  
HETATM    4  C   UNL     1      -9.828  18.323  68.327  1.00  0.00    -0.350 C  
HETATM    5  N   UNL     1      -9.963  17.198  67.437  1.00  0.00    -0.272 N  
HETATM    6  C   UNL     1     -10.832  17.246  66.355  1.00  0.00     0.061 C  
HETATM    7  O   UNL     1     -11.217  18.289  65.841  1.00  0.00     0.350 OA 
HETATM    8  C   UNL     1     -11.009  15.860  65.782  1.00  0.00    -0.177 C  
HETATM    9  C   UNL     1     -11.564  15.778  64.365  1.00  0.00    -0.240 C  
HETATM   10  N   UNL     1     -11.396  14.856  66.996  1.00  0.00    -0.349 N  
HETATM   11  C   UNL     1     -13.032  16.115  64.239  1.00  0.00     2.199 C  
HETATM   12  C   UNL     1     -10.686  16.415  63.271  1.00  0.00     6.237 C  
HETATM   13  C   UNL     1     -11.815  13.520  67.009  1.00  0.00    -0.402 C  
HETATM   14  O   UNL     1     -12.590  13.042  67.827  1.00  0.00     0.123 OA 
HETATM   15  C   UNL     1     -11.002  12.794  65.956  1.00  0.00    -0.278 C  
HETATM   16  H   UNL     1     -10.194  12.767  68.160  1.00  0.00     0.000 HD 
HETATM   17  C   UNL     1     -12.319  12.880  64.916  1.00  0.00    -0.532 C  
HETATM   18  O   UNL     1      -9.789  13.763  66.280  1.00  0.00    -0.290 OA 
HETATM   19  O   UNL     1     -10.000  13.604  68.565  1.00  0.00    -0.231 OA 
HETATM   20  C   UNL     1     -10.113  14.524  67.481  1.00  0.00    -0.228 C  
HETATM   21  C   UNL     1     -13.583  12.037  65.268  1.00  0.00     3.982 C  
HETATM   22  C   UNL     1     -12.152  12.692  63.417  1.00  0.00    -0.614 C  
ENDROOT
BRANCH  15  23
HETATM   23  N   UNL     1     -10.373  11.499  65.815  1.00  0.00    -0.240 N  
HETATM   24  H   UNL     1      -9.999  11.203  64.913  1.00  0.00     0.000 HD 
HETATM   25  O   UNL     1     -11.002  10.773  67.928  1.00  0.00    -0.243 OA 
HETATM   26  C   UNL     1     -10.283  10.656  66.929  1.00  0.00    -0.223 C  
BRANCH  26  27
HETATM   27  C   UNL     1      -9.132   9.633  66.876  1.00  0.00    -0.160 C  
HETATM   28  C   UNL     1      -7.953  10.244  66.086  1.00  0.00    -0.131 C  
HETATM   29  N   UNL     1      -6.861  10.827  66.907  1.00  0.00    -0.093 NA 
HETATM   30  C   UNL     1      -6.136   9.762  67.652  1.00  0.00    -0.051 C  
HETATM   31  C   UNL     1      -7.302  11.889  67.818  1.00  0.00    -0.109 C  
HETATM   32  C   UNL     1      -5.186  10.308  68.815  1.00  0.00    -0.038 C  
HETATM   33  C   UNL     1      -5.492   9.704  70.145  1.00  0.00    -0.040 A  
HETATM   34  C   UNL     1      -5.297  10.100  71.455  1.00  0.00    -0.068 A  
HETATM   35  N   UNL     1      -5.703   9.068  72.268  1.00  0.00    -0.075 NA 
HETATM   36  C   UNL     1      -6.150   8.006  71.512  1.00  0.00    -0.035 A  
HETATM   37  H   UNL     1      -5.677   9.086  73.287  1.00  0.00     0.000 HD 
HETATM   38  C   UNL     1      -6.661   6.741  71.816  1.00  0.00    -0.058 A  
HETATM   39  C   UNL     1      -7.090   5.950  70.733  1.00  0.00    -0.071 A  
HETATM   40  C   UNL     1      -7.131   6.447  69.428  1.00  0.00    -0.073 A  
HETATM   41  C   UNL     1      -6.716   7.753  69.179  1.00  0.00    -0.048 A  
HETATM   42  C   UNL     1      -6.117   8.454  70.208  1.00  0.00    -0.031 A  
HETATM   43  C   UNL     1      -7.119   8.553  67.983  1.00  0.00    -0.086 C  
HETATM   44  C   UNL     1      -8.578   9.086  68.211  1.00  0.00    -0.130 C  
ENDBRANCH  26  27
ENDBRANCH  15  23
TORSDOF 2
ENDMDL
MODEL      116
REMARK 921   NORMALIZED FREE ENERGY PREDICTED BY IDOCK:    6.41 KCAL/MOL
REMARK 922        TOTAL FREE ENERGY PREDICTED BY IDOCK:    6.76 KCAL/MOL
REMARK 923 INTER-LIGAND FREE ENERGY PREDICTED BY IDOCK:    6.08 KCAL/MOL
REMARK 924 INTRA-LIGAND FREE ENERGY PREDICTED BY IDOCK:    0.68 KCAL/MOL
REMARK 927      BINDING AFFINITY PREDICTED BY RF-SCORE:    0.00 PKD
ROOT
HETATM    1  C   UNL     1      -8.055   9.793  68.501  1.00  0.00    -0.104 C  
HETATM    2  C   UNL     1      -6.672   9.180  68.695  1.00  0.00    -0.058 C  
HETATM    3  C   UNL     1      -6.981   7.765  69.278  1.00  0.00    -0.060 C  
HETATM    4  C   UNL     1      -8.469   7.735  69.615  1.00  0.00    -0.133 C  
HETATM    5  N   UNL     1      -8.898   9.103  69.470  1.00  0.00    -0.142 N  
HETATM    6  C   UNL     1     -10.236   9.447  69.596  1.00  0.00    -0.212 C  
HETATM    7  O   UNL     1     -11.056   8.768  70.203  1.00  0.00    -0.251 OA 
HETATM    8  C   UNL     1     -10.448  10.859  69.103  1.00  0.00    -0.221 C  
HETATM    9  C   UNL     1     -11.731  11.548  69.552  1.00  0.00    -0.413 C  
HETATM   10  N   UNL     1      -9.789  10.983  67.626  1.00  0.00    -0.171 N  
HETATM   11  C   UNL     1     -12.992  11.033  68.895  1.00  0.00     1.865 C  
HETATM   12  C   UNL     1     -11.869  11.766  71.071  1.00  0.00     0.262 C  
HETATM   13  C   UNL     1      -9.832  11.999  66.664  1.00  0.00    -0.204 C  
HETATM   14  O   UNL     1      -9.819  11.814  65.454  1.00  0.00    -0.229 OA 
HETATM   15  C   UNL     1      -9.722  13.315  67.410  1.00  0.00    -0.221 C  
HETATM   16  H   UNL     1      -7.738  12.358  66.596  1.00  0.00     0.000 HD 
HETATM   17  C   UNL     1     -11.383  13.514  67.253  1.00  0.00    -0.339 C  
HETATM   18  O   UNL     1      -8.794  12.589  68.472  1.00  0.00    -0.146 OA 
HETATM   19  O   UNL     1      -7.507  11.494  66.912  1.00  0.00    -0.143 OA 
HETATM   20  C   UNL     1      -8.449  11.269  67.960  1.00  0.00    -0.138 C  
HETATM   21  C   UNL     1     -11.956  13.773  65.825  1.00  0.00    -0.423 C  
HETATM   22  C   UNL     1     -12.147  14.482  68.142  1.00  0.00    -0.232 C  
ENDROOT
BRANCH  15  23
HETATM   23  N   UNL     1      -9.073  14.591  67.207  1.00  0.00    -0.199 N  
HETATM   24  H   UNL     1      -9.581  15.460  67.374  1.00  0.00     0.000 HD 
HETATM   25  O   UNL     1      -7.182  13.668  66.225  1.00  0.00     1.617 OA 
HETATM   26  C   UNL     1      -7.739  14.622  66.781  1.00  0.00     0.423 C  
BRANCH  26  27
HETATM   27  C   UNL     1      -6.967  15.900  67.161  1.00  0.00    -0.227 C  
HETATM   28  C   UNL     1      -6.662  16.704  65.878  1.00  0.00     1.119 C  
HETATM   29  N   UNL     1      -7.585  17.830  65.588  1.00  0.00    -0.502 NA 
HETATM   30  C   UNL     1      -7.432  18.911  66.599  1.00  0.00    -0.229 C  
HETATM   31  C   UNL     1      -8.992  17.431  65.463  1.00  0.00     0.873 C  
HETATM   32  C   UNL     1      -8.606  19.994  66.581  1.00  0.00    -0.382 C  
HETATM   33  C   UNL     1      -9.270  20.153  67.909  1.00  0.00    -0.380 A  
HETATM   34  C   UNL     1     -10.515  20.586  68.322  1.00  0.00     0.124 A  
HETATM   35  N   UNL     1     -10.517  20.604  69.697  1.00  0.00    -0.172 NA 
HETATM   36  C   UNL     1      -9.294  20.199  70.185  1.00  0.00     1.059 A  
HETATM   37  H   UNL     1     -11.312  20.878  70.274  1.00  0.00     0.000 HD 
HETATM   38  C   UNL     1      -8.763  20.035  71.469  1.00  0.00     2.496 A  
HETATM   39  C   UNL     1      -7.458  19.514  71.556  1.00  0.00     2.526 A  
HETATM   40  C   UNL     1      -6.771  19.054  70.430  1.00  0.00     0.451 A  
HETATM   41  C   UNL     1      -7.377  19.131  69.179  1.00  0.00    -0.321 A  
HETATM   42  C   UNL     1      -8.571  19.819  69.074  1.00  0.00    -0.070 A  
HETATM   43  C   UNL     1      -6.992  18.296  68.001  1.00  0.00    -0.222 C  
HETATM   44  C   UNL     1      -7.609  16.864  68.185  1.00  0.00    -0.188 C  
ENDBRANCH  26  27
ENDBRANCH  15  23
TORSDOF 2
ENDMDL
MODEL      117
REMARK 921   NORMALIZED FREE ENERGY PREDICTED BY IDOCK:    7.50 KCAL/MOL
REMARK 922        TOTAL FREE ENERGY PREDICTED BY IDOCK:    7.98 KCAL/MOL
REMARK 923 INTER-LIGAND FREE ENERGY PREDICTED BY IDOCK:    5.55 KCAL/MOL
REMARK 924 INTRA-LIGAND FREE ENERGY PREDICTED BY IDOCK:    2.42 KCAL/MOL
REMARK 927      BINDING AFFINITY PREDICTED BY RF-SCORE:    0.00 PKD
ROOT
HETATM    1  C   UNL     1     -11.219  14.304  69.618  1.00  0.00    -0.210 C  
HETATM    2  C   UNL     1     -11.069  14.139  71.127  1.00  0.00     1.050 C  
HETATM    3  C   UNL     1     -12.134  15.122  71.707  1.00  0.00    -0.437 C  
HETATM    4  C   UNL     1     -12.651  15.960  70.541  1.00  0.00    -0.142 C  
HETATM    5  N   UNL     1     -11.762  15.646  69.451  1.00  0.00    -0.364 N  
HETATM    6  C   UNL     1     -11.991  16.149  68.178  1.00  0.00     0.350 C  
HETATM    7  O   UNL     1     -12.656  17.155  67.956  1.00  0.00     2.076 OA 
HETATM    8  C   UNL     1     -11.111  15.433  67.181  1.00  0.00    -0.291 C  
HETATM    9  C   UNL     1     -10.907  16.124  65.838  1.00  0.00    -0.179 C  
HETATM   10  N   UNL     1     -11.306  13.836  67.390  1.00  0.00    -0.309 N  
HETATM   11  C   UNL     1     -12.112  16.104  64.925  1.00  0.00     0.755 C  
HETATM   12  C   UNL     1     -10.197  17.490  65.897  1.00  0.00    -0.251 C  
HETATM   13  C   UNL     1     -10.863  12.734  66.649  1.00  0.00    -0.264 C  
HETATM   14  O   UNL     1     -11.479  11.683  66.528  1.00  0.00    -0.411 OA 
HETATM   15  C   UNL     1      -9.447  13.045  66.205  1.00  0.00    -0.192 C  
HETATM   16  H   UNL     1      -9.718  11.842  68.203  1.00  0.00     0.000 HD 
HETATM   17  C   UNL     1     -10.039  13.443  64.684  1.00  0.00    -0.256 C  
HETATM   18  O   UNL     1      -9.242  13.853  67.555  1.00  0.00    -0.190 OA 
HETATM   19  O   UNL     1     -10.209  12.258  68.901  1.00  0.00    -0.148 OA 
HETATM   20  C   UNL     1     -10.382  13.593  68.427  1.00  0.00    -0.248 C  
HETATM   21  C   UNL     1     -10.619  12.295  63.802  1.00  0.00    -0.488 C  
HETATM   22  C   UNL     1      -9.219  14.279  63.714  1.00  0.00     7.055 C  
ENDROOT
BRANCH  15  23
HETATM   23  N   UNL     1      -8.205  12.319  66.053  1.00  0.00    -0.104 N  
HETATM   24  H   UNL     1      -7.365  12.626  66.542  1.00  0.00     0.000 HD 
HETATM   25  O   UNL     1      -9.007  10.968  64.343  1.00  0.00    -0.148 OA 
HETATM   26  C   UNL     1      -8.170  11.190  65.225  1.00  0.00     0.208 C  
BRANCH  26  27
HETATM   27  C   UNL     1      -7.068  10.169  65.570  1.00  0.00    -0.138 C  
HETATM   28  C   UNL     1      -5.915  10.898  66.295  1.00  0.00    -0.139 C  
HETATM   29  N   UNL     1      -5.917  10.794  67.776  1.00  0.00    -0.043 NA 
HETATM   30  C   UNL     1      -5.636   9.397  68.207  1.00  0.00    -0.037 C  
HETATM   31  C   UNL     1      -7.144  11.295  68.408  1.00  0.00    -0.081 C  
HETATM   32  C   UNL     1      -5.957   9.110  69.745  1.00  0.00    -0.035 C  
HETATM   33  C   UNL     1      -6.898   7.968  69.938  1.00  0.00    -0.041 A  
HETATM   34  C   UNL     1      -7.781   7.599  70.935  1.00  0.00    -0.088 A  
HETATM   35  N   UNL     1      -8.311   6.378  70.594  1.00  0.00    -0.131 NA 
HETATM   36  C   UNL     1      -7.785   5.941  69.398  1.00  0.00    -0.093 A  
HETATM   37  H   UNL     1      -8.998   5.867  71.148  1.00  0.00     0.000 HD 
HETATM   38  C   UNL     1      -7.969   4.800  68.610  1.00  0.00    -0.080 A  
HETATM   39  C   UNL     1      -7.284   4.757  67.381  1.00  0.00    -0.073 A  
HETATM   40  C   UNL     1      -6.561   5.851  66.902  1.00  0.00    -0.056 A  
HETATM   41  C   UNL     1      -6.490   7.014  67.666  1.00  0.00    -0.051 A  
HETATM   42  C   UNL     1      -6.998   6.982  68.951  1.00  0.00    -0.079 A  
HETATM   43  C   UNL     1      -6.171   8.366  67.117  1.00  0.00    -0.056 C  
HETATM   44  C   UNL     1      -7.456   8.934  66.415  1.00  0.00    -0.088 C  
ENDBRANCH  26  27
ENDBRANCH  15  23
TORSDOF 2
ENDMDL
MODEL      118
REMARK 921   NORMALIZED FREE ENERGY PREDICTED BY IDOCK:    7.95 KCAL/MOL
REMARK 922        TOTAL FREE ENERGY PREDICTED BY IDOCK:    8.48 KCAL/MOL
REMARK 923 INTER-LIGAND FREE ENERGY PREDICTED BY IDOCK:    8.31 KCAL/MOL
REMARK 924 INTRA-LIGAND FREE ENERGY PREDICTED BY IDOCK:    0.17 KCAL/MOL
REMARK 927      BINDING AFFINITY PREDICTED BY RF-SCORE:    0.00 PKD
ROOT
HETATM    1  C   UNL     1      -7.361  10.986  67.216  1.00  0.00    -0.106 C  
HETATM    2  C   UNL     1      -5.880  11.307  67.041  1.00  0.00    -0.091 C  
HETATM    3  C   UNL     1      -5.166  10.024  67.568  1.00  0.00    -0.038 C  
HETATM    4  C   UNL     1      -6.233   9.159  68.233  1.00  0.00    -0.054 C  
HETATM    5  N   UNL     1      -7.395  10.008  68.296  1.00  0.00    -0.078 N  
HETATM    6  C   UNL     1      -8.611   9.517  68.751  1.00  0.00    -0.123 C  
HETATM    7  O   UNL     1      -8.717   8.535  69.476  1.00  0.00    -0.133 OA 
HETATM    8  C   UNL     1      -9.710  10.503  68.430  1.00  0.00    -0.159 C  
HETATM    9  C   UNL     1     -11.008  10.349  69.212  1.00  0.00    -0.287 C  
HETATM   10  N   UNL     1      -9.608  10.879  66.855  1.00  0.00    -0.176 N  
HETATM   11  C   UNL     1     -11.845   9.151  68.823  1.00  0.00     1.411 C  
HETATM   12  C   UNL     1     -10.893  10.556  70.735  1.00  0.00     0.220 C  
HETATM   13  C   UNL     1     -10.453  11.608  66.010  1.00  0.00    -0.251 C  
HETATM   14  O   UNL     1     -10.613  11.377  64.818  1.00  0.00    -0.293 OA 
HETATM   15  C   UNL     1     -10.959  12.792  66.809  1.00  0.00    -0.270 C  
HETATM   16  H   UNL     1      -9.042  13.111  65.492  1.00  0.00     0.000 HD 
HETATM   17  C   UNL     1     -12.408  11.977  67.053  1.00  0.00     0.828 C  
HETATM   18  O   UNL     1      -9.568  12.821  67.572  1.00  0.00    -0.184 OA 
HETATM   19  O   UNL     1      -8.286  12.568  65.680  1.00  0.00     0.907 OA 
HETATM   20  C   UNL     1      -8.650  11.914  66.895  1.00  0.00    -0.185 C  
HETATM   21  C   UNL     1     -13.334  11.749  65.818  1.00  0.00     5.437 C  
HETATM   22  C   UNL     1     -13.362  12.381  68.165  1.00  0.00     5.475 C  
ENDROOT
BRANCH  15  23
HETATM   23  N   UNL     1     -11.240  14.189  66.563  1.00  0.00    -0.322 N  
HETATM   24  H   UNL     1     -11.959  14.673  67.101  1.00  0.00     0.000 HD 
HETATM   25  O   UNL     1      -9.908  14.299  64.664  1.00  0.00    -0.130 OA 
HETATM   26  C   UNL     1     -10.515  14.871  65.577  1.00  0.00    -0.360 C  
BRANCH  26  27
HETATM   27  C   UNL     1     -10.425  16.395  65.778  1.00  0.00    -0.369 C  
HETATM   28  C   UNL     1     -11.345  16.804  66.950  1.00  0.00     0.567 C  
HETATM   29  N   UNL     1     -10.674  16.995  68.260  1.00  0.00    -0.373 NA 
HETATM   30  C   UNL     1      -9.777  18.183  68.225  1.00  0.00    -0.337 C  
HETATM   31  C   UNL     1      -9.949  15.812  68.738  1.00  0.00    -0.214 C  
HETATM   32  C   UNL     1      -8.758  18.270  69.452  1.00  0.00     0.443 C  
HETATM   33  C   UNL     1      -7.334  18.371  69.017  1.00  0.00    -0.228 A  
HETATM   34  C   UNL     1      -6.120  18.058  69.599  1.00  0.00    -0.233 A  
HETATM   35  N   UNL     1      -5.127  18.470  68.742  1.00  0.00    -0.180 NA 
HETATM   36  C   UNL     1      -5.671  19.052  67.618  1.00  0.00    -0.181 A  
HETATM   37  H   UNL     1      -4.128  18.360  68.914  1.00  0.00     0.000 HD 
HETATM   38  C   UNL     1      -5.134  19.625  66.460  1.00  0.00    -0.163 A  
HETATM   39  C   UNL     1      -6.049  20.053  65.480  1.00  0.00    -0.229 A  
HETATM   40  C   UNL     1      -7.418  19.801  65.588  1.00  0.00    -0.269 A  
HETATM   41  C   UNL     1      -7.905  19.128  66.706  1.00  0.00    -0.270 A  
HETATM   42  C   UNL     1      -7.033  18.885  67.751  1.00  0.00    -0.234 A  
HETATM   43  C   UNL     1      -9.209  18.400  66.753  1.00  0.00    -0.293 C  
HETATM   44  C   UNL     1      -9.032  17.019  66.028  1.00  0.00    -0.168 C  
ENDBRANCH  26  27
ENDBRANCH  15  23
TORSDOF 2
ENDMDL
MODEL      119
REMARK 921   NORMALIZED FREE ENERGY PREDICTED BY IDOCK:    8.21 KCAL/MOL
REMARK 922        TOTAL FREE ENERGY PREDICTED BY IDOCK:    8.77 KCAL/MOL
REMARK 923 INTER-LIGAND FREE ENERGY PREDICTED BY IDOCK:    7.14 KCAL/MOL
REMARK 924 INTRA-LIGAND FREE ENERGY PREDICTED BY IDOCK:    1.63 KCAL/MOL
REMARK 927      BINDING AFFINITY PREDICTED BY RF-SCORE:    0.00 PKD
ROOT
HETATM    1  C   UNL     1      -7.418  15.559  70.753  1.00  0.00     1.643 C  
HETATM    2  C   UNL     1      -6.481  14.920  71.772  1.00  0.00     1.007 C  
HETATM    3  C   UNL     1      -5.520  16.086  72.163  1.00  0.00     0.665 C  
HETATM    4  C   UNL     1      -5.789  17.233  71.192  1.00  0.00     0.791 C  
HETATM    5  N   UNL     1      -6.645  16.656  70.185  1.00  0.00     0.198 N  
HETATM    6  C   UNL     1      -7.189  17.442  69.179  1.00  0.00    -0.175 C  
HETATM    7  O   UNL     1      -6.710  18.511  68.820  1.00  0.00    -0.247 OA 
HETATM    8  C   UNL     1      -8.269  16.670  68.458  1.00  0.00    -0.231 C  
HETATM    9  C   UNL     1      -8.670  17.190  67.083  1.00  0.00    -0.227 C  
HETATM   10  N   UNL     1      -9.293  16.078  69.568  1.00  0.00    -0.211 N  
HETATM   11  C   UNL     1      -9.470  18.472  67.098  1.00  0.00    -0.294 C  
HETATM   12  C   UNL     1      -7.559  17.165  66.015  1.00  0.00    -0.185 C  
HETATM   13  C   UNL     1     -10.531  15.434  69.450  1.00  0.00    -0.257 C  
HETATM   14  O   UNL     1     -11.447  15.534  70.256  1.00  0.00    -0.275 OA 
HETATM   15  C   UNL     1     -10.426  14.494  68.265  1.00  0.00    -0.242 C  
HETATM   16  H   UNL     1      -9.951  13.618  70.390  1.00  0.00     0.000 HD 
HETATM   17  C   UNL     1     -11.264  15.615  67.334  1.00  0.00    -0.219 C  
HETATM   18  O   UNL     1      -8.895  14.280  68.620  1.00  0.00    -0.183 OA 
HETATM   19  O   UNL     1      -9.239  14.014  70.878  1.00  0.00     3.679 OA 
HETATM   20  C   UNL     1      -8.633  14.882  69.921  1.00  0.00     0.360 C  
HETATM   21  C   UNL     1     -12.767  15.864  67.669  1.00  0.00     2.338 C  
HETATM   22  C   UNL     1     -11.224  15.565  65.816  1.00  0.00    -0.133 C  
ENDROOT
BRANCH  15  23
HETATM   23  N   UNL     1     -10.886  13.165  67.928  1.00  0.00    -0.237 N  
HETATM   24  H   UNL     1     -11.480  13.016  67.113  1.00  0.00     0.000 HD 
HETATM   25  O   UNL     1     -10.110  12.212  69.898  1.00  0.00     1.137 OA 
HETATM   26  C   UNL     1     -10.507  12.084  68.734  1.00  0.00    -0.183 C  
BRANCH  26  27
HETATM   27  C   UNL     1     -10.504  10.717  68.024  1.00  0.00    -0.225 C  
HETATM   28  C   UNL     1     -11.573  10.727  66.909  1.00  0.00     0.555 C  
HETATM   29  N   UNL     1     -11.070  10.991  65.537  1.00  0.00    -0.018 NA 
HETATM   30  C   UNL     1     -10.226   9.862  65.059  1.00  0.00     0.114 C  
HETATM   31  C   UNL     1     -10.359  12.267  65.396  1.00  0.00    -0.269 C  
HETATM   32  C   UNL     1      -9.364  10.196  63.756  1.00  0.00    -0.336 C  
HETATM   33  C   UNL     1      -7.904   9.955  63.949  1.00  0.00    -0.148 A  
HETATM   34  C   UNL     1      -6.756  10.448  63.358  1.00  0.00    -0.042 A  
HETATM   35  N   UNL     1      -5.686   9.772  63.896  1.00  0.00    -0.097 NA 
HETATM   36  C   UNL     1      -6.116   8.844  64.819  1.00  0.00    -0.065 A  
HETATM   37  H   UNL     1      -4.711   9.935  63.646  1.00  0.00     0.000 HD 
HETATM   38  C   UNL     1      -5.470   7.914  65.640  1.00  0.00    -0.029 A  
HETATM   39  C   UNL     1      -6.279   7.179  66.527  1.00  0.00    -0.039 A  
HETATM   40  C   UNL     1      -7.640   7.451  66.682  1.00  0.00    -0.100 A  
HETATM   41  C   UNL     1      -8.227   8.461  65.924  1.00  0.00    -0.123 A  
HETATM   42  C   UNL     1      -7.476   9.044  64.921  1.00  0.00    -0.105 A  
HETATM   43  C   UNL     1      -9.496   9.161  66.289  1.00  0.00    -0.299 C  
HETATM   44  C   UNL     1      -9.178  10.216  67.407  1.00  0.00    -0.156 C  
ENDBRANCH  26  27
ENDBRANCH  15  23
TORSDOF 2
ENDMDL
MODEL      120
REMARK 921   NORMALIZED FREE ENERGY PREDICTED BY IDOCK:    8.67 KCAL/MOL
REMARK 922        TOTAL FREE ENERGY PREDICTED BY IDOCK:    9.28 KCAL/MOL
REMARK 923 INTER-LIGAND FREE ENERGY PREDICTED BY IDOCK:    8.38 KCAL/MOL
REMARK 924 INTRA-LIGAND FREE ENERGY PREDICTED BY IDOCK:    0.90 KCAL/MOL
REMARK 927      BINDING AFFINITY PREDICTED BY RF-SCORE:    0.00 PKD
ROOT
HETATM    1  C   UNL     1     -10.642  17.442  70.399  1.00  0.00     1.022 C  
HETATM    2  C   UNL     1     -11.223  17.716  71.782  1.00  0.00     2.198 C  
HETATM    3  C   UNL     1     -10.658  19.126  72.141  1.00  0.00     3.705 C  
HETATM    4  C   UNL     1      -9.611  19.470  71.085  1.00  0.00     2.546 C  
HETATM    5  N   UNL     1      -9.426  18.244  70.351  1.00  0.00     2.290 N  
HETATM    6  C   UNL     1      -8.611  18.203  69.228  1.00  0.00     0.291 C  
HETATM    7  O   UNL     1      -7.716  19.010  69.010  1.00  0.00    -0.321 OA 
HETATM    8  C   UNL     1      -8.833  16.906  68.485  1.00  0.00    -0.251 C  
HETATM    9  C   UNL     1      -7.747  16.497  67.497  1.00  0.00    -0.171 C  
HETATM   10  N   UNL     1     -10.427  16.726  68.247  1.00  0.00    -0.322 N  
HETATM   11  C   UNL     1      -7.699  17.320  66.230  1.00  0.00    -0.353 C  
HETATM   12  C   UNL     1      -6.361  16.225  68.112  1.00  0.00    -0.130 C  
HETATM   13  C   UNL     1     -11.164  15.805  67.492  1.00  0.00    -0.218 C  
HETATM   14  O   UNL     1     -12.219  16.055  66.925  1.00  0.00     1.086 OA 
HETATM   15  C   UNL     1     -10.495  14.456  67.673  1.00  0.00    -0.245 C  
HETATM   16  H   UNL     1     -12.270  14.990  69.114  1.00  0.00     0.000 HD 
HETATM   17  C   UNL     1      -9.767  14.644  66.170  1.00  0.00    -0.344 C  
HETATM   18  O   UNL     1     -10.107  14.889  69.148  1.00  0.00    -0.229 OA 
HETATM   19  O   UNL     1     -12.173  15.760  69.661  1.00  0.00    -0.336 OA 
HETATM   20  C   UNL     1     -10.808  16.127  69.466  1.00  0.00    -0.329 C  
HETATM   21  C   UNL     1     -10.680  14.607  64.906  1.00  0.00    -0.447 C  
HETATM   22  C   UNL     1      -8.551  13.821  65.775  1.00  0.00     1.504 C  
ENDROOT
BRANCH  15  23
HETATM   23  N   UNL     1     -10.917  13.081  67.822  1.00  0.00    -0.244 N  
HETATM   24  H   UNL     1     -11.070  12.496  67.001  1.00  0.00     0.000 HD 
HETATM   25  O   UNL     1     -11.301  13.268  70.105  1.00  0.00    -0.044 OA 
HETATM   26  C   UNL     1     -11.114  12.561  69.108  1.00  0.00    -0.196 C  
BRANCH  26  27
HETATM   27  C   UNL     1     -10.962  11.032  69.217  1.00  0.00    -0.305 C  
HETATM   28  C   UNL     1     -10.090  10.527  68.046  1.00  0.00    -0.165 C  
HETATM   29  N   UNL     1      -8.659  10.290  68.363  1.00  0.00    -0.121 NA 
HETATM   30  C   UNL     1      -8.510   9.139  69.296  1.00  0.00    -0.132 C  
HETATM   31  C   UNL     1      -7.958  11.471  68.880  1.00  0.00    -0.057 C  
HETATM   32  C   UNL     1      -7.065   9.022  69.965  1.00  0.00    -0.055 C  
HETATM   33  C   UNL     1      -7.116   8.996  71.456  1.00  0.00    -0.037 A  
HETATM   34  C   UNL     1      -6.224   9.321  72.461  1.00  0.00     0.224 A  
HETATM   35  N   UNL     1      -6.809   8.992  73.661  1.00  0.00    -0.330 NA 
HETATM   36  C   UNL     1      -8.060   8.453  73.456  1.00  0.00    -0.107 A  
HETATM   37  H   UNL     1      -6.377   9.129  74.574  1.00  0.00     0.000 HD 
HETATM   38  C   UNL     1      -9.060   7.963  74.302  1.00  0.00     0.113 A  
HETATM   39  C   UNL     1     -10.263   7.556  73.695  1.00  0.00    -0.333 A  
HETATM   40  C   UNL     1     -10.506   7.752  72.333  1.00  0.00    -0.321 A  
HETATM   41  C   UNL     1      -9.526   8.345  71.542  1.00  0.00    -0.267 A  
HETATM   42  C   UNL     1      -8.280   8.563  72.099  1.00  0.00    -0.175 A  
HETATM   43  C   UNL     1      -9.791   9.022  70.236  1.00  0.00    -0.227 C  
HETATM   44  C   UNL     1     -10.384  10.446  70.526  1.00  0.00     0.215 C  
ENDBRANCH  26  27
ENDBRANCH  15  23
TORSDOF 2
ENDMDL
MODEL      121
REMARK 921   NORMALIZED FREE ENERGY PREDICTED BY IDOCK:    9.90 KCAL/MOL
REMARK 922        TOTAL FREE ENERGY PREDICTED BY IDOCK:   10.65 KCAL/MOL
REMARK 923 INTER-LIGAND FREE ENERGY PREDICTED BY IDOCK:   10.59 KCAL/MOL
REMARK 924 INTRA-LIGAND FREE ENERGY PREDICTED BY IDOCK:    0.06 KCAL/MOL
REMARK 927      BINDING AFFINITY PREDICTED BY RF-SCORE:    0.00 PKD
ROOT
HETATM    1  C   UNL     1     -11.107  15.945  65.417  1.00  0.00    -0.195 C  
HETATM    2  C   UNL     1     -12.337  16.166  64.542  1.00  0.00     0.787 C  
HETATM    3  C   UNL     1     -12.337  17.708  64.300  1.00  0.00     6.993 C  
HETATM    4  C   UNL     1     -11.283  18.307  65.227  1.00  0.00     1.148 C  
HETATM    5  N   UNL     1     -10.910  17.219  66.096  1.00  0.00    -0.071 N  
HETATM    6  C   UNL     1      -9.882  17.364  67.016  1.00  0.00    -0.286 C  
HETATM    7  O   UNL     1      -9.504  18.448  67.446  1.00  0.00    -0.269 OA 
HETATM    8  C   UNL     1      -9.498  16.012  67.569  1.00  0.00    -0.223 C  
HETATM    9  C   UNL     1      -8.711  16.011  68.874  1.00  0.00    -0.236 C  
HETATM   10  N   UNL     1      -9.236  15.011  66.320  1.00  0.00    -0.299 N  
HETATM   11  C   UNL     1      -7.275  16.467  68.749  1.00  0.00    -0.197 C  
HETATM   12  C   UNL     1      -9.446  16.604  70.091  1.00  0.00     1.318 C  
HETATM   13  C   UNL     1      -8.715  13.713  66.253  1.00  0.00     0.404 C  
HETATM   14  O   UNL     1      -8.049  13.277  65.323  1.00  0.00     3.183 OA 
HETATM   15  C   UNL     1      -9.280  12.952  67.436  1.00  0.00    -0.197 C  
HETATM   16  H   UNL     1     -10.436  12.804  65.399  1.00  0.00     0.000 HD 
HETATM   17  C   UNL     1      -7.821  13.169  68.241  1.00  0.00    -0.143 C  
HETATM   18  O   UNL     1     -10.606  13.813  67.307  1.00  0.00    -0.271 OA 
HETATM   19  O   UNL     1     -10.764  13.612  65.021  1.00  0.00    -0.323 OA 
HETATM   20  C   UNL     1     -10.549  14.566  66.060  1.00  0.00    -0.307 C  
HETATM   21  C   UNL     1      -6.567  12.420  67.692  1.00  0.00    -0.131 C  
HETATM   22  C   UNL     1      -7.721  13.007  69.749  1.00  0.00     1.324 C  
ENDROOT
BRANCH  15  23
HETATM   23  N   UNL     1      -9.767  11.615  67.696  1.00  0.00    -0.177 N  
HETATM   24  H   UNL     1      -9.352  10.814  67.222  1.00  0.00     0.000 HD 
HETATM   25  O   UNL     1     -11.592  12.337  68.938  1.00  0.00    -0.269 OA 
HETATM   26  C   UNL     1     -10.816  11.433  68.607  1.00  0.00    -0.208 C  
BRANCH  26  27
HETATM   27  C   UNL     1     -10.865  10.042  69.267  1.00  0.00    -0.261 C  
HETATM   28  C   UNL     1     -11.654   9.078  68.353  1.00  0.00     1.194 C  
HETATM   29  N   UNL     1     -10.833   8.196  67.486  1.00  0.00    -0.134 NA 
HETATM   30  C   UNL     1     -10.084   7.203  68.304  1.00  0.00    -0.167 C  
HETATM   31  C   UNL     1      -9.925   8.918  66.588  1.00  0.00    -0.276 C  
HETATM   32  C   UNL     1      -8.921   6.447  67.512  1.00  0.00    -0.116 C  
HETATM   33  C   UNL     1      -7.590   6.574  68.175  1.00  0.00    -0.103 A  
HETATM   34  C   UNL     1      -6.281   6.501  67.738  1.00  0.00    -0.031 A  
HETATM   35  N   UNL     1      -5.466   6.603  68.841  1.00  0.00    -0.016 NA 
HETATM   36  C   UNL     1      -6.220   6.734  69.987  1.00  0.00    -0.035 A  
HETATM   37  H   UNL     1      -4.447   6.586  68.814  1.00  0.00     0.000 HD 
HETATM   38  C   UNL     1      -5.914   6.872  71.344  1.00  0.00    -0.037 A  
HETATM   39  C   UNL     1      -6.995   7.060  72.225  1.00  0.00    -0.065 A  
HETATM   40  C   UNL     1      -8.301   7.235  71.762  1.00  0.00    -0.107 A  
HETATM   41  C   UNL     1      -8.553   7.201  70.392  1.00  0.00    -0.142 A  
HETATM   42  C   UNL     1      -7.524   6.824  69.550  1.00  0.00    -0.093 A  
HETATM   43  C   UNL     1      -9.751   7.809  69.739  1.00  0.00    -0.176 C  
HETATM   44  C   UNL     1      -9.527   9.360  69.636  1.00  0.00    -0.200 C  
ENDBRANCH  26  27
ENDBRANCH  15  23
TORSDOF 2
ENDMDL
MODEL      122
REMARK 921   NORMALIZED FREE ENERGY PREDICTED BY IDOCK:   10.34 KCAL/MOL
REMARK 922        TOTAL FREE ENERGY PREDICTED BY IDOCK:   11.15 KCAL/MOL
REMARK 923 INTER-LIGAND FREE ENERGY PREDICTED BY IDOCK:    8.93 KCAL/MOL
REMARK 924 INTRA-LIGAND FREE ENERGY PREDICTED BY IDOCK:    2.22 KCAL/MOL
REMARK 927      BINDING AFFINITY PREDICTED BY RF-SCORE:    0.00 PKD
ROOT
HETATM    1  C   UNL     1      -6.563  17.589  67.177  1.00  0.00    -0.165 C  
HETATM    2  C   UNL     1      -5.337  18.177  66.486  1.00  0.00    -0.182 C  
HETATM    3  C   UNL     1      -5.843  19.556  65.960  1.00  0.00    -0.181 C  
HETATM    4  C   UNL     1      -7.357  19.580  66.152  1.00  0.00    -0.281 C  
HETATM    5  N   UNL     1      -7.694  18.227  66.515  1.00  0.00    -0.239 N  
HETATM    6  C   UNL     1      -8.991  17.889  66.875  1.00  0.00    -0.257 C  
HETATM    7  O   UNL     1      -9.977  18.537  66.544  1.00  0.00    -0.338 OA 
HETATM    8  C   UNL     1      -9.005  16.511  67.493  1.00  0.00    -0.196 C  
HETATM    9  C   UNL     1     -10.355  15.807  67.551  1.00  0.00    -0.280 C  
HETATM   10  N   UNL     1      -7.880  16.469  68.661  1.00  0.00    -0.213 N  
HETATM   11  C   UNL     1     -11.322  16.372  68.568  1.00  0.00    -0.289 C  
HETATM   12  C   UNL     1     -11.002  15.500  66.187  1.00  0.00    -0.247 C  
HETATM   13  C   UNL     1      -7.580  15.513  69.638  1.00  0.00    -0.144 C  
HETATM   14  O   UNL     1      -7.156  15.771  70.758  1.00  0.00     0.959 OA 
HETATM   15  C   UNL     1      -7.715  14.154  68.979  1.00  0.00    -0.035 C  
HETATM   16  H   UNL     1      -5.584  15.139  69.009  1.00  0.00     0.000 HD 
HETATM   17  C   UNL     1      -9.220  13.980  69.706  1.00  0.00     1.236 C  
HETATM   18  O   UNL     1      -7.214  14.806  67.623  1.00  0.00    -0.156 OA 
HETATM   19  O   UNL     1      -5.485  15.982  68.581  1.00  0.00    -0.099 OA 
HETATM   20  C   UNL     1      -6.731  16.152  67.907  1.00  0.00    -0.137 C  
HETATM   21  C   UNL     1      -9.268  13.812  71.256  1.00  0.00     8.046 C  
HETATM   22  C   UNL     1     -10.230  12.968  69.191  1.00  0.00     0.223 C  
ENDROOT
BRANCH  15  23
HETATM   23  N   UNL     1      -7.020  12.886  69.023  1.00  0.00    -0.195 N  
HETATM   24  H   UNL     1      -7.340  12.145  69.647  1.00  0.00     0.000 HD 
HETATM   25  O   UNL     1      -5.253  13.614  67.705  1.00  0.00    -0.211 OA 
HETATM   26  C   UNL     1      -5.905  12.687  68.201  1.00  0.00    -0.075 C  
BRANCH  26  27
HETATM   27  C   UNL     1      -5.611  11.215  67.854  1.00  0.00    -0.043 C  
HETATM   28  C   UNL     1      -6.079  10.319  69.023  1.00  0.00    -0.037 C  
HETATM   29  N   UNL     1      -7.407   9.677  68.850  1.00  0.00    -0.072 NA 
HETATM   30  C   UNL     1      -7.364   8.662  67.762  1.00  0.00    -0.092 C  
HETATM   31  C   UNL     1      -8.505  10.625  68.631  1.00  0.00    -0.142 C  
HETATM   32  C   UNL     1      -8.801   8.171  67.268  1.00  0.00    -0.136 C  
HETATM   33  C   UNL     1      -9.000   8.345  65.800  1.00  0.00    -0.207 A  
HETATM   34  C   UNL     1     -10.106   8.487  64.983  1.00  0.00     2.232 A  
HETATM   35  N   UNL     1      -9.665   8.511  63.682  1.00  0.00     1.504 NA 
HETATM   36  C   UNL     1      -8.294   8.380  63.635  1.00  0.00    -0.045 A  
HETATM   37  H   UNL     1     -10.267   8.613  62.865  1.00  0.00     0.000 HD 
HETATM   38  C   UNL     1      -7.353   8.343  62.601  1.00  0.00    -0.098 A  
HETATM   39  C   UNL     1      -5.998   8.271  62.976  1.00  0.00    -0.077 A  
HETATM   40  C   UNL     1      -5.596   8.367  64.310  1.00  0.00    -0.059 A  
HETATM   41  C   UNL     1      -6.558   8.514  65.306  1.00  0.00    -0.063 A  
HETATM   42  C   UNL     1      -7.888   8.389  64.952  1.00  0.00    -0.121 A  
HETATM   43  C   UNL     1      -6.287   9.076  66.664  1.00  0.00    -0.066 C  
HETATM   44  C   UNL     1      -6.203  10.640  66.547  1.00  0.00    -0.097 C  
ENDBRANCH  26  27
ENDBRANCH  15  23
TORSDOF 2
ENDMDL
MODEL      123
REMARK 921   NORMALIZED FREE ENERGY PREDICTED BY IDOCK:   12.43 KCAL/MOL
REMARK 922        TOTAL FREE ENERGY PREDICTED BY IDOCK:   13.48 KCAL/MOL
REMARK 923 INTER-LIGAND FREE ENERGY PREDICTED BY IDOCK:   13.32 KCAL/MOL
REMARK 924 INTRA-LIGAND FREE ENERGY PREDICTED BY IDOCK:    0.16 KCAL/MOL
REMARK 927      BINDING AFFINITY PREDICTED BY RF-SCORE:    0.00 PKD
ROOT
HETATM    1  C   UNL     1     -11.190  15.966  70.283  1.00  0.00    -0.380 C  
HETATM    2  C   UNL     1     -12.279  15.221  71.048  1.00  0.00    -0.407 C  
HETATM    3  C   UNL     1     -12.774  16.272  72.090  1.00  0.00    -0.117 C  
HETATM    4  C   UNL     1     -11.800  17.447  72.039  1.00  0.00     2.161 C  
HETATM    5  N   UNL     1     -10.712  16.974  71.221  1.00  0.00     1.253 N  
HETATM    6  C   UNL     1      -9.673  17.820  70.861  1.00  0.00     4.178 C  
HETATM    7  O   UNL     1      -9.375  18.832  71.485  1.00  0.00     5.116 OA 
HETATM    8  C   UNL     1      -8.845  17.177  69.773  1.00  0.00     1.131 C  
HETATM    9  C   UNL     1      -7.448  17.745  69.559  1.00  0.00     0.300 C  
HETATM   10  N   UNL     1      -9.848  16.695  68.593  1.00  0.00    -0.241 N  
HETATM   11  C   UNL     1      -7.409  19.108  68.906  1.00  0.00    -0.379 C  
HETATM   12  C   UNL     1      -6.484  17.603  70.754  1.00  0.00     1.546 C  
HETATM   13  C   UNL     1      -9.609  16.193  67.308  1.00  0.00    -0.229 C  
HETATM   14  O   UNL     1     -10.330  16.390  66.338  1.00  0.00    -0.299 OA 
HETATM   15  C   UNL     1      -8.424  15.254  67.417  1.00  0.00    -0.179 C  
HETATM   16  H   UNL     1     -10.570  14.319  67.596  1.00  0.00     0.000 HD 
HETATM   17  C   UNL     1      -7.439  16.466  66.796  1.00  0.00    -0.278 C  
HETATM   18  O   UNL     1      -8.912  14.870  68.876  1.00  0.00    -0.182 OA 
HETATM   19  O   UNL     1     -11.126  14.631  68.300  1.00  0.00    -0.253 OA 
HETATM   20  C   UNL     1     -10.242  15.432  69.082  1.00  0.00    -0.239 C  
HETATM   21  C   UNL     1      -7.640  16.878  65.305  1.00  0.00     2.592 C  
HETATM   22  C   UNL     1      -5.930  16.420  66.969  1.00  0.00    -0.108 C  
ENDROOT
BRANCH  15  23
HETATM   23  N   UNL     1      -8.027  13.986  66.847  1.00  0.00    -0.356 N  
HETATM   24  H   UNL     1      -7.067  13.655  66.944  1.00  0.00     0.000 HD 
HETATM   25  O   UNL     1     -10.020  13.685  65.695  1.00  0.00    -0.288 OA 
HETATM   26  C   UNL     1      -8.974  13.216  66.160  1.00  0.00     0.220 C  
BRANCH  26  27
HETATM   27  C   UNL     1      -8.678  11.705  66.124  1.00  0.00    -0.094 C  
HETATM   28  C   UNL     1      -7.149  11.493  66.057  1.00  0.00     0.365 C  
HETATM   29  N   UNL     1      -6.485  11.186  67.349  1.00  0.00    -0.065 NA 
HETATM   30  C   UNL     1      -6.898   9.846  67.849  1.00  0.00    -0.076 C  
HETATM   31  C   UNL     1      -6.684  12.209  68.382  1.00  0.00    -0.062 C  
HETATM   32  C   UNL     1      -6.520   9.572  69.376  1.00  0.00    -0.044 C  
HETATM   33  C   UNL     1      -7.700   9.192  70.207  1.00  0.00    -0.115 A  
HETATM   34  C   UNL     1      -7.999   9.267  71.554  1.00  0.00     0.297 A  
HETATM   35  N   UNL     1      -9.219   8.663  71.745  1.00  0.00    -0.247 NA 
HETATM   36  C   UNL     1      -9.715   8.189  70.551  1.00  0.00    -0.174 A  
HETATM   37  H   UNL     1      -9.691   8.578  72.645  1.00  0.00     0.000 HD 
HETATM   38  C   UNL     1     -10.882   7.513  70.179  1.00  0.00    -0.259 A  
HETATM   39  C   UNL     1     -11.062   7.263  68.806  1.00  0.00     0.048 A  
HETATM   40  C   UNL     1     -10.193   7.777  67.842  1.00  0.00    -0.259 A  
HETATM   41  C   UNL     1      -9.100   8.541  68.243  1.00  0.00    -0.138 A  
HETATM   42  C   UNL     1      -8.820   8.619  69.594  1.00  0.00    -0.137 A  
HETATM   43  C   UNL     1      -8.378   9.510  67.364  1.00  0.00    -0.125 C  
HETATM   44  C   UNL     1      -9.231  10.824  67.267  1.00  0.00    -0.158 C  
ENDBRANCH  26  27
ENDBRANCH  15  23
TORSDOF 2
ENDMDL
MODEL      124
REMARK 921   NORMALIZED FREE ENERGY PREDICTED BY IDOCK:   12.66 KCAL/MOL
REMARK 922        TOTAL FREE ENERGY PREDICTED BY IDOCK:   13.74 KCAL/MOL
REMARK 923 INTER-LIGAND FREE ENERGY PREDICTED BY IDOCK:   11.86 KCAL/MOL
REMARK 924 INTRA-LIGAND FREE ENERGY PREDICTED BY IDOCK:    1.88 KCAL/MOL
REMARK 927      BINDING AFFINITY PREDICTED BY RF-SCORE:    0.00 PKD
ROOT
HETATM    1  C   UNL     1      -7.323  11.301  69.591  1.00  0.00     0.104 C  
HETATM    2  C   UNL     1      -7.997  12.232  68.589  1.00  0.00    -0.050 C  
HETATM    3  C   UNL     1      -7.479  13.645  69.002  1.00  0.00     0.021 C  
HETATM    4  C   UNL     1      -6.755  13.485  70.336  1.00  0.00     0.500 C  
HETATM    5  N   UNL     1      -7.068  12.141  70.754  1.00  0.00     2.583 N  
HETATM    6  C   UNL     1      -6.488  11.597  71.891  1.00  0.00     3.668 C  
HETATM    7  O   UNL     1      -6.029  12.270  72.807  1.00  0.00     1.239 OA 
HETATM    8  C   UNL     1      -6.740  10.108  71.929  1.00  0.00     1.459 C  
HETATM    9  C   UNL     1      -6.563   9.424  73.279  1.00  0.00     0.675 C  
HETATM   10  N   UNL     1      -6.292   9.483  70.500  1.00  0.00    -0.070 N  
HETATM   11  C   UNL     1      -5.129   9.284  73.736  1.00  0.00    -0.115 C  
HETATM   12  C   UNL     1      -7.525   9.891  74.389  1.00  0.00     2.499 C  
HETATM   13  C   UNL     1      -6.165   8.163  70.054  1.00  0.00    -0.032 C  
HETATM   14  O   UNL     1      -5.334   7.779  69.241  1.00  0.00    -0.021 OA 
HETATM   15  C   UNL     1      -7.336   7.390  70.630  1.00  0.00    -0.070 C  
HETATM   16  H   UNL     1      -7.588   8.299  68.481  1.00  0.00     0.000 HD 
HETATM   17  C   UNL     1      -6.312   6.769  71.810  1.00  0.00    -0.042 C  
HETATM   18  O   UNL     1      -8.212   8.707  70.514  1.00  0.00    -0.102 OA 
HETATM   19  O   UNL     1      -7.505   9.241  68.391  1.00  0.00    -0.077 OA 
HETATM   20  C   UNL     1      -7.464   9.694  69.743  1.00  0.00    -0.110 C  
HETATM   21  C   UNL     1      -5.201   5.770  71.360  1.00  0.00    -0.013 C  
HETATM   22  C   UNL     1      -6.862   6.162  73.090  1.00  0.00    -0.075 C  
ENDROOT
BRANCH  15  23
HETATM   23  N   UNL     1      -8.232   6.345  70.187  1.00  0.00    -0.127 N  
HETATM   24  H   UNL     1      -9.241   6.461  70.274  1.00  0.00     0.000 HD 
HETATM   25  O   UNL     1      -6.531   4.808  69.819  1.00  0.00    -0.033 OA 
HETATM   26  C   UNL     1      -7.698   5.174  69.635  1.00  0.00    -0.068 C  
BRANCH  26  27
HETATM   27  C   UNL     1      -8.641   4.423  68.675  1.00  0.00    -0.108 C  
HETATM   28  C   UNL     1      -9.949   5.230  68.521  1.00  0.00    -0.163 C  
HETATM   29  N   UNL     1     -10.042   6.079  67.307  1.00  0.00    -0.150 NA 
HETATM   30  C   UNL     1     -10.124   5.239  66.081  1.00  0.00    -0.172 C  
HETATM   31  C   UNL     1      -8.966   7.070  67.186  1.00  0.00    -0.121 C  
HETATM   32  C   UNL     1      -9.878   6.040  64.721  1.00  0.00     1.670 C  
HETATM   33  C   UNL     1      -8.780   5.458  63.895  1.00  0.00     0.057 A  
HETATM   34  C   UNL     1      -7.928   5.957  62.928  1.00  0.00    -0.108 A  
HETATM   35  N   UNL     1      -7.181   4.908  62.448  1.00  0.00    -0.034 NA 
HETATM   36  C   UNL     1      -7.536   3.735  63.077  1.00  0.00    -0.058 A  
HETATM   37  H   UNL     1      -6.464   4.987  61.727  1.00  0.00     0.000 HD 
HETATM   38  C   UNL     1      -7.108   2.407  62.977  1.00  0.00    -0.036 A  
HETATM   39  C   UNL     1      -7.682   1.485  63.873  1.00  0.00    -0.059 A  
HETATM   40  C   UNL     1      -8.536   1.889  64.902  1.00  0.00    -0.090 A  
HETATM   41  C   UNL     1      -8.853   3.239  65.038  1.00  0.00    -0.128 A  
HETATM   42  C   UNL     1      -8.446   4.108  64.044  1.00  0.00    -0.103 A  
HETATM   43  C   UNL     1      -9.347   3.866  66.301  1.00  0.00    -0.186 C  
HETATM   44  C   UNL     1      -8.122   4.082  67.260  1.00  0.00    -0.095 C  
ENDBRANCH  26  27
ENDBRANCH  15  23
TORSDOF 2
ENDMDL
MODEL      125
REMARK 921   NORMALIZED FREE ENERGY PREDICTED BY IDOCK:   16.23 KCAL/MOL
REMARK 922        TOTAL FREE ENERGY PREDICTED BY IDOCK:   17.72 KCAL/MOL
REMARK 923 INTER-LIGAND FREE ENERGY PREDICTED BY IDOCK:   13.65 KCAL/MOL
REMARK 924 INTRA-LIGAND FREE ENERGY PREDICTED BY IDOCK:    4.06 KCAL/MOL
REMARK 927      BINDING AFFINITY PREDICTED BY RF-SCORE:    0.00 PKD
ROOT
HETATM    1  C   UNL     1      -8.041  10.733  69.977  1.00  0.00     0.660 C  
HETATM    2  C   UNL     1      -6.691  10.177  70.418  1.00  0.00    -0.134 C  
HETATM    3  C   UNL     1      -6.960   8.646  70.565  1.00  0.00    -0.043 C  
HETATM    4  C   UNL     1      -8.468   8.443  70.448  1.00  0.00    -0.130 C  
HETATM    5  N   UNL     1      -9.013   9.777  70.491  1.00  0.00    -0.112 N  
HETATM    6  C   UNL     1     -10.371   9.997  70.302  1.00  0.00    -0.242 C  
HETATM    7  O   UNL     1     -11.228   9.141  70.487  1.00  0.00    -0.252 OA 
HETATM    8  C   UNL     1     -10.623  11.471  70.090  1.00  0.00     0.977 C  
HETATM    9  C   UNL     1     -12.055  11.950  70.295  1.00  0.00    -0.409 C  
HETATM   10  N   UNL     1      -9.621  11.994  68.927  1.00  0.00     0.023 N  
HETATM   11  C   UNL     1     -13.024  11.536  69.210  1.00  0.00     1.264 C  
HETATM   12  C   UNL     1     -12.614  11.779  71.721  1.00  0.00    -0.175 C  
HETATM   13  C   UNL     1      -9.538  13.211  68.239  1.00  0.00    -0.218 C  
HETATM   14  O   UNL     1      -9.185  13.330  67.074  1.00  0.00    -0.222 OA 
HETATM   15  C   UNL     1      -9.795  14.307  69.255  1.00  0.00     0.115 C  
HETATM   16  H   UNL     1      -7.563  13.703  68.851  1.00  0.00     0.000 HD 
HETATM   17  C   UNL     1     -11.369  14.438  68.679  1.00  0.00    -0.298 C  
HETATM   18  O   UNL     1      -9.094  13.401  70.352  1.00  0.00     3.698 OA 
HETATM   19  O   UNL     1      -7.315  12.802  69.023  1.00  0.00    -0.057 OA 
HETATM   20  C   UNL     1      -8.463  12.270  69.683  1.00  0.00     1.774 C  
HETATM   21  C   UNL     1     -11.575  15.003  67.240  1.00  0.00    -0.285 C  
HETATM   22  C   UNL     1     -12.456  15.109  69.502  1.00  0.00    -0.120 C  
ENDROOT
BRANCH  15  23
HETATM   23  N   UNL     1      -9.283  15.632  69.531  1.00  0.00    -0.281 N  
HETATM   24  H   UNL     1      -8.278  15.802  69.549  1.00  0.00     0.000 HD 
HETATM   25  O   UNL     1     -11.356  16.497  70.117  1.00  0.00    -0.267 OA 
HETATM   26  C   UNL     1     -10.183  16.677  69.771  1.00  0.00    -0.036 C  
BRANCH  26  27
HETATM   27  C   UNL     1      -9.639  18.084  69.458  1.00  0.00     0.386 C  
HETATM   28  C   UNL     1      -8.504  18.418  70.452  1.00  0.00     3.283 C  
HETATM   29  N   UNL     1      -7.124  18.209  69.947  1.00  0.00     0.402 NA 
HETATM   30  C   UNL     1      -6.803  19.184  68.870  1.00  0.00    -0.322 C  
HETATM   31  C   UNL     1      -6.851  16.837  69.503  1.00  0.00    -0.139 C  
HETATM   32  C   UNL     1      -5.491  18.825  68.032  1.00  0.00    -0.174 C  
HETATM   33  C   UNL     1      -5.747  18.736  66.564  1.00  0.00    -0.171 A  
HETATM   34  C   UNL     1      -5.130  18.085  65.512  1.00  0.00    -0.174 A  
HETATM   35  N   UNL     1      -5.769  18.461  64.355  1.00  0.00    -0.108 NA 
HETATM   36  C   UNL     1      -6.784  19.351  64.632  1.00  0.00     0.296 A  
HETATM   37  H   UNL     1      -5.526  18.129  63.422  1.00  0.00     0.000 HD 
HETATM   38  C   UNL     1      -7.724  20.031  63.852  1.00  0.00     3.315 A  
HETATM   39  C   UNL     1      -8.672  20.815  64.536  1.00  0.00     2.443 A  
HETATM   40  C   UNL     1      -8.761  20.815  65.930  1.00  0.00     0.648 A  
HETATM   41  C   UNL     1      -7.875  20.038  66.673  1.00  0.00    -0.337 A  
HETATM   42  C   UNL     1      -6.829  19.426  66.008  1.00  0.00    -0.269 A  
HETATM   43  C   UNL     1      -8.124  19.580  68.073  1.00  0.00    -0.347 C  
HETATM   44  C   UNL     1      -9.118  18.365  68.029  1.00  0.00    -0.308 C  
ENDBRANCH  26  27
ENDBRANCH  15  23
TORSDOF 2
ENDMDL
MODEL      126
REMARK 921   NORMALIZED FREE ENERGY PREDICTED BY IDOCK:   17.67 KCAL/MOL
REMARK 922        TOTAL FREE ENERGY PREDICTED BY IDOCK:   19.33 KCAL/MOL
REMARK 923 INTER-LIGAND FREE ENERGY PREDICTED BY IDOCK:   18.16 KCAL/MOL
REMARK 924 INTRA-LIGAND FREE ENERGY PREDICTED BY IDOCK:    1.17 KCAL/MOL
REMARK 927      BINDING AFFINITY PREDICTED BY RF-SCORE:    0.00 PKD
ROOT
HETATM    1  C   UNL     1     -10.346  18.378  71.081  1.00  0.00     3.047 C  
HETATM    2  C   UNL     1     -11.123  18.056  72.354  1.00  0.00     2.738 C  
HETATM    3  C   UNL     1     -10.677  19.178  73.344  1.00  0.00     3.318 C  
HETATM    4  C   UNL     1      -9.513  19.916  72.690  1.00  0.00     3.368 C  
HETATM    5  N   UNL     1      -9.173  19.107  71.546  1.00  0.00     4.512 N  
HETATM    6  C   UNL     1      -8.212  19.528  70.638  1.00  0.00     2.040 C  
HETATM    7  O   UNL     1      -7.333  20.338  70.908  1.00  0.00     0.229 OA 
HETATM    8  C   UNL     1      -8.270  18.666  69.399  1.00  0.00     0.323 C  
HETATM    9  C   UNL     1      -7.042  18.691  68.498  1.00  0.00    -0.297 C  
HETATM   10  N   UNL     1      -9.807  18.626  68.882  1.00  0.00    -0.378 N  
HETATM   11  C   UNL     1      -6.859  19.968  67.710  1.00  0.00    -0.301 C  
HETATM   12  C   UNL     1      -5.741  18.165  69.135  1.00  0.00    -0.211 C  
HETATM   13  C   UNL     1     -10.390  18.118  67.715  1.00  0.00    -0.399 C  
HETATM   14  O   UNL     1     -11.368  18.598  67.159  1.00  0.00     0.114 OA 
HETATM   15  C   UNL     1      -9.691  16.807  67.411  1.00  0.00    -0.245 C  
HETATM   16  H   UNL     1     -11.668  16.715  68.673  1.00  0.00     0.000 HD 
HETATM   17  C   UNL     1      -8.773  17.596  66.245  1.00  0.00    -0.212 C  
HETATM   18  O   UNL     1      -9.528  16.576  68.972  1.00  0.00    -0.254 OA 
HETATM   19  O   UNL     1     -11.683  17.184  69.498  1.00  0.00     0.915 OA 
HETATM   20  C   UNL     1     -10.322  17.578  69.673  1.00  0.00     0.192 C  
HETATM   21  C   UNL     1      -9.503  18.106  64.964  1.00  0.00     2.817 C  
HETATM   22  C   UNL     1      -7.478  16.996  65.722  1.00  0.00     0.390 C  
ENDROOT
BRANCH  15  23
HETATM   23  N   UNL     1     -10.065  15.502  66.912  1.00  0.00    -0.256 N  
HETATM   24  H   UNL     1      -9.849  15.236  65.951  1.00  0.00     0.000 HD 
HETATM   25  O   UNL     1     -11.332  14.962  68.781  1.00  0.00    -0.259 OA 
HETATM   26  C   UNL     1     -10.729  14.608  67.762  1.00  0.00    -0.265 C  
BRANCH  26  27
HETATM   27  C   UNL     1     -10.553  13.121  67.400  1.00  0.00    -0.247 C  
HETATM   28  C   UNL     1      -9.496  12.996  66.280  1.00  0.00    -0.192 C  
HETATM   29  N   UNL     1      -8.126  12.636  66.724  1.00  0.00    -0.002 NA 
HETATM   30  C   UNL     1      -8.092  11.245  67.253  1.00  0.00    -0.140 C  
HETATM   31  C   UNL     1      -7.547  13.573  67.694  1.00  0.00    -0.177 C  
HETATM   32  C   UNL     1      -6.765  10.887  68.066  1.00  0.00    -0.063 C  
HETATM   33  C   UNL     1      -7.047  10.387  69.444  1.00  0.00    -0.102 A  
HETATM   34  C   UNL     1      -6.331  10.353  70.626  1.00  0.00    -0.063 A  
HETATM   35  N   UNL     1      -7.086   9.673  71.552  1.00  0.00    -0.240 NA 
HETATM   36  C   UNL     1      -8.275   9.256  70.994  1.00  0.00    -0.068 A  
HETATM   37  H   UNL     1      -6.805   9.500  72.517  1.00  0.00     0.000 HD 
HETATM   38  C   UNL     1      -9.380   8.546  71.472  1.00  0.00    -0.289 A  
HETATM   39  C   UNL     1     -10.463   8.383  70.587  1.00  0.00    -0.227 A  
HETATM   40  C   UNL     1     -10.496   9.009  69.339  1.00  0.00    -0.229 A  
HETATM   41  C   UNL     1      -9.422   9.800  68.941  1.00  0.00    -0.161 A  
HETATM   42  C   UNL     1      -8.285   9.799  69.726  1.00  0.00    -0.182 A  
HETATM   43  C   UNL     1      -9.499  10.864  67.895  1.00  0.00    -0.166 C  
HETATM   44  C   UNL     1     -10.170  12.135  68.528  1.00  0.00    -0.214 C  
ENDBRANCH  26  27
ENDBRANCH  15  23
TORSDOF 2
ENDMDL
MODEL      127
REMARK 921   NORMALIZED FREE ENERGY PREDICTED BY IDOCK:   19.08 KCAL/MOL
REMARK 922        TOTAL FREE ENERGY PREDICTED BY IDOCK:   20.91 KCAL/MOL
REMARK 923 INTER-LIGAND FREE ENERGY PREDICTED BY IDOCK:   19.77 KCAL/MOL
REMARK 924 INTRA-LIGAND FREE ENERGY PREDICTED BY IDOCK:    1.13 KCAL/MOL
REMARK 927      BINDING AFFINITY PREDICTED BY RF-SCORE:    0.00 PKD
ROOT
HETATM    1  C   UNL     1     -11.633  17.701  66.600  1.00  0.00     1.756 C  
HETATM    2  C   UNL     1     -13.027  18.306  66.469  1.00  0.00     9.622 C  
HETATM    3  C   UNL     1     -12.776  19.836  66.651  1.00  0.00     5.304 C  
HETATM    4  C   UNL     1     -11.331  20.002  67.113  1.00  0.00     0.674 C  
HETATM    5  N   UNL     1     -10.895  18.661  67.411  1.00  0.00    -0.404 N  
HETATM    6  C   UNL     1      -9.577  18.403  67.764  1.00  0.00    -0.287 C  
HETATM    7  O   UNL     1      -8.823  19.249  68.232  1.00  0.00    -0.313 OA 
HETATM    8  C   UNL     1      -9.320  16.916  67.721  1.00  0.00    -0.235 C  
HETATM    9  C   UNL     1      -8.094  16.418  68.476  1.00  0.00    -0.205 C  
HETATM   10  N   UNL     1      -9.821  16.357  66.283  1.00  0.00    -0.295 N  
HETATM   11  C   UNL     1      -6.769  16.757  67.830  1.00  0.00    -0.153 C  
HETATM   12  C   UNL     1      -8.116  16.646  70.000  1.00  0.00     1.476 C  
HETATM   13  C   UNL     1      -9.681  15.110  65.662  1.00  0.00    -0.316 C  
HETATM   14  O   UNL     1      -9.567  14.942  64.455  1.00  0.00     0.750 OA 
HETATM   15  C   UNL     1      -9.874  14.060  66.739  1.00  0.00    -0.273 C  
HETATM   16  H   UNL     1     -11.758  14.690  65.488  1.00  0.00     0.000 HD 
HETATM   17  C   UNL     1      -8.206  13.869  66.815  1.00  0.00     0.184 C  
HETATM   18  O   UNL     1     -10.905  15.033  67.449  1.00  0.00    -0.290 OA 
HETATM   19  O   UNL     1     -12.018  15.603  65.519  1.00  0.00     0.316 OA 
HETATM   20  C   UNL     1     -11.190  16.143  66.548  1.00  0.00     0.203 C  
HETATM   21  C   UNL     1      -7.488  13.229  65.586  1.00  0.00     5.073 C  
HETATM   22  C   UNL     1      -7.542  13.216  68.016  1.00  0.00    -0.144 C  
ENDROOT
BRANCH  15  23
HETATM   23  N   UNL     1     -10.502  12.762  66.846  1.00  0.00    -0.240 N  
HETATM   24  H   UNL     1     -10.191  11.988  66.259  1.00  0.00     0.000 HD 
HETATM   25  O   UNL     1     -12.203  13.511  68.238  1.00  0.00    -0.313 OA 
HETATM   26  C   UNL     1     -11.542  12.578  67.766  1.00  0.00    -0.343 C  
BRANCH  26  27
HETATM   27  C   UNL     1     -11.732  11.127  68.247  1.00  0.00    -0.323 C  
HETATM   28  C   UNL     1     -11.640  10.178  67.031  1.00  0.00     1.233 C  
HETATM   29  N   UNL     1     -10.326   9.515  66.829  1.00  0.00    -0.243 NA 
HETATM   30  C   UNL     1     -10.053   8.543  67.923  1.00  0.00    -0.207 C  
HETATM   31  C   UNL     1      -9.205  10.448  66.672  1.00  0.00    -0.156 C  
HETATM   32  C   UNL     1      -8.538   8.042  67.989  1.00  0.00    -0.129 C  
HETATM   33  C   UNL     1      -7.910   8.267  69.324  1.00  0.00    -0.108 A  
HETATM   34  C   UNL     1      -6.610   8.417  69.769  1.00  0.00    -0.039 A  
HETATM   35  N   UNL     1      -6.645   8.500  71.141  1.00  0.00    -0.049 NA 
HETATM   36  C   UNL     1      -7.941   8.399  71.598  1.00  0.00    -0.134 A  
HETATM   37  H   UNL     1      -5.826   8.620  71.737  1.00  0.00     0.000 HD 
HETATM   38  C   UNL     1      -8.533   8.421  72.864  1.00  0.00    -0.221 A  
HETATM   39  C   UNL     1      -9.938   8.364  72.911  1.00  0.00    -0.209 A  
HETATM   40  C   UNL     1     -10.718   8.417  71.754  1.00  0.00    -0.355 A  
HETATM   41  C   UNL     1     -10.094   8.506  70.512  1.00  0.00    -0.218 A  
HETATM   42  C   UNL     1      -8.720   8.366  70.460  1.00  0.00    -0.152 A  
HETATM   43  C   UNL     1     -10.751   9.021  69.272  1.00  0.00    -0.189 C  
HETATM   44  C   UNL     1     -10.783  10.589  69.343  1.00  0.00    -0.277 C  
ENDBRANCH  26  27
ENDBRANCH  15  23
TORSDOF 2
ENDMDL
MODEL      128
REMARK 921   NORMALIZED FREE ENERGY PREDICTED BY IDOCK:   21.12 KCAL/MOL
REMARK 922        TOTAL FREE ENERGY PREDICTED BY IDOCK:   23.18 KCAL/MOL
REMARK 923 INTER-LIGAND FREE ENERGY PREDICTED BY IDOCK:   21.69 KCAL/MOL
REMARK 924 INTRA-LIGAND FREE ENERGY PREDICTED BY IDOCK:    1.50 KCAL/MOL
REMARK 927      BINDING AFFINITY PREDICTED BY RF-SCORE:    0.00 PKD
ROOT
HETATM    1  C   UNL     1      -7.151   4.503  65.807  1.00  0.00    -0.067 C  
HETATM    2  C   UNL     1      -5.847   4.142  65.104  1.00  0.00    -0.022 C  
HETATM    3  C   UNL     1      -6.093   2.682  64.611  1.00  0.00    -0.019 C  
HETATM    4  C   UNL     1      -7.392   2.205  65.254  1.00  0.00    -0.058 C  
HETATM    5  N   UNL     1      -7.705   3.222  66.226  1.00  0.00    -0.077 N  
HETATM    6  C   UNL     1      -8.893   3.179  66.943  1.00  0.00    -0.143 C  
HETATM    7  O   UNL     1      -9.540   2.154  67.123  1.00  0.00     0.026 OA 
HETATM    8  C   UNL     1      -9.109   4.497  67.649  1.00  0.00    -0.122 C  
HETATM    9  C   UNL     1     -10.106   4.493  68.801  1.00  0.00    -0.033 C  
HETATM   10  N   UNL     1      -8.946   5.688  66.560  1.00  0.00    -0.122 N  
HETATM   11  C   UNL     1     -11.555   4.375  68.386  1.00  0.00     7.068 C  
HETATM   12  C   UNL     1      -9.731   3.600  69.999  1.00  0.00    -0.180 C  
HETATM   13  C   UNL     1      -9.191   7.064  66.633  1.00  0.00    -0.158 C  
HETATM   14  O   UNL     1      -9.582   7.752  65.699  1.00  0.00     0.187 OA 
HETATM   15  C   UNL     1      -8.718   7.522  67.998  1.00  0.00    -0.121 C  
HETATM   16  H   UNL     1      -7.203   7.689  66.213  1.00  0.00     0.000 HD 
HETATM   17  C   UNL     1     -10.314   7.518  68.524  1.00  0.00    -0.224 C  
HETATM   18  O   UNL     1      -7.577   6.422  67.929  1.00  0.00    -0.098 OA 
HETATM   19  O   UNL     1      -6.971   6.887  65.760  1.00  0.00    -0.061 OA 
HETATM   20  C   UNL     1      -7.547   5.872  66.580  1.00  0.00    -0.095 C  
HETATM   21  C   UNL     1     -11.283   8.584  67.925  1.00  0.00     0.575 C  
HETATM   22  C   UNL     1     -10.655   7.496  70.006  1.00  0.00    -0.242 C  
ENDROOT
BRANCH  15  23
HETATM   23  N   UNL     1      -8.044   8.677  68.549  1.00  0.00    -0.116 N  
HETATM   24  H   UNL     1      -7.330   8.563  69.269  1.00  0.00     0.000 HD 
HETATM   25  O   UNL     1      -9.443  10.206  67.503  1.00  0.00    -0.149 OA 
HETATM   26  C   UNL     1      -8.380   9.954  68.082  1.00  0.00    -0.110 C  
BRANCH  26  27
HETATM   27  C   UNL     1      -7.272  11.013  68.237  1.00  0.00    -0.085 C  
HETATM   28  C   UNL     1      -7.146  11.806  66.917  1.00  0.00    -0.097 C  
HETATM   29  N   UNL     1      -7.840  13.118  66.886  1.00  0.00     0.071 NA 
HETATM   30  C   UNL     1      -7.189  14.081  67.816  1.00  0.00    -0.165 C  
HETATM   31  C   UNL     1      -9.281  13.038  67.148  1.00  0.00    -0.226 C  
HETATM   32  C   UNL     1      -8.054  15.390  68.115  1.00  0.00    -0.136 C  
HETATM   33  C   UNL     1      -8.290  15.609  69.572  1.00  0.00    -0.176 A  
HETATM   34  C   UNL     1      -9.254  16.274  70.307  1.00  0.00     1.430 A  
HETATM   35  N   UNL     1      -8.887  16.211  71.630  1.00  0.00     6.235 NA 
HETATM   36  C   UNL     1      -7.700  15.526  71.770  1.00  0.00     5.134 A  
HETATM   37  H   UNL     1      -9.419  16.615  72.400  1.00  0.00     0.000 HD 
HETATM   38  C   UNL     1      -6.898  15.178  72.861  1.00  0.00     3.573 A  
HETATM   39  C   UNL     1      -5.767  14.385  72.593  1.00  0.00     0.055 A  
HETATM   40  C   UNL     1      -5.522  13.855  71.324  1.00  0.00    -0.208 A  
HETATM   41  C   UNL     1      -6.405  14.134  70.283  1.00  0.00    -0.121 A  
HETATM   42  C   UNL     1      -7.401  15.066  70.505  1.00  0.00     0.654 A  
HETATM   43  C   UNL     1      -6.541  13.305  69.047  1.00  0.00    -0.104 C  
HETATM   44  C   UNL     1      -7.389  12.030  69.394  1.00  0.00     0.217 C  
ENDBRANCH  26  27
ENDBRANCH  15  23
TORSDOF 2
ENDMDL
MODEL      129
REMARK 921   NORMALIZED FREE ENERGY PREDICTED BY IDOCK:   21.37 KCAL/MOL
REMARK 922        TOTAL FREE ENERGY PREDICTED BY IDOCK:   23.47 KCAL/MOL
REMARK 923 INTER-LIGAND FREE ENERGY PREDICTED BY IDOCK:   22.24 KCAL/MOL
REMARK 924 INTRA-LIGAND FREE ENERGY PREDICTED BY IDOCK:    1.22 KCAL/MOL
REMARK 927      BINDING AFFINITY PREDICTED BY RF-SCORE:    0.00 PKD
ROOT
HETATM    1  C   UNL     1      -8.954   5.779  66.131  1.00  0.00    -0.149 C  
HETATM    2  C   UNL     1      -7.824   5.151  65.322  1.00  0.00    -0.090 C  
HETATM    3  C   UNL     1      -8.273   3.664  65.164  1.00  0.00    -0.097 C  
HETATM    4  C   UNL     1      -9.479   3.462  66.078  1.00  0.00    -0.112 C  
HETATM    5  N   UNL     1      -9.535   4.665  66.869  1.00  0.00    -0.150 N  
HETATM    6  C   UNL     1     -10.582   4.887  67.752  1.00  0.00     0.192 C  
HETATM    7  O   UNL     1     -11.273   3.992  68.224  1.00  0.00     3.457 OA 
HETATM    8  C   UNL     1     -10.562   6.326  68.214  1.00  0.00    -0.258 C  
HETATM    9  C   UNL     1     -11.345   6.641  69.482  1.00  0.00    -0.358 C  
HETATM   10  N   UNL     1     -10.487   7.277  66.902  1.00  0.00    -0.306 N  
HETATM   11  C   UNL     1     -12.848   6.619  69.323  1.00  0.00     4.252 C  
HETATM   12  C   UNL     1     -10.848   5.938  70.760  1.00  0.00    -0.352 C  
HETATM   13  C   UNL     1     -10.599   8.663  66.743  1.00  0.00    -0.153 C  
HETATM   14  O   UNL     1     -11.084   9.215  65.764  1.00  0.00     1.649 OA 
HETATM   15  C   UNL     1      -9.863   9.299  67.906  1.00  0.00    -0.167 C  
HETATM   16  H   UNL     1      -8.667   8.970  65.913  1.00  0.00     0.000 HD 
HETATM   17  C   UNL     1     -11.341   9.573  68.658  1.00  0.00     0.176 C  
HETATM   18  O   UNL     1      -8.848   8.081  67.879  1.00  0.00    -0.130 OA 
HETATM   19  O   UNL     1      -8.583   8.079  65.595  1.00  0.00    -0.146 OA 
HETATM   20  C   UNL     1      -9.096   7.299  66.674  1.00  0.00    -0.154 C  
HETATM   21  C   UNL     1     -12.304  10.619  68.018  1.00  0.00     1.655 C  
HETATM   22  C   UNL     1     -11.425   9.854  70.150  1.00  0.00    -0.309 C  
ENDROOT
BRANCH  15  23
HETATM   23  N   UNL     1      -9.009  10.448  68.113  1.00  0.00    -0.130 N  
HETATM   24  H   UNL     1      -9.390  11.309  68.506  1.00  0.00     0.000 HD 
HETATM   25  O   UNL     1      -7.205   9.525  66.981  1.00  0.00    -0.086 OA 
HETATM   26  C   UNL     1      -7.654  10.366  67.768  1.00  0.00    -0.089 C  
BRANCH  26  27
HETATM   27  C   UNL     1      -6.732  11.330  68.537  1.00  0.00    -0.063 C  
HETATM   28  C   UNL     1      -5.407  11.488  67.758  1.00  0.00    -0.049 C  
HETATM   29  N   UNL     1      -5.299  12.701  66.909  1.00  0.00    -0.297 NA 
HETATM   30  C   UNL     1      -5.240  13.928  67.748  1.00  0.00    -0.008 C  
HETATM   31  C   UNL     1      -6.354  12.815  65.895  1.00  0.00     4.238 C  
HETATM   32  C   UNL     1      -5.473  15.286  66.939  1.00  0.00     1.158 C  
HETATM   33  C   UNL     1      -6.586  16.109  67.496  1.00  0.00    -0.200 A  
HETATM   34  C   UNL     1      -7.431  17.072  66.977  1.00  0.00    -0.191 A  
HETATM   35  N   UNL     1      -8.202  17.552  68.009  1.00  0.00    -0.232 NA 
HETATM   36  C   UNL     1      -7.870  16.926  69.191  1.00  0.00    -0.116 A  
HETATM   37  H   UNL     1      -8.920  18.270  67.913  1.00  0.00     0.000 HD 
HETATM   38  C   UNL     1      -8.326  17.027  70.508  1.00  0.00     3.893 A  
HETATM   39  C   UNL     1      -7.770  16.135  71.444  1.00  0.00     5.504 A  
HETATM   40  C   UNL     1      -6.904  15.109  71.061  1.00  0.00     0.906 A  
HETATM   41  C   UNL     1      -6.557  14.971  69.719  1.00  0.00    -0.170 A  
HETATM   42  C   UNL     1      -6.949  15.962  68.839  1.00  0.00    -0.143 A  
HETATM   43  C   UNL     1      -6.046  13.708  69.104  1.00  0.00    -0.093 C  
HETATM   44  C   UNL     1      -7.262  12.745  68.865  1.00  0.00    -0.039 C  
ENDBRANCH  26  27
ENDBRANCH  15  23
TORSDOF 2
ENDMDL
MODEL      130
REMARK 921   NORMALIZED FREE ENERGY PREDICTED BY IDOCK:   21.51 KCAL/MOL
REMARK 922        TOTAL FREE ENERGY PREDICTED BY IDOCK:   23.62 KCAL/MOL
REMARK 923 INTER-LIGAND FREE ENERGY PREDICTED BY IDOCK:   22.24 KCAL/MOL
REMARK 924 INTRA-LIGAND FREE ENERGY PREDICTED BY IDOCK:    1.38 KCAL/MOL
REMARK 927      BINDING AFFINITY PREDICTED BY RF-SCORE:    0.00 PKD
ROOT
HETATM    1  C   UNL     1      -7.585  11.054  66.200  1.00  0.00    -0.084 C  
HETATM    2  C   UNL     1      -6.283  10.473  65.658  1.00  0.00    -0.129 C  
HETATM    3  C   UNL     1      -6.453   8.937  65.875  1.00  0.00    -0.057 C  
HETATM    4  C   UNL     1      -7.699   8.741  66.735  1.00  0.00    -0.094 C  
HETATM    5  N   UNL     1      -8.044  10.070  67.172  1.00  0.00    -0.116 N  
HETATM    6  C   UNL     1      -9.204  10.301  67.899  1.00  0.00    -0.138 C  
HETATM    7  O   UNL     1      -9.780   9.436  68.549  1.00  0.00    -0.145 OA 
HETATM    8  C   UNL     1      -9.480  11.785  67.961  1.00  0.00    -0.188 C  
HETATM    9  C   UNL     1     -10.438  12.251  69.049  1.00  0.00    -0.049 C  
HETATM   10  N   UNL     1      -9.426  12.373  66.450  1.00  0.00    -0.241 N  
HETATM   11  C   UNL     1     -11.890  11.900  68.811  1.00  0.00    -0.371 C  
HETATM   12  C   UNL     1      -9.971  12.001  70.496  1.00  0.00     4.445 C  
HETATM   13  C   UNL     1      -9.754  13.626  65.920  1.00  0.00    -0.187 C  
HETATM   14  O   UNL     1     -10.217  13.810  64.802  1.00  0.00    -0.403 OA 
HETATM   15  C   UNL     1      -9.269  14.663  66.914  1.00  0.00    -0.249 C  
HETATM   16  H   UNL     1      -7.824  14.082  65.157  1.00  0.00     0.000 HD 
HETATM   17  C   UNL     1     -10.844  14.826  67.476  1.00  0.00    -0.287 C  
HETATM   18  O   UNL     1      -8.064  13.696  67.274  1.00  0.00    -0.176 OA 
HETATM   19  O   UNL     1      -7.556  13.173  65.093  1.00  0.00     4.961 OA 
HETATM   20  C   UNL     1      -8.042  12.605  66.308  1.00  0.00     0.726 C  
HETATM   21  C   UNL     1     -11.896  15.473  66.522  1.00  0.00     0.439 C  
HETATM   22  C   UNL     1     -11.137  15.450  68.830  1.00  0.00    -0.275 C  
ENDROOT
BRANCH  15  23
HETATM   23  N   UNL     1      -8.651  15.970  66.858  1.00  0.00    -0.208 N  
HETATM   24  H   UNL     1      -9.143  16.788  67.216  1.00  0.00     0.000 HD 
HETATM   25  O   UNL     1      -6.868  15.260  65.551  1.00  0.00     5.257 OA 
HETATM   26  C   UNL     1      -7.369  16.099  66.309  1.00  0.00     0.422 C  
BRANCH  26  27
HETATM   27  C   UNL     1      -6.568  17.314  66.813  1.00  0.00    -0.247 C  
HETATM   28  C   UNL     1      -6.633  18.435  65.752  1.00  0.00    -0.278 C  
HETATM   29  N   UNL     1      -7.637  19.500  65.999  1.00  0.00    -0.308 NA 
HETATM   30  C   UNL     1      -7.264  20.310  67.191  1.00  0.00    -0.285 C  
HETATM   31  C   UNL     1      -9.014  19.006  66.118  1.00  0.00    -0.190 C  
HETATM   32  C   UNL     1      -8.438  21.242  67.742  1.00  0.00     0.484 C  
HETATM   33  C   UNL     1      -8.740  21.004  69.184  1.00  0.00     2.330 A  
HETATM   34  C   UNL     1      -9.849  21.196  69.985  1.00  0.00     2.212 A  
HETATM   35  N   UNL     1      -9.495  20.876  71.274  1.00  0.00     1.451 NA 
HETATM   36  C   UNL     1      -8.174  20.487  71.329  1.00  0.00     2.250 A  
HETATM   37  H   UNL     1     -10.122  20.920  72.078  1.00  0.00     0.000 HD 
HETATM   38  C   UNL     1      -7.323  20.068  72.357  1.00  0.00     2.006 A  
HETATM   39  C   UNL     1      -6.024  19.673  71.986  1.00  0.00     0.017 A  
HETATM   40  C   UNL     1      -5.637  19.574  70.647  1.00  0.00    -0.269 A  
HETATM   41  C   UNL     1      -6.549  19.895  69.645  1.00  0.00    -0.373 A  
HETATM   42  C   UNL     1      -7.752  20.465  70.017  1.00  0.00     1.080 A  
HETATM   43  C   UNL     1      -6.455  19.417  68.233  1.00  0.00    -0.270 C  
HETATM   44  C   UNL     1      -6.954  17.929  68.178  1.00  0.00    -0.218 C  
ENDBRANCH  26  27
ENDBRANCH  15  23
TORSDOF 2
ENDMDL
MODEL      131
REMARK 921   NORMALIZED FREE ENERGY PREDICTED BY IDOCK:   24.59 KCAL/MOL
REMARK 922        TOTAL FREE ENERGY PREDICTED BY IDOCK:   27.06 KCAL/MOL
REMARK 923 INTER-LIGAND FREE ENERGY PREDICTED BY IDOCK:   25.60 KCAL/MOL
REMARK 924 INTRA-LIGAND FREE ENERGY PREDICTED BY IDOCK:    1.46 KCAL/MOL
REMARK 927      BINDING AFFINITY PREDICTED BY RF-SCORE:    0.00 PKD
ROOT
HETATM    1  C   UNL     1     -10.799  10.409  66.894  1.00  0.00    -0.161 C  
HETATM    2  C   UNL     1     -11.864  11.148  66.090  1.00  0.00     1.002 C  
HETATM    3  C   UNL     1     -12.708   9.996  65.460  1.00  0.00    10.970 C  
HETATM    4  C   UNL     1     -11.955   8.695  65.723  1.00  0.00     9.650 C  
HETATM    5  N   UNL     1     -10.674   9.118  66.230  1.00  0.00     0.193 N  
HETATM    6  C   UNL     1      -9.748   8.190  66.685  1.00  0.00    -0.248 C  
HETATM    7  O   UNL     1      -9.743   7.013  66.343  1.00  0.00    -0.156 OA 
HETATM    8  C   UNL     1      -8.643   8.898  67.433  1.00  0.00    -0.119 C  
HETATM    9  C   UNL     1      -7.347   8.120  67.625  1.00  0.00    -0.093 C  
HETATM   10  N   UNL     1      -9.323   9.867  68.542  1.00  0.00    -0.140 N  
HETATM   11  C   UNL     1      -7.427   6.992  68.629  1.00  0.00    -0.102 C  
HETATM   12  C   UNL     1      -6.602   7.744  66.330  1.00  0.00    -0.050 C  
HETATM   13  C   UNL     1      -8.779  10.617  69.591  1.00  0.00     0.157 C  
HETATM   14  O   UNL     1      -9.339  10.832  70.658  1.00  0.00     1.351 OA 
HETATM   15  C   UNL     1      -7.489  11.223  69.073  1.00  0.00    -0.116 C  
HETATM   16  H   UNL     1      -9.441  12.516  68.902  1.00  0.00     0.000 HD 
HETATM   17  C   UNL     1      -6.631  10.029  69.887  1.00  0.00    -0.089 C  
HETATM   18  O   UNL     1      -8.156  11.317  67.637  1.00  0.00    -0.113 OA 
HETATM   19  O   UNL     1     -10.158  12.160  68.391  1.00  0.00    -0.206 OA 
HETATM   20  C   UNL     1      -9.576  11.017  67.766  1.00  0.00    -0.170 C  
HETATM   21  C   UNL     1      -6.631  10.063  71.446  1.00  0.00     0.432 C  
HETATM   22  C   UNL     1      -5.190   9.707  69.522  1.00  0.00    -0.035 C  
ENDROOT
BRANCH  15  23
HETATM   23  N   UNL     1      -6.786  12.480  69.204  1.00  0.00    -0.206 N  
HETATM   24  H   UNL     1      -6.359  12.920  68.389  1.00  0.00     0.000 HD 
HETATM   25  O   UNL     1      -6.861  12.475  71.525  1.00  0.00     2.812 OA 
HETATM   26  C   UNL     1      -6.699  13.088  70.463  1.00  0.00     1.044 C  
BRANCH  26  27
HETATM   27  C   UNL     1      -6.501  14.616  70.432  1.00  0.00    -0.110 C  
HETATM   28  C   UNL     1      -5.135  14.933  69.784  1.00  0.00    -0.089 C  
HETATM   29  N   UNL     1      -5.176  15.312  68.349  1.00  0.00    -0.100 NA 
HETATM   30  C   UNL     1      -5.847  16.629  68.170  1.00  0.00    -0.116 C  
HETATM   31  C   UNL     1      -5.784  14.298  67.480  1.00  0.00     0.164 C  
HETATM   32  C   UNL     1      -6.248  16.958  66.659  1.00  0.00    -0.206 C  
HETATM   33  C   UNL     1      -7.698  17.271  66.499  1.00  0.00    -0.325 A  
HETATM   34  C   UNL     1      -8.593  17.201  65.448  1.00  0.00     1.410 A  
HETATM   35  N   UNL     1      -9.789  17.721  65.882  1.00  0.00    -0.550 NA 
HETATM   36  C   UNL     1      -9.688  18.136  67.192  1.00  0.00    -0.301 A  
HETATM   37  H   UNL     1     -10.633  17.790  65.314  1.00  0.00     0.000 HD 
HETATM   38  C   UNL     1     -10.576  18.720  68.101  1.00  0.00    -0.292 A  
HETATM   39  C   UNL     1     -10.101  18.930  69.409  1.00  0.00     0.043 A  
HETATM   40  C   UNL     1      -8.853  18.459  69.826  1.00  0.00     1.132 A  
HETATM   41  C   UNL     1      -8.040  17.782  68.920  1.00  0.00    -0.161 A  
HETATM   42  C   UNL     1      -8.426  17.751  67.594  1.00  0.00    -0.229 A  
HETATM   43  C   UNL     1      -6.938  16.850  69.308  1.00  0.00    -0.211 C  
HETATM   44  C   UNL     1      -7.574  15.477  69.727  1.00  0.00    -0.065 C  
ENDBRANCH  26  27
ENDBRANCH  15  23
TORSDOF 2
ENDMDL
MODEL      132
REMARK 921   NORMALIZED FREE ENERGY PREDICTED BY IDOCK:   35.40 KCAL/MOL
REMARK 922        TOTAL FREE ENERGY PREDICTED BY IDOCK:   39.14 KCAL/MOL
REMARK 923 INTER-LIGAND FREE ENERGY PREDICTED BY IDOCK:   38.26 KCAL/MOL
REMARK 924 INTRA-LIGAND FREE ENERGY PREDICTED BY IDOCK:    0.88 KCAL/MOL
REMARK 927      BINDING AFFINITY PREDICTED BY RF-SCORE:    0.00 PKD
ROOT
HETATM    1  C   UNL     1      -7.542   7.291  69.672  1.00  0.00    -0.099 C  
HETATM    2  C   UNL     1      -6.158   6.927  70.201  1.00  0.00    -0.024 C  
HETATM    3  C   UNL     1      -6.357   5.493  70.783  1.00  0.00    -0.031 C  
HETATM    4  C   UNL     1      -7.858   5.214  70.785  1.00  0.00    -0.088 C  
HETATM    5  N   UNL     1      -8.459   6.486  70.471  1.00  0.00    -0.136 N  
HETATM    6  C   UNL     1      -9.829   6.598  70.278  1.00  0.00    -0.174 C  
HETATM    7  O   UNL     1     -10.644   5.801  70.729  1.00  0.00    -0.240 OA 
HETATM    8  C   UNL     1     -10.150   7.943  69.670  1.00  0.00    -0.197 C  
HETATM    9  C   UNL     1     -11.595   8.411  69.785  1.00  0.00     0.391 C  
HETATM   10  N   UNL     1      -9.202   8.149  68.370  1.00  0.00    -0.136 N  
HETATM   11  C   UNL     1     -12.573   7.675  68.898  1.00  0.00     4.455 C  
HETATM   12  C   UNL     1     -12.108   8.632  71.221  1.00  0.00    -0.333 C  
HETATM   13  C   UNL     1      -9.190   9.123  67.365  1.00  0.00    -0.130 C  
HETATM   14  O   UNL     1      -8.873   8.919  66.200  1.00  0.00    -0.142 OA 
HETATM   15  C   UNL     1      -9.467  10.453  68.039  1.00  0.00    -0.143 C  
HETATM   16  H   UNL     1      -7.222   9.834  67.738  1.00  0.00     0.000 HD 
HETATM   17  C   UNL     1     -11.059  10.362  67.509  1.00  0.00    -0.336 C  
HETATM   18  O   UNL     1      -8.699   9.918  69.320  1.00  0.00    -0.144 OA 
HETATM   19  O   UNL     1      -6.932   9.028  68.148  1.00  0.00    -0.074 OA 
HETATM   20  C   UNL     1      -8.037   8.666  68.974  1.00  0.00    -0.121 C  
HETATM   21  C   UNL     1     -11.328  10.490  65.978  1.00  0.00     0.696 C  
HETATM   22  C   UNL     1     -12.152  11.202  68.150  1.00  0.00     0.047 C  
ENDROOT
BRANCH  15  23
HETATM   23  N   UNL     1      -9.005  11.817  67.911  1.00  0.00    -0.172 N  
HETATM   24  H   UNL     1      -8.916  12.411  68.736  1.00  0.00     0.000 HD 
HETATM   25  O   UNL     1      -9.089  11.808  65.591  1.00  0.00    -0.153 OA 
HETATM   26  C   UNL     1      -8.681  12.315  66.642  1.00  0.00    -0.132 C  
BRANCH  26  27
HETATM   27  C   UNL     1      -7.673  13.480  66.642  1.00  0.00     0.829 C  
HETATM   28  C   UNL     1      -7.193  13.730  65.195  1.00  0.00    11.118 C  
HETATM   29  N   UNL     1      -7.867  14.840  64.476  1.00  0.00     9.961 NA 
HETATM   30  C   UNL     1      -7.513  16.152  65.084  1.00  0.00     5.637 C  
HETATM   31  C   UNL     1      -9.323  14.690  64.375  1.00  0.00     3.415 C  
HETATM   32  C   UNL     1      -8.444  17.363  64.614  1.00  0.00     6.085 C  
HETATM   33  C   UNL     1      -9.081  18.082  65.756  1.00  0.00     0.374 A  
HETATM   34  C   UNL     1     -10.220  18.852  65.901  1.00  0.00    -0.286 A  
HETATM   35  N   UNL     1     -10.237  19.335  67.187  1.00  0.00    -0.373 NA 
HETATM   36  C   UNL     1      -9.128  18.901  67.880  1.00  0.00    -0.300 A  
HETATM   37  H   UNL     1     -10.969  19.930  67.575  1.00  0.00     0.000 HD 
HETATM   38  C   UNL     1      -8.659  19.087  69.185  1.00  0.00    -0.097 A  
HETATM   39  C   UNL     1      -7.488  18.394  69.545  1.00  0.00     0.230 A  
HETATM   40  C   UNL     1      -6.892  17.461  68.694  1.00  0.00    -0.217 A  
HETATM   41  C   UNL     1      -7.452  17.220  67.442  1.00  0.00    -0.191 A  
HETATM   42  C   UNL     1      -8.481  18.040  67.019  1.00  0.00    -0.247 A  
HETATM   43  C   UNL     1      -7.226  15.979  66.640  1.00  0.00    -0.025 C  
HETATM   44  C   UNL     1      -8.122  14.835  67.235  1.00  0.00    -0.232 C  
ENDBRANCH  26  27
ENDBRANCH  15  23
TORSDOF 2
ENDMDL
MODEL      133
REMARK 921   NORMALIZED FREE ENERGY PREDICTED BY IDOCK:   40.26 KCAL/MOL
REMARK 922        TOTAL FREE ENERGY PREDICTED BY IDOCK:   44.57 KCAL/MOL
REMARK 923 INTER-LIGAND FREE ENERGY PREDICTED BY IDOCK:   42.93 KCAL/MOL
REMARK 924 INTRA-LIGAND FREE ENERGY PREDICTED BY IDOCK:    1.63 KCAL/MOL
REMARK 927      BINDING AFFINITY PREDICTED BY RF-SCORE:    0.00 PKD
ROOT
HETATM    1  C   UNL     1     -12.061  18.359  67.334  1.00  0.00     3.232 C  
HETATM    2  C   UNL     1     -13.314  18.799  66.584  1.00  0.00    10.726 C  
HETATM    3  C   UNL     1     -13.640  20.192  67.208  1.00  0.00     5.865 C  
HETATM    4  C   UNL     1     -12.730  20.362  68.422  1.00  0.00     6.095 C  
HETATM    5  N   UNL     1     -12.133  19.064  68.607  1.00  0.00     4.396 N  
HETATM    6  C   UNL     1     -11.153  18.862  69.569  1.00  0.00     2.524 C  
HETATM    7  O   UNL     1     -11.009  19.580  70.551  1.00  0.00     1.962 OA 
HETATM    8  C   UNL     1     -10.491  17.522  69.349  1.00  0.00    -0.001 C  
HETATM    9  C   UNL     1      -9.715  16.948  70.527  1.00  0.00     2.277 C  
HETATM   10  N   UNL     1     -10.031  17.435  67.796  1.00  0.00    -0.289 N  
HETATM   11  C   UNL     1      -8.407  17.645  70.827  1.00  0.00     5.621 C  
HETATM   12  C   UNL     1     -10.552  16.635  71.783  1.00  0.00     2.332 C  
HETATM   13  C   UNL     1      -9.250  16.503  67.102  1.00  0.00    -0.214 C  
HETATM   14  O   UNL     1      -8.512  16.774  66.163  1.00  0.00    -0.352 OA 
HETATM   15  C   UNL     1      -9.637  15.132  67.621  1.00  0.00    -0.206 C  
HETATM   16  H   UNL     1     -10.746  15.921  65.709  1.00  0.00     0.000 HD 
HETATM   17  C   UNL     1      -8.251  15.130  68.572  1.00  0.00    -0.148 C  
HETATM   18  O   UNL     1     -11.114  15.670  67.828  1.00  0.00    -0.314 OA 
HETATM   19  O   UNL     1     -11.238  16.729  65.790  1.00  0.00     0.121 OA 
HETATM   20  C   UNL     1     -11.223  16.979  67.194  1.00  0.00     0.321 C  
HETATM   21  C   UNL     1      -6.871  15.042  67.851  1.00  0.00    -0.172 C  
HETATM   22  C   UNL     1      -8.111  14.189  69.758  1.00  0.00     0.764 C  
ENDROOT
BRANCH  15  23
HETATM   23  N   UNL     1      -9.831  13.810  67.068  1.00  0.00    -0.245 N  
HETATM   24  H   UNL     1      -9.030  13.252  66.773  1.00  0.00     0.000 HD 
HETATM   25  O   UNL     1     -12.139  14.020  66.930  1.00  0.00    -0.424 OA 
HETATM   26  C   UNL     1     -11.131  13.305  66.941  1.00  0.00    -0.289 C  
BRANCH  26  27
HETATM   27  C   UNL     1     -11.229  11.767  66.935  1.00  0.00    -0.387 C  
HETATM   28  C   UNL     1     -10.047  11.190  66.125  1.00  0.00    -0.238 C  
HETATM   29  N   UNL     1      -8.891  10.713  66.924  1.00  0.00    -0.137 NA 
HETATM   30  C   UNL     1      -9.259   9.507  67.716  1.00  0.00    -0.124 C  
HETATM   31  C   UNL     1      -8.297  11.739  67.788  1.00  0.00    -0.146 C  
HETATM   32  C   UNL     1      -8.209   9.129  68.858  1.00  0.00    -0.112 C  
HETATM   33  C   UNL     1      -8.831   9.036  70.211  1.00  0.00    -0.210 A  
HETATM   34  C   UNL     1      -8.359   9.164  71.504  1.00  0.00     0.129 A  
HETATM   35  N   UNL     1      -9.396   8.873  72.358  1.00  0.00    -0.301 NA 
HETATM   36  C   UNL     1     -10.531   8.550  71.647  1.00  0.00    -0.275 A  
HETATM   37  H   UNL     1      -9.334   8.893  73.376  1.00  0.00     0.000 HD 
HETATM   38  C   UNL     1     -11.833   8.184  72.002  1.00  0.00    -0.392 A  
HETATM   39  C   UNL     1     -12.752   8.004  70.952  1.00  0.00     0.064 A  
HETATM   40  C   UNL     1     -12.427   8.304  69.627  1.00  0.00     2.155 A  
HETATM   41  C   UNL     1     -11.151   8.773  69.325  1.00  0.00     0.096 A  
HETATM   42  C   UNL     1     -10.198   8.762  70.326  1.00  0.00    -0.220 A  
HETATM   43  C   UNL     1     -10.806   9.548  68.095  1.00  0.00    -0.208 C  
HETATM   44  C   UNL     1     -11.278  11.032  68.294  1.00  0.00    -0.340 C  
ENDBRANCH  26  27
ENDBRANCH  15  23
TORSDOF 2
ENDMDL
MODEL      134
REMARK 921   NORMALIZED FREE ENERGY PREDICTED BY IDOCK:   40.69 KCAL/MOL
REMARK 922        TOTAL FREE ENERGY PREDICTED BY IDOCK:   45.04 KCAL/MOL
REMARK 923 INTER-LIGAND FREE ENERGY PREDICTED BY IDOCK:   44.18 KCAL/MOL
REMARK 924 INTRA-LIGAND FREE ENERGY PREDICTED BY IDOCK:    0.86 KCAL/MOL
REMARK 927      BINDING AFFINITY PREDICTED BY RF-SCORE:    0.00 PKD
ROOT
HETATM    1  C   UNL     1      -8.049  10.731  69.987  1.00  0.00     0.660 C  
HETATM    2  C   UNL     1      -6.647  10.265  70.368  1.00  0.00    -0.126 C  
HETATM    3  C   UNL     1      -6.829   8.736  70.619  1.00  0.00    -0.050 C  
HETATM    4  C   UNL     1      -8.330   8.457  70.615  1.00  0.00    -0.125 C  
HETATM    5  N   UNL     1      -8.937   9.764  70.618  1.00  0.00    -0.035 N  
HETATM    6  C   UNL     1     -10.313   9.909  70.508  1.00  0.00    -0.232 C  
HETATM    7  O   UNL     1     -11.113   9.027  70.798  1.00  0.00    -0.245 OA 
HETATM    8  C   UNL     1     -10.652  11.354  70.230  1.00  0.00     1.101 C  
HETATM    9  C   UNL     1     -12.090  11.778  70.502  1.00  0.00    -0.439 C  
HETATM   10  N   UNL     1      -9.754  11.852  68.974  1.00  0.00     0.077 N  
HETATM   11  C   UNL     1     -13.104  11.255  69.510  1.00  0.00     1.053 C  
HETATM   12  C   UNL     1     -12.547  11.668  71.970  1.00  0.00     0.092 C  
HETATM   13  C   UNL     1      -9.776  13.028  68.214  1.00  0.00    -0.221 C  
HETATM   14  O   UNL     1      -9.504  13.092  67.022  1.00  0.00    -0.225 OA 
HETATM   15  C   UNL     1     -10.022  14.170  69.180  1.00  0.00     0.028 C  
HETATM   16  H   UNL     1      -7.793  13.646  68.663  1.00  0.00     0.000 HD 
HETATM   17  C   UNL     1     -11.634  14.193  68.704  1.00  0.00    -0.352 C  
HETATM   18  O   UNL     1      -9.208  13.365  70.278  1.00  0.00     3.127 OA 
HETATM   19  O   UNL     1      -7.490  12.770  68.870  1.00  0.00    -0.078 OA 
HETATM   20  C   UNL     1      -8.565  12.226  69.634  1.00  0.00     1.854 C  
HETATM   21  C   UNL     1     -11.960  14.661  67.252  1.00  0.00    -0.312 C  
HETATM   22  C   UNL     1     -12.698  14.862  69.559  1.00  0.00     0.088 C  
ENDROOT
BRANCH  15  23
HETATM   23  N   UNL     1      -9.561  15.531  69.345  1.00  0.00    -0.266 N  
HETATM   24  H   UNL     1      -8.777  15.880  68.794  1.00  0.00     0.000 HD 
HETATM   25  O   UNL     1     -10.892  15.939  71.203  1.00  0.00    -0.153 OA 
HETATM   26  C   UNL     1     -10.202  16.365  70.269  1.00  0.00     0.393 C  
BRANCH  26  27
HETATM   27  C   UNL     1     -10.086  17.872  69.971  1.00  0.00     0.933 C  
HETATM   28  C   UNL     1      -8.604  18.295  70.086  1.00  0.00     2.427 C  
HETATM   29  N   UNL     1      -7.861  18.392  68.805  1.00  0.00    -0.294 NA 
HETATM   30  C   UNL     1      -8.376  19.519  67.981  1.00  0.00    -0.320 C  
HETATM   31  C   UNL     1      -7.843  17.147  68.029  1.00  0.00    -0.195 C  
HETATM   32  C   UNL     1      -7.889  19.493  66.460  1.00  0.00    -0.305 C  
HETATM   33  C   UNL     1      -9.021  19.518  65.487  1.00  0.00     0.617 A  
HETATM   34  C   UNL     1      -9.181  19.105  64.178  1.00  0.00     8.809 A  
HETATM   35  N   UNL     1     -10.438  19.483  63.771  1.00  0.00     6.423 NA 
HETATM   36  C   UNL     1     -11.096  20.141  64.787  1.00  0.00     1.385 A  
HETATM   37  H   UNL     1     -10.829  19.301  62.847  1.00  0.00     0.000 HD 
HETATM   38  C   UNL     1     -12.362  20.721  64.913  1.00  0.00     5.936 A  
HETATM   39  C   UNL     1     -12.700  21.245  66.176  1.00  0.00     8.677 A  
HETATM   40  C   UNL     1     -11.872  21.079  67.288  1.00  0.00     5.425 A  
HETATM   41  C   UNL     1     -10.665  20.398  67.148  1.00  0.00     0.128 A  
HETATM   42  C   UNL     1     -10.252  20.058  65.874  1.00  0.00    -0.527 A  
HETATM   43  C   UNL     1      -9.923  19.755  68.275  1.00  0.00    -0.557 C  
HETATM   44  C   UNL     1     -10.626  18.393  68.619  1.00  0.00     0.006 C  
ENDBRANCH  26  27
ENDBRANCH  15  23
TORSDOF 2
ENDMDL
MODEL      135
REMARK 921   NORMALIZED FREE ENERGY PREDICTED BY IDOCK:   41.63 KCAL/MOL
REMARK 922        TOTAL FREE ENERGY PREDICTED BY IDOCK:   46.10 KCAL/MOL
REMARK 923 INTER-LIGAND FREE ENERGY PREDICTED BY IDOCK:   44.83 KCAL/MOL
REMARK 924 INTRA-LIGAND FREE ENERGY PREDICTED BY IDOCK:    1.27 KCAL/MOL
REMARK 927      BINDING AFFINITY PREDICTED BY RF-SCORE:    0.00 PKD
ROOT
HETATM    1  C   UNL     1      -7.205   7.152  67.070  1.00  0.00    -0.091 C  
HETATM    2  C   UNL     1      -5.936   6.363  67.376  1.00  0.00    -0.020 C  
HETATM    3  C   UNL     1      -6.236   4.950  66.784  1.00  0.00    -0.032 C  
HETATM    4  C   UNL     1      -7.714   4.929  66.404  1.00  0.00    -0.092 C  
HETATM    5  N   UNL     1      -8.249   6.139  66.975  1.00  0.00    -0.106 N  
HETATM    6  C   UNL     1      -9.563   6.517  66.740  1.00  0.00    -0.161 C  
HETATM    7  O   UNL     1     -10.446   5.732  66.414  1.00  0.00    -0.210 OA 
HETATM    8  C   UNL     1      -9.771   7.945  67.185  1.00  0.00    -0.191 C  
HETATM    9  C   UNL     1     -11.213   8.384  67.406  1.00  0.00     0.683 C  
HETATM   10  N   UNL     1      -8.609   8.857  66.514  1.00  0.00    -0.121 N  
HETATM   11  C   UNL     1     -12.022   8.566  66.141  1.00  0.00     7.976 C  
HETATM   12  C   UNL     1     -11.969   7.638  68.522  1.00  0.00     2.278 C  
HETATM   13  C   UNL     1      -8.420  10.244  66.463  1.00  0.00    -0.125 C  
HETATM   14  O   UNL     1      -7.903  10.842  65.529  1.00  0.00    -0.133 OA 
HETATM   15  C   UNL     1      -8.808  10.790  67.823  1.00  0.00    -0.130 C  
HETATM   16  H   UNL     1      -6.547  10.270  67.468  1.00  0.00     0.000 HD 
HETATM   17  C   UNL     1     -10.283  11.275  67.179  1.00  0.00    -0.235 C  
HETATM   18  O   UNL     1      -8.278   9.443  68.472  1.00  0.00    -0.111 OA 
HETATM   19  O   UNL     1      -6.334   9.372  67.246  1.00  0.00    -0.060 OA 
HETATM   20  C   UNL     1      -7.568   8.685  67.450  1.00  0.00    -0.093 C  
HETATM   21  C   UNL     1     -10.278  12.434  66.135  1.00  0.00    -0.262 C  
HETATM   22  C   UNL     1     -11.470  11.586  68.076  1.00  0.00    -0.381 C  
ENDROOT
BRANCH  15  23
HETATM   23  N   UNL     1      -8.329  11.814  68.726  1.00  0.00    -0.337 N  
HETATM   24  H   UNL     1      -7.501  12.361  68.491  1.00  0.00     0.000 HD 
HETATM   25  O   UNL     1      -9.777  11.221  70.441  1.00  0.00     1.775 OA 
HETATM   26  C   UNL     1      -9.015  12.046  69.924  1.00  0.00     2.655 C  
BRANCH  26  27
HETATM   27  C   UNL     1      -8.844  13.463  70.503  1.00  0.00     5.386 C  
HETATM   28  C   UNL     1      -8.338  14.405  69.388  1.00  0.00     0.248 C  
HETATM   29  N   UNL     1      -9.376  15.235  68.725  1.00  0.00    -0.199 NA 
HETATM   30  C   UNL     1      -9.927  16.244  69.670  1.00  0.00    -0.137 C  
HETATM   31  C   UNL     1     -10.457  14.458  68.108  1.00  0.00    -0.237 C  
HETATM   32  C   UNL     1     -11.273  16.943  69.170  1.00  0.00     0.081 C  
HETATM   33  C   UNL     1     -12.391  16.816  70.149  1.00  0.00     2.369 A  
HETATM   34  C   UNL     1     -13.770  16.844  70.053  1.00  0.00     8.210 A  
HETATM   35  N   UNL     1     -14.280  16.769  71.327  1.00  0.00     4.187 NA 
HETATM   36  C   UNL     1     -13.260  16.701  72.251  1.00  0.00     1.806 A  
HETATM   37  H   UNL     1     -15.273  16.765  71.556  1.00  0.00     0.000 HD 
HETATM   38  C   UNL     1     -13.213  16.612  73.646  1.00  0.00     0.295 A  
HETATM   39  C   UNL     1     -11.941  16.483  74.233  1.00  0.00    -0.231 A  
HETATM   40  C   UNL     1     -10.787  16.316  73.463  1.00  0.00     3.466 A  
HETATM   41  C   UNL     1     -10.887  16.299  72.074  1.00  0.00     1.289 A  
HETATM   42  C   UNL     1     -12.104  16.620  71.504  1.00  0.00     0.481 A  
HETATM   43  C   UNL     1      -9.872  15.690  71.162  1.00  0.00     1.728 C  
HETATM   44  C   UNL     1     -10.067  14.132  71.172  1.00  0.00     3.609 C  
ENDBRANCH  26  27
ENDBRANCH  15  23
TORSDOF 2
ENDMDL
MODEL      136
REMARK 921   NORMALIZED FREE ENERGY PREDICTED BY IDOCK:   45.65 KCAL/MOL
REMARK 922        TOTAL FREE ENERGY PREDICTED BY IDOCK:   50.59 KCAL/MOL
REMARK 923 INTER-LIGAND FREE ENERGY PREDICTED BY IDOCK:   50.05 KCAL/MOL
REMARK 924 INTRA-LIGAND FREE ENERGY PREDICTED BY IDOCK:    0.54 KCAL/MOL
REMARK 927      BINDING AFFINITY PREDICTED BY RF-SCORE:    0.00 PKD
ROOT
HETATM    1  C   UNL     1     -12.583   7.491  72.970  1.00  0.00     0.963 C  
HETATM    2  C   UNL     1     -13.558   7.671  74.129  1.00  0.00     7.282 C  
HETATM    3  C   UNL     1     -14.342   6.322  74.157  1.00  0.00    10.435 C  
HETATM    4  C   UNL     1     -13.961   5.556  72.893  1.00  0.00     2.235 C  
HETATM    5  N   UNL     1     -13.226   6.512  72.103  1.00  0.00     0.005 N  
HETATM    6  C   UNL     1     -12.622   6.136  70.912  1.00  0.00     0.928 C  
HETATM    7  O   UNL     1     -12.969   5.162  70.253  1.00  0.00     7.266 OA 
HETATM    8  C   UNL     1     -11.680   7.224  70.453  1.00  0.00    -0.182 C  
HETATM    9  C   UNL     1     -11.265   7.188  68.987  1.00  0.00     0.021 C  
HETATM   10  N   UNL     1     -10.702   7.601  71.690  1.00  0.00    -0.210 N  
HETATM   11  C   UNL     1     -10.304   6.078  68.626  1.00  0.00    -0.264 C  
HETATM   12  C   UNL     1     -12.409   7.371  67.970  1.00  0.00     4.718 C  
HETATM   13  C   UNL     1      -9.565   8.414  71.771  1.00  0.00    -0.234 C  
HETATM   14  O   UNL     1      -8.614   8.209  72.515  1.00  0.00    -0.158 OA 
HETATM   15  C   UNL     1      -9.836   9.635  70.914  1.00  0.00    -0.098 C  
HETATM   16  H   UNL     1     -10.342   9.780  73.202  1.00  0.00     0.000 HD 
HETATM   17  C   UNL     1      -8.893   8.959  69.698  1.00  0.00    -0.142 C  
HETATM   18  O   UNL     1     -11.367   9.525  71.311  1.00  0.00    -0.319 OA 
HETATM   19  O   UNL     1     -10.978   9.166  73.549  1.00  0.00     2.735 OA 
HETATM   20  C   UNL     1     -11.499   8.540  72.378  1.00  0.00    -0.349 C  
HETATM   21  C   UNL     1      -7.359   8.831  69.949  1.00  0.00    -0.052 C  
HETATM   22  C   UNL     1      -8.996   9.444  68.261  1.00  0.00    -0.128 C  
ENDROOT
BRANCH  15  23
HETATM   23  N   UNL     1      -9.567  11.054  70.985  1.00  0.00     3.587 N  
HETATM   24  H   UNL     1      -8.782  11.404  71.533  1.00  0.00     0.000 HD 
HETATM   25  O   UNL     1     -11.540  11.653  69.917  1.00  0.00    -0.296 OA 
HETATM   26  C   UNL     1     -10.398  11.944  70.291  1.00  0.00     2.285 C  
BRANCH  26  27
HETATM   27  C   UNL     1      -9.740  13.285  69.917  1.00  0.00     2.192 C  
HETATM   28  C   UNL     1      -8.286  13.025  69.465  1.00  0.00     1.381 C  
HETATM   29  N   UNL     1      -8.068  12.968  67.998  1.00  0.00    -0.145 NA 
HETATM   30  C   UNL     1      -8.283  14.306  67.381  1.00  0.00    -0.202 C  
HETATM   31  C   UNL     1      -8.870  11.947  67.314  1.00  0.00    -0.179 C  
HETATM   32  C   UNL     1      -8.415  14.278  65.789  1.00  0.00     1.801 C  
HETATM   33  C   UNL     1      -9.677  14.907  65.301  1.00  0.00    -0.126 A  
HETATM   34  C   UNL     1     -10.444  14.777  64.158  1.00  0.00     1.113 A  
HETATM   35  N   UNL     1     -11.459  15.701  64.229  1.00  0.00    -0.753 NA 
HETATM   36  C   UNL     1     -11.364  16.434  65.391  1.00  0.00     0.241 A  
HETATM   37  H   UNL     1     -12.182  15.825  63.520  1.00  0.00     0.000 HD 
HETATM   38  C   UNL     1     -12.114  17.472  65.953  1.00  0.00     4.295 A  
HETATM   39  C   UNL     1     -11.728  17.917  67.231  1.00  0.00     1.785 A  
HETATM   40  C   UNL     1     -10.731  17.271  67.967  1.00  0.00    -0.367 A  
HETATM   41  C   UNL     1     -10.080  16.169  67.418  1.00  0.00    -0.257 A  
HETATM   42  C   UNL     1     -10.326  15.860  66.094  1.00  0.00    -0.341 A  
HETATM   43  C   UNL     1      -9.360  15.131  68.215  1.00  0.00    -0.193 C  
HETATM   44  C   UNL     1     -10.424  14.160  68.841  1.00  0.00    -0.229 C  
ENDBRANCH  26  27
ENDBRANCH  15  23
TORSDOF 2
ENDMDL
MODEL      137
REMARK 921   NORMALIZED FREE ENERGY PREDICTED BY IDOCK:   47.42 KCAL/MOL
REMARK 922        TOTAL FREE ENERGY PREDICTED BY IDOCK:   52.56 KCAL/MOL
REMARK 923 INTER-LIGAND FREE ENERGY PREDICTED BY IDOCK:   52.42 KCAL/MOL
REMARK 924 INTRA-LIGAND FREE ENERGY PREDICTED BY IDOCK:    0.14 KCAL/MOL
REMARK 927      BINDING AFFINITY PREDICTED BY RF-SCORE:    0.00 PKD
ROOT
HETATM    1  C   UNL     1     -10.434   8.844  70.301  1.00  0.00    -0.210 C  
HETATM    2  C   UNL     1      -9.751   7.563  69.834  1.00  0.00    -0.171 C  
HETATM    3  C   UNL     1     -10.164   6.517  70.916  1.00  0.00    -0.220 C  
HETATM    4  C   UNL     1     -10.836   7.286  72.050  1.00  0.00    -0.233 C  
HETATM    5  N   UNL     1     -10.586   8.671  71.740  1.00  0.00    -0.297 N  
HETATM    6  C   UNL     1     -11.146   9.684  72.506  1.00  0.00     1.863 C  
HETATM    7  O   UNL     1     -11.523   9.530  73.662  1.00  0.00     4.236 OA 
HETATM    8  C   UNL     1     -10.983  11.008  71.798  1.00  0.00     4.020 C  
HETATM    9  C   UNL     1     -11.140  12.259  72.655  1.00  0.00    10.403 C  
HETATM   10  N   UNL     1     -11.530  10.841  70.281  1.00  0.00    -0.313 N  
HETATM   11  C   UNL     1     -12.558  12.561  73.083  1.00  0.00     3.767 C  
HETATM   12  C   UNL     1     -10.103  12.424  73.783  1.00  0.00    23.211 C  
HETATM   13  C   UNL     1     -11.757  11.771  69.259  1.00  0.00    -0.335 C  
HETATM   14  O   UNL     1     -12.644  11.683  68.421  1.00  0.00    -0.043 OA 
HETATM   15  C   UNL     1     -10.610  12.762  69.306  1.00  0.00     0.162 C  
HETATM   16  H   UNL     1     -10.400  10.927  67.857  1.00  0.00     0.000 HD 
HETATM   17  C   UNL     1     -11.616  13.849  70.102  1.00  0.00    -0.249 C  
HETATM   18  O   UNL     1      -9.662  11.584  69.784  1.00  0.00     0.705 OA 
HETATM   19  O   UNL     1     -10.429  10.060  68.242  1.00  0.00    -0.190 OA 
HETATM   20  C   UNL     1     -10.383  10.324  69.643  1.00  0.00    -0.248 C  
HETATM   21  C   UNL     1     -12.803  14.466  69.300  1.00  0.00     0.591 C  
HETATM   22  C   UNL     1     -11.046  15.021  70.885  1.00  0.00    -0.225 C  
ENDROOT
BRANCH  15  23
HETATM   23  N   UNL     1      -9.799  13.484  68.351  1.00  0.00    -0.240 N  
HETATM   24  H   UNL     1     -10.169  13.712  67.428  1.00  0.00     0.000 HD 
HETATM   25  O   UNL     1      -7.863  13.337  69.625  1.00  0.00     0.687 OA 
HETATM   26  C   UNL     1      -8.499  13.866  68.706  1.00  0.00    -0.008 C  
BRANCH  26  27
HETATM   27  C   UNL     1      -7.952  15.087  67.941  1.00  0.00    -0.146 C  
HETATM   28  C   UNL     1      -8.001  14.794  66.425  1.00  0.00     0.839 C  
HETATM   29  N   UNL     1      -9.163  15.363  65.696  1.00  0.00    -0.155 NA 
HETATM   30  C   UNL     1      -9.085  16.849  65.659  1.00  0.00     0.330 C  
HETATM   31  C   UNL     1     -10.464  14.924  66.212  1.00  0.00    -0.302 C  
HETATM   32  C   UNL     1     -10.442  17.564  65.212  1.00  0.00     0.191 C  
HETATM   33  C   UNL     1     -10.926  18.564  66.208  1.00  0.00     0.152 A  
HETATM   34  C   UNL     1     -12.160  19.105  66.515  1.00  0.00     3.404 A  
HETATM   35  N   UNL     1     -11.968  20.068  67.477  1.00  0.00     1.636 NA 
HETATM   36  C   UNL     1     -10.631  20.170  67.796  1.00  0.00    -0.178 A  
HETATM   37  H   UNL     1     -12.710  20.627  67.896  1.00  0.00     0.000 HD 
HETATM   38  C   UNL     1      -9.899  20.963  68.685  1.00  0.00     0.595 A  
HETATM   39  C   UNL     1      -8.518  20.707  68.777  1.00  0.00     0.915 A  
HETATM   40  C   UNL     1      -7.922  19.630  68.118  1.00  0.00    -0.353 A  
HETATM   41  C   UNL     1      -8.705  18.793  67.327  1.00  0.00    -0.287 A  
HETATM   42  C   UNL     1     -10.015  19.161  67.086  1.00  0.00    -0.435 A  
HETATM   43  C   UNL     1      -8.334  17.394  66.953  1.00  0.00    -0.260 C  
HETATM   44  C   UNL     1      -8.619  16.460  68.183  1.00  0.00    -0.193 C  
ENDBRANCH  26  27
ENDBRANCH  15  23
TORSDOF 2
ENDMDL
MODEL      138
REMARK 921   NORMALIZED FREE ENERGY PREDICTED BY IDOCK:   47.81 KCAL/MOL
REMARK 922        TOTAL FREE ENERGY PREDICTED BY IDOCK:   52.99 KCAL/MOL
REMARK 923 INTER-LIGAND FREE ENERGY PREDICTED BY IDOCK:   52.70 KCAL/MOL
REMARK 924 INTRA-LIGAND FREE ENERGY PREDICTED BY IDOCK:    0.29 KCAL/MOL
REMARK 927      BINDING AFFINITY PREDICTED BY RF-SCORE:    0.00 PKD
ROOT
HETATM    1  C   UNL     1      -7.238   4.485  65.770  1.00  0.00    -0.075 C  
HETATM    2  C   UNL     1      -5.777   4.163  65.475  1.00  0.00    -0.022 C  
HETATM    3  C   UNL     1      -5.797   2.631  65.174  1.00  0.00    -0.018 C  
HETATM    4  C   UNL     1      -7.187   2.120  65.546  1.00  0.00    -0.057 C  
HETATM    5  N   UNL     1      -7.801   3.225  66.237  1.00  0.00    -0.078 N  
HETATM    6  C   UNL     1      -9.129   3.164  66.638  1.00  0.00    -0.162 C  
HETATM    7  O   UNL     1      -9.736   2.114  66.814  1.00  0.00     0.243 OA 
HETATM    8  C   UNL     1      -9.600   4.538  67.052  1.00  0.00    -0.190 C  
HETATM    9  C   UNL     1     -10.858   4.594  67.910  1.00  0.00     1.021 C  
HETATM   10  N   UNL     1      -9.235   5.578  65.862  1.00  0.00    -0.160 N  
HETATM   11  C   UNL     1     -12.141   4.276  67.176  1.00  0.00    10.603 C  
HETATM   12  C   UNL     1     -10.750   3.916  69.289  1.00  0.00     2.433 C  
HETATM   13  C   UNL     1      -9.575   6.920  65.653  1.00  0.00     0.576 C  
HETATM   14  O   UNL     1      -9.754   7.431  64.555  1.00  0.00     2.338 OA 
HETATM   15  C   UNL     1      -9.499   7.606  67.003  1.00  0.00    -0.163 C  
HETATM   16  H   UNL     1      -7.588   7.675  65.641  1.00  0.00     0.000 HD 
HETATM   17  C   UNL     1     -11.173   7.516  67.115  1.00  0.00     0.309 C  
HETATM   18  O   UNL     1      -8.314   6.626  67.391  1.00  0.00    -0.120 OA 
HETATM   19  O   UNL     1      -7.198   6.846  65.391  1.00  0.00    -0.069 OA 
HETATM   20  C   UNL     1      -7.903   5.901  66.195  1.00  0.00    -0.104 C  
HETATM   21  C   UNL     1     -12.019   8.387  66.136  1.00  0.00     7.964 C  
HETATM   22  C   UNL     1     -11.882   7.664  68.452  1.00  0.00     1.938 C  
ENDROOT
BRANCH  15  23
HETATM   23  N   UNL     1      -9.061   8.887  67.512  1.00  0.00    -0.133 N  
HETATM   24  H   UNL     1      -9.049   9.066  68.516  1.00  0.00     0.000 HD 
HETATM   25  O   UNL     1      -8.968   9.881  65.416  1.00  0.00    -0.160 OA 
HETATM   26  C   UNL     1      -8.653   9.879  66.611  1.00  0.00    -0.125 C  
BRANCH  26  27
HETATM   27  C   UNL     1      -7.676  10.919  67.193  1.00  0.00    -0.123 C  
HETATM   28  C   UNL     1      -6.479  11.079  66.229  1.00  0.00    -0.112 C  
HETATM   29  N   UNL     1      -6.543  12.245  65.311  1.00  0.00     3.382 NA 
HETATM   30  C   UNL     1      -6.423  13.520  66.070  1.00  0.00     5.592 C  
HETATM   31  C   UNL     1      -7.732  12.263  64.451  1.00  0.00     4.586 C  
HETATM   32  C   UNL     1      -6.824  14.819  65.232  1.00  0.00    11.693 C  
HETATM   33  C   UNL     1      -7.884  15.633  65.896  1.00  0.00     1.650 A  
HETATM   34  C   UNL     1      -8.834  16.533  65.452  1.00  0.00     1.107 A  
HETATM   35  N   UNL     1      -9.476  17.043  66.556  1.00  0.00    -0.264 NA 
HETATM   36  C   UNL     1      -8.956  16.498  67.710  1.00  0.00    -0.202 A  
HETATM   37  H   UNL     1     -10.230  17.728  66.524  1.00  0.00     0.000 HD 
HETATM   38  C   UNL     1      -9.231  16.657  69.072  1.00  0.00    -0.223 A  
HETATM   39  C   UNL     1      -8.512  15.841  69.965  1.00  0.00     0.571 A  
HETATM   40  C   UNL     1      -7.663  14.826  69.517  1.00  0.00    -0.068 A  
HETATM   41  C   UNL     1      -7.499  14.625  68.149  1.00  0.00    -0.125 A  
HETATM   42  C   UNL     1      -8.052  15.549  67.283  1.00  0.00    -0.226 A  
HETATM   43  C   UNL     1      -7.023  13.349  67.535  1.00  0.00    -0.153 C  
HETATM   44  C   UNL     1      -8.217  12.330  67.518  1.00  0.00    -0.170 C  
ENDBRANCH  26  27
ENDBRANCH  15  23
TORSDOF 2
ENDMDL
MODEL      139
REMARK 921   NORMALIZED FREE ENERGY PREDICTED BY IDOCK:   49.28 KCAL/MOL
REMARK 922        TOTAL FREE ENERGY PREDICTED BY IDOCK:   54.64 KCAL/MOL
REMARK 923 INTER-LIGAND FREE ENERGY PREDICTED BY IDOCK:   54.06 KCAL/MOL
REMARK 924 INTRA-LIGAND FREE ENERGY PREDICTED BY IDOCK:    0.59 KCAL/MOL
REMARK 927      BINDING AFFINITY PREDICTED BY RF-SCORE:    0.00 PKD
ROOT
HETATM    1  C   UNL     1     -12.091  18.359  67.348  1.00  0.00     3.232 C  
HETATM    2  C   UNL     1     -13.284  18.800  66.507  1.00  0.00    10.661 C  
HETATM    3  C   UNL     1     -13.651  20.196  67.101  1.00  0.00     6.008 C  
HETATM    4  C   UNL     1     -12.832  20.368  68.378  1.00  0.00     6.387 C  
HETATM    5  N   UNL     1     -12.254  19.068  68.610  1.00  0.00     5.052 N  
HETATM    6  C   UNL     1     -11.348  18.868  69.642  1.00  0.00     3.923 C  
HETATM    7  O   UNL     1     -11.274  19.589  70.630  1.00  0.00     3.139 OA 
HETATM    8  C   UNL     1     -10.675  17.525  69.475  1.00  0.00     0.335 C  
HETATM    9  C   UNL     1      -9.989  16.953  70.709  1.00  0.00     2.431 C  
HETATM   10  N   UNL     1     -10.102  17.432  67.960  1.00  0.00    -0.308 N  
HETATM   11  C   UNL     1      -8.705  17.648  71.102  1.00  0.00     7.934 C  
HETATM   12  C   UNL     1     -10.916  16.646  71.901  1.00  0.00     1.139 C  
HETATM   13  C   UNL     1      -9.275  16.496  67.328  1.00  0.00    -0.216 C  
HETATM   14  O   UNL     1      -8.469  16.762  66.446  1.00  0.00    -0.251 OA 
HETATM   15  C   UNL     1      -9.702  15.128  67.822  1.00  0.00    -0.211 C  
HETATM   16  H   UNL     1     -10.666  15.913  65.831  1.00  0.00     0.000 HD 
HETATM   17  C   UNL     1      -8.390  15.125  68.872  1.00  0.00    -0.190 C  
HETATM   18  O   UNL     1     -11.189  15.670  67.918  1.00  0.00    -0.336 OA 
HETATM   19  O   UNL     1     -11.160  16.722  65.873  1.00  0.00     0.023 OA 
HETATM   20  C   UNL     1     -11.248  16.977  67.274  1.00  0.00     0.260 C  
HETATM   21  C   UNL     1      -6.961  15.031  68.254  1.00  0.00    -0.118 C  
HETATM   22  C   UNL     1      -8.340  14.188  70.068  1.00  0.00     1.388 C  
ENDROOT
BRANCH  15  23
HETATM   23  N   UNL     1      -9.859  13.804  67.260  1.00  0.00    -0.236 N  
HETATM   24  H   UNL     1      -9.040  13.232  67.054  1.00  0.00     0.000 HD 
HETATM   25  O   UNL     1     -12.137  14.047  66.884  1.00  0.00    -0.424 OA 
HETATM   26  C   UNL     1     -11.146  13.317  67.003  1.00  0.00    -0.282 C  
BRANCH  26  27
HETATM   27  C   UNL     1     -11.268  11.781  66.997  1.00  0.00    -0.382 C  
HETATM   28  C   UNL     1     -12.211  11.356  65.850  1.00  0.00     1.680 C  
HETATM   29  N   UNL     1     -11.545  10.908  64.601  1.00  0.00     0.623 NA 
HETATM   30  C   UNL     1     -10.825   9.623  64.819  1.00  0.00     2.957 C  
HETATM   31  C   UNL     1     -10.650  11.909  64.009  1.00  0.00    -0.374 C  
HETATM   32  C   UNL     1      -9.803   9.240  63.653  1.00  0.00     1.710 C  
HETATM   33  C   UNL     1      -8.417   9.001  64.153  1.00  0.00    -0.183 A  
HETATM   34  C   UNL     1      -7.158   9.068  63.585  1.00  0.00    -0.092 A  
HETATM   35  N   UNL     1      -6.252   8.637  64.524  1.00  0.00    -0.066 NA 
HETATM   36  C   UNL     1      -6.897   8.284  65.690  1.00  0.00    -0.066 A  
HETATM   37  H   UNL     1      -5.244   8.587  64.379  1.00  0.00     0.000 HD 
HETATM   38  C   UNL     1      -6.472   7.797  66.930  1.00  0.00    -0.055 A  
HETATM   39  C   UNL     1      -7.458   7.628  67.919  1.00  0.00    -0.108 A  
HETATM   40  C   UNL     1      -8.776   8.049  67.727  1.00  0.00    -0.127 A  
HETATM   41  C   UNL     1      -9.138   8.632  66.515  1.00  0.00    -0.206 A  
HETATM   42  C   UNL     1      -8.219   8.618  65.484  1.00  0.00    -0.135 A  
HETATM   43  C   UNL     1     -10.326   9.520  66.328  1.00  0.00    -0.226 C  
HETATM   44  C   UNL     1      -9.972  10.946  66.882  1.00  0.00    -0.232 C  
ENDBRANCH  26  27
ENDBRANCH  15  23
TORSDOF 2
ENDMDL
MODEL      140
REMARK 921   NORMALIZED FREE ENERGY PREDICTED BY IDOCK:   49.35 KCAL/MOL
REMARK 922        TOTAL FREE ENERGY PREDICTED BY IDOCK:   54.71 KCAL/MOL
REMARK 923 INTER-LIGAND FREE ENERGY PREDICTED BY IDOCK:   52.82 KCAL/MOL
REMARK 924 INTRA-LIGAND FREE ENERGY PREDICTED BY IDOCK:    1.89 KCAL/MOL
REMARK 927      BINDING AFFINITY PREDICTED BY RF-SCORE:    0.00 PKD
ROOT
HETATM    1  C   UNL     1     -12.039  13.088  70.101  1.00  0.00    -0.307 C  
HETATM    2  C   UNL     1     -13.561  13.020  70.178  1.00  0.00     2.065 C  
HETATM    3  C   UNL     1     -13.866  13.395  71.662  1.00  0.00    -0.107 C  
HETATM    4  C   UNL     1     -12.531  13.413  72.403  1.00  0.00     0.309 C  
HETATM    5  N   UNL     1     -11.594  12.844  71.467  1.00  0.00     1.787 N  
HETATM    6  C   UNL     1     -10.238  12.797  71.758  1.00  0.00    11.612 C  
HETATM    7  O   UNL     1      -9.787  12.834  72.897  1.00  0.00    15.961 OA 
HETATM    8  C   UNL     1      -9.462  12.445  70.511  1.00  0.00     6.244 C  
HETATM    9  C   UNL     1      -8.042  11.933  70.718  1.00  0.00     6.231 C  
HETATM   10  N   UNL     1      -9.928  13.449  69.325  1.00  0.00     0.329 N  
HETATM   11  C   UNL     1      -7.045  12.983  71.151  1.00  0.00     3.950 C  
HETATM   12  C   UNL     1      -7.923  10.607  71.495  1.00  0.00     4.989 C  
HETATM   13  C   UNL     1      -9.433  13.668  68.034  1.00  0.00    -0.209 C  
HETATM   14  O   UNL     1      -9.444  14.747  67.457  1.00  0.00    -0.194 OA 
HETATM   15  C   UNL     1      -9.067  12.309  67.469  1.00  0.00    -0.182 C  
HETATM   16  H   UNL     1     -11.212  13.138  66.998  1.00  0.00     0.000 HD 
HETATM   17  C   UNL     1      -7.453  12.630  67.813  1.00  0.00    -0.131 C  
HETATM   18  O   UNL     1     -10.267  11.685  68.296  1.00  0.00    -0.186 OA 
HETATM   19  O   UNL     1     -11.781  13.322  67.735  1.00  0.00    -0.319 OA 
HETATM   20  C   UNL     1     -11.068  12.773  68.842  1.00  0.00    -0.262 C  
HETATM   21  C   UNL     1      -6.738  13.745  66.989  1.00  0.00     0.790 C  
HETATM   22  C   UNL     1      -6.427  11.511  67.892  1.00  0.00    -0.056 C  
ENDROOT
BRANCH  15  23
HETATM   23  N   UNL     1      -9.151  11.641  66.189  1.00  0.00    -0.231 N  
HETATM   24  H   UNL     1      -8.352  11.636  65.556  1.00  0.00     0.000 HD 
HETATM   25  O   UNL     1     -11.435  11.255  66.350  1.00  0.00    -0.306 OA 
HETATM   26  C   UNL     1     -10.343  11.000  65.829  1.00  0.00    -0.257 C  
BRANCH  26  27
HETATM   27  C   UNL     1     -10.181   9.856  64.810  1.00  0.00     0.224 C  
HETATM   28  C   UNL     1      -9.372  10.372  63.599  1.00  0.00    -0.291 C  
HETATM   29  N   UNL     1      -7.925  10.038  63.601  1.00  0.00    -0.150 NA 
HETATM   30  C   UNL     1      -7.722   8.573  63.428  1.00  0.00    -0.139 C  
HETATM   31  C   UNL     1      -7.201  10.526  64.781  1.00  0.00     0.047 C  
HETATM   32  C   UNL     1      -6.242   8.074  63.762  1.00  0.00    -0.066 C  
HETATM   33  C   UNL     1      -6.213   6.992  64.789  1.00  0.00    -0.037 A  
HETATM   34  C   UNL     1      -5.270   6.540  65.693  1.00  0.00    -0.017 A  
HETATM   35  N   UNL     1      -5.788   5.432  66.319  1.00  0.00    -0.018 NA 
HETATM   36  C   UNL     1      -7.047   5.148  65.835  1.00  0.00    -0.068 A  
HETATM   37  H   UNL     1      -5.308   4.894  67.041  1.00  0.00     0.000 HD 
HETATM   38  C   UNL     1      -7.998   4.162  66.113  1.00  0.00    -0.098 A  
HETATM   39  C   UNL     1      -9.231   4.260  65.441  1.00  0.00    -0.152 A  
HETATM   40  C   UNL     1      -9.547   5.357  64.636  1.00  0.00     0.576 A  
HETATM   41  C   UNL     1      -8.613   6.377  64.470  1.00  0.00     0.217 A  
HETATM   42  C   UNL     1      -7.340   6.183  64.972  1.00  0.00    -0.073 A  
HETATM   43  C   UNL     1      -8.950   7.770  64.048  1.00  0.00     1.044 C  
HETATM   44  C   UNL     1      -9.532   8.537  65.288  1.00  0.00     0.301 C  
ENDBRANCH  26  27
ENDBRANCH  15  23
TORSDOF 2
ENDMDL
MODEL      141
REMARK 921   NORMALIZED FREE ENERGY PREDICTED BY IDOCK:   51.20 KCAL/MOL
REMARK 922        TOTAL FREE ENERGY PREDICTED BY IDOCK:   56.78 KCAL/MOL
REMARK 923 INTER-LIGAND FREE ENERGY PREDICTED BY IDOCK:   55.68 KCAL/MOL
REMARK 924 INTRA-LIGAND FREE ENERGY PREDICTED BY IDOCK:    1.10 KCAL/MOL
REMARK 927      BINDING AFFINITY PREDICTED BY RF-SCORE:    0.00 PKD
ROOT
HETATM    1  C   UNL     1     -11.252  16.138  69.345  1.00  0.00    -0.335 C  
HETATM    2  C   UNL     1     -12.575  16.714  68.850  1.00  0.00     2.304 C  
HETATM    3  C   UNL     1     -12.665  18.092  69.577  1.00  0.00    11.474 C  
HETATM    4  C   UNL     1     -11.545  18.125  70.614  1.00  0.00     5.215 C  
HETATM    5  N   UNL     1     -11.038  16.776  70.637  1.00  0.00     0.043 N  
HETATM    6  C   UNL     1      -9.926  16.447  71.399  1.00  0.00     3.419 C  
HETATM    7  O   UNL     1      -9.551  17.098  72.367  1.00  0.00     8.632 OA 
HETATM    8  C   UNL     1      -9.430  15.074  71.010  1.00  0.00     2.166 C  
HETATM    9  C   UNL     1      -8.511  14.378  72.007  1.00  0.00     6.920 C  
HETATM   10  N   UNL     1      -9.259  15.036  69.398  1.00  0.00    -0.158 N  
HETATM   11  C   UNL     1      -7.117  14.955  72.095  1.00  0.00     2.924 C  
HETATM   12  C   UNL     1      -9.139  14.063  73.379  1.00  0.00    11.092 C  
HETATM   13  C   UNL     1      -8.694  14.086  68.538  1.00  0.00    -0.156 C  
HETATM   14  O   UNL     1      -8.112  14.350  67.495  1.00  0.00    -0.162 OA 
HETATM   15  C   UNL     1      -9.100  12.723  69.064  1.00  0.00     0.516 C  
HETATM   16  H   UNL     1     -10.456  13.698  67.414  1.00  0.00     0.000 HD 
HETATM   17  C   UNL     1      -7.574  12.561  69.750  1.00  0.00     1.192 C  
HETATM   18  O   UNL     1     -10.467  13.362  69.553  1.00  0.00     0.177 OA 
HETATM   19  O   UNL     1     -10.855  14.536  67.614  1.00  0.00    -0.264 OA 
HETATM   20  C   UNL     1     -10.572  14.707  69.002  1.00  0.00    -0.247 C  
HETATM   21  C   UNL     1      -6.355  12.406  68.790  1.00  0.00    -0.078 C  
HETATM   22  C   UNL     1      -7.310  11.550  70.854  1.00  0.00     3.662 C  
ENDROOT
BRANCH  15  23
HETATM   23  N   UNL     1      -9.501  11.452  68.502  1.00  0.00    -0.187 N  
HETATM   24  H   UNL     1      -8.808  10.831  68.085  1.00  0.00     0.000 HD 
HETATM   25  O   UNL     1     -11.773  11.893  68.686  1.00  0.00    -0.283 OA 
HETATM   26  C   UNL     1     -10.851  11.082  68.539  1.00  0.00    -0.213 C  
BRANCH  26  27
HETATM   27  C   UNL     1     -11.108   9.564  68.499  1.00  0.00    -0.035 C  
HETATM   28  C   UNL     1     -10.980   9.069  67.041  1.00  0.00     0.209 C  
HETATM   29  N   UNL     1      -9.678   8.453  66.681  1.00  0.00    -0.229 NA 
HETATM   30  C   UNL     1      -9.490   7.162  67.398  1.00  0.00    -0.131 C  
HETATM   31  C   UNL     1      -8.523   9.334  66.888  1.00  0.00    -0.127 C  
HETATM   32  C   UNL     1      -7.995   6.600  67.352  1.00  0.00    -0.114 C  
HETATM   33  C   UNL     1      -7.431   6.341  68.709  1.00  0.00    -0.088 A  
HETATM   34  C   UNL     1      -6.152   6.277  69.229  1.00  0.00    -0.029 A  
HETATM   35  N   UNL     1      -6.255   5.901  70.547  1.00  0.00    -0.030 NA 
HETATM   36  C   UNL     1      -7.575   5.712  70.893  1.00  0.00    -0.091 A  
HETATM   37  H   UNL     1      -5.465   5.780  71.180  1.00  0.00     0.000 HD 
HETATM   38  C   UNL     1      -8.231   5.338  72.070  1.00  0.00    -0.118 A  
HETATM   39  C   UNL     1      -9.638   5.331  72.040  1.00  0.00    -0.189 A  
HETATM   40  C   UNL     1     -10.355   5.800  70.937  1.00  0.00    -0.299 A  
HETATM   41  C   UNL     1      -9.666   6.269  69.822  1.00  0.00    -0.185 A  
HETATM   42  C   UNL     1      -8.296   6.093  69.780  1.00  0.00    -0.124 A  
HETATM   43  C   UNL     1     -10.243   7.195  68.801  1.00  0.00    -0.184 C  
HETATM   44  C   UNL     1     -10.233   8.651  69.389  1.00  0.00    -0.211 C  
ENDBRANCH  26  27
ENDBRANCH  15  23
TORSDOF 2
ENDMDL
MODEL      142
REMARK 921   NORMALIZED FREE ENERGY PREDICTED BY IDOCK:   52.79 KCAL/MOL
REMARK 922        TOTAL FREE ENERGY PREDICTED BY IDOCK:   58.56 KCAL/MOL
REMARK 923 INTER-LIGAND FREE ENERGY PREDICTED BY IDOCK:   54.82 KCAL/MOL
REMARK 924 INTRA-LIGAND FREE ENERGY PREDICTED BY IDOCK:    3.74 KCAL/MOL
REMARK 927      BINDING AFFINITY PREDICTED BY RF-SCORE:    0.00 PKD
ROOT
HETATM    1  C   UNL     1     -11.851  16.910  64.656  1.00  0.00     1.356 C  
HETATM    2  C   UNL     1     -12.859  16.513  63.582  1.00  0.00     4.525 C  
HETATM    3  C   UNL     1     -13.002  17.808  62.722  1.00  0.00    19.720 C  
HETATM    4  C   UNL     1     -12.281  18.925  63.472  1.00  0.00    14.763 C  
HETATM    5  N   UNL     1     -11.986  18.357  64.763  1.00  0.00     4.625 N  
HETATM    6  C   UNL     1     -11.230  19.058  65.692  1.00  0.00     0.662 C  
HETATM    7  O   UNL     1     -11.107  20.277  65.685  1.00  0.00    -0.010 OA 
HETATM    8  C   UNL     1     -10.816  18.134  66.813  1.00  0.00    -0.054 C  
HETATM    9  C   UNL     1     -10.364  18.799  68.108  1.00  0.00    -0.419 C  
HETATM   10  N   UNL     1     -10.140  16.814  66.156  1.00  0.00    -0.334 N  
HETATM   11  C   UNL     1      -9.010  19.469  68.039  1.00  0.00    -0.380 C  
HETATM   12  C   UNL     1     -11.435  19.639  68.830  1.00  0.00     2.490 C  
HETATM   13  C   UNL     1      -9.455  15.732  66.722  1.00  0.00    -0.240 C  
HETATM   14  O   UNL     1      -8.538  15.128  66.181  1.00  0.00    -0.121 OA 
HETATM   15  C   UNL     1     -10.179  15.378  68.006  1.00  0.00    -0.235 C  
HETATM   16  H   UNL     1     -10.795  14.221  66.059  1.00  0.00     0.000 HD 
HETATM   17  C   UNL     1      -8.990  16.191  68.872  1.00  0.00    -0.247 C  
HETATM   18  O   UNL     1     -11.537  15.820  67.317  1.00  0.00    -0.067 OA 
HETATM   19  O   UNL     1     -11.126  14.734  65.331  1.00  0.00    -0.325 OA 
HETATM   20  C   UNL     1     -11.286  16.034  65.897  1.00  0.00     0.260 C  
HETATM   21  C   UNL     1      -7.556  15.577  68.897  1.00  0.00    -0.166 C  
HETATM   22  C   UNL     1      -9.227  16.642  70.304  1.00  0.00     1.944 C  
ENDROOT
BRANCH  15  23
HETATM   23  N   UNL     1     -10.537  14.170  68.718  1.00  0.00    -0.250 N  
HETATM   24  H   UNL     1     -10.921  13.371  68.215  1.00  0.00     0.000 HD 
HETATM   25  O   UNL     1     -10.237  15.115  70.818  1.00  0.00     0.050 OA 
HETATM   26  C   UNL     1     -10.348  14.111  70.104  1.00  0.00     0.885 C  
BRANCH  26  27
HETATM   27  C   UNL     1     -10.168  12.691  70.673  1.00  0.00     4.818 C  
HETATM   28  C   UNL     1     -11.557  12.032  70.830  1.00  0.00     0.886 C  
HETATM   29  N   UNL     1     -11.960  11.110  69.738  1.00  0.00    -0.329 NA 
HETATM   30  C   UNL     1     -11.107   9.891  69.735  1.00  0.00    -0.254 C  
HETATM   31  C   UNL     1     -11.981  11.732  68.409  1.00  0.00    -0.183 C  
HETATM   32  C   UNL     1     -11.226   9.012  68.406  1.00  0.00     0.328 C  
HETATM   33  C   UNL     1      -9.909   8.777  67.746  1.00  0.00    -0.217 A  
HETATM   34  C   UNL     1      -9.512   8.487  66.455  1.00  0.00    -0.232 A  
HETATM   35  N   UNL     1      -8.152   8.283  66.471  1.00  0.00    -0.103 NA 
HETATM   36  C   UNL     1      -7.658   8.426  67.749  1.00  0.00    -0.102 A  
HETATM   37  H   UNL     1      -7.589   8.057  65.652  1.00  0.00     0.000 HD 
HETATM   38  C   UNL     1      -6.385   8.329  68.318  1.00  0.00    -0.051 A  
HETATM   39  C   UNL     1      -6.276   8.629  69.689  1.00  0.00    -0.036 A  
HETATM   40  C   UNL     1      -7.355   9.128  70.423  1.00  0.00    -0.100 A  
HETATM   41  C   UNL     1      -8.583   9.315  69.794  1.00  0.00    -0.164 A  
HETATM   42  C   UNL     1      -8.735   8.839  68.505  1.00  0.00    -0.135 A  
HETATM   43  C   UNL     1      -9.653  10.234  70.287  1.00  0.00     0.235 C  
HETATM   44  C   UNL     1      -9.259  11.705  69.904  1.00  0.00     2.026 C  
ENDBRANCH  26  27
ENDBRANCH  15  23
TORSDOF 2
ENDMDL
MODEL      143
REMARK 921   NORMALIZED FREE ENERGY PREDICTED BY IDOCK:   53.40 KCAL/MOL
REMARK 922        TOTAL FREE ENERGY PREDICTED BY IDOCK:   59.25 KCAL/MOL
REMARK 923 INTER-LIGAND FREE ENERGY PREDICTED BY IDOCK:   59.02 KCAL/MOL
REMARK 924 INTRA-LIGAND FREE ENERGY PREDICTED BY IDOCK:    0.23 KCAL/MOL
REMARK 927      BINDING AFFINITY PREDICTED BY RF-SCORE:    0.00 PKD
ROOT
HETATM    1  C   UNL     1      -8.362   7.112  68.637  1.00  0.00    -0.125 C  
HETATM    2  C   UNL     1      -7.890   6.464  67.340  1.00  0.00    -0.105 C  
HETATM    3  C   UNL     1      -7.814   4.947  67.699  1.00  0.00    -0.094 C  
HETATM    4  C   UNL     1      -8.000   4.834  69.209  1.00  0.00    -0.070 C  
HETATM    5  N   UNL     1      -7.927   6.194  69.682  1.00  0.00    -0.105 N  
HETATM    6  C   UNL     1      -8.162   6.497  71.016  1.00  0.00    -0.121 C  
HETATM    7  O   UNL     1      -8.045   5.685  71.926  1.00  0.00    -0.112 OA 
HETATM    8  C   UNL     1      -8.325   7.990  71.178  1.00  0.00    -0.114 C  
HETATM    9  C   UNL     1      -8.159   8.541  72.588  1.00  0.00    -0.113 C  
HETATM   10  N   UNL     1      -9.425   8.499  70.100  1.00  0.00    -0.163 N  
HETATM   11  C   UNL     1      -9.298   8.224  73.531  1.00  0.00    -0.088 C  
HETATM   12  C   UNL     1      -6.765   8.350  73.216  1.00  0.00    -0.114 C  
HETATM   13  C   UNL     1     -10.060   9.733  69.921  1.00  0.00    -0.251 C  
HETATM   14  O   UNL     1     -11.205   9.875  69.512  1.00  0.00    -0.229 OA 
HETATM   15  C   UNL     1      -9.013  10.804  70.160  1.00  0.00     1.186 C  
HETATM   16  H   UNL     1      -9.350  10.090  67.950  1.00  0.00     0.000 HD 
HETATM   17  C   UNL     1      -9.647  11.044  71.698  1.00  0.00     8.617 C  
HETATM   18  O   UNL     1      -7.926   9.820  69.557  1.00  0.00    -0.107 OA 
HETATM   19  O   UNL     1      -9.204   9.171  67.759  1.00  0.00    -0.133 OA 
HETATM   20  C   UNL     1      -8.612   8.680  68.961  1.00  0.00    -0.129 C  
HETATM   21  C   UNL     1     -11.070  11.674  71.811  1.00  0.00     5.100 C  
HETATM   22  C   UNL     1      -8.842  11.745  72.781  1.00  0.00    23.242 C  
ENDROOT
BRANCH  15  23
HETATM   23  N   UNL     1      -8.665  12.086  69.588  1.00  0.00     0.824 N  
HETATM   24  H   UNL     1      -7.957  12.672  70.030  1.00  0.00     0.000 HD 
HETATM   25  O   UNL     1     -10.395  12.057  68.039  1.00  0.00    -0.185 OA 
HETATM   26  C   UNL     1      -9.311  12.514  68.421  1.00  0.00    -0.149 C  
BRANCH  26  27
HETATM   27  C   UNL     1      -8.513  13.521  67.573  1.00  0.00    -0.192 C  
HETATM   28  C   UNL     1      -8.039  12.825  66.277  1.00  0.00     0.836 C  
HETATM   29  N   UNL     1      -8.868  13.075  65.071  1.00  0.00     1.545 NA 
HETATM   30  C   UNL     1      -8.758  14.496  64.642  1.00  0.00     5.411 C  
HETATM   31  C   UNL     1     -10.275  12.686  65.222  1.00  0.00    -0.284 C  
HETATM   32  C   UNL     1      -9.864  14.947  63.581  1.00  0.00     6.111 C  
HETATM   33  C   UNL     1     -10.646  16.137  64.029  1.00  0.00     2.099 A  
HETATM   34  C   UNL     1     -11.901  16.636  63.736  1.00  0.00     2.208 A  
HETATM   35  N   UNL     1     -12.037  17.836  64.392  1.00  0.00     3.424 NA 
HETATM   36  C   UNL     1     -10.892  18.132  65.099  1.00  0.00     0.729 A  
HETATM   37  H   UNL     1     -12.869  18.425  64.360  1.00  0.00     0.000 HD 
HETATM   38  C   UNL     1     -10.500  19.196  65.918  1.00  0.00    -0.500 A  
HETATM   39  C   UNL     1      -9.240  19.090  66.537  1.00  0.00    -0.357 A  
HETATM   40  C   UNL     1      -8.471  17.928  66.452  1.00  0.00    -0.263 A  
HETATM   41  C   UNL     1      -8.946  16.845  65.716  1.00  0.00     0.096 A  
HETATM   42  C   UNL     1     -10.085  17.024  64.954  1.00  0.00     1.232 A  
HETATM   43  C   UNL     1      -8.492  15.434  65.902  1.00  0.00     0.692 C  
HETATM   44  C   UNL     1      -9.200  14.848  67.175  1.00  0.00    -0.231 C  
ENDBRANCH  26  27
ENDBRANCH  15  23
TORSDOF 2
ENDMDL
MODEL      144
REMARK 921   NORMALIZED FREE ENERGY PREDICTED BY IDOCK:   69.69 KCAL/MOL
REMARK 922        TOTAL FREE ENERGY PREDICTED BY IDOCK:   77.43 KCAL/MOL
REMARK 923 INTER-LIGAND FREE ENERGY PREDICTED BY IDOCK:   77.70 KCAL/MOL
REMARK 924 INTRA-LIGAND FREE ENERGY PREDICTED BY IDOCK:   -0.27 KCAL/MOL
REMARK 927      BINDING AFFINITY PREDICTED BY RF-SCORE:    0.00 PKD
ROOT
HETATM    1  C   UNL     1      -8.204  16.301  67.369  1.00  0.00    -0.160 C  
HETATM    2  C   UNL     1      -7.502  16.818  68.621  1.00  0.00    -0.219 C  
HETATM    3  C   UNL     1      -7.560  18.369  68.455  1.00  0.00    -0.307 C  
HETATM    4  C   UNL     1      -8.054  18.649  67.038  1.00  0.00    -0.252 C  
HETATM    5  N   UNL     1      -8.026  17.363  66.388  1.00  0.00    -0.273 N  
HETATM    6  C   UNL     1      -8.516  17.207  65.099  1.00  0.00     2.718 C  
HETATM    7  O   UNL     1      -8.619  18.128  64.296  1.00  0.00     6.279 OA 
HETATM    8  C   UNL     1      -8.650  15.737  64.779  1.00  0.00     5.319 C  
HETATM    9  C   UNL     1      -8.755  15.370  63.304  1.00  0.00    18.894 C  
HETATM   10  N   UNL     1      -9.487  15.034  65.978  1.00  0.00    -0.310 N  
HETATM   11  C   UNL     1     -10.073  15.724  62.654  1.00  0.00    14.166 C  
HETATM   12  C   UNL     1      -7.525  15.724  62.445  1.00  0.00    28.388 C  
HETATM   13  C   UNL     1     -10.025  13.749  66.116  1.00  0.00    -0.308 C  
HETATM   14  O   UNL     1     -11.056  13.486  66.721  1.00  0.00    -0.292 OA 
HETATM   15  C   UNL     1      -9.008  12.784  65.538  1.00  0.00     0.733 C  
HETATM   16  H   UNL     1      -8.915  13.205  67.846  1.00  0.00     0.000 HD 
HETATM   17  C   UNL     1      -9.932  12.689  64.137  1.00  0.00    -0.196 C  
HETATM   18  O   UNL     1      -7.859  13.756  66.037  1.00  0.00     1.688 OA 
HETATM   19  O   UNL     1      -8.769  14.102  68.121  1.00  0.00    -0.165 OA 
HETATM   20  C   UNL     1      -8.454  14.770  66.900  1.00  0.00    -0.198 C  
HETATM   21  C   UNL     1     -11.322  11.987  64.226  1.00  0.00    -0.433 C  
HETATM   22  C   UNL     1      -9.338  12.175  62.836  1.00  0.00     0.825 C  
ENDROOT
BRANCH  15  23
HETATM   23  N   UNL     1      -8.502  11.467  65.859  1.00  0.00    -0.373 N  
HETATM   24  H   UNL     1      -7.854  10.996  65.227  1.00  0.00     0.000 HD 
HETATM   25  O   UNL     1      -9.930  11.170  67.665  1.00  0.00    -0.171 OA 
HETATM   26  C   UNL     1      -8.910  10.847  67.046  1.00  0.00    -0.140 C  
BRANCH  26  27
HETATM   27  C   UNL     1      -7.925   9.799  67.600  1.00  0.00    -0.105 C  
HETATM   28  C   UNL     1      -6.531  10.446  67.747  1.00  0.00    -0.061 C  
HETATM   29  N   UNL     1      -6.178  10.912  69.112  1.00  0.00    -0.043 NA 
HETATM   30  C   UNL     1      -6.013   9.757  70.037  1.00  0.00    -0.046 C  
HETATM   31  C   UNL     1      -7.116  11.893  69.670  1.00  0.00     0.228 C  
HETATM   32  C   UNL     1      -5.978  10.156  71.583  1.00  0.00     0.278 C  
HETATM   33  C   UNL     1      -7.003   9.434  72.392  1.00  0.00     0.718 A  
HETATM   34  C   UNL     1      -7.654   9.693  73.583  1.00  0.00     2.612 A  
HETATM   35  N   UNL     1      -8.432   8.599  73.881  1.00  0.00    -0.274 NA 
HETATM   36  C   UNL     1      -8.294   7.631  72.910  1.00  0.00    -0.133 A  
HETATM   37  H   UNL     1      -9.027   8.516  74.705  1.00  0.00     0.000 HD 
HETATM   38  C   UNL     1      -8.841   6.358  72.719  1.00  0.00    -0.124 A  
HETATM   39  C   UNL     1      -8.501   5.692  71.526  1.00  0.00    -0.128 A  
HETATM   40  C   UNL     1      -7.763   6.316  70.518  1.00  0.00    -0.101 A  
HETATM   41  C   UNL     1      -7.327   7.627  70.699  1.00  0.00    -0.067 A  
HETATM   42  C   UNL     1      -7.496   8.204  71.943  1.00  0.00    -0.105 A  
HETATM   43  C   UNL     1      -6.954   8.553  69.587  1.00  0.00    -0.047 C  
HETATM   44  C   UNL     1      -8.272   9.105  68.937  1.00  0.00    -0.112 C  
ENDBRANCH  26  27
ENDBRANCH  15  23
TORSDOF 2
ENDMDL
MODEL      145
REMARK 921   NORMALIZED FREE ENERGY PREDICTED BY IDOCK:   93.82 KCAL/MOL
REMARK 922        TOTAL FREE ENERGY PREDICTED BY IDOCK:  104.39 KCAL/MOL
REMARK 923 INTER-LIGAND FREE ENERGY PREDICTED BY IDOCK:  101.77 KCAL/MOL
REMARK 924 INTRA-LIGAND FREE ENERGY PREDICTED BY IDOCK:    2.62 KCAL/MOL
REMARK 927      BINDING AFFINITY PREDICTED BY RF-SCORE:    0.00 PKD
ROOT
HETATM    1  C   UNL     1     -12.602  11.945  67.850  1.00  0.00     1.721 C  
HETATM    2  C   UNL     1     -12.474  12.263  66.364  1.00  0.00     0.754 C  
HETATM    3  C   UNL     1     -12.853  10.918  65.670  1.00  0.00     6.281 C  
HETATM    4  C   UNL     1     -12.933   9.857  66.765  1.00  0.00    12.758 C  
HETATM    5  N   UNL     1     -12.391  10.505  67.932  1.00  0.00     1.704 N  
HETATM    6  C   UNL     1     -12.401   9.871  69.167  1.00  0.00     1.143 C  
HETATM    7  O   UNL     1     -12.469   8.655  69.304  1.00  0.00     2.287 OA 
HETATM    8  C   UNL     1     -12.067  10.866  70.253  1.00  0.00    -0.355 C  
HETATM    9  C   UNL     1     -11.614  10.287  71.588  1.00  0.00     0.119 C  
HETATM   10  N   UNL     1     -13.039  12.153  70.076  1.00  0.00     0.770 N  
HETATM   11  C   UNL     1     -12.708   9.631  72.399  1.00  0.00    -0.268 C  
HETATM   12  C   UNL     1     -10.303   9.478  71.548  1.00  0.00    -0.113 C  
HETATM   13  C   UNL     1     -13.263  13.276  70.882  1.00  0.00     0.100 C  
HETATM   14  O   UNL     1     -14.335  13.858  70.983  1.00  0.00     0.249 OA 
HETATM   15  C   UNL     1     -11.914  13.697  71.431  1.00  0.00     0.260 C  
HETATM   16  H   UNL     1     -12.651  14.727  69.454  1.00  0.00     0.000 HD 
HETATM   17  C   UNL     1     -12.302  12.953  72.887  1.00  0.00     2.328 C  
HETATM   18  O   UNL     1     -11.251  13.197  70.080  1.00  0.00     0.008 OA 
HETATM   19  O   UNL     1     -12.820  14.167  68.706  1.00  0.00     0.478 OA 
HETATM   20  C   UNL     1     -12.313  12.901  69.126  1.00  0.00     0.134 C  
HETATM   21  C   UNL     1     -13.436  13.586  73.751  1.00  0.00     3.925 C  
HETATM   22  C   UNL     1     -11.226  12.587  73.896  1.00  0.00    14.555 C  
ENDROOT
BRANCH  15  23
HETATM   23  N   UNL     1     -11.228  14.941  71.706  1.00  0.00    -0.515 N  
HETATM   24  H   UNL     1     -10.363  15.172  71.218  1.00  0.00     0.000 HD 
HETATM   25  O   UNL     1     -12.575  15.481  73.519  1.00  0.00    -0.431 OA 
HETATM   26  C   UNL     1     -11.766  15.825  72.650  1.00  0.00    -0.438 C  
BRANCH  26  27
HETATM   27  C   UNL     1     -11.365  17.300  72.456  1.00  0.00     1.333 C  
HETATM   28  C   UNL     1     -10.211  17.640  73.425  1.00  0.00     7.078 C  
HETATM   29  N   UNL     1      -8.847  17.610  72.837  1.00  0.00    14.556 NA 
HETATM   30  C   UNL     1      -8.674  18.711  71.850  1.00  0.00    10.127 C  
HETATM   31  C   UNL     1      -8.481  16.319  72.243  1.00  0.00    12.223 C  
HETATM   32  C   UNL     1      -7.385  18.558  70.919  1.00  0.00     3.393 C  
HETATM   33  C   UNL     1      -7.714  18.588  69.464  1.00  0.00     0.331 A  
HETATM   34  C   UNL     1      -7.103  18.103  68.323  1.00  0.00    -0.247 A  
HETATM   35  N   UNL     1      -7.836  18.529  67.242  1.00  0.00    -0.233 NA 
HETATM   36  C   UNL     1      -8.908  19.290  67.656  1.00  0.00    -0.299 A  
HETATM   37  H   UNL     1      -7.618  18.312  66.270  1.00  0.00     0.000 HD 
HETATM   38  C   UNL     1      -9.947  19.952  66.994  1.00  0.00    -0.559 A  
HETATM   39  C   UNL     1     -10.919  20.575  67.799  1.00  0.00     0.715 A  
HETATM   40  C   UNL     1     -10.929  20.431  69.188  1.00  0.00     1.066 A  
HETATM   41  C   UNL     1      -9.939  19.670  69.805  1.00  0.00     0.128 A  
HETATM   42  C   UNL     1      -8.882  19.226  69.033  1.00  0.00    -0.265 A  
HETATM   43  C   UNL     1     -10.068  19.058  71.162  1.00  0.00     2.754 C  
HETATM   44  C   UNL     1     -10.952  17.766  71.041  1.00  0.00     2.210 C  
ENDBRANCH  26  27
ENDBRANCH  15  23
TORSDOF 2
ENDMDL
MODEL      146
REMARK 921   NORMALIZED FREE ENERGY PREDICTED BY IDOCK:   94.37 KCAL/MOL
REMARK 922        TOTAL FREE ENERGY PREDICTED BY IDOCK:  105.01 KCAL/MOL
REMARK 923 INTER-LIGAND FREE ENERGY PREDICTED BY IDOCK:  104.36 KCAL/MOL
REMARK 924 INTRA-LIGAND FREE ENERGY PREDICTED BY IDOCK:    0.65 KCAL/MOL
REMARK 927      BINDING AFFINITY PREDICTED BY RF-SCORE:    0.00 PKD
ROOT
HETATM    1  C   UNL     1     -12.534  18.920  68.685  1.00  0.00     7.551 C  
HETATM    2  C   UNL     1     -13.614  19.415  69.642  1.00  0.00    21.976 C  
HETATM    3  C   UNL     1     -13.979  20.824  69.081  1.00  0.00     8.351 C  
HETATM    4  C   UNL     1     -12.944  21.162  68.010  1.00  0.00     8.007 C  
HETATM    5  N   UNL     1     -11.939  20.138  68.148  1.00  0.00     2.563 N  
HETATM    6  C   UNL     1     -10.878  20.058  67.257  1.00  0.00    -0.121 C  
HETATM    7  O   UNL     1     -10.483  21.004  66.587  1.00  0.00     0.585 OA 
HETATM    8  C   UNL     1     -10.161  18.741  67.436  1.00  0.00    -0.354 C  
HETATM    9  C   UNL     1      -8.749  18.655  66.869  1.00  0.00    -0.288 C  
HETATM   10  N   UNL     1     -11.263  17.552  67.380  1.00  0.00     0.113 N  
HETATM   11  C   UNL     1      -8.674  18.594  65.360  1.00  0.00     1.422 C  
HETATM   12  C   UNL     1      -7.721  19.613  67.502  1.00  0.00    -0.303 C  
HETATM   13  C   UNL     1     -11.137  16.159  67.334  1.00  0.00    -0.134 C  
HETATM   14  O   UNL     1     -11.906  15.409  66.748  1.00  0.00     0.009 OA 
HETATM   15  C   UNL     1     -10.004  15.790  68.271  1.00  0.00    -0.221 C  
HETATM   16  H   UNL     1     -12.184  15.760  69.141  1.00  0.00     0.000 HD 
HETATM   17  C   UNL     1      -8.992  15.620  66.940  1.00  0.00    -0.267 C  
HETATM   18  O   UNL     1     -10.419  17.014  69.192  1.00  0.00    -0.320 OA 
HETATM   19  O   UNL     1     -12.675  16.573  69.119  1.00  0.00     0.793 OA 
HETATM   20  C   UNL     1     -11.697  17.533  68.722  1.00  0.00     1.807 C  
HETATM   21  C   UNL     1      -9.264  14.436  65.963  1.00  0.00    -0.070 C  
HETATM   22  C   UNL     1      -7.480  15.637  67.093  1.00  0.00    -0.253 C  
ENDROOT
BRANCH  15  23
HETATM   23  N   UNL     1      -9.718  14.735  69.218  1.00  0.00    -0.380 N  
HETATM   24  H   UNL     1      -8.755  14.453  69.401  1.00  0.00     0.000 HD 
HETATM   25  O   UNL     1     -11.944  14.125  69.470  1.00  0.00    -0.301 OA 
HETATM   26  C   UNL     1     -10.778  14.104  69.881  1.00  0.00     0.228 C  
BRANCH  26  27
HETATM   27  C   UNL     1     -10.409  13.473  71.237  1.00  0.00     5.639 C  
HETATM   28  C   UNL     1     -11.550  13.739  72.244  1.00  0.00     2.072 C  
HETATM   29  N   UNL     1     -12.510  12.624  72.440  1.00  0.00     0.495 NA 
HETATM   30  C   UNL     1     -11.849  11.472  73.114  1.00  0.00     8.702 C  
HETATM   31  C   UNL     1     -13.180  12.189  71.209  1.00  0.00     0.028 C  
HETATM   32  C   UNL     1     -12.687  10.113  73.057  1.00  0.00     2.392 C  
HETATM   33  C   UNL     1     -11.915   8.981  72.464  1.00  0.00    -0.124 A  
HETATM   34  C   UNL     1     -12.260   7.805  71.825  1.00  0.00    -0.306 A  
HETATM   35  N   UNL     1     -11.102   7.105  71.586  1.00  0.00    -0.233 NA 
HETATM   36  C   UNL     1     -10.011   7.798  72.063  1.00  0.00    -0.179 A  
HETATM   37  H   UNL     1     -11.056   6.199  71.120  1.00  0.00     0.000 HD 
HETATM   38  C   UNL     1      -8.634   7.555  72.084  1.00  0.00    -0.137 A  
HETATM   39  C   UNL     1      -7.816   8.573  72.610  1.00  0.00    -0.080 A  
HETATM   40  C   UNL     1      -8.331   9.819  72.972  1.00  0.00     4.373 A  
HETATM   41  C   UNL     1      -9.695  10.063  72.834  1.00  0.00     7.038 A  
HETATM   42  C   UNL     1     -10.517   9.003  72.503  1.00  0.00     0.339 A  
HETATM   43  C   UNL     1     -10.303  11.425  72.735  1.00  0.00    15.560 C  
HETATM   44  C   UNL     1     -10.084  11.962  71.276  1.00  0.00     8.385 C  
ENDBRANCH  26  27
ENDBRANCH  15  23
TORSDOF 2
ENDMDL
MODEL      147
REMARK 921   NORMALIZED FREE ENERGY PREDICTED BY IDOCK:  103.23 KCAL/MOL
REMARK 922        TOTAL FREE ENERGY PREDICTED BY IDOCK:  114.90 KCAL/MOL
REMARK 923 INTER-LIGAND FREE ENERGY PREDICTED BY IDOCK:  113.30 KCAL/MOL
REMARK 924 INTRA-LIGAND FREE ENERGY PREDICTED BY IDOCK:    1.60 KCAL/MOL
REMARK 927      BINDING AFFINITY PREDICTED BY RF-SCORE:    0.00 PKD
ROOT
HETATM    1  C   UNL     1     -12.856  14.745  64.130  1.00  0.00     0.562 C  
HETATM    2  C   UNL     1     -13.532  15.371  62.915  1.00  0.00     5.353 C  
HETATM    3  C   UNL     1     -14.387  16.524  63.528  1.00  0.00     7.981 C  
HETATM    4  C   UNL     1     -14.355  16.347  65.044  1.00  0.00     6.672 C  
HETATM    5  N   UNL     1     -13.747  15.055  65.241  1.00  0.00     1.602 N  
HETATM    6  C   UNL     1     -13.453  14.595  66.517  1.00  0.00     3.131 C  
HETATM    7  O   UNL     1     -14.010  15.002  67.530  1.00  0.00     6.209 OA 
HETATM    8  C   UNL     1     -12.560  13.380  66.427  1.00  0.00    -0.098 C  
HETATM    9  C   UNL     1     -12.487  12.498  67.667  1.00  0.00     0.844 C  
HETATM   10  N   UNL     1     -11.305  13.745  65.466  1.00  0.00    -0.304 N  
HETATM   11  C   UNL     1     -11.715  13.092  68.823  1.00  0.00    -0.363 C  
HETATM   12  C   UNL     1     -13.812  11.832  68.085  1.00  0.00    10.304 C  
HETATM   13  C   UNL     1     -10.122  13.059  65.169  1.00  0.00    -0.221 C  
HETATM   14  O   UNL     1      -9.047  13.594  64.932  1.00  0.00     1.090 OA 
HETATM   15  C   UNL     1     -10.487  11.593  65.036  1.00  0.00    -0.285 C  
HETATM   16  H   UNL     1     -10.458  12.887  63.077  1.00  0.00     0.000 HD 
HETATM   17  C   UNL     1      -9.892  11.330  66.585  1.00  0.00    -0.235 C  
HETATM   18  O   UNL     1     -11.895  12.037  64.456  1.00  0.00    -0.336 OA 
HETATM   19  O   UNL     1     -11.043  13.634  63.038  1.00  0.00     1.017 OA 
HETATM   20  C   UNL     1     -11.857  13.471  64.197  1.00  0.00    -0.437 C  
HETATM   21  C   UNL     1      -8.354  11.464  66.810  1.00  0.00    -0.163 C  
HETATM   22  C   UNL     1     -10.276  10.090  67.377  1.00  0.00    -0.269 C  
ENDROOT
BRANCH  15  23
HETATM   23  N   UNL     1     -10.105  10.483  64.190  1.00  0.00    -0.363 N  
HETATM   24  H   UNL     1      -9.135  10.366  63.900  1.00  0.00     0.000 HD 
HETATM   25  O   UNL     1     -12.293   9.827  63.774  1.00  0.00     8.018 OA 
HETATM   26  C   UNL     1     -11.083   9.571  63.775  1.00  0.00     6.743 C  
BRANCH  26  27
HETATM   27  C   UNL     1     -10.553   8.168  63.425  1.00  0.00    10.358 C  
HETATM   28  C   UNL     1      -9.008   8.198  63.430  1.00  0.00     0.911 C  
HETATM   29  N   UNL     1      -8.358   7.698  64.668  1.00  0.00    -0.060 NA 
HETATM   30  C   UNL     1      -8.577   6.233  64.823  1.00  0.00     0.108 C  
HETATM   31  C   UNL     1      -8.758   8.414  65.884  1.00  0.00    -0.169 C  
HETATM   32  C   UNL     1      -8.224   5.669  66.275  1.00  0.00    -0.108 C  
HETATM   33  C   UNL     1      -9.363   4.942  66.907  1.00  0.00    -0.137 A  
HETATM   34  C   UNL     1      -9.727   4.658  68.210  1.00  0.00    -0.131 A  
HETATM   35  N   UNL     1     -10.844   3.858  68.168  1.00  0.00     2.060 NA 
HETATM   36  C   UNL     1     -11.209   3.608  66.863  1.00  0.00     5.216 A  
HETATM   37  H   UNL     1     -11.333   3.500  68.987  1.00  0.00     0.000 HD 
HETATM   38  C   UNL     1     -12.239   2.877  66.262  1.00  0.00    15.075 A  
HETATM   39  C   UNL     1     -12.321   2.930  64.858  1.00  0.00     8.792 A  
HETATM   40  C   UNL     1     -11.503   3.774  64.102  1.00  0.00     0.889 A  
HETATM   41  C   UNL     1     -10.561   4.571  64.747  1.00  0.00     0.008 A  
HETATM   42  C   UNL     1     -10.353   4.373  66.098  1.00  0.00    -0.175 A  
HETATM   43  C   UNL     1      -9.964   5.811  64.163  1.00  0.00     2.276 C  
HETATM   44  C   UNL     1     -11.008   6.976  64.298  1.00  0.00    11.935 C  
ENDBRANCH  26  27
ENDBRANCH  15  23
TORSDOF 2
ENDMDL
MODEL      148
REMARK 921   NORMALIZED FREE ENERGY PREDICTED BY IDOCK:  107.45 KCAL/MOL
REMARK 922        TOTAL FREE ENERGY PREDICTED BY IDOCK:  119.61 KCAL/MOL
REMARK 923 INTER-LIGAND FREE ENERGY PREDICTED BY IDOCK:  114.87 KCAL/MOL
REMARK 924 INTRA-LIGAND FREE ENERGY PREDICTED BY IDOCK:    4.74 KCAL/MOL
REMARK 927      BINDING AFFINITY PREDICTED BY RF-SCORE:    0.00 PKD
ROOT
HETATM    1  C   UNL     1     -10.981  12.245  71.489  1.00  0.00     5.476 C  
HETATM    2  C   UNL     1     -10.588  10.994  72.269  1.00  0.00     8.519 C  
HETATM    3  C   UNL     1     -10.890  11.380  73.750  1.00  0.00    19.549 C  
HETATM    4  C   UNL     1     -11.195  12.876  73.770  1.00  0.00    11.518 C  
HETATM    5  N   UNL     1     -10.839  13.331  72.450  1.00  0.00     6.901 N  
HETATM    6  C   UNL     1     -11.083  14.640  72.059  1.00  0.00     0.915 C  
HETATM    7  O   UNL     1     -11.218  15.569  72.847  1.00  0.00    -0.170 OA 
HETATM    8  C   UNL     1     -10.906  14.768  70.565  1.00  0.00     0.051 C  
HETATM    9  C   UNL     1     -10.710  16.178  70.023  1.00  0.00    -0.318 C  
HETATM   10  N   UNL     1     -11.786  13.607  69.850  1.00  0.00    -0.289 N  
HETATM   11  C   UNL     1     -11.950  17.043  70.040  1.00  0.00     2.223 C  
HETATM   12  C   UNL     1      -9.441  16.905  70.511  1.00  0.00     2.739 C  
HETATM   13  C   UNL     1     -12.105  13.366  68.509  1.00  0.00    -0.248 C  
HETATM   14  O   UNL     1     -13.156  12.875  68.120  1.00  0.00     1.678 OA 
HETATM   15  C   UNL     1     -10.856  13.661  67.701  1.00  0.00    -0.256 C  
HETATM   16  H   UNL     1     -11.205  11.444  68.387  1.00  0.00     0.000 HD 
HETATM   17  C   UNL     1     -11.515  15.147  67.273  1.00  0.00    -0.284 C  
HETATM   18  O   UNL     1      -9.989  13.152  68.928  1.00  0.00    -0.084 OA 
HETATM   19  O   UNL     1     -11.263  11.278  69.320  1.00  0.00    -0.232 OA 
HETATM   20  C   UNL     1     -10.881  12.526  69.896  1.00  0.00     0.676 C  
HETATM   21  C   UNL     1     -12.757  15.150  66.330  1.00  0.00     1.118 C  
HETATM   22  C   UNL     1     -10.642  16.273  66.743  1.00  0.00    -0.257 C  
ENDROOT
BRANCH  15  23
HETATM   23  N   UNL     1     -10.184  13.096  66.552  1.00  0.00    -0.271 N  
HETATM   24  H   UNL     1      -9.497  12.351  66.671  1.00  0.00     0.000 HD 
HETATM   25  O   UNL     1     -11.009  14.684  65.073  1.00  0.00    -0.356 OA 
HETATM   26  C   UNL     1     -10.486  13.582  65.274  1.00  0.00    -0.336 C  
BRANCH  26  27
HETATM   27  C   UNL     1     -10.227  12.588  64.126  1.00  0.00    -0.376 C  
HETATM   28  C   UNL     1      -8.793  12.799  63.591  1.00  0.00     3.226 C  
HETATM   29  N   UNL     1      -7.769  11.853  64.104  1.00  0.00     2.663 NA 
HETATM   30  C   UNL     1      -8.023  10.476  63.598  1.00  0.00    -0.023 C  
HETATM   31  C   UNL     1      -7.636  11.852  65.565  1.00  0.00     1.544 C  
HETATM   32  C   UNL     1      -7.199   9.338  64.358  1.00  0.00    -0.097 C  
HETATM   33  C   UNL     1      -8.073   8.266  64.919  1.00  0.00    -0.150 A  
HETATM   34  C   UNL     1      -7.948   7.358  65.952  1.00  0.00    -0.118 A  
HETATM   35  N   UNL     1      -9.056   6.545  65.931  1.00  0.00    -0.325 NA 
HETATM   36  C   UNL     1      -9.897   6.902  64.899  1.00  0.00     2.606 A  
HETATM   37  H   UNL     1      -9.232   5.785  66.588  1.00  0.00     0.000 HD 
HETATM   38  C   UNL     1     -11.126   6.426  64.435  1.00  0.00     8.399 A  
HETATM   39  C   UNL     1     -11.719   7.128  63.368  1.00  0.00    19.961 A  
HETATM   40  C   UNL     1     -11.180   8.320  62.880  1.00  0.00    14.729 A  
HETATM   41  C   UNL     1     -10.010   8.824  63.444  1.00  0.00     3.728 A  
HETATM   42  C   UNL     1      -9.331   8.034  64.352  1.00  0.00     1.583 A  
HETATM   43  C   UNL     1      -9.582  10.253  63.364  1.00  0.00    -0.316 C  
HETATM   44  C   UNL     1     -10.413  11.080  64.408  1.00  0.00    -0.422 C  
ENDBRANCH  26  27
ENDBRANCH  15  23
TORSDOF 2
ENDMDL
MODEL      149
REMARK 921   NORMALIZED FREE ENERGY PREDICTED BY IDOCK:  137.49 KCAL/MOL
REMARK 922        TOTAL FREE ENERGY PREDICTED BY IDOCK:  153.16 KCAL/MOL
REMARK 923 INTER-LIGAND FREE ENERGY PREDICTED BY IDOCK:  153.65 KCAL/MOL
REMARK 924 INTRA-LIGAND FREE ENERGY PREDICTED BY IDOCK:   -0.48 KCAL/MOL
REMARK 927      BINDING AFFINITY PREDICTED BY RF-SCORE:    0.00 PKD
ROOT
HETATM    1  C   UNL     1     -11.136  18.072  67.997  1.00  0.00     0.169 C  
HETATM    2  C   UNL     1     -10.221  18.480  69.148  1.00  0.00    -0.080 C  
HETATM    3  C   UNL     1     -10.659  19.946  69.457  1.00  0.00     0.444 C  
HETATM    4  C   UNL     1     -11.601  20.378  68.336  1.00  0.00     2.592 C  
HETATM    5  N   UNL     1     -11.492  19.330  67.353  1.00  0.00     0.312 N  
HETATM    6  C   UNL     1     -12.298  19.327  66.223  1.00  0.00     5.053 C  
HETATM    7  O   UNL     1     -12.832  20.333  65.769  1.00  0.00     4.841 OA 
HETATM    8  C   UNL     1     -12.202  17.988  65.531  1.00  0.00     6.137 C  
HETATM    9  C   UNL     1     -12.661  17.941  64.079  1.00  0.00    10.715 C  
HETATM   10  N   UNL     1     -12.472  16.829  66.634  1.00  0.00     3.517 N  
HETATM   11  C   UNL     1     -14.157  18.036  63.882  1.00  0.00    18.764 C  
HETATM   12  C   UNL     1     -11.850  18.812  63.100  1.00  0.00    16.368 C  
HETATM   13  C   UNL     1     -12.654  15.446  66.513  1.00  0.00     1.488 C  
HETATM   14  O   UNL     1     -13.376  14.773  67.237  1.00  0.00     2.301 OA 
HETATM   15  C   UNL     1     -11.673  14.965  65.462  1.00  0.00    -0.211 C  
HETATM   16  H   UNL     1     -10.989  14.877  67.706  1.00  0.00     0.000 HD 
HETATM   17  C   UNL     1     -12.929  14.920  64.347  1.00  0.00     0.698 C  
HETATM   18  O   UNL     1     -10.665  16.091  65.943  1.00  0.00    -0.323 OA 
HETATM   19  O   UNL     1     -10.964  15.695  68.188  1.00  0.00    -0.288 OA 
HETATM   20  C   UNL     1     -11.179  16.676  67.175  1.00  0.00     0.239 C  
HETATM   21  C   UNL     1     -14.045  13.848  64.546  1.00  0.00     4.572 C  
HETATM   22  C   UNL     1     -12.655  14.897  62.852  1.00  0.00     2.758 C  
ENDROOT
BRANCH  15  23
HETATM   23  N   UNL     1     -10.823  13.812  65.261  1.00  0.00    -0.309 N  
HETATM   24  H   UNL     1     -11.067  12.912  65.676  1.00  0.00     0.000 HD 
HETATM   25  O   UNL     1      -9.116  15.030  64.265  1.00  0.00     2.986 OA 
HETATM   26  C   UNL     1      -9.661  13.943  64.490  1.00  0.00     0.795 C  
BRANCH  26  27
HETATM   27  C   UNL     1      -9.167  12.639  63.836  1.00  0.00     1.258 C  
HETATM   28  C   UNL     1      -7.723  12.355  64.308  1.00  0.00     5.341 C  
HETATM   29  N   UNL     1      -7.589  11.378  65.417  1.00  0.00     0.535 NA 
HETATM   30  C   UNL     1      -7.975  10.012  64.967  1.00  0.00    -0.143 C  
HETATM   31  C   UNL     1      -8.321  11.750  66.633  1.00  0.00    -0.136 C  
HETATM   32  C   UNL     1      -8.198   8.970  66.157  1.00  0.00    -0.115 C  
HETATM   33  C   UNL     1      -9.544   8.328  66.121  1.00  0.00    -0.217 A  
HETATM   34  C   UNL     1     -10.360   7.737  67.068  1.00  0.00    -0.334 A  
HETATM   35  N   UNL     1     -11.459   7.231  66.416  1.00  0.00     0.764 NA 
HETATM   36  C   UNL     1     -11.370   7.473  65.062  1.00  0.00    10.316 A  
HETATM   37  H   UNL     1     -12.231   6.744  66.870  1.00  0.00     0.000 HD 
HETATM   38  C   UNL     1     -12.188   7.185  63.965  1.00  0.00    19.704 A  
HETATM   39  C   UNL     1     -11.774   7.683  62.715  1.00  0.00    18.502 A  
HETATM   40  C   UNL     1     -10.674   8.535  62.587  1.00  0.00     8.646 A  
HETATM   41  C   UNL     1      -9.948   8.889  63.721  1.00  0.00     3.104 A  
HETATM   42  C   UNL     1     -10.239   8.247  64.910  1.00  0.00     3.525 A  
HETATM   43  C   UNL     1      -9.079  10.101  63.823  1.00  0.00    -0.293 C  
HETATM   44  C   UNL     1      -9.999  11.353  64.050  1.00  0.00    -0.341 C  
ENDBRANCH  26  27
ENDBRANCH  15  23
TORSDOF 2
ENDMDL
