MODEL        1
REMARK 921   NORMALIZED FREE ENERGY PREDICTED BY IDOCK:   -7.64 KCAL/MOL
REMARK 922        TOTAL FREE ENERGY PREDICTED BY IDOCK:   -8.81 KCAL/MOL
REMARK 923 INTER-LIGAND FREE ENERGY PREDICTED BY IDOCK:   -8.09 KCAL/MOL
REMARK 924 INTRA-LIGAND FREE ENERGY PREDICTED BY IDOCK:   -0.72 KCAL/MOL
REMARK 927      BINDING AFFINITY PREDICTED BY RF-SCORE:    0.00 PKD
ROOT
HETATM    1  C   UNL     1      -6.458   9.889  70.330  1.00  0.00    -0.115 C  
HETATM    2  C   UNL     1      -6.691  11.289  69.745  1.00  0.00    -0.099 C  
HETATM    3  C   UNL     1      -6.557  11.370  68.195  1.00  0.00    -0.057 C  
HETATM    4  C   UNL     1      -5.761  12.283  70.447  1.00  0.00    -0.169 C  
HETATM    5  C   UNL     1      -7.628  10.550  67.510  1.00  0.00    -0.093 C  
HETATM    6  C   UNL     1      -5.183  10.960  67.660  1.00  0.00    -0.040 C  
HETATM    7  C   UNL     1      -8.215  10.889  66.351  1.00  0.00    -0.163 C  
HETATM    8  C   UNL     1      -9.376  10.158  65.695  1.00  0.00    -0.250 C  
HETATM    9  C   UNL     1     -10.771  10.858  65.918  1.00  0.00    -0.193 C  
HETATM   10  C   UNL     1      -9.431   8.659  66.070  1.00  0.00    -0.278 C  
HETATM   11  C   UNL     1     -11.129  10.955  67.407  1.00  0.00    -0.373 C  
HETATM   12  C   UNL     1     -10.690  12.336  67.870  1.00  0.00    -0.243 C  
HETATM   13  C   UNL     1     -10.436  13.197  66.616  1.00  0.00    -0.280 C  
HETATM   14  C   UNL     1     -10.979  14.618  66.765  1.00  0.00    -0.323 C  
HETATM   15  C   UNL     1     -11.620  15.175  65.519  1.00  0.00    -0.142 C  
HETATM   16  C   UNL     1     -10.829  15.308  67.916  1.00  0.00    -0.288 C  
HETATM   17  C   UNL     1     -10.199  12.555  64.074  1.00  0.00    -0.390 C  
HETATM   18  C   UNL     1     -12.632  14.222  64.867  1.00  0.00    -0.339 C  
HETATM   19  C   UNL     1     -10.950  12.344  65.409  1.00  0.00    -0.335 C  
HETATM   20  C   UNL     1     -12.435  12.725  65.174  1.00  0.00    -0.565 C  
ENDROOT
BRANCH  16  21
HETATM   21  C   UNL     1     -11.008  16.735  68.050  1.00  0.00    -0.296 C  
HETATM   22  C   UNL     1     -10.071  17.700  67.986  1.00  0.00    -0.343 C  
HETATM   23  C   UNL     1      -8.564  17.505  67.977  1.00  0.00    -0.250 C  
HETATM   24  C   UNL     1      -7.952  18.008  66.664  1.00  0.00    -0.251 C  
HETATM   25  C   UNL     1      -8.394  19.432  66.329  1.00  0.00    -0.346 C  
HETATM   26  O   UNL     1      -8.294  17.127  65.594  1.00  0.00    -0.450 OA 
HETATM   27  C   UNL     1      -9.916  19.610  66.400  1.00  0.00    -0.556 C  
HETATM   28  H   UNL     1      -7.915  17.439  64.780  1.00  0.00     0.000 HD 
HETATM   29  C   UNL     1     -10.526  19.131  67.730  1.00  0.00    -0.512 C  
HETATM   30  C   UNL     1     -10.247  20.080  68.889  1.00  0.00    -0.348 C  
ENDBRANCH  16  21
TORSDOF 1
ENDMDL
MODEL        2
REMARK 921   NORMALIZED FREE ENERGY PREDICTED BY IDOCK:   -7.16 KCAL/MOL
REMARK 922        TOTAL FREE ENERGY PREDICTED BY IDOCK:   -8.30 KCAL/MOL
REMARK 923 INTER-LIGAND FREE ENERGY PREDICTED BY IDOCK:   -7.81 KCAL/MOL
REMARK 924 INTRA-LIGAND FREE ENERGY PREDICTED BY IDOCK:   -0.49 KCAL/MOL
REMARK 927      BINDING AFFINITY PREDICTED BY RF-SCORE:    0.00 PKD
ROOT
HETATM    1  C   UNL     1     -13.512   7.321  71.799  1.00  0.00    -0.373 C  
HETATM    2  C   UNL     1     -12.654   8.471  71.251  1.00  0.00    -0.248 C  
HETATM    3  C   UNL     1     -11.117   8.244  71.375  1.00  0.00    -0.302 C  
HETATM    4  C   UNL     1     -13.090   9.779  71.919  1.00  0.00    -0.544 C  
HETATM    5  C   UNL     1     -10.668   7.073  70.529  1.00  0.00    -0.262 C  
HETATM    6  C   UNL     1     -10.623   8.054  72.810  1.00  0.00    -0.420 C  
HETATM    7  C   UNL     1      -9.490   7.011  69.888  1.00  0.00    -0.157 C  
HETATM    8  C   UNL     1      -9.054   5.910  68.934  1.00  0.00    -0.120 C  
HETATM    9  C   UNL     1      -9.183   6.302  67.412  1.00  0.00    -0.116 C  
HETATM   10  C   UNL     1      -9.739   4.555  69.227  1.00  0.00    -0.260 C  
HETATM   11  C   UNL     1     -10.632   6.633  67.031  1.00  0.00    -0.404 C  
HETATM   12  C   UNL     1     -10.773   8.145  67.132  1.00  0.00    -0.264 C  
HETATM   13  C   UNL     1      -9.356   8.751  67.189  1.00  0.00    -0.188 C  
HETATM   14  C   UNL     1      -9.224  10.006  66.329  1.00  0.00    -0.199 C  
HETATM   15  C   UNL     1      -7.917  10.120  65.585  1.00  0.00    -0.147 C  
HETATM   16  C   UNL     1     -10.195  10.945  66.306  1.00  0.00    -0.300 C  
HETATM   17  C   UNL     1      -7.000   7.646  67.589  1.00  0.00    -0.081 C  
HETATM   18  C   UNL     1      -7.525   8.844  64.828  1.00  0.00    -0.103 C  
HETATM   19  C   UNL     1      -8.380   7.562  66.897  1.00  0.00    -0.125 C  
HETATM   20  C   UNL     1      -8.133   7.533  65.366  1.00  0.00    -0.133 C  
ENDROOT
BRANCH  16  21
HETATM   21  C   UNL     1     -10.032  12.287  65.798  1.00  0.00    -0.273 C  
HETATM   22  C   UNL     1     -10.690  13.402  66.169  1.00  0.00    -0.288 C  
HETATM   23  C   UNL     1     -11.922  13.477  67.056  1.00  0.00    -0.440 C  
HETATM   24  C   UNL     1     -11.623  14.250  68.346  1.00  0.00    -0.320 C  
HETATM   25  C   UNL     1     -10.973  15.606  68.070  1.00  0.00    -0.318 C  
HETATM   26  O   UNL     1     -10.783  13.474  69.201  1.00  0.00    -0.389 OA 
HETATM   27  C   UNL     1      -9.768  15.503  67.128  1.00  0.00    -0.226 C  
HETATM   28  H   UNL     1     -10.597  13.953  70.000  1.00  0.00     0.000 HD 
HETATM   29  C   UNL     1     -10.076  14.751  65.820  1.00  0.00    -0.364 C  
HETATM   30  C   UNL     1     -10.912  15.572  64.844  1.00  0.00    -0.452 C  
ENDBRANCH  16  21
TORSDOF 1
ENDMDL
MODEL        3
REMARK 921   NORMALIZED FREE ENERGY PREDICTED BY IDOCK:   -7.12 KCAL/MOL
REMARK 922        TOTAL FREE ENERGY PREDICTED BY IDOCK:   -8.26 KCAL/MOL
REMARK 923 INTER-LIGAND FREE ENERGY PREDICTED BY IDOCK:   -7.78 KCAL/MOL
REMARK 924 INTRA-LIGAND FREE ENERGY PREDICTED BY IDOCK:   -0.48 KCAL/MOL
REMARK 927      BINDING AFFINITY PREDICTED BY RF-SCORE:    0.00 PKD
ROOT
HETATM    1  C   UNL     1     -13.675   7.344  71.687  1.00  0.00    -0.468 C  
HETATM    2  C   UNL     1     -12.779   8.500  71.218  1.00  0.00    -0.221 C  
HETATM    3  C   UNL     1     -11.252   8.236  71.379  1.00  0.00    -0.304 C  
HETATM    4  C   UNL     1     -13.211   9.785  71.930  1.00  0.00    -0.545 C  
HETATM    5  C   UNL     1     -10.798   7.095  70.495  1.00  0.00    -0.269 C  
HETATM    6  C   UNL     1     -10.807   7.973  72.819  1.00  0.00    -0.438 C  
HETATM    7  C   UNL     1      -9.601   7.037  69.889  1.00  0.00    -0.159 C  
HETATM    8  C   UNL     1      -9.157   5.971  68.901  1.00  0.00    -0.121 C  
HETATM    9  C   UNL     1      -9.230   6.433  67.395  1.00  0.00    -0.117 C  
HETATM   10  C   UNL     1      -9.876   4.619  69.111  1.00  0.00    -0.242 C  
HETATM   11  C   UNL     1     -10.660   6.810  66.984  1.00  0.00    -0.405 C  
HETATM   12  C   UNL     1     -10.776   8.318  67.149  1.00  0.00    -0.240 C  
HETATM   13  C   UNL     1      -9.350   8.892  67.276  1.00  0.00    -0.173 C  
HETATM   14  C   UNL     1      -9.167  10.182  66.478  1.00  0.00    -0.182 C  
HETATM   15  C   UNL     1      -7.835  10.302  65.781  1.00  0.00    -0.145 C  
HETATM   16  C   UNL     1     -10.119  11.140  66.466  1.00  0.00    -0.265 C  
HETATM   17  C   UNL     1      -7.028   7.724  67.699  1.00  0.00    -0.081 C  
HETATM   18  C   UNL     1      -7.443   9.052  64.980  1.00  0.00    -0.097 C  
HETATM   19  C   UNL     1      -8.387   7.698  66.961  1.00  0.00    -0.124 C  
HETATM   20  C   UNL     1      -8.093   7.732  65.439  1.00  0.00    -0.131 C  
ENDROOT
BRANCH  16  21
HETATM   21  C   UNL     1      -9.915  12.499  66.025  1.00  0.00    -0.269 C  
HETATM   22  C   UNL     1     -10.582  13.605  66.405  1.00  0.00    -0.284 C  
HETATM   23  C   UNL     1     -11.860  13.660  67.225  1.00  0.00    -0.429 C  
HETATM   24  C   UNL     1     -11.626  14.376  68.560  1.00  0.00    -0.314 C  
HETATM   25  C   UNL     1     -10.949  15.734  68.377  1.00  0.00    -0.323 C  
HETATM   26  O   UNL     1     -10.843  13.555  69.427  1.00  0.00    -0.432 OA 
HETATM   27  C   UNL     1      -9.694  15.655  67.500  1.00  0.00    -0.222 C  
HETATM   28  H   UNL     1     -10.698  13.999  70.254  1.00  0.00     0.000 HD 
HETATM   29  C   UNL     1      -9.936  14.961  66.147  1.00  0.00    -0.323 C  
HETATM   30  C   UNL     1     -10.708  15.831  65.161  1.00  0.00    -0.455 C  
ENDBRANCH  16  21
TORSDOF 1
ENDMDL
MODEL        4
REMARK 921   NORMALIZED FREE ENERGY PREDICTED BY IDOCK:   -7.10 KCAL/MOL
REMARK 922        TOTAL FREE ENERGY PREDICTED BY IDOCK:   -8.23 KCAL/MOL
REMARK 923 INTER-LIGAND FREE ENERGY PREDICTED BY IDOCK:   -7.75 KCAL/MOL
REMARK 924 INTRA-LIGAND FREE ENERGY PREDICTED BY IDOCK:   -0.48 KCAL/MOL
REMARK 927      BINDING AFFINITY PREDICTED BY RF-SCORE:    0.00 PKD
ROOT
HETATM    1  C   UNL     1      -6.610   5.024  68.401  1.00  0.00    -0.045 C  
HETATM    2  C   UNL     1      -7.691   6.005  67.923  1.00  0.00    -0.098 C  
HETATM    3  C   UNL     1      -9.152   5.507  68.136  1.00  0.00    -0.111 C  
HETATM    4  C   UNL     1      -7.422   6.367  66.459  1.00  0.00    -0.086 C  
HETATM    5  C   UNL     1      -9.472   5.364  69.608  1.00  0.00    -0.194 C  
HETATM    6  C   UNL     1      -9.482   4.199  67.414  1.00  0.00    -0.223 C  
HETATM    7  C   UNL     1     -10.674   5.618  70.149  1.00  0.00    -0.376 C  
HETATM    8  C   UNL     1     -11.001   5.604  71.634  1.00  0.00    -0.277 C  
HETATM    9  C   UNL     1     -11.071   7.040  72.281  1.00  0.00    -0.287 C  
HETATM   10  C   UNL     1     -10.078   4.664  72.444  1.00  0.00    -0.239 C  
HETATM   11  C   UNL     1      -9.736   7.786  72.157  1.00  0.00    -0.240 C  
HETATM   12  C   UNL     1      -9.839   8.659  70.915  1.00  0.00    -0.256 C  
HETATM   13  C   UNL     1     -11.327   8.743  70.518  1.00  0.00    -0.255 C  
HETATM   14  C   UNL     1     -11.740  10.154  70.101  1.00  0.00    -0.330 C  
HETATM   15  C   UNL     1     -13.106  10.573  70.581  1.00  0.00    -0.278 C  
HETATM   16  C   UNL     1     -10.943  10.914  69.318  1.00  0.00    -0.295 C  
HETATM   17  C   UNL     1     -13.424   7.354  71.295  1.00  0.00    -0.339 C  
HETATM   18  C   UNL     1     -13.345  10.307  72.073  1.00  0.00    -0.466 C  
HETATM   19  C   UNL     1     -12.114   8.073  71.694  1.00  0.00    -0.339 C  
HETATM   20  C   UNL     1     -12.484   9.193  72.700  1.00  0.00    -0.138 C  
ENDROOT
BRANCH  16  21
HETATM   21  C   UNL     1     -11.370  12.100  68.614  1.00  0.00    -0.330 C  
HETATM   22  C   UNL     1     -10.850  12.633  67.492  1.00  0.00    -0.267 C  
HETATM   23  C   UNL     1      -9.547  12.239  66.818  1.00  0.00    -0.220 C  
HETATM   24  C   UNL     1      -9.803  11.678  65.414  1.00  0.00    -0.238 C  
HETATM   25  C   UNL     1     -10.681  12.604  64.572  1.00  0.00    -0.368 C  
HETATM   26  O   UNL     1     -10.404  10.386  65.503  1.00  0.00    -0.264 OA 
HETATM   27  C   UNL     1     -11.961  13.028  65.302  1.00  0.00    -0.446 C  
HETATM   28  H   UNL     1     -10.563  10.039  64.633  1.00  0.00     0.000 HD 
HETATM   29  C   UNL     1     -11.701  13.618  66.700  1.00  0.00    -0.420 C  
HETATM   30  C   UNL     1     -11.126  15.028  66.654  1.00  0.00    -0.326 C  
ENDBRANCH  16  21
TORSDOF 1
ENDMDL
MODEL        5
REMARK 921   NORMALIZED FREE ENERGY PREDICTED BY IDOCK:   -7.08 KCAL/MOL
REMARK 922        TOTAL FREE ENERGY PREDICTED BY IDOCK:   -8.22 KCAL/MOL
REMARK 923 INTER-LIGAND FREE ENERGY PREDICTED BY IDOCK:   -7.73 KCAL/MOL
REMARK 924 INTRA-LIGAND FREE ENERGY PREDICTED BY IDOCK:   -0.49 KCAL/MOL
REMARK 927      BINDING AFFINITY PREDICTED BY RF-SCORE:    0.00 PKD
ROOT
HETATM    1  C   UNL     1      -6.429   4.877  69.441  1.00  0.00    -0.035 C  
HETATM    2  C   UNL     1      -7.486   5.739  68.734  1.00  0.00    -0.085 C  
HETATM    3  C   UNL     1      -8.951   5.241  68.917  1.00  0.00    -0.120 C  
HETATM    4  C   UNL     1      -7.112   5.872  67.255  1.00  0.00    -0.074 C  
HETATM    5  C   UNL     1      -9.380   5.324  70.366  1.00  0.00    -0.208 C  
HETATM    6  C   UNL     1      -9.204   3.826  68.392  1.00  0.00    -0.213 C  
HETATM    7  C   UNL     1     -10.624   5.627  70.769  1.00  0.00    -0.335 C  
HETATM    8  C   UNL     1     -11.064   5.839  72.209  1.00  0.00    -0.330 C  
HETATM    9  C   UNL     1     -11.206   7.357  72.611  1.00  0.00    -0.379 C  
HETATM   10  C   UNL     1     -10.191   5.066  73.225  1.00  0.00    -0.209 C  
HETATM   11  C   UNL     1      -9.877   8.111  72.468  1.00  0.00    -0.363 C  
HETATM   12  C   UNL     1      -9.899   8.773  71.097  1.00  0.00    -0.313 C  
HETATM   13  C   UNL     1     -11.353   8.752  70.585  1.00  0.00    -0.289 C  
HETATM   14  C   UNL     1     -11.755  10.067  69.918  1.00  0.00    -0.190 C  
HETATM   15  C   UNL     1     -13.161  10.518  70.223  1.00  0.00    -0.023 C  
HETATM   16  C   UNL     1     -10.913  10.715  69.083  1.00  0.00    -0.296 C  
HETATM   17  C   UNL     1     -13.481   7.445  71.419  1.00  0.00    -0.405 C  
HETATM   18  C   UNL     1     -13.509  10.485  71.718  1.00  0.00    -0.345 C  
HETATM   19  C   UNL     1     -12.217   8.254  71.792  1.00  0.00    -0.367 C  
HETATM   20  C   UNL     1     -12.680   9.509  72.576  1.00  0.00    -0.207 C  
ENDROOT
BRANCH  16  21
HETATM   21  C   UNL     1     -11.304  11.762  68.169  1.00  0.00    -0.348 C  
HETATM   22  C   UNL     1     -10.742  12.087  66.989  1.00  0.00    -0.280 C  
HETATM   23  C   UNL     1      -9.423  11.573  66.438  1.00  0.00    -0.230 C  
HETATM   24  C   UNL     1      -9.641  10.776  65.146  1.00  0.00    -0.245 C  
HETATM   25  C   UNL     1     -10.481  11.546  64.126  1.00  0.00    -0.408 C  
HETATM   26  O   UNL     1     -10.260   9.524  65.439  1.00  0.00    -0.311 OA 
HETATM   27  C   UNL     1     -11.779  12.099  64.728  1.00  0.00    -0.390 C  
HETATM   28  H   UNL     1     -10.396   9.031  64.639  1.00  0.00     0.000 HD 
HETATM   29  C   UNL     1     -11.557  12.923  66.010  1.00  0.00    -0.424 C  
HETATM   30  C   UNL     1     -10.963  14.300  65.737  1.00  0.00    -0.305 C  
ENDBRANCH  16  21
TORSDOF 1
ENDMDL
MODEL        6
REMARK 921   NORMALIZED FREE ENERGY PREDICTED BY IDOCK:   -6.80 KCAL/MOL
REMARK 922        TOTAL FREE ENERGY PREDICTED BY IDOCK:   -7.92 KCAL/MOL
REMARK 923 INTER-LIGAND FREE ENERGY PREDICTED BY IDOCK:   -7.41 KCAL/MOL
REMARK 924 INTRA-LIGAND FREE ENERGY PREDICTED BY IDOCK:   -0.51 KCAL/MOL
REMARK 927      BINDING AFFINITY PREDICTED BY RF-SCORE:    0.00 PKD
ROOT
HETATM    1  C   UNL     1      -6.844   9.788  70.640  1.00  0.00    -0.108 C  
HETATM    2  C   UNL     1      -6.786  11.030  69.740  1.00  0.00    -0.136 C  
HETATM    3  C   UNL     1      -6.737  10.718  68.214  1.00  0.00    -0.063 C  
HETATM    4  C   UNL     1      -5.608  11.907  70.177  1.00  0.00    -0.133 C  
HETATM    5  C   UNL     1      -8.011  10.043  67.753  1.00  0.00    -0.105 C  
HETATM    6  C   UNL     1      -5.532   9.880  67.781  1.00  0.00    -0.039 C  
HETATM    7  C   UNL     1      -8.577  10.237  66.551  1.00  0.00    -0.136 C  
HETATM    8  C   UNL     1      -9.915   9.675  66.098  1.00  0.00    -0.346 C  
HETATM    9  C   UNL     1     -11.095  10.720  66.159  1.00  0.00     0.066 C  
HETATM   10  C   UNL     1     -10.289   8.360  66.820  1.00  0.00    -0.357 C  
HETATM   11  C   UNL     1     -11.324  11.239  67.584  1.00  0.00    -0.352 C  
HETATM   12  C   UNL     1     -10.549  12.543  67.701  1.00  0.00    -0.234 C  
HETATM   13  C   UNL     1     -10.185  13.007  66.276  1.00  0.00    -0.291 C  
HETATM   14  C   UNL     1     -10.375  14.511  66.086  1.00  0.00    -0.305 C  
HETATM   15  C   UNL     1     -10.950  14.904  64.749  1.00  0.00    -0.390 C  
HETATM   16  C   UNL     1      -9.996  15.391  67.038  1.00  0.00    -0.239 C  
HETATM   17  C   UNL     1     -10.267  11.760  63.959  1.00  0.00    -0.387 C  
HETATM   18  C   UNL     1     -12.194  14.097  64.350  1.00  0.00    -0.466 C  
HETATM   19  C   UNL     1     -10.959  12.047  65.312  1.00  0.00    -0.356 C  
HETATM   20  C   UNL     1     -12.328  12.708  65.004  1.00  0.00    -0.561 C  
ENDROOT
BRANCH  16  21
HETATM   21  C   UNL     1      -9.833  16.811  66.829  1.00  0.00    -0.282 C  
HETATM   22  C   UNL     1      -8.857  17.613  67.296  1.00  0.00    -0.240 C  
HETATM   23  C   UNL     1      -7.812  17.259  68.341  1.00  0.00    -0.254 C  
HETATM   24  C   UNL     1      -6.400  17.313  67.746  1.00  0.00    -0.149 C  
HETATM   25  C   UNL     1      -6.129  18.631  67.020  1.00  0.00    -0.177 C  
HETATM   26  O   UNL     1      -6.200  16.217  66.854  1.00  0.00    -0.316 OA 
HETATM   27  C   UNL     1      -7.229  18.987  66.012  1.00  0.00    -0.295 C  
HETATM   28  H   UNL     1      -5.325  16.250  66.485  1.00  0.00     0.000 HD 
HETATM   29  C   UNL     1      -8.645  18.960  66.618  1.00  0.00    -0.312 C  
HETATM   30  C   UNL     1      -8.929  20.154  67.521  1.00  0.00    -0.442 C  
ENDBRANCH  16  21
TORSDOF 1
ENDMDL
MODEL        7
REMARK 921   NORMALIZED FREE ENERGY PREDICTED BY IDOCK:   -6.74 KCAL/MOL
REMARK 922        TOTAL FREE ENERGY PREDICTED BY IDOCK:   -7.85 KCAL/MOL
REMARK 923 INTER-LIGAND FREE ENERGY PREDICTED BY IDOCK:   -7.27 KCAL/MOL
REMARK 924 INTRA-LIGAND FREE ENERGY PREDICTED BY IDOCK:   -0.59 KCAL/MOL
REMARK 927      BINDING AFFINITY PREDICTED BY RF-SCORE:    0.00 PKD
ROOT
HETATM    1  C   UNL     1     -11.666  16.508  72.282  1.00  0.00    -0.348 C  
HETATM    2  C   UNL     1     -11.823  14.998  72.052  1.00  0.00    -0.462 C  
HETATM    3  C   UNL     1     -12.737  14.621  70.848  1.00  0.00    -0.413 C  
HETATM    4  C   UNL     1     -12.298  14.343  73.352  1.00  0.00    -0.146 C  
HETATM    5  C   UNL     1     -12.138  15.088  69.539  1.00  0.00    -0.311 C  
HETATM    6  C   UNL     1     -14.173  15.137  70.963  1.00  0.00    -0.303 C  
HETATM    7  C   UNL     1     -12.244  14.422  68.378  1.00  0.00    -0.178 C  
HETATM    8  C   UNL     1     -11.556  14.794  67.074  1.00  0.00    -0.352 C  
HETATM    9  C   UNL     1     -10.274  13.930  66.765  1.00  0.00    -0.268 C  
HETATM   10  C   UNL     1     -11.258  16.307  66.963  1.00  0.00     0.141 C  
HETATM   11  C   UNL     1      -9.206  14.086  67.856  1.00  0.00    -0.195 C  
HETATM   12  C   UNL     1      -9.399  12.925  68.821  1.00  0.00     0.130 C  
HETATM   13  C   UNL     1     -10.295  11.878  68.129  1.00  0.00    -0.210 C  
HETATM   14  C   UNL     1      -9.810  10.448  68.364  1.00  0.00    -0.173 C  
HETATM   15  C   UNL     1      -9.922   9.545  67.162  1.00  0.00    -0.261 C  
HETATM   16  C   UNL     1      -9.375  10.047  69.578  1.00  0.00    -0.247 C  
HETATM   17  C   UNL     1     -11.779  12.010  65.958  1.00  0.00    -0.311 C  
HETATM   18  C   UNL     1      -9.353  10.156  65.875  1.00  0.00    -0.224 C  
HETATM   19  C   UNL     1     -10.441  12.363  66.648  1.00  0.00    -0.251 C  
HETATM   20  C   UNL     1      -9.304  11.696  65.830  1.00  0.00    -0.232 C  
ENDROOT
BRANCH  16  21
HETATM   21  C   UNL     1      -9.209   8.670  69.980  1.00  0.00    -0.160 C  
HETATM   22  C   UNL     1      -9.850   8.007  70.961  1.00  0.00    -0.200 C  
HETATM   23  C   UNL     1     -10.746   8.611  72.030  1.00  0.00    -0.427 C  
HETATM   24  C   UNL     1     -12.182   8.087  71.904  1.00  0.00    -0.319 C  
HETATM   25  C   UNL     1     -12.236   6.561  71.838  1.00  0.00    -0.373 C  
HETATM   26  O   UNL     1     -12.809   8.646  70.750  1.00  0.00    -0.487 OA 
HETATM   27  C   UNL     1     -11.281   5.980  70.788  1.00  0.00    -0.340 C  
HETATM   28  H   UNL     1     -13.698   8.322  70.671  1.00  0.00     0.000 HD 
HETATM   29  C   UNL     1      -9.833   6.484  70.933  1.00  0.00    -0.201 C  
HETATM   30  C   UNL     1      -9.100   5.857  72.113  1.00  0.00    -0.145 C  
ENDBRANCH  16  21
TORSDOF 1
ENDMDL
MODEL        8
REMARK 921   NORMALIZED FREE ENERGY PREDICTED BY IDOCK:   -6.69 KCAL/MOL
REMARK 922        TOTAL FREE ENERGY PREDICTED BY IDOCK:   -7.80 KCAL/MOL
REMARK 923 INTER-LIGAND FREE ENERGY PREDICTED BY IDOCK:   -7.27 KCAL/MOL
REMARK 924 INTRA-LIGAND FREE ENERGY PREDICTED BY IDOCK:   -0.53 KCAL/MOL
REMARK 927      BINDING AFFINITY PREDICTED BY RF-SCORE:    0.00 PKD
ROOT
HETATM    1  C   UNL     1     -12.298   6.976  71.882  1.00  0.00    -0.358 C  
HETATM    2  C   UNL     1     -11.743   8.177  71.103  1.00  0.00    -0.309 C  
HETATM    3  C   UNL     1     -10.190   8.204  70.982  1.00  0.00    -0.221 C  
HETATM    4  C   UNL     1     -12.286   9.468  71.724  1.00  0.00    -0.465 C  
HETATM    5  C   UNL     1      -9.684   7.030  70.172  1.00  0.00    -0.176 C  
HETATM    6  C   UNL     1      -9.455   8.251  72.323  1.00  0.00    -0.341 C  
HETATM    7  C   UNL     1      -8.625   7.080  69.348  1.00  0.00    -0.134 C  
HETATM    8  C   UNL     1      -8.161   5.961  68.428  1.00  0.00    -0.109 C  
HETATM    9  C   UNL     1      -8.588   6.161  66.923  1.00  0.00    -0.109 C  
HETATM   10  C   UNL     1      -8.553   4.558  68.945  1.00  0.00    -0.101 C  
HETATM   11  C   UNL     1     -10.113   6.221  66.767  1.00  0.00    -0.237 C  
HETATM   12  C   UNL     1     -10.492   7.695  66.766  1.00  0.00    -0.319 C  
HETATM   13  C   UNL     1      -9.206   8.514  66.530  1.00  0.00    -0.239 C  
HETATM   14  C   UNL     1      -9.423   9.673  65.559  1.00  0.00    -0.330 C  
HETATM   15  C   UNL     1      -8.285   9.904  64.597  1.00  0.00    -0.153 C  
HETATM   16  C   UNL     1     -10.531  10.442  65.623  1.00  0.00    -0.185 C  
HETATM   17  C   UNL     1      -6.663   7.836  66.614  1.00  0.00    -0.066 C  
HETATM   18  C   UNL     1      -7.803   8.628  63.893  1.00  0.00    -0.147 C  
HETATM   19  C   UNL     1      -8.099   7.465  66.176  1.00  0.00    -0.117 C  
HETATM   20  C   UNL     1      -8.090   7.306  64.633  1.00  0.00    -0.081 C  
ENDROOT
BRANCH  16  21
HETATM   21  C   UNL     1     -10.678  11.730  64.986  1.00  0.00    -0.344 C  
HETATM   22  C   UNL     1     -11.174  12.866  65.512  1.00  0.00    -0.319 C  
HETATM   23  C   UNL     1     -11.905  13.011  66.836  1.00  0.00    -0.442 C  
HETATM   24  C   UNL     1     -11.124  13.913  67.799  1.00  0.00    -0.262 C  
HETATM   25  C   UNL     1     -10.734  15.244  67.157  1.00  0.00    -0.316 C  
HETATM   26  O   UNL     1      -9.955  13.237  68.266  1.00  0.00    -0.228 OA 
HETATM   27  C   UNL     1     -10.048  15.065  65.797  1.00  0.00    -0.367 C  
HETATM   28  H   UNL     1      -9.471  13.796  68.862  1.00  0.00     0.000 HD 
HETATM   29  C   UNL     1     -10.847  14.183  64.820  1.00  0.00    -0.426 C  
HETATM   30  C   UNL     1     -12.066  14.891  64.240  1.00  0.00    -0.373 C  
ENDBRANCH  16  21
TORSDOF 1
ENDMDL
MODEL        9
REMARK 921   NORMALIZED FREE ENERGY PREDICTED BY IDOCK:   -6.54 KCAL/MOL
REMARK 922        TOTAL FREE ENERGY PREDICTED BY IDOCK:   -7.65 KCAL/MOL
REMARK 923 INTER-LIGAND FREE ENERGY PREDICTED BY IDOCK:   -7.19 KCAL/MOL
REMARK 924 INTRA-LIGAND FREE ENERGY PREDICTED BY IDOCK:   -0.45 KCAL/MOL
REMARK 927      BINDING AFFINITY PREDICTED BY RF-SCORE:    0.00 PKD
ROOT
HETATM    1  C   UNL     1     -10.733  14.475  64.707  1.00  0.00    -0.414 C  
HETATM    2  C   UNL     1     -11.169  13.185  65.417  1.00  0.00    -0.315 C  
HETATM    3  C   UNL     1     -11.284  11.943  64.483  1.00  0.00    -0.380 C  
HETATM    4  C   UNL     1     -12.475  13.450  66.173  1.00  0.00    -0.389 C  
HETATM    5  C   UNL     1      -9.936  11.560  63.914  1.00  0.00    -0.360 C  
HETATM    6  C   UNL     1     -12.291  12.105  63.343  1.00  0.00    -0.648 C  
HETATM    7  C   UNL     1      -9.547  10.297  63.676  1.00  0.00    -0.334 C  
HETATM    8  C   UNL     1      -8.161   9.866  63.221  1.00  0.00    -0.158 C  
HETATM    9  C   UNL     1      -7.263   9.292  64.383  1.00  0.00    -0.097 C  
HETATM   10  C   UNL     1      -7.420  10.965  62.426  1.00  0.00    -0.096 C  
HETATM   11  C   UNL     1      -7.032  10.329  65.489  1.00  0.00    -0.138 C  
HETATM   12  C   UNL     1      -8.079  10.062  66.561  1.00  0.00    -0.119 C  
HETATM   13  C   UNL     1      -8.675   8.663  66.303  1.00  0.00    -0.165 C  
HETATM   14  C   UNL     1      -8.865   7.864  67.591  1.00  0.00    -0.128 C  
HETATM   15  C   UNL     1      -8.527   6.399  67.473  1.00  0.00    -0.116 C  
HETATM   16  C   UNL     1      -9.352   8.444  68.709  1.00  0.00    -0.143 C  
HETATM   17  C   UNL     1      -8.516   7.053  64.225  1.00  0.00     0.267 C  
HETATM   18  C   UNL     1      -7.171   6.130  66.808  1.00  0.00    -0.074 C  
HETATM   19  C   UNL     1      -7.788   8.030  65.178  1.00  0.00    -0.116 C  
HETATM   20  C   UNL     1      -6.650   7.242  65.876  1.00  0.00    -0.052 C  
ENDROOT
BRANCH  16  21
HETATM   21  C   UNL     1      -9.866   7.726  69.852  1.00  0.00    -0.177 C  
HETATM   22  C   UNL     1     -10.546   8.218  70.906  1.00  0.00    -0.239 C  
HETATM   23  C   UNL     1     -10.743   9.683  71.256  1.00  0.00    -0.317 C  
HETATM   24  C   UNL     1     -12.228  10.065  71.205  1.00  0.00    -0.402 C  
HETATM   25  C   UNL     1     -13.098   9.109  72.022  1.00  0.00    -0.497 C  
HETATM   26  O   UNL     1     -12.681  10.099  69.852  1.00  0.00    -0.550 OA 
HETATM   27  C   UNL     1     -12.835   7.637  71.685  1.00  0.00    -0.378 C  
HETATM   28  H   UNL     1     -13.600  10.335  69.821  1.00  0.00     0.000 HD 
HETATM   29  C   UNL     1     -11.348   7.247  71.763  1.00  0.00    -0.285 C  
HETATM   30  C   UNL     1     -10.838   7.127  73.194  1.00  0.00    -0.373 C  
ENDBRANCH  16  21
TORSDOF 1
ENDMDL
MODEL       10
REMARK 921   NORMALIZED FREE ENERGY PREDICTED BY IDOCK:   -6.37 KCAL/MOL
REMARK 922        TOTAL FREE ENERGY PREDICTED BY IDOCK:   -7.47 KCAL/MOL
REMARK 923 INTER-LIGAND FREE ENERGY PREDICTED BY IDOCK:   -6.95 KCAL/MOL
REMARK 924 INTRA-LIGAND FREE ENERGY PREDICTED BY IDOCK:   -0.52 KCAL/MOL
REMARK 927      BINDING AFFINITY PREDICTED BY RF-SCORE:    0.00 PKD
ROOT
HETATM    1  C   UNL     1     -14.044   7.395  71.373  1.00  0.00    -0.491 C  
HETATM    2  C   UNL     1     -13.037   8.552  71.299  1.00  0.00    -0.167 C  
HETATM    3  C   UNL     1     -11.554   8.130  71.521  1.00  0.00    -0.315 C  
HETATM    4  C   UNL     1     -13.468   9.650  72.277  1.00  0.00    -0.488 C  
HETATM    5  C   UNL     1     -11.075   7.213  70.418  1.00  0.00    -0.309 C  
HETATM    6  C   UNL     1     -11.282   7.479  72.879  1.00  0.00    -0.396 C  
HETATM    7  C   UNL     1      -9.825   7.209  69.926  1.00  0.00    -0.174 C  
HETATM    8  C   UNL     1      -9.340   6.392  68.740  1.00  0.00    -0.125 C  
HETATM    9  C   UNL     1      -9.224   7.221  67.404  1.00  0.00    -0.140 C  
HETATM   10  C   UNL     1     -10.155   5.095  68.530  1.00  0.00    -0.214 C  
HETATM   11  C   UNL     1     -10.577   7.807  66.978  1.00  0.00    -0.396 C  
HETATM   12  C   UNL     1     -10.622   9.230  67.515  1.00  0.00    -0.329 C  
HETATM   13  C   UNL     1      -9.187   9.632  67.912  1.00  0.00    -0.134 C  
HETATM   14  C   UNL     1      -8.845  11.061  67.493  1.00  0.00    -0.131 C  
HETATM   15  C   UNL     1      -7.442  11.240  66.972  1.00  0.00    -0.139 C  
HETATM   16  C   UNL     1      -9.734  12.067  67.645  1.00  0.00    -0.187 C  
HETATM   17  C   UNL     1      -6.996   8.206  68.224  1.00  0.00    -0.076 C  
HETATM   18  C   UNL     1      -7.039  10.203  65.914  1.00  0.00    -0.121 C  
HETATM   19  C   UNL     1      -8.268   8.479  67.387  1.00  0.00    -0.109 C  
HETATM   20  C   UNL     1      -7.810   8.869  65.958  1.00  0.00    -0.102 C  
ENDROOT
BRANCH  16  21
HETATM   21  C   UNL     1      -9.405  13.472  67.589  1.00  0.00    -0.216 C  
HETATM   22  C   UNL     1      -9.529  14.314  66.545  1.00  0.00    -0.306 C  
HETATM   23  C   UNL     1      -9.839  13.938  65.106  1.00  0.00    -0.135 C  
HETATM   24  C   UNL     1     -11.175  14.541  64.656  1.00  0.00    -0.353 C  
HETATM   25  C   UNL     1     -11.255  16.042  64.936  1.00  0.00    -0.319 C  
HETATM   26  O   UNL     1     -12.258  13.868  65.297  1.00  0.00    -0.386 OA 
HETATM   27  C   UNL     1     -10.883  16.394  66.382  1.00  0.00    -0.065 C  
HETATM   28  H   UNL     1     -13.086  14.242  65.019  1.00  0.00     0.000 HD 
HETATM   29  C   UNL     1      -9.528  15.812  66.824  1.00  0.00    -0.259 C  
HETATM   30  C   UNL     1      -8.338  16.548  66.219  1.00  0.00    -0.364 C  
ENDBRANCH  16  21
TORSDOF 1
ENDMDL
MODEL       11
REMARK 921   NORMALIZED FREE ENERGY PREDICTED BY IDOCK:   -6.35 KCAL/MOL
REMARK 922        TOTAL FREE ENERGY PREDICTED BY IDOCK:   -7.45 KCAL/MOL
REMARK 923 INTER-LIGAND FREE ENERGY PREDICTED BY IDOCK:   -6.92 KCAL/MOL
REMARK 924 INTRA-LIGAND FREE ENERGY PREDICTED BY IDOCK:   -0.53 KCAL/MOL
REMARK 927      BINDING AFFINITY PREDICTED BY RF-SCORE:    0.00 PKD
ROOT
HETATM    1  C   UNL     1     -13.911   6.597  71.692  1.00  0.00    -0.058 C  
HETATM    2  C   UNL     1     -13.073   7.865  71.474  1.00  0.00    -0.343 C  
HETATM    3  C   UNL     1     -11.546   7.678  71.717  1.00  0.00    -0.307 C  
HETATM    4  C   UNL     1     -13.650   8.996  72.332  1.00  0.00    -0.533 C  
HETATM    5  C   UNL     1     -10.946   6.717  70.713  1.00  0.00    -0.306 C  
HETATM    6  C   UNL     1     -11.185   7.225  73.133  1.00  0.00    -0.263 C  
HETATM    7  C   UNL     1      -9.709   6.830  70.205  1.00  0.00    -0.175 C  
HETATM    8  C   UNL     1      -9.117   5.959  69.108  1.00  0.00    -0.125 C  
HETATM    9  C   UNL     1      -9.118   6.642  67.687  1.00  0.00    -0.112 C  
HETATM   10  C   UNL     1      -9.745   4.547  69.056  1.00  0.00    -0.235 C  
HETATM   11  C   UNL     1     -10.539   6.986  67.221  1.00  0.00    -0.395 C  
HETATM   12  C   UNL     1     -10.780   8.440  67.599  1.00  0.00    -0.191 C  
HETATM   13  C   UNL     1      -9.414   9.077  67.925  1.00  0.00    -0.159 C  
HETATM   14  C   UNL     1      -9.272  10.483  67.345  1.00  0.00    -0.154 C  
HETATM   15  C   UNL     1      -7.908  10.793  66.784  1.00  0.00    -0.135 C  
HETATM   16  C   UNL     1     -10.291  11.369  67.399  1.00  0.00    -0.232 C  
HETATM   17  C   UNL     1      -7.046   8.008  68.357  1.00  0.00    -0.084 C  
HETATM   18  C   UNL     1      -7.367   9.710  65.841  1.00  0.00    -0.099 C  
HETATM   19  C   UNL     1      -8.344   8.009  67.515  1.00  0.00    -0.123 C  
HETATM   20  C   UNL     1      -7.946   8.296  66.044  1.00  0.00    -0.098 C  
ENDROOT
BRANCH  16  21
HETATM   21  C   UNL     1     -10.158  12.791  67.183  1.00  0.00    -0.234 C  
HETATM   22  C   UNL     1     -10.366  13.481  66.046  1.00  0.00    -0.303 C  
HETATM   23  C   UNL     1     -10.576  12.903  64.657  1.00  0.00    -0.384 C  
HETATM   24  C   UNL     1     -11.968  13.255  64.120  1.00  0.00    -0.447 C  
HETATM   25  C   UNL     1     -12.265  14.752  64.220  1.00  0.00    -0.402 C  
HETATM   26  O   UNL     1     -12.967  12.514  64.820  1.00  0.00    -0.827 OA 
HETATM   27  C   UNL     1     -11.991  15.316  65.619  1.00  0.00     0.258 C  
HETATM   28  H   UNL     1     -13.829  12.732  64.488  1.00  0.00     0.000 HD 
HETATM   29  C   UNL     1     -10.582  14.986  66.146  1.00  0.00    -0.314 C  
HETATM   30  C   UNL     1      -9.488  15.809  65.477  1.00  0.00    -0.134 C  
ENDBRANCH  16  21
TORSDOF 1
ENDMDL
MODEL       12
REMARK 921   NORMALIZED FREE ENERGY PREDICTED BY IDOCK:   -6.30 KCAL/MOL
REMARK 922        TOTAL FREE ENERGY PREDICTED BY IDOCK:   -7.39 KCAL/MOL
REMARK 923 INTER-LIGAND FREE ENERGY PREDICTED BY IDOCK:   -6.87 KCAL/MOL
REMARK 924 INTRA-LIGAND FREE ENERGY PREDICTED BY IDOCK:   -0.52 KCAL/MOL
REMARK 927      BINDING AFFINITY PREDICTED BY RF-SCORE:    0.00 PKD
ROOT
HETATM    1  C   UNL     1      -5.485   8.878  64.426  1.00  0.00    -0.055 C  
HETATM    2  C   UNL     1      -6.037  10.278  64.118  1.00  0.00    -0.120 C  
HETATM    3  C   UNL     1      -7.539  10.302  63.704  1.00  0.00    -0.101 C  
HETATM    4  C   UNL     1      -5.147  10.942  63.062  1.00  0.00    -0.179 C  
HETATM    5  C   UNL     1      -8.426   9.848  64.842  1.00  0.00    -0.168 C  
HETATM    6  C   UNL     1      -7.859   9.485  62.451  1.00  0.00    -0.122 C  
HETATM    7  C   UNL     1      -9.649  10.343  65.091  1.00  0.00    -0.329 C  
HETATM    8  C   UNL     1     -10.518  10.000  66.291  1.00  0.00    -0.172 C  
HETATM    9  C   UNL     1     -10.496  11.098  67.423  1.00  0.00    -0.255 C  
HETATM   10  C   UNL     1     -10.227   8.594  66.864  1.00  0.00    -0.367 C  
HETATM   11  C   UNL     1      -9.083  11.311  67.982  1.00  0.00    -0.156 C  
HETATM   12  C   UNL     1      -8.492  12.493  67.228  1.00  0.00    -0.185 C  
HETATM   13  C   UNL     1      -9.646  13.225  66.514  1.00  0.00    -0.267 C  
HETATM   14  C   UNL     1      -9.524  14.745  66.615  1.00  0.00    -0.293 C  
HETATM   15  C   UNL     1     -10.832  15.463  66.834  1.00  0.00    -0.313 C  
HETATM   16  C   UNL     1      -8.334  15.364  66.458  1.00  0.00    -0.184 C  
HETATM   17  C   UNL     1     -12.142  12.522  66.056  1.00  0.00    -0.390 C  
HETATM   18  C   UNL     1     -11.684  14.865  67.961  1.00  0.00    -0.344 C  
HETATM   19  C   UNL     1     -10.959  12.563  67.051  1.00  0.00    -0.306 C  
HETATM   20  C   UNL     1     -11.417  13.382  68.286  1.00  0.00    -0.350 C  
ENDROOT
BRANCH  16  21
HETATM   21  C   UNL     1      -8.166  16.777  66.214  1.00  0.00    -0.359 C  
HETATM   22  C   UNL     1      -7.872  17.745  67.102  1.00  0.00    -0.229 C  
HETATM   23  C   UNL     1      -7.862  17.617  68.616  1.00  0.00    -0.280 C  
HETATM   24  C   UNL     1      -6.455  17.854  69.178  1.00  0.00    -0.243 C  
HETATM   25  C   UNL     1      -5.837  19.153  68.662  1.00  0.00    -0.230 C  
HETATM   26  O   UNL     1      -5.606  16.751  68.859  1.00  0.00    -0.129 OA 
HETATM   27  C   UNL     1      -5.912  19.277  67.135  1.00  0.00    -0.178 C  
HETATM   28  H   UNL     1      -4.735  16.898  69.206  1.00  0.00     0.000 HD 
HETATM   29  C   UNL     1      -7.331  19.068  66.573  1.00  0.00    -0.248 C  
HETATM   30  C   UNL     1      -8.253  20.254  66.828  1.00  0.00    -0.317 C  
ENDBRANCH  16  21
TORSDOF 1
ENDMDL
MODEL       13
REMARK 921   NORMALIZED FREE ENERGY PREDICTED BY IDOCK:   -6.20 KCAL/MOL
REMARK 922        TOTAL FREE ENERGY PREDICTED BY IDOCK:   -7.28 KCAL/MOL
REMARK 923 INTER-LIGAND FREE ENERGY PREDICTED BY IDOCK:   -6.80 KCAL/MOL
REMARK 924 INTRA-LIGAND FREE ENERGY PREDICTED BY IDOCK:   -0.48 KCAL/MOL
REMARK 927      BINDING AFFINITY PREDICTED BY RF-SCORE:    0.00 PKD
ROOT
HETATM    1  C   UNL     1      -6.416  14.339  67.081  1.00  0.00     0.623 C  
HETATM    2  C   UNL     1      -7.027  13.571  68.262  1.00  0.00    -0.108 C  
HETATM    3  C   UNL     1      -7.280  14.438  69.532  1.00  0.00    -0.051 C  
HETATM    4  C   UNL     1      -6.150  12.354  68.572  1.00  0.00    -0.056 C  
HETATM    5  C   UNL     1      -8.319  15.505  69.268  1.00  0.00    -0.257 C  
HETATM    6  C   UNL     1      -6.021  15.085  70.112  1.00  0.00    -0.147 C  
HETATM    7  C   UNL     1      -9.213  15.930  70.174  1.00  0.00     0.673 C  
HETATM    8  C   UNL     1     -10.347  16.909  69.911  1.00  0.00     0.094 C  
HETATM    9  C   UNL     1     -11.752  16.217  69.729  1.00  0.00    -0.193 C  
HETATM   10  C   UNL     1     -10.044  17.883  68.749  1.00  0.00    -0.384 C  
HETATM   11  C   UNL     1     -11.759  15.245  68.542  1.00  0.00    -0.352 C  
HETATM   12  C   UNL     1     -11.477  13.862  69.110  1.00  0.00    -0.345 C  
HETATM   13  C   UNL     1     -11.684  13.927  70.637  1.00  0.00    -0.194 C  
HETATM   14  C   UNL     1     -12.421  12.703  71.178  1.00  0.00    -0.326 C  
HETATM   15  C   UNL     1     -13.427  13.006  72.259  1.00  0.00    -0.645 C  
HETATM   16  C   UNL     1     -12.128  11.459  70.740  1.00  0.00    -0.433 C  
HETATM   17  C   UNL     1     -11.943  15.968  72.280  1.00  0.00    -0.633 C  
HETATM   18  C   UNL     1     -14.378  14.160  71.912  1.00  0.00    -0.541 C  
HETATM   19  C   UNL     1     -12.308  15.335  70.917  1.00  0.00    -0.433 C  
HETATM   20  C   UNL     1     -13.850  15.172  70.876  1.00  0.00    -0.312 C  
ENDROOT
BRANCH  16  21
HETATM   21  C   UNL     1     -12.522  10.238  71.403  1.00  0.00    -0.528 C  
HETATM   22  C   UNL     1     -11.974   9.014  71.284  1.00  0.00    -0.374 C  
HETATM   23  C   UNL     1     -10.947   8.574  70.255  1.00  0.00    -0.245 C  
HETATM   24  C   UNL     1      -9.633   8.162  70.931  1.00  0.00    -0.162 C  
HETATM   25  C   UNL     1      -9.853   7.153  72.057  1.00  0.00    -0.174 C  
HETATM   26  O   UNL     1      -8.959   9.315  71.435  1.00  0.00    -0.311 OA 
HETATM   27  C   UNL     1     -10.935   7.601  73.048  1.00  0.00    -0.457 C  
HETATM   28  H   UNL     1      -8.145   9.061  71.854  1.00  0.00     0.000 HD 
HETATM   29  C   UNL     1     -12.263   7.987  72.372  1.00  0.00    -0.337 C  
HETATM   30  C   UNL     1     -13.053   6.779  71.881  1.00  0.00    -0.195 C  
ENDBRANCH  16  21
TORSDOF 1
ENDMDL
MODEL       14
REMARK 921   NORMALIZED FREE ENERGY PREDICTED BY IDOCK:   -6.12 KCAL/MOL
REMARK 922        TOTAL FREE ENERGY PREDICTED BY IDOCK:   -7.20 KCAL/MOL
REMARK 923 INTER-LIGAND FREE ENERGY PREDICTED BY IDOCK:   -6.69 KCAL/MOL
REMARK 924 INTRA-LIGAND FREE ENERGY PREDICTED BY IDOCK:   -0.51 KCAL/MOL
REMARK 927      BINDING AFFINITY PREDICTED BY RF-SCORE:    0.00 PKD
ROOT
HETATM    1  C   UNL     1     -14.199   7.546  71.338  1.00  0.00    -0.523 C  
HETATM    2  C   UNL     1     -13.190   8.696  71.458  1.00  0.00    -0.335 C  
HETATM    3  C   UNL     1     -11.711   8.240  71.638  1.00  0.00    -0.341 C  
HETATM    4  C   UNL     1     -13.636   9.634  72.585  1.00  0.00    -0.177 C  
HETATM    5  C   UNL     1     -11.214   7.500  70.415  1.00  0.00    -0.270 C  
HETATM    6  C   UNL     1     -11.463   7.388  72.885  1.00  0.00    -0.269 C  
HETATM    7  C   UNL     1      -9.957   7.567  69.950  1.00  0.00    -0.189 C  
HETATM    8  C   UNL     1      -9.452   6.938  68.661  1.00  0.00    -0.134 C  
HETATM    9  C   UNL     1      -9.313   7.961  67.469  1.00  0.00    -0.166 C  
HETATM   10  C   UNL     1     -10.265   5.691  68.242  1.00  0.00    -0.239 C  
HETATM   11  C   UNL     1     -10.657   8.610  67.116  1.00  0.00    -0.304 C  
HETATM   12  C   UNL     1     -10.710   9.935  67.863  1.00  0.00    -0.316 C  
HETATM   13  C   UNL     1      -9.281  10.266  68.341  1.00  0.00    -0.136 C  
HETATM   14  C   UNL     1      -8.930  11.741  68.151  1.00  0.00    -0.181 C  
HETATM   15  C   UNL     1      -7.518  11.992  67.686  1.00  0.00    -0.132 C  
HETATM   16  C   UNL     1      -9.820  12.716  68.439  1.00  0.00    -0.200 C  
HETATM   17  C   UNL     1      -7.098   8.800  68.468  1.00  0.00    -0.073 C  
HETATM   18  C   UNL     1      -7.099  11.127  66.489  1.00  0.00    -0.124 C  
HETATM   19  C   UNL     1      -8.354   9.204  67.661  1.00  0.00    -0.116 C  
HETATM   20  C   UNL     1      -7.872   9.805  66.316  1.00  0.00    -0.106 C  
ENDROOT
BRANCH  16  21
HETATM   21  C   UNL     1      -9.488  14.111  68.604  1.00  0.00    -0.163 C  
HETATM   22  C   UNL     1      -9.348  15.051  67.650  1.00  0.00    -0.194 C  
HETATM   23  C   UNL     1      -9.288  14.820  66.149  1.00  0.00    -0.292 C  
HETATM   24  C   UNL     1     -10.470  15.495  65.442  1.00  0.00    -0.405 C  
HETATM   25  C   UNL     1     -10.619  16.963  65.838  1.00  0.00    -0.239 C  
HETATM   26  O   UNL     1     -11.679  14.790  65.725  1.00  0.00    -0.336 OA 
HETATM   27  C   UNL     1     -10.620  17.168  67.358  1.00  0.00    -0.297 C  
HETATM   28  H   UNL     1     -12.411  15.208  65.287  1.00  0.00     0.000 HD 
HETATM   29  C   UNL     1      -9.418  16.515  68.064  1.00  0.00    -0.222 C  
HETATM   30  C   UNL     1      -8.115  17.277  67.849  1.00  0.00    -0.210 C  
ENDBRANCH  16  21
TORSDOF 1
ENDMDL
MODEL       15
REMARK 921   NORMALIZED FREE ENERGY PREDICTED BY IDOCK:   -6.10 KCAL/MOL
REMARK 922        TOTAL FREE ENERGY PREDICTED BY IDOCK:   -7.18 KCAL/MOL
REMARK 923 INTER-LIGAND FREE ENERGY PREDICTED BY IDOCK:   -6.40 KCAL/MOL
REMARK 924 INTRA-LIGAND FREE ENERGY PREDICTED BY IDOCK:   -0.77 KCAL/MOL
REMARK 927      BINDING AFFINITY PREDICTED BY RF-SCORE:    0.00 PKD
ROOT
HETATM    1  C   UNL     1     -13.603   7.409  71.645  1.00  0.00    -0.449 C  
HETATM    2  C   UNL     1     -12.793   8.645  71.228  1.00  0.00    -0.220 C  
HETATM    3  C   UNL     1     -11.251   8.491  71.395  1.00  0.00    -0.327 C  
HETATM    4  C   UNL     1     -13.326   9.867  71.982  1.00  0.00    -0.532 C  
HETATM    5  C   UNL     1     -10.706   7.421  70.475  1.00  0.00    -0.247 C  
HETATM    6  C   UNL     1     -10.799   8.208  72.830  1.00  0.00    -0.390 C  
HETATM    7  C   UNL     1      -9.503   7.477  69.881  1.00  0.00    -0.160 C  
HETATM    8  C   UNL     1      -8.971   6.485  68.858  1.00  0.00    -0.128 C  
HETATM    9  C   UNL     1      -9.067   6.997  67.370  1.00  0.00    -0.124 C  
HETATM   10  C   UNL     1      -9.588   5.075  69.010  1.00  0.00    -0.214 C  
HETATM   11  C   UNL     1     -10.518   7.280  66.957  1.00  0.00    -0.398 C  
HETATM   12  C   UNL     1     -10.749   8.768  67.177  1.00  0.00    -0.204 C  
HETATM   13  C   UNL     1      -9.371   9.442  67.341  1.00  0.00    -0.151 C  
HETATM   14  C   UNL     1      -9.280  10.771  66.593  1.00  0.00    -0.184 C  
HETATM   15  C   UNL     1      -7.956  11.017  65.915  1.00  0.00    -0.054 C  
HETATM   16  C   UNL     1     -10.302  11.655  66.607  1.00  0.00    -0.257 C  
HETATM   17  C   UNL     1      -6.972   8.437  67.745  1.00  0.00    -0.075 C  
HETATM   18  C   UNL     1      -7.464   9.832  65.072  1.00  0.00    -0.127 C  
HETATM   19  C   UNL     1      -8.319   8.337  66.992  1.00  0.00    -0.122 C  
HETATM   20  C   UNL     1      -8.016   8.450  65.475  1.00  0.00    -0.115 C  
ENDROOT
BRANCH  16  21
HETATM   21  C   UNL     1     -10.197  13.042  66.218  1.00  0.00    -0.291 C  
HETATM   22  C   UNL     1      -9.842  14.094  66.980  1.00  0.00    -0.258 C  
HETATM   23  C   UNL     1      -9.680  14.108  68.491  1.00  0.00    -0.219 C  
HETATM   24  C   UNL     1      -8.232  14.421  68.885  1.00  0.00    -0.082 C  
HETATM   25  C   UNL     1      -7.703  15.677  68.193  1.00  0.00    -0.127 C  
HETATM   26  O   UNL     1      -7.390  13.308  68.584  1.00  0.00    -0.104 OA 
HETATM   27  C   UNL     1      -7.931  15.656  66.677  1.00  0.00    -0.185 C  
HETATM   28  H   UNL     1      -6.492  13.502  68.828  1.00  0.00     0.000 HD 
HETATM   29  C   UNL     1      -9.391  15.370  66.282  1.00  0.00    -0.351 C  
HETATM   30  C   UNL     1     -10.316  16.559  66.518  1.00  0.00    -0.307 C  
ENDBRANCH  16  21
TORSDOF 1
ENDMDL
MODEL       16
REMARK 921   NORMALIZED FREE ENERGY PREDICTED BY IDOCK:   -6.09 KCAL/MOL
REMARK 922        TOTAL FREE ENERGY PREDICTED BY IDOCK:   -7.17 KCAL/MOL
REMARK 923 INTER-LIGAND FREE ENERGY PREDICTED BY IDOCK:   -6.72 KCAL/MOL
REMARK 924 INTRA-LIGAND FREE ENERGY PREDICTED BY IDOCK:   -0.45 KCAL/MOL
REMARK 927      BINDING AFFINITY PREDICTED BY RF-SCORE:    0.00 PKD
ROOT
HETATM    1  C   UNL     1      -7.023   9.113  71.176  1.00  0.00    -0.089 C  
HETATM    2  C   UNL     1      -6.679  10.235  70.187  1.00  0.00    -0.146 C  
HETATM    3  C   UNL     1      -6.814   9.835  68.687  1.00  0.00    -0.051 C  
HETATM    4  C   UNL     1      -5.280  10.771  70.507  1.00  0.00    -0.079 C  
HETATM    5  C   UNL     1      -8.250   9.519  68.332  1.00  0.00    -0.113 C  
HETATM    6  C   UNL     1      -5.917   8.670  68.264  1.00  0.00    -0.042 C  
HETATM    7  C   UNL     1      -8.814   9.795  67.145  1.00  0.00    -0.141 C  
HETATM    8  C   UNL     1     -10.281   9.604  66.793  1.00  0.00    -0.308 C  
HETATM    9  C   UNL     1     -11.120  10.939  66.829  1.00  0.00    -0.196 C  
HETATM   10  C   UNL     1     -10.959   8.490  67.624  1.00  0.00     0.092 C  
HETATM   11  C   UNL     1     -11.107  11.582  68.222  1.00  0.00    -0.295 C  
HETATM   12  C   UNL     1      -9.997  12.623  68.211  1.00  0.00    -0.229 C  
HETATM   13  C   UNL     1      -9.607  12.883  66.741  1.00  0.00    -0.246 C  
HETATM   14  C   UNL     1      -9.386  14.367  66.451  1.00  0.00    -0.284 C  
HETATM   15  C   UNL     1      -9.912  14.827  65.115  1.00  0.00    -0.279 C  
HETATM   16  C   UNL     1      -8.720  15.159  67.319  1.00  0.00    -0.221 C  
HETATM   17  C   UNL     1     -10.175  11.578  64.526  1.00  0.00    -0.338 C  
HETATM   18  C   UNL     1     -11.352  14.380  64.831  1.00  0.00    -0.380 C  
HETATM   19  C   UNL     1     -10.675  12.125  65.883  1.00  0.00    -0.302 C  
HETATM   20  C   UNL     1     -11.824  13.124  65.589  1.00  0.00    -0.430 C  
ENDROOT
BRANCH  16  21
HETATM   21  C   UNL     1      -8.183  16.461  67.001  1.00  0.00    -0.231 C  
HETATM   22  C   UNL     1      -8.839  17.635  66.931  1.00  0.00    -0.260 C  
HETATM   23  C   UNL     1     -10.344  17.838  66.952  1.00  0.00    -0.344 C  
HETATM   24  C   UNL     1     -10.772  18.647  68.183  1.00  0.00    -0.136 C  
HETATM   25  C   UNL     1      -9.970  19.940  68.333  1.00  0.00    -0.531 C  
HETATM   26  O   UNL     1     -10.640  17.854  69.362  1.00  0.00    -0.384 OA 
HETATM   27  C   UNL     1      -8.456  19.708  68.251  1.00  0.00    -0.355 C  
HETATM   28  H   UNL     1     -10.905  18.354  70.125  1.00  0.00     0.000 HD 
HETATM   29  C   UNL     1      -8.024  18.921  67.001  1.00  0.00    -0.262 C  
HETATM   30  C   UNL     1      -8.079  19.753  65.725  1.00  0.00    -0.142 C  
ENDBRANCH  16  21
TORSDOF 1
ENDMDL
MODEL       17
REMARK 921   NORMALIZED FREE ENERGY PREDICTED BY IDOCK:   -5.87 KCAL/MOL
REMARK 922        TOTAL FREE ENERGY PREDICTED BY IDOCK:   -6.94 KCAL/MOL
REMARK 923 INTER-LIGAND FREE ENERGY PREDICTED BY IDOCK:   -6.45 KCAL/MOL
REMARK 924 INTRA-LIGAND FREE ENERGY PREDICTED BY IDOCK:   -0.49 KCAL/MOL
REMARK 927      BINDING AFFINITY PREDICTED BY RF-SCORE:    0.00 PKD
ROOT
HETATM    1  C   UNL     1     -11.574  16.179  72.248  1.00  0.00    -0.435 C  
HETATM    2  C   UNL     1     -11.995  14.750  71.876  1.00  0.00    -0.391 C  
HETATM    3  C   UNL     1     -12.838  14.647  70.569  1.00  0.00    -0.371 C  
HETATM    4  C   UNL     1     -12.718  14.117  73.069  1.00  0.00    -0.310 C  
HETATM    5  C   UNL     1     -12.030  15.072  69.362  1.00  0.00    -0.336 C  
HETATM    6  C   UNL     1     -14.151  15.431  70.605  1.00  0.00     0.291 C  
HETATM    7  C   UNL     1     -12.145  14.520  68.144  1.00  0.00    -0.232 C  
HETATM    8  C   UNL     1     -11.269  14.835  66.941  1.00  0.00    -0.347 C  
HETATM    9  C   UNL     1     -10.153  13.755  66.670  1.00  0.00    -0.277 C  
HETATM   10  C   UNL     1     -10.674  16.261  66.987  1.00  0.00    -0.233 C  
HETATM   11  C   UNL     1      -9.192  13.618  67.858  1.00  0.00    -0.203 C  
HETATM   12  C   UNL     1      -9.702  12.457  68.698  1.00  0.00    -0.064 C  
HETATM   13  C   UNL     1     -10.709  11.660  67.844  1.00  0.00    -0.241 C  
HETATM   14  C   UNL     1     -10.535  10.150  67.995  1.00  0.00    -0.249 C  
HETATM   15  C   UNL     1     -10.698   9.371  66.714  1.00  0.00    -0.129 C  
HETATM   16  C   UNL     1     -10.311   9.588  69.203  1.00  0.00    -0.218 C  
HETATM   17  C   UNL     1     -11.911  12.234  65.573  1.00  0.00    -0.387 C  
HETATM   18  C   UNL     1      -9.893   9.942  65.538  1.00  0.00    -0.381 C  
HETATM   19  C   UNL     1     -10.607  12.264  66.403  1.00  0.00    -0.272 C  
HETATM   20  C   UNL     1      -9.544  11.440  65.631  1.00  0.00    -0.258 C  
ENDROOT
BRANCH  16  21
HETATM   21  C   UNL     1     -10.456   8.182  69.497  1.00  0.00    -0.227 C  
HETATM   22  C   UNL     1      -9.487   7.276  69.723  1.00  0.00    -0.149 C  
HETATM   23  C   UNL     1      -7.995   7.467  69.506  1.00  0.00    -0.126 C  
HETATM   24  C   UNL     1      -7.228   7.357  70.830  1.00  0.00    -0.068 C  
HETATM   25  C   UNL     1      -7.584   6.086  71.600  1.00  0.00    -0.100 C  
HETATM   26  O   UNL     1      -7.482   8.504  71.641  1.00  0.00    -0.093 OA 
HETATM   27  C   UNL     1      -9.098   5.893  71.754  1.00  0.00    -0.148 C  
HETATM   28  H   UNL     1      -7.008   8.436  72.461  1.00  0.00     0.000 HD 
HETATM   29  C   UNL     1      -9.864   5.975  70.421  1.00  0.00    -0.222 C  
HETATM   30  C   UNL     1      -9.681   4.737  69.552  1.00  0.00    -0.271 C  
ENDBRANCH  16  21
TORSDOF 1
ENDMDL
MODEL       18
REMARK 921   NORMALIZED FREE ENERGY PREDICTED BY IDOCK:   -5.87 KCAL/MOL
REMARK 922        TOTAL FREE ENERGY PREDICTED BY IDOCK:   -6.93 KCAL/MOL
REMARK 923 INTER-LIGAND FREE ENERGY PREDICTED BY IDOCK:   -6.50 KCAL/MOL
REMARK 924 INTRA-LIGAND FREE ENERGY PREDICTED BY IDOCK:   -0.43 KCAL/MOL
REMARK 927      BINDING AFFINITY PREDICTED BY RF-SCORE:    0.00 PKD
ROOT
HETATM    1  C   UNL     1     -11.917  15.386  72.873  1.00  0.00    -0.556 C  
HETATM    2  C   UNL     1     -12.344  14.217  71.973  1.00  0.00    -0.285 C  
HETATM    3  C   UNL     1     -13.032  14.647  70.642  1.00  0.00    -0.367 C  
HETATM    4  C   UNL     1     -13.225  13.261  72.783  1.00  0.00    -0.172 C  
HETATM    5  C   UNL     1     -12.073  15.407  69.752  1.00  0.00    -0.373 C  
HETATM    6  C   UNL     1     -14.310  15.466  70.831  1.00  0.00     0.034 C  
HETATM    7  C   UNL     1     -12.064  15.333  68.412  1.00  0.00    -0.068 C  
HETATM    8  C   UNL     1     -11.043  15.984  67.492  1.00  0.00    -0.207 C  
HETATM    9  C   UNL     1      -9.944  14.986  66.960  1.00  0.00    -0.242 C  
HETATM   10  C   UNL     1     -10.405  17.252  68.105  1.00  0.00    -0.357 C  
HETATM   11  C   UNL     1      -9.134  14.366  68.106  1.00  0.00    -0.194 C  
HETATM   12  C   UNL     1      -9.782  13.026  68.420  1.00  0.00    -0.192 C  
HETATM   13  C   UNL     1     -10.711  12.662  67.243  1.00  0.00    -0.259 C  
HETATM   14  C   UNL     1     -10.612  11.187  66.858  1.00  0.00    -0.304 C  
HETATM   15  C   UNL     1     -10.652  10.925  65.373  1.00  0.00    -0.243 C  
HETATM   16  C   UNL     1     -10.552  10.219  67.798  1.00  0.00    -0.296 C  
HETATM   17  C   UNL     1     -11.616  14.091  65.226  1.00  0.00    -0.339 C  
HETATM   18  C   UNL     1      -9.694  11.811  64.564  1.00  0.00    -0.165 C  
HETATM   19  C   UNL     1     -10.418  13.726  66.133  1.00  0.00    -0.297 C  
HETATM   20  C   UNL     1      -9.303  13.148  65.223  1.00  0.00     0.466 C  
ENDROOT
BRANCH  16  21
HETATM   21  C   UNL     1     -10.783   8.815  67.552  1.00  0.00    -0.213 C  
HETATM   22  C   UNL     1     -10.095   7.763  68.033  1.00  0.00    -0.227 C  
HETATM   23  C   UNL     1      -8.771   7.806  68.778  1.00  0.00    -0.128 C  
HETATM   24  C   UNL     1      -8.926   7.272  70.207  1.00  0.00    -0.151 C  
HETATM   25  C   UNL     1      -9.613   5.907  70.243  1.00  0.00    -0.199 C  
HETATM   26  O   UNL     1      -9.656   8.205  71.003  1.00  0.00    -0.155 OA 
HETATM   27  C   UNL     1     -10.917   5.881  69.437  1.00  0.00    -0.421 C  
HETATM   28  H   UNL     1      -9.753   7.875  71.888  1.00  0.00     0.000 HD 
HETATM   29  C   UNL     1     -10.755   6.390  67.993  1.00  0.00    -0.362 C  
HETATM   30  C   UNL     1     -10.043   5.393  67.086  1.00  0.00    -0.231 C  
ENDBRANCH  16  21
TORSDOF 1
ENDMDL
MODEL       19
REMARK 921   NORMALIZED FREE ENERGY PREDICTED BY IDOCK:   -5.83 KCAL/MOL
REMARK 922        TOTAL FREE ENERGY PREDICTED BY IDOCK:   -6.90 KCAL/MOL
REMARK 923 INTER-LIGAND FREE ENERGY PREDICTED BY IDOCK:   -6.14 KCAL/MOL
REMARK 924 INTRA-LIGAND FREE ENERGY PREDICTED BY IDOCK:   -0.76 KCAL/MOL
REMARK 927      BINDING AFFINITY PREDICTED BY RF-SCORE:    0.00 PKD
ROOT
HETATM    1  C   UNL     1     -10.421  14.606  65.175  1.00  0.00    -0.440 C  
HETATM    2  C   UNL     1     -10.683  13.418  66.111  1.00  0.00    -0.288 C  
HETATM    3  C   UNL     1     -11.121  12.110  65.386  1.00  0.00    -0.362 C  
HETATM    4  C   UNL     1     -11.695  13.840  67.180  1.00  0.00    -0.417 C  
HETATM    5  C   UNL     1     -10.017  11.584  64.495  1.00  0.00    -0.306 C  
HETATM    6  C   UNL     1     -12.411  12.244  64.574  1.00  0.00    -0.468 C  
HETATM    7  C   UNL     1      -9.770  10.280  64.288  1.00  0.00    -0.373 C  
HETATM    8  C   UNL     1      -8.600   9.713  63.500  1.00  0.00    -0.215 C  
HETATM    9  C   UNL     1      -7.425   9.180  64.407  1.00  0.00    -0.101 C  
HETATM   10  C   UNL     1      -8.079  10.683  62.414  1.00  0.00    -0.233 C  
HETATM   11  C   UNL     1      -6.834  10.290  65.285  1.00  0.00    -0.131 C  
HETATM   12  C   UNL     1      -7.530  10.194  66.634  1.00  0.00    -0.106 C  
HETATM   13  C   UNL     1      -8.234   8.824  66.707  1.00  0.00    -0.108 C  
HETATM   14  C   UNL     1      -8.071   8.156  68.071  1.00  0.00    -0.128 C  
HETATM   15  C   UNL     1      -7.846   6.666  68.015  1.00  0.00    -0.113 C  
HETATM   16  C   UNL     1      -8.182   8.865  69.216  1.00  0.00    -0.114 C  
HETATM   17  C   UNL     1      -8.763   7.031  64.852  1.00  0.00     0.262 C  
HETATM   18  C   UNL     1      -6.758   6.243  67.018  1.00  0.00    -0.061 C  
HETATM   19  C   UNL     1      -7.746   8.034  65.447  1.00  0.00    -0.096 C  
HETATM   20  C   UNL     1      -6.488   7.230  65.865  1.00  0.00    -0.045 C  
ENDROOT
BRANCH  16  21
HETATM   21  C   UNL     1      -8.367   8.288  70.527  1.00  0.00    -0.124 C  
HETATM   22  C   UNL     1      -9.524   7.998  71.151  1.00  0.00    -0.181 C  
HETATM   23  C   UNL     1     -10.920   8.411  70.716  1.00  0.00    -0.276 C  
HETATM   24  C   UNL     1     -11.778   7.184  70.385  1.00  0.00    -0.230 C  
HETATM   25  C   UNL     1     -11.760   6.146  71.507  1.00  0.00    -0.264 C  
HETATM   26  O   UNL     1     -11.335   6.588  69.165  1.00  0.00    -0.514 OA 
HETATM   27  C   UNL     1     -10.339   5.792  71.961  1.00  0.00    -0.254 C  
HETATM   28  H   UNL     1     -11.866   5.828  68.961  1.00  0.00     0.000 HD 
HETATM   29  C   UNL     1      -9.487   7.023  72.321  1.00  0.00    -0.154 C  
HETATM   30  C   UNL     1      -9.878   7.649  73.654  1.00  0.00    -0.302 C  
ENDBRANCH  16  21
TORSDOF 1
ENDMDL
MODEL       20
REMARK 921   NORMALIZED FREE ENERGY PREDICTED BY IDOCK:   -5.81 KCAL/MOL
REMARK 922        TOTAL FREE ENERGY PREDICTED BY IDOCK:   -6.87 KCAL/MOL
REMARK 923 INTER-LIGAND FREE ENERGY PREDICTED BY IDOCK:   -6.34 KCAL/MOL
REMARK 924 INTRA-LIGAND FREE ENERGY PREDICTED BY IDOCK:   -0.54 KCAL/MOL
REMARK 927      BINDING AFFINITY PREDICTED BY RF-SCORE:    0.00 PKD
ROOT
HETATM    1  C   UNL     1      -6.229   4.450  67.917  1.00  0.00    -0.036 C  
HETATM    2  C   UNL     1      -7.426   5.233  67.358  1.00  0.00    -0.084 C  
HETATM    3  C   UNL     1      -8.798   4.853  67.991  1.00  0.00    -0.112 C  
HETATM    4  C   UNL     1      -7.445   5.091  65.833  1.00  0.00    -0.082 C  
HETATM    5  C   UNL     1      -8.838   5.205  69.462  1.00  0.00    -0.120 C  
HETATM    6  C   UNL     1      -9.188   3.384  67.809  1.00  0.00    -0.235 C  
HETATM    7  C   UNL     1      -9.934   5.638  70.106  1.00  0.00    -0.270 C  
HETATM    8  C   UNL     1      -9.985   6.117  71.548  1.00  0.00    -0.211 C  
HETATM    9  C   UNL     1     -10.007   7.687  71.694  1.00  0.00    -0.207 C  
HETATM   10  C   UNL     1      -8.885   5.485  72.431  1.00  0.00    -0.135 C  
HETATM   11  C   UNL     1      -8.755   8.334  71.087  1.00  0.00    -0.176 C  
HETATM   12  C   UNL     1      -9.125   8.751  69.671  1.00  0.00    -0.149 C  
HETATM   13  C   UNL     1     -10.663   8.720  69.554  1.00  0.00    -0.196 C  
HETATM   14  C   UNL     1     -11.213   9.921  68.786  1.00  0.00    -0.122 C  
HETATM   15  C   UNL     1     -12.489  10.492  69.350  1.00  0.00     0.150 C  
HETATM   16  C   UNL     1     -10.610  10.370  67.664  1.00  0.00    -0.304 C  
HETATM   17  C   UNL     1     -12.513   7.691  71.119  1.00  0.00    -0.273 C  
HETATM   18  C   UNL     1     -12.440  10.734  70.865  1.00  0.00    -0.500 C  
HETATM   19  C   UNL     1     -11.189   8.483  71.009  1.00  0.00    -0.312 C  
HETATM   20  C   UNL     1     -11.425   9.877  71.647  1.00  0.00    -0.181 C  
ENDROOT
BRANCH  16  21
HETATM   21  C   UNL     1     -11.216  11.265  66.705  1.00  0.00    -0.265 C  
HETATM   22  C   UNL     1     -11.182  12.611  66.688  1.00  0.00    -0.346 C  
HETATM   23  C   UNL     1     -10.685  13.522  67.797  1.00  0.00    -0.262 C  
HETATM   24  C   UNL     1      -9.469  14.335  67.336  1.00  0.00    -0.211 C  
HETATM   25  C   UNL     1      -9.722  15.053  66.011  1.00  0.00    -0.359 C  
HETATM   26  O   UNL     1      -8.327  13.487  67.219  1.00  0.00    -0.186 OA 
HETATM   27  C   UNL     1     -10.276  14.118  64.929  1.00  0.00    -0.371 C  
HETATM   28  H   UNL     1      -7.574  13.991  66.934  1.00  0.00     0.000 HD 
HETATM   29  C   UNL     1     -11.514  13.323  65.383  1.00  0.00    -0.328 C  
HETATM   30  C   UNL     1     -12.776  14.175  65.452  1.00  0.00    -0.453 C  
ENDBRANCH  16  21
TORSDOF 1
ENDMDL
MODEL       21
REMARK 921   NORMALIZED FREE ENERGY PREDICTED BY IDOCK:   -5.67 KCAL/MOL
REMARK 922        TOTAL FREE ENERGY PREDICTED BY IDOCK:   -6.72 KCAL/MOL
REMARK 923 INTER-LIGAND FREE ENERGY PREDICTED BY IDOCK:   -6.10 KCAL/MOL
REMARK 924 INTRA-LIGAND FREE ENERGY PREDICTED BY IDOCK:   -0.62 KCAL/MOL
REMARK 927      BINDING AFFINITY PREDICTED BY RF-SCORE:    0.00 PKD
ROOT
HETATM    1  C   UNL     1      -5.518   8.387  64.781  1.00  0.00    -0.040 C  
HETATM    2  C   UNL     1      -6.046   9.824  64.894  1.00  0.00    -0.091 C  
HETATM    3  C   UNL     1      -7.543   9.994  64.494  1.00  0.00    -0.142 C  
HETATM    4  C   UNL     1      -5.135  10.754  64.088  1.00  0.00    -0.129 C  
HETATM    5  C   UNL     1      -8.451   9.239  65.441  1.00  0.00    -0.157 C  
HETATM    6  C   UNL     1      -7.858   9.586  63.053  1.00  0.00    -0.126 C  
HETATM    7  C   UNL     1      -9.670   9.660  65.815  1.00  0.00    -0.350 C  
HETATM    8  C   UNL     1     -10.558   8.994  66.854  1.00  0.00    -0.243 C  
HETATM    9  C   UNL     1     -10.535   9.710  68.259  1.00  0.00    -0.259 C  
HETATM   10  C   UNL     1     -10.293   7.477  66.990  1.00  0.00    -0.395 C  
HETATM   11  C   UNL     1      -9.126   9.726  68.867  1.00  0.00    -0.148 C  
HETATM   12  C   UNL     1      -8.509  11.067  68.499  1.00  0.00    -0.153 C  
HETATM   13  C   UNL     1      -9.645  11.996  68.023  1.00  0.00    -0.199 C  
HETATM   14  C   UNL     1      -9.504  13.416  68.567  1.00  0.00    -0.121 C  
HETATM   15  C   UNL     1     -10.804  14.060  68.978  1.00  0.00    -0.268 C  
HETATM   16  C   UNL     1      -8.303  14.034  68.610  1.00  0.00    -0.104 C  
HETATM   17  C   UNL     1     -12.144  11.500  67.358  1.00  0.00     0.358 C  
HETATM   18  C   UNL     1     -11.678  13.170  69.873  1.00  0.00    -0.327 C  
HETATM   19  C   UNL     1     -10.973  11.227  68.331  1.00  0.00    -0.268 C  
HETATM   20  C   UNL     1     -11.435  11.653  69.749  1.00  0.00    -0.339 C  
ENDROOT
BRANCH  16  21
HETATM   21  C   UNL     1      -8.113  15.454  68.793  1.00  0.00    -0.166 C  
HETATM   22  C   UNL     1      -8.283  16.438  67.890  1.00  0.00    -0.170 C  
HETATM   23  C   UNL     1      -8.501  16.273  66.396  1.00  0.00    -0.365 C  
HETATM   24  C   UNL     1      -9.874  16.815  65.978  1.00  0.00    -0.287 C  
HETATM   25  C   UNL     1     -10.113  18.237  66.486  1.00  0.00    -0.396 C  
HETATM   26  O   UNL     1     -10.907  15.950  66.448  1.00  0.00    -0.288 OA 
HETATM   27  C   UNL     1      -9.831  18.383  67.987  1.00  0.00    -0.359 C  
HETATM   28  H   UNL     1     -11.757  16.286  66.190  1.00  0.00     0.000 HD 
HETATM   29  C   UNL     1      -8.441  17.865  68.401  1.00  0.00    -0.300 C  
HETATM   30  C   UNL     1      -7.309  18.796  67.982  1.00  0.00    -0.269 C  
ENDBRANCH  16  21
TORSDOF 1
ENDMDL
MODEL       22
REMARK 921   NORMALIZED FREE ENERGY PREDICTED BY IDOCK:   -5.67 KCAL/MOL
REMARK 922        TOTAL FREE ENERGY PREDICTED BY IDOCK:   -6.72 KCAL/MOL
REMARK 923 INTER-LIGAND FREE ENERGY PREDICTED BY IDOCK:   -6.18 KCAL/MOL
REMARK 924 INTRA-LIGAND FREE ENERGY PREDICTED BY IDOCK:   -0.54 KCAL/MOL
REMARK 927      BINDING AFFINITY PREDICTED BY RF-SCORE:    0.00 PKD
ROOT
HETATM    1  C   UNL     1     -10.297  14.105  64.906  1.00  0.00    -0.435 C  
HETATM    2  C   UNL     1     -10.919  12.854  65.544  1.00  0.00    -0.301 C  
HETATM    3  C   UNL     1     -11.013  11.624  64.592  1.00  0.00    -0.363 C  
HETATM    4  C   UNL     1     -12.284  13.222  66.133  1.00  0.00    -0.466 C  
HETATM    5  C   UNL     1      -9.638  11.135  64.193  1.00  0.00    -0.290 C  
HETATM    6  C   UNL     1     -11.853  11.865  63.336  1.00  0.00    -0.512 C  
HETATM    7  C   UNL     1      -9.322   9.846  63.994  1.00  0.00    -0.280 C  
HETATM    8  C   UNL     1      -7.929   9.305  63.712  1.00  0.00    -0.142 C  
HETATM    9  C   UNL     1      -7.232   8.663  64.972  1.00  0.00    -0.084 C  
HETATM   10  C   UNL     1      -7.010  10.342  63.026  1.00  0.00    -0.121 C  
HETATM   11  C   UNL     1      -7.061   9.680  66.108  1.00  0.00    -0.094 C  
HETATM   12  C   UNL     1      -8.252   9.498  67.037  1.00  0.00    -0.113 C  
HETATM   13  C   UNL     1      -8.918   8.150  66.694  1.00  0.00    -0.181 C  
HETATM   14  C   UNL     1      -9.331   7.369  67.941  1.00  0.00    -0.138 C  
HETATM   15  C   UNL     1      -9.098   5.882  67.853  1.00  0.00    -0.109 C  
HETATM   16  C   UNL     1      -9.908   7.987  68.995  1.00  0.00    -0.178 C  
HETATM   17  C   UNL     1      -8.627   6.530  64.639  1.00  0.00     0.201 C  
HETATM   18  C   UNL     1      -7.694   5.506  67.361  1.00  0.00    -0.100 C  
HETATM   19  C   UNL     1      -7.950   7.448  65.684  1.00  0.00    -0.118 C  
HETATM   20  C   UNL     1      -6.974   6.572  66.512  1.00  0.00    -0.067 C  
ENDROOT
BRANCH  16  21
HETATM   21  C   UNL     1     -10.616   7.313  70.058  1.00  0.00    -0.247 C  
HETATM   22  C   UNL     1     -10.116   6.808  71.201  1.00  0.00    -0.198 C  
HETATM   23  C   UNL     1      -8.647   6.629  71.549  1.00  0.00    -0.124 C  
HETATM   24  C   UNL     1      -8.260   7.488  72.759  1.00  0.00    -0.117 C  
HETATM   25  C   UNL     1      -9.207   7.282  73.941  1.00  0.00    -0.290 C  
HETATM   26  O   UNL     1      -8.232   8.867  72.393  1.00  0.00    -0.384 OA 
HETATM   27  C   UNL     1     -10.683   7.415  73.546  1.00  0.00    -0.347 C  
HETATM   28  H   UNL     1      -7.993   9.400  73.142  1.00  0.00     0.000 HD 
HETATM   29  C   UNL     1     -11.078   6.531  72.349  1.00  0.00    -0.293 C  
HETATM   30  C   UNL     1     -11.191   5.055  72.711  1.00  0.00    -0.295 C  
ENDBRANCH  16  21
TORSDOF 1
ENDMDL
MODEL       23
REMARK 921   NORMALIZED FREE ENERGY PREDICTED BY IDOCK:   -5.63 KCAL/MOL
REMARK 922        TOTAL FREE ENERGY PREDICTED BY IDOCK:   -6.68 KCAL/MOL
REMARK 923 INTER-LIGAND FREE ENERGY PREDICTED BY IDOCK:   -5.91 KCAL/MOL
REMARK 924 INTRA-LIGAND FREE ENERGY PREDICTED BY IDOCK:   -0.77 KCAL/MOL
REMARK 927      BINDING AFFINITY PREDICTED BY RF-SCORE:    0.00 PKD
ROOT
HETATM    1  C   UNL     1     -11.022   5.221  71.803  1.00  0.00    -0.143 C  
HETATM    2  C   UNL     1     -11.164   6.548  71.044  1.00  0.00    -0.362 C  
HETATM    3  C   UNL     1     -10.311   7.716  71.625  1.00  0.00    -0.221 C  
HETATM    4  C   UNL     1     -12.648   6.917  70.959  1.00  0.00    -0.319 C  
HETATM    5  C   UNL     1      -8.831   7.428  71.500  1.00  0.00    -0.131 C  
HETATM    6  C   UNL     1     -10.640   8.073  73.077  1.00  0.00    -0.332 C  
HETATM    7  C   UNL     1      -7.897   8.361  71.258  1.00  0.00    -0.128 C  
HETATM    8  C   UNL     1      -6.421   8.095  71.005  1.00  0.00    -0.038 C  
HETATM    9  C   UNL     1      -6.019   8.153  69.481  1.00  0.00    -0.030 C  
HETATM   10  C   UNL     1      -5.922   6.793  71.671  1.00  0.00    -0.037 C  
HETATM   11  C   UNL     1      -6.777   7.107  68.653  1.00  0.00    -0.063 C  
HETATM   12  C   UNL     1      -7.986   7.815  68.060  1.00  0.00    -0.122 C  
HETATM   13  C   UNL     1      -7.759   9.335  68.198  1.00  0.00    -0.088 C  
HETATM   14  C   UNL     1      -8.178  10.102  66.945  1.00  0.00    -0.122 C  
HETATM   15  C   UNL     1      -7.257  11.235  66.569  1.00  0.00    -0.096 C  
HETATM   16  C   UNL     1      -9.317   9.799  66.285  1.00  0.00    -0.230 C  
HETATM   17  C   UNL     1      -6.010  10.721  69.595  1.00  0.00    -0.058 C  
HETATM   18  C   UNL     1      -5.773  10.845  66.552  1.00  0.00    -0.101 C  
HETATM   19  C   UNL     1      -6.282   9.496  68.691  1.00  0.00    -0.044 C  
HETATM   20  C   UNL     1      -5.389   9.638  67.431  1.00  0.00    -0.036 C  
ENDROOT
BRANCH  16  21
HETATM   21  C   UNL     1      -9.956  10.651  65.310  1.00  0.00    -0.356 C  
HETATM   22  C   UNL     1     -10.864  11.622  65.523  1.00  0.00    -0.334 C  
HETATM   23  C   UNL     1     -11.602  11.908  66.820  1.00  0.00    -0.341 C  
HETATM   24  C   UNL     1     -11.247  13.299  67.359  1.00  0.00    -0.289 C  
HETATM   25  C   UNL     1     -11.411  14.388  66.299  1.00  0.00    -0.361 C  
HETATM   26  O   UNL     1      -9.911  13.305  67.860  1.00  0.00    -0.220 OA 
HETATM   27  C   UNL     1     -10.701  14.045  64.984  1.00  0.00    -0.409 C  
HETATM   28  H   UNL     1      -9.691  14.166  68.194  1.00  0.00     0.000 HD 
HETATM   29  C   UNL     1     -11.080  12.659  64.428  1.00  0.00    -0.385 C  
HETATM   30  C   UNL     1     -12.475  12.625  63.815  1.00  0.00    -0.514 C  
ENDBRANCH  16  21
TORSDOF 1
ENDMDL
MODEL       24
REMARK 921   NORMALIZED FREE ENERGY PREDICTED BY IDOCK:   -5.44 KCAL/MOL
REMARK 922        TOTAL FREE ENERGY PREDICTED BY IDOCK:   -6.49 KCAL/MOL
REMARK 923 INTER-LIGAND FREE ENERGY PREDICTED BY IDOCK:   -6.06 KCAL/MOL
REMARK 924 INTRA-LIGAND FREE ENERGY PREDICTED BY IDOCK:   -0.43 KCAL/MOL
REMARK 927      BINDING AFFINITY PREDICTED BY RF-SCORE:    0.00 PKD
ROOT
HETATM    1  C   UNL     1      -5.643   7.142  64.329  1.00  0.00    -0.033 C  
HETATM    2  C   UNL     1      -6.981   7.806  64.685  1.00  0.00    -0.063 C  
HETATM    3  C   UNL     1      -8.094   6.813  65.133  1.00  0.00    -0.132 C  
HETATM    4  C   UNL     1      -7.435   8.674  63.507  1.00  0.00    -0.110 C  
HETATM    5  C   UNL     1      -7.722   6.121  66.426  1.00  0.00    -0.102 C  
HETATM    6  C   UNL     1      -8.461   5.764  64.081  1.00  0.00     0.018 C  
HETATM    7  C   UNL     1      -8.601   5.780  67.382  1.00  0.00    -0.105 C  
HETATM    8  C   UNL     1      -8.253   5.196  68.742  1.00  0.00    -0.085 C  
HETATM    9  C   UNL     1      -8.296   6.251  69.913  1.00  0.00    -0.129 C  
HETATM   10  C   UNL     1      -6.920   4.413  68.736  1.00  0.00    -0.051 C  
HETATM   11  C   UNL     1      -7.300   7.395  69.686  1.00  0.00    -0.091 C  
HETATM   12  C   UNL     1      -8.080   8.526  69.031  1.00  0.00    -0.115 C  
HETATM   13  C   UNL     1      -9.583   8.232  69.213  1.00  0.00    -0.164 C  
HETATM   14  C   UNL     1     -10.380   9.482  69.583  1.00  0.00    -0.236 C  
HETATM   15  C   UNL     1     -11.460   9.253  70.609  1.00  0.00    -0.327 C  
HETATM   16  C   UNL     1     -10.146  10.667  68.977  1.00  0.00    -0.226 C  
HETATM   17  C   UNL     1     -10.858   6.058  69.974  1.00  0.00    -0.429 C  
HETATM   18  C   UNL     1     -10.985   8.471  71.842  1.00  0.00    -0.394 C  
HETATM   19  C   UNL     1      -9.656   7.008  70.186  1.00  0.00    -0.164 C  
HETATM   20  C   UNL     1      -9.754   7.569  71.628  1.00  0.00    -0.184 C  
ENDROOT
BRANCH  16  21
HETATM   21  C   UNL     1     -11.039  11.801  69.014  1.00  0.00    -0.301 C  
HETATM   22  C   UNL     1     -10.806  13.057  68.587  1.00  0.00    -0.287 C  
HETATM   23  C   UNL     1      -9.467  13.639  68.164  1.00  0.00    -0.217 C  
HETATM   24  C   UNL     1      -9.489  14.051  66.688  1.00  0.00    -0.287 C  
HETATM   25  C   UNL     1     -10.686  14.941  66.354  1.00  0.00    -0.316 C  
HETATM   26  O   UNL     1      -9.498  12.892  65.854  1.00  0.00    -0.431 OA 
HETATM   27  C   UNL     1     -12.015  14.352  66.842  1.00  0.00    -0.425 C  
HETATM   28  H   UNL     1      -9.512  13.147  64.939  1.00  0.00     0.000 HD 
HETATM   29  C   UNL     1     -12.001  13.965  68.333  1.00  0.00    -0.391 C  
HETATM   30  C   UNL     1     -12.065  15.171  69.262  1.00  0.00    -0.278 C  
ENDBRANCH  16  21
TORSDOF 1
ENDMDL
MODEL       25
REMARK 921   NORMALIZED FREE ENERGY PREDICTED BY IDOCK:   -5.41 KCAL/MOL
REMARK 922        TOTAL FREE ENERGY PREDICTED BY IDOCK:   -6.45 KCAL/MOL
REMARK 923 INTER-LIGAND FREE ENERGY PREDICTED BY IDOCK:   -5.98 KCAL/MOL
REMARK 924 INTRA-LIGAND FREE ENERGY PREDICTED BY IDOCK:   -0.48 KCAL/MOL
REMARK 927      BINDING AFFINITY PREDICTED BY RF-SCORE:    0.00 PKD
ROOT
HETATM    1  C   UNL     1     -12.590   6.763  71.266  1.00  0.00    -0.328 C  
HETATM    2  C   UNL     1     -12.009   8.184  71.311  1.00  0.00    -0.318 C  
HETATM    3  C   UNL     1     -10.560   8.270  71.876  1.00  0.00    -0.350 C  
HETATM    4  C   UNL     1     -12.973   9.092  72.080  1.00  0.00    -0.498 C  
HETATM    5  C   UNL     1      -9.579   7.547  70.979  1.00  0.00    -0.162 C  
HETATM    6  C   UNL     1     -10.413   7.757  73.310  1.00  0.00    -0.358 C  
HETATM    7  C   UNL     1      -8.315   7.945  70.765  1.00  0.00    -0.115 C  
HETATM    8  C   UNL     1      -7.341   7.317  69.781  1.00  0.00    -0.084 C  
HETATM    9  C   UNL     1      -7.192   8.125  68.435  1.00  0.00    -0.093 C  
HETATM   10  C   UNL     1      -7.636   5.824  69.512  1.00  0.00    -0.087 C  
HETATM   11  C   UNL     1      -8.526   8.235  67.685  1.00  0.00    -0.130 C  
HETATM   12  C   UNL     1      -9.138   9.571  68.080  1.00  0.00    -0.126 C  
HETATM   13  C   UNL     1      -8.032  10.422  68.736  1.00  0.00    -0.122 C  
HETATM   14  C   UNL     1      -8.071  11.880  68.281  1.00  0.00    -0.154 C  
HETATM   15  C   UNL     1      -6.715  12.501  68.055  1.00  0.00    -0.090 C  
HETATM   16  C   UNL     1      -9.241  12.544  68.157  1.00  0.00    -0.209 C  
HETATM   17  C   UNL     1      -5.635   9.790  69.623  1.00  0.00    -0.033 C  
HETATM   18  C   UNL     1      -5.778  11.640  67.197  1.00  0.00    -0.120 C  
HETATM   19  C   UNL     1      -6.702   9.626  68.516  1.00  0.00    -0.052 C  
HETATM   20  C   UNL     1      -6.078  10.128  67.188  1.00  0.00    -0.051 C  
ENDROOT
BRANCH  16  21
HETATM   21  C   UNL     1      -9.366  13.979  68.054  1.00  0.00    -0.205 C  
HETATM   22  C   UNL     1     -10.448  14.739  68.309  1.00  0.00    -0.241 C  
HETATM   23  C   UNL     1     -11.866  14.249  68.554  1.00  0.00    -0.382 C  
HETATM   24  C   UNL     1     -12.336  14.610  69.968  1.00  0.00    -0.315 C  
HETATM   25  C   UNL     1     -12.128  16.090  70.286  1.00  0.00    -0.180 C  
HETATM   26  O   UNL     1     -11.655  13.806  70.932  1.00  0.00    -0.499 OA 
HETATM   27  C   UNL     1     -10.704  16.567  69.977  1.00  0.00    -0.222 C  
HETATM   28  H   UNL     1     -11.946  14.029  71.808  1.00  0.00     0.000 HD 
HETATM   29  C   UNL     1     -10.243  16.229  68.547  1.00  0.00    -0.247 C  
HETATM   30  C   UNL     1     -10.890  17.115  67.488  1.00  0.00    -0.203 C  
ENDBRANCH  16  21
TORSDOF 1
ENDMDL
MODEL       26
REMARK 921   NORMALIZED FREE ENERGY PREDICTED BY IDOCK:   -5.41 KCAL/MOL
REMARK 922        TOTAL FREE ENERGY PREDICTED BY IDOCK:   -6.45 KCAL/MOL
REMARK 923 INTER-LIGAND FREE ENERGY PREDICTED BY IDOCK:   -5.92 KCAL/MOL
REMARK 924 INTRA-LIGAND FREE ENERGY PREDICTED BY IDOCK:   -0.53 KCAL/MOL
REMARK 927      BINDING AFFINITY PREDICTED BY RF-SCORE:    0.00 PKD
ROOT
HETATM    1  C   UNL     1     -10.529   5.420  71.842  1.00  0.00    -0.283 C  
HETATM    2  C   UNL     1     -10.287   6.780  71.172  1.00  0.00    -0.227 C  
HETATM    3  C   UNL     1      -8.800   7.061  70.802  1.00  0.00    -0.149 C  
HETATM    4  C   UNL     1     -10.869   7.884  72.061  1.00  0.00    -0.312 C  
HETATM    5  C   UNL     1      -8.304   6.091  69.753  1.00  0.00    -0.126 C  
HETATM    6  C   UNL     1      -7.843   7.053  71.997  1.00  0.00    -0.093 C  
HETATM    7  C   UNL     1      -7.431   6.406  68.784  1.00  0.00    -0.088 C  
HETATM    8  C   UNL     1      -7.003   5.496  67.643  1.00  0.00    -0.066 C  
HETATM    9  C   UNL     1      -7.722   5.814  66.276  1.00  0.00    -0.099 C  
HETATM   10  C   UNL     1      -7.108   3.996  67.999  1.00  0.00    -0.059 C  
HETATM   11  C   UNL     1      -9.245   5.657  66.383  1.00  0.00    -0.160 C  
HETATM   12  C   UNL     1      -9.805   7.044  66.666  1.00  0.00    -0.223 C  
HETATM   13  C   UNL     1      -8.703   8.074  66.348  1.00  0.00    -0.169 C  
HETATM   14  C   UNL     1      -9.244   9.298  65.611  1.00  0.00    -0.291 C  
HETATM   15  C   UNL     1      -8.342   9.821  64.521  1.00  0.00    -0.168 C  
HETATM   16  C   UNL     1     -10.412   9.873  65.972  1.00  0.00    -0.112 C  
HETATM   17  C   UNL     1      -6.122   7.791  65.910  1.00  0.00    -0.038 C  
HETATM   18  C   UNL     1      -7.837   8.733  63.564  1.00  0.00    -0.149 C  
HETATM   19  C   UNL     1      -7.553   7.261  65.663  1.00  0.00    -0.089 C  
HETATM   20  C   UNL     1      -7.808   7.301  64.133  1.00  0.00    -0.118 C  
ENDROOT
BRANCH  16  21
HETATM   21  C   UNL     1     -10.839  11.192  65.569  1.00  0.00    -0.205 C  
HETATM   22  C   UNL     1     -11.363  12.167  66.336  1.00  0.00    -0.411 C  
HETATM   23  C   UNL     1     -11.836  12.036  67.774  1.00  0.00    -0.308 C  
HETATM   24  C   UNL     1     -11.003  12.921  68.709  1.00  0.00    -0.254 C  
HETATM   25  C   UNL     1     -10.915  14.364  68.214  1.00  0.00    -0.259 C  
HETATM   26  O   UNL     1      -9.691  12.378  68.859  1.00  0.00    -0.414 OA 
HETATM   27  C   UNL     1     -10.489  14.460  66.744  1.00  0.00    -0.273 C  
HETATM   28  H   UNL     1      -9.175  12.925  69.438  1.00  0.00     0.000 HD 
HETATM   29  C   UNL     1     -11.344  13.593  65.801  1.00  0.00    -0.315 C  
HETATM   30  C   UNL     1     -12.731  14.175  65.554  1.00  0.00    -0.468 C  
ENDBRANCH  16  21
TORSDOF 1
ENDMDL
MODEL       27
REMARK 921   NORMALIZED FREE ENERGY PREDICTED BY IDOCK:   -5.41 KCAL/MOL
REMARK 922        TOTAL FREE ENERGY PREDICTED BY IDOCK:   -6.45 KCAL/MOL
REMARK 923 INTER-LIGAND FREE ENERGY PREDICTED BY IDOCK:   -6.20 KCAL/MOL
REMARK 924 INTRA-LIGAND FREE ENERGY PREDICTED BY IDOCK:   -0.25 KCAL/MOL
REMARK 927      BINDING AFFINITY PREDICTED BY RF-SCORE:    0.00 PKD
ROOT
HETATM    1  C   UNL     1      -6.903   8.956  66.835  1.00  0.00    -0.077 C  
HETATM    2  C   UNL     1      -6.984  10.288  66.076  1.00  0.00    -0.120 C  
HETATM    3  C   UNL     1      -8.361  10.562  65.400  1.00  0.00    -0.165 C  
HETATM    4  C   UNL     1      -5.833  10.358  65.067  1.00  0.00    -0.134 C  
HETATM    5  C   UNL     1      -9.457  10.709  66.432  1.00  0.00    -0.204 C  
HETATM    6  C   UNL     1      -8.774   9.512  64.366  1.00  0.00    -0.235 C  
HETATM    7  C   UNL     1     -10.501  11.546  66.313  1.00  0.00    -0.294 C  
HETATM    8  C   UNL     1     -11.553  11.811  67.378  1.00  0.00    -0.352 C  
HETATM    9  C   UNL     1     -11.329  13.157  68.169  1.00  0.00    -0.328 C  
HETATM   10  C   UNL     1     -11.748  10.617  68.340  1.00  0.00    -0.168 C  
HETATM   11  C   UNL     1      -9.982  13.168  68.904  1.00  0.00     0.066 C  
HETATM   12  C   UNL     1      -8.994  13.880  67.991  1.00  0.00    -0.184 C  
HETATM   13  C   UNL     1      -9.802  14.626  66.910  1.00  0.00    -0.252 C  
HETATM   14  C   UNL     1      -9.251  16.024  66.633  1.00  0.00    -0.276 C  
HETATM   15  C   UNL     1     -10.306  17.079  66.411  1.00  0.00    -0.304 C  
HETATM   16  C   UNL     1      -7.922  16.248  66.544  1.00  0.00    -0.326 C  
HETATM   17  C   UNL     1     -12.332  14.466  66.197  1.00  0.00    -0.335 C  
HETATM   18  C   UNL     1     -11.410  17.082  67.478  1.00  0.00     0.312 C  
HETATM   19  C   UNL     1     -11.300  14.508  67.349  1.00  0.00    -0.370 C  
HETATM   20  C   UNL     1     -11.625  15.749  68.221  1.00  0.00    -0.302 C  
ENDROOT
BRANCH  16  21
HETATM   21  C   UNL     1      -7.323  17.433  65.975  1.00  0.00    -0.265 C  
HETATM   22  C   UNL     1      -7.281  18.675  66.494  1.00  0.00    -0.252 C  
HETATM   23  C   UNL     1      -8.049  19.180  67.703  1.00  0.00    -0.299 C  
HETATM   24  C   UNL     1      -7.092  19.600  68.825  1.00  0.00    -0.346 C  
HETATM   25  C   UNL     1      -6.010  20.560  68.333  1.00  0.00    -0.345 C  
HETATM   26  O   UNL     1      -6.489  18.448  69.414  1.00  0.00    -0.264 OA 
HETATM   27  C   UNL     1      -5.291  20.047  67.079  1.00  0.00    -0.164 C  
HETATM   28  H   UNL     1      -5.896  18.708  70.108  1.00  0.00     0.000 HD 
HETATM   29  C   UNL     1      -6.252  19.652  65.942  1.00  0.00    -0.208 C  
HETATM   30  C   UNL     1      -6.865  20.856  65.235  1.00  0.00    -0.011 C  
ENDBRANCH  16  21
TORSDOF 1
ENDMDL
MODEL       28
REMARK 921   NORMALIZED FREE ENERGY PREDICTED BY IDOCK:   -5.37 KCAL/MOL
REMARK 922        TOTAL FREE ENERGY PREDICTED BY IDOCK:   -6.40 KCAL/MOL
REMARK 923 INTER-LIGAND FREE ENERGY PREDICTED BY IDOCK:   -5.87 KCAL/MOL
REMARK 924 INTRA-LIGAND FREE ENERGY PREDICTED BY IDOCK:   -0.54 KCAL/MOL
REMARK 927      BINDING AFFINITY PREDICTED BY RF-SCORE:    0.00 PKD
ROOT
HETATM    1  C   UNL     1     -11.687   5.969  71.885  1.00  0.00    -0.287 C  
HETATM    2  C   UNL     1     -11.414   7.450  71.585  1.00  0.00    -0.294 C  
HETATM    3  C   UNL     1      -9.981   7.931  71.964  1.00  0.00    -0.251 C  
HETATM    4  C   UNL     1     -12.495   8.301  72.259  1.00  0.00    -0.384 C  
HETATM    5  C   UNL     1      -8.931   7.232  71.128  1.00  0.00    -0.147 C  
HETATM    6  C   UNL     1      -9.638   7.775  73.447  1.00  0.00    -0.352 C  
HETATM    7  C   UNL     1      -7.795   7.808  70.706  1.00  0.00    -0.099 C  
HETATM    8  C   UNL     1      -6.777   7.181  69.766  1.00  0.00    -0.048 C  
HETATM    9  C   UNL     1      -6.887   7.693  68.279  1.00  0.00    -0.067 C  
HETATM   10  C   UNL     1      -6.770   5.636  69.832  1.00  0.00    -0.051 C  
HETATM   11  C   UNL     1      -8.261   7.382  67.670  1.00  0.00    -0.118 C  
HETATM   12  C   UNL     1      -9.111   8.630  67.856  1.00  0.00    -0.145 C  
HETATM   13  C   UNL     1      -8.167   9.798  68.209  1.00  0.00    -0.105 C  
HETATM   14  C   UNL     1      -8.539  11.089  67.481  1.00  0.00    -0.128 C  
HETATM   15  C   UNL     1      -7.361  11.893  66.993  1.00  0.00    -0.118 C  
HETATM   16  C   UNL     1      -9.828  11.474  67.353  1.00  0.00    -0.202 C  
HETATM   17  C   UNL     1      -5.639   9.840  68.941  1.00  0.00    -0.036 C  
HETATM   18  C   UNL     1      -6.322  11.063  66.227  1.00  0.00    -0.119 C  
HETATM   19  C   UNL     1      -6.718   9.241  68.009  1.00  0.00    -0.060 C  
HETATM   20  C   UNL     1      -6.300   9.555  66.549  1.00  0.00    -0.066 C  
ENDROOT
BRANCH  16  21
HETATM   21  C   UNL     1     -10.257  12.803  66.984  1.00  0.00    -0.245 C  
HETATM   22  C   UNL     1     -10.447  13.301  65.747  1.00  0.00    -0.289 C  
HETATM   23  C   UNL     1     -10.042  12.652  64.434  1.00  0.00    -0.281 C  
HETATM   24  C   UNL     1     -11.271  12.341  63.573  1.00  0.00    -0.460 C  
HETATM   25  C   UNL     1     -12.185  13.555  63.408  1.00  0.00    -0.338 C  
HETATM   26  O   UNL     1     -12.004  11.254  64.138  1.00  0.00    -0.120 OA 
HETATM   27  C   UNL     1     -12.530  14.220  64.747  1.00  0.00    -0.390 C  
HETATM   28  H   UNL     1     -12.766  11.061  63.605  1.00  0.00     0.000 HD 
HETATM   29  C   UNL     1     -11.293  14.558  65.599  1.00  0.00    -0.336 C  
HETATM   30  C   UNL     1     -10.519  15.761  65.073  1.00  0.00    -0.331 C  
ENDBRANCH  16  21
TORSDOF 1
ENDMDL
MODEL       29
REMARK 921   NORMALIZED FREE ENERGY PREDICTED BY IDOCK:   -5.30 KCAL/MOL
REMARK 922        TOTAL FREE ENERGY PREDICTED BY IDOCK:   -6.33 KCAL/MOL
REMARK 923 INTER-LIGAND FREE ENERGY PREDICTED BY IDOCK:   -5.60 KCAL/MOL
REMARK 924 INTRA-LIGAND FREE ENERGY PREDICTED BY IDOCK:   -0.73 KCAL/MOL
REMARK 927      BINDING AFFINITY PREDICTED BY RF-SCORE:    0.00 PKD
ROOT
HETATM    1  C   UNL     1     -11.473  11.168  66.895  1.00  0.00    -0.054 C  
HETATM    2  C   UNL     1     -10.483  10.061  67.286  1.00  0.00    -0.313 C  
HETATM    3  C   UNL     1      -9.874  10.215  68.711  1.00  0.00    -0.180 C  
HETATM    4  C   UNL     1      -9.395   9.964  66.211  1.00  0.00    -0.224 C  
HETATM    5  C   UNL     1     -10.940  10.088  69.778  1.00  0.00    -0.317 C  
HETATM    6  C   UNL     1      -9.092  11.513  68.924  1.00  0.00     0.015 C  
HETATM    7  C   UNL     1     -10.743   9.522  70.979  1.00  0.00    -0.411 C  
HETATM    8  C   UNL     1     -11.816   9.268  72.027  1.00  0.00    -0.370 C  
HETATM    9  C   UNL     1     -12.317   7.773  72.069  1.00  0.00    -0.328 C  
HETATM   10  C   UNL     1     -12.999  10.257  71.929  1.00  0.00    -0.554 C  
HETATM   11  C   UNL     1     -12.933   7.341  70.732  1.00  0.00    -0.005 C  
HETATM   12  C   UNL     1     -11.829   6.642  69.952  1.00  0.00    -0.238 C  
HETATM   13  C   UNL     1     -10.691   6.309  70.937  1.00  0.00    -0.314 C  
HETATM   14  C   UNL     1     -10.112   4.913  70.708  1.00  0.00    -0.303 C  
HETATM   15  C   UNL     1      -9.775   4.162  71.971  1.00  0.00    -0.231 C  
HETATM   16  C   UNL     1      -9.881   4.446  69.462  1.00  0.00    -0.258 C  
HETATM   17  C   UNL     1     -10.215   7.120  73.396  1.00  0.00    -0.367 C  
HETATM   18  C   UNL     1     -10.902   4.169  73.013  1.00  0.00    -0.252 C  
HETATM   19  C   UNL     1     -11.256   6.638  72.359  1.00  0.00    -0.302 C  
HETATM   20  C   UNL     1     -11.899   5.340  72.912  1.00  0.00    -0.159 C  
ENDROOT
BRANCH  16  21
HETATM   21  C   UNL     1      -9.054   3.305  69.150  1.00  0.00    -0.207 C  
HETATM   22  C   UNL     1      -7.712   3.252  69.052  1.00  0.00    -0.051 C  
HETATM   23  C   UNL     1      -6.756   4.433  69.027  1.00  0.00    -0.046 C  
HETATM   24  C   UNL     1      -5.816   4.405  70.238  1.00  0.00    -0.014 C  
HETATM   25  C   UNL     1      -5.125   3.051  70.402  1.00  0.00    -0.004 C  
HETATM   26  O   UNL     1      -6.537   4.730  71.427  1.00  0.00    -0.028 OA 
HETATM   27  C   UNL     1      -6.111   1.877  70.367  1.00  0.00    -0.023 C  
HETATM   28  H   UNL     1      -5.955   4.712  72.178  1.00  0.00     0.000 HD 
HETATM   29  C   UNL     1      -7.035   1.890  69.136  1.00  0.00    -0.036 C  
HETATM   30  C   UNL     1      -6.324   1.478  67.853  1.00  0.00    -0.025 C  
ENDBRANCH  16  21
TORSDOF 1
ENDMDL
MODEL       30
REMARK 921   NORMALIZED FREE ENERGY PREDICTED BY IDOCK:   -5.26 KCAL/MOL
REMARK 922        TOTAL FREE ENERGY PREDICTED BY IDOCK:   -6.29 KCAL/MOL
REMARK 923 INTER-LIGAND FREE ENERGY PREDICTED BY IDOCK:   -6.04 KCAL/MOL
REMARK 924 INTRA-LIGAND FREE ENERGY PREDICTED BY IDOCK:   -0.25 KCAL/MOL
REMARK 927      BINDING AFFINITY PREDICTED BY RF-SCORE:    0.00 PKD
ROOT
HETATM    1  C   UNL     1      -7.371   4.799  69.502  1.00  0.00    -0.056 C  
HETATM    2  C   UNL     1      -8.021   5.876  68.623  1.00  0.00    -0.103 C  
HETATM    3  C   UNL     1      -9.579   5.842  68.606  1.00  0.00    -0.154 C  
HETATM    4  C   UNL     1      -7.437   5.784  67.209  1.00  0.00    -0.081 C  
HETATM    5  C   UNL     1     -10.147   6.153  69.974  1.00  0.00    -0.228 C  
HETATM    6  C   UNL     1     -10.173   4.527  68.096  1.00  0.00     0.061 C  
HETATM    7  C   UNL     1     -11.285   6.835  70.182  1.00  0.00    -0.387 C  
HETATM    8  C   UNL     1     -11.823   7.272  71.536  1.00  0.00    -0.335 C  
HETATM    9  C   UNL     1     -11.555   8.791  71.863  1.00  0.00    -0.432 C  
HETATM   10  C   UNL     1     -11.359   6.356  72.691  1.00  0.00    -0.266 C  
HETATM   11  C   UNL     1     -10.055   9.112  71.890  1.00  0.00    -0.196 C  
HETATM   12  C   UNL     1      -9.701   9.648  70.510  1.00  0.00    -0.280 C  
HETATM   13  C   UNL     1     -11.016  10.014  69.792  1.00  0.00    -0.317 C  
HETATM   14  C   UNL     1     -10.916  11.335  69.032  1.00  0.00    -0.288 C  
HETATM   15  C   UNL     1     -12.150  12.198  69.115  1.00  0.00    -0.224 C  
HETATM   16  C   UNL     1      -9.819  11.646  68.308  1.00  0.00    -0.199 C  
HETATM   17  C   UNL     1     -13.526   9.450  70.351  1.00  0.00     0.625 C  
HETATM   18  C   UNL     1     -12.682  12.379  70.543  1.00  0.00    -0.051 C  
HETATM   19  C   UNL     1     -12.137   9.880  70.877  1.00  0.00    -0.431 C  
HETATM   20  C   UNL     1     -12.301  11.271  71.544  1.00  0.00    -0.222 C  
ENDROOT
BRANCH  16  21
HETATM   21  C   UNL     1      -9.757  12.691  67.313  1.00  0.00    -0.207 C  
HETATM   22  C   UNL     1      -9.743  14.023  67.507  1.00  0.00    -0.232 C  
HETATM   23  C   UNL     1     -10.013  14.755  68.811  1.00  0.00    -0.234 C  
HETATM   24  C   UNL     1      -8.774  15.533  69.270  1.00  0.00    -0.260 C  
HETATM   25  C   UNL     1      -8.209  16.425  68.165  1.00  0.00    -0.170 C  
HETATM   26  O   UNL     1      -7.769  14.630  69.729  1.00  0.00    -0.392 OA 
HETATM   27  C   UNL     1      -8.000  15.670  66.846  1.00  0.00    -0.278 C  
HETATM   28  H   UNL     1      -7.001  15.112  70.013  1.00  0.00     0.000 HD 
HETATM   29  C   UNL     1      -9.253  14.912  66.370  1.00  0.00    -0.317 C  
HETATM   30  C   UNL     1     -10.327  15.833  65.804  1.00  0.00    -0.390 C  
ENDBRANCH  16  21
TORSDOF 1
ENDMDL
MODEL       31
REMARK 921   NORMALIZED FREE ENERGY PREDICTED BY IDOCK:   -5.26 KCAL/MOL
REMARK 922        TOTAL FREE ENERGY PREDICTED BY IDOCK:   -6.29 KCAL/MOL
REMARK 923 INTER-LIGAND FREE ENERGY PREDICTED BY IDOCK:   -5.53 KCAL/MOL
REMARK 924 INTRA-LIGAND FREE ENERGY PREDICTED BY IDOCK:   -0.76 KCAL/MOL
REMARK 927      BINDING AFFINITY PREDICTED BY RF-SCORE:    0.00 PKD
ROOT
HETATM    1  C   UNL     1      -9.522  15.101  66.151  1.00  0.00    -0.354 C  
HETATM    2  C   UNL     1      -9.734  14.005  67.205  1.00  0.00    -0.237 C  
HETATM    3  C   UNL     1     -10.625  12.818  66.730  1.00  0.00    -0.266 C  
HETATM    4  C   UNL     1     -10.279  14.645  68.486  1.00  0.00    -0.240 C  
HETATM    5  C   UNL     1      -9.965  12.058  65.600  1.00  0.00    -0.270 C  
HETATM    6  C   UNL     1     -12.041  13.222  66.313  1.00  0.00    -0.472 C  
HETATM    7  C   UNL     1     -10.062  10.730  65.425  1.00  0.00    -0.347 C  
HETATM    8  C   UNL     1      -9.318   9.917  64.378  1.00  0.00    -0.326 C  
HETATM    9  C   UNL     1      -8.063   9.149  64.946  1.00  0.00    -0.133 C  
HETATM   10  C   UNL     1      -8.952  10.742  63.122  1.00  0.00    -0.239 C  
HETATM   11  C   UNL     1      -7.026  10.112  65.537  1.00  0.00    -0.131 C  
HETATM   12  C   UNL     1      -7.298  10.179  67.033  1.00  0.00    -0.091 C  
HETATM   13  C   UNL     1      -8.215   8.994  67.401  1.00  0.00    -0.108 C  
HETATM   14  C   UNL     1      -7.798   8.318  68.706  1.00  0.00    -0.115 C  
HETATM   15  C   UNL     1      -7.910   6.814  68.694  1.00  0.00    -0.118 C  
HETATM   16  C   UNL     1      -7.419   9.043  69.781  1.00  0.00    -0.062 C  
HETATM   17  C   UNL     1      -9.622   7.344  65.907  1.00  0.00     0.198 C  
HETATM   18  C   UNL     1      -7.274   6.158  67.460  1.00  0.00    -0.076 C  
HETATM   19  C   UNL     1      -8.292   8.108  66.113  1.00  0.00    -0.126 C  
HETATM   20  C   UNL     1      -7.159   7.053  66.211  1.00  0.00    -0.074 C  
ENDROOT
BRANCH  16  21
HETATM   21  C   UNL     1      -7.324   8.530  71.128  1.00  0.00    -0.080 C  
HETATM   22  C   UNL     1      -8.309   8.391  72.035  1.00  0.00    -0.231 C  
HETATM   23  C   UNL     1      -9.720   8.946  71.937  1.00  0.00    -0.349 C  
HETATM   24  C   UNL     1     -10.755   7.815  71.901  1.00  0.00    -0.225 C  
HETATM   25  C   UNL     1     -10.559   6.816  73.041  1.00  0.00    -0.295 C  
HETATM   26  O   UNL     1     -10.697   7.137  70.646  1.00  0.00    -0.226 OA 
HETATM   27  C   UNL     1      -9.113   6.317  73.148  1.00  0.00    -0.131 C  
HETATM   28  H   UNL     1     -11.337   6.436  70.623  1.00  0.00     0.000 HD 
HETATM   29  C   UNL     1      -8.077   7.454  73.213  1.00  0.00    -0.141 C  
HETATM   30  C   UNL     1      -8.052   8.160  74.564  1.00  0.00    -0.265 C  
ENDBRANCH  16  21
TORSDOF 1
ENDMDL
MODEL       32
REMARK 921   NORMALIZED FREE ENERGY PREDICTED BY IDOCK:   -5.18 KCAL/MOL
REMARK 922        TOTAL FREE ENERGY PREDICTED BY IDOCK:   -6.21 KCAL/MOL
REMARK 923 INTER-LIGAND FREE ENERGY PREDICTED BY IDOCK:   -5.69 KCAL/MOL
REMARK 924 INTRA-LIGAND FREE ENERGY PREDICTED BY IDOCK:   -0.52 KCAL/MOL
REMARK 927      BINDING AFFINITY PREDICTED BY RF-SCORE:    0.00 PKD
ROOT
HETATM    1  C   UNL     1      -9.686   8.788  72.400  1.00  0.00    -0.215 C  
HETATM    2  C   UNL     1      -9.849   8.267  70.965  1.00  0.00    -0.225 C  
HETATM    3  C   UNL     1     -11.154   8.735  70.254  1.00  0.00    -0.240 C  
HETATM    4  C   UNL     1      -9.724   6.740  70.973  1.00  0.00    -0.182 C  
HETATM    5  C   UNL     1     -11.161  10.235  70.057  1.00  0.00    -0.373 C  
HETATM    6  C   UNL     1     -12.443   8.309  70.960  1.00  0.00    -0.103 C  
HETATM    7  C   UNL     1     -11.697  10.855  68.993  1.00  0.00    -0.391 C  
HETATM    8  C   UNL     1     -11.616  12.346  68.701  1.00  0.00    -0.365 C  
HETATM    9  C   UNL     1     -10.529  12.721  67.622  1.00  0.00    -0.224 C  
HETATM   10  C   UNL     1     -11.462  13.202  69.979  1.00  0.00    -0.095 C  
HETATM   11  C   UNL     1      -9.119  12.309  68.066  1.00  0.00    -0.191 C  
HETATM   12  C   UNL     1      -8.848  10.948  67.442  1.00  0.00    -0.133 C  
HETATM   13  C   UNL     1      -9.896  10.718  66.334  1.00  0.00    -0.254 C  
HETATM   14  C   UNL     1      -9.288  10.099  65.076  1.00  0.00    -0.299 C  
HETATM   15  C   UNL     1      -9.835  10.649  63.783  1.00  0.00    -0.394 C  
HETATM   16  C   UNL     1      -8.379   9.103  65.155  1.00  0.00    -0.160 C  
HETATM   17  C   UNL     1     -12.138  11.975  65.762  1.00  0.00    -0.011 C  
HETATM   18  C   UNL     1      -9.867  12.182  63.729  1.00  0.00    -0.259 C  
HETATM   19  C   UNL     1     -10.653  12.080  66.183  1.00  0.00    -0.298 C  
HETATM   20  C   UNL     1      -9.915  12.899  65.092  1.00  0.00    -0.175 C  
ENDROOT
BRANCH  16  21
HETATM   21  C   UNL     1      -7.998   8.248  64.056  1.00  0.00    -0.147 C  
HETATM   22  C   UNL     1      -7.818   6.913  64.065  1.00  0.00    -0.100 C  
HETATM   23  C   UNL     1      -7.756   6.013  65.287  1.00  0.00    -0.093 C  
HETATM   24  C   UNL     1      -8.908   5.001  65.283  1.00  0.00    -0.153 C  
HETATM   25  C   UNL     1      -9.006   4.242  63.959  1.00  0.00    -0.145 C  
HETATM   26  O   UNL     1     -10.143   5.661  65.558  1.00  0.00    -0.359 OA 
HETATM   27  C   UNL     1      -9.010   5.176  62.743  1.00  0.00     0.024 C  
HETATM   28  H   UNL     1     -10.857   5.034  65.555  1.00  0.00     0.000 HD 
HETATM   29  C   UNL     1      -7.837   6.174  62.733  1.00  0.00    -0.098 C  
HETATM   30  C   UNL     1      -6.507   5.525  62.372  1.00  0.00    -0.028 C  
ENDBRANCH  16  21
TORSDOF 1
ENDMDL
MODEL       33
REMARK 921   NORMALIZED FREE ENERGY PREDICTED BY IDOCK:   -5.18 KCAL/MOL
REMARK 922        TOTAL FREE ENERGY PREDICTED BY IDOCK:   -6.20 KCAL/MOL
REMARK 923 INTER-LIGAND FREE ENERGY PREDICTED BY IDOCK:   -5.43 KCAL/MOL
REMARK 924 INTRA-LIGAND FREE ENERGY PREDICTED BY IDOCK:   -0.78 KCAL/MOL
REMARK 927      BINDING AFFINITY PREDICTED BY RF-SCORE:    0.00 PKD
ROOT
HETATM    1  C   UNL     1     -11.668  11.519  68.389  1.00  0.00    -0.372 C  
HETATM    2  C   UNL     1     -10.819  10.442  67.697  1.00  0.00    -0.361 C  
HETATM    3  C   UNL     1      -9.530  10.040  68.475  1.00  0.00    -0.150 C  
HETATM    4  C   UNL     1     -10.501  10.900  66.270  1.00  0.00    -0.304 C  
HETATM    5  C   UNL     1      -9.871   9.385  69.795  1.00  0.00    -0.218 C  
HETATM    6  C   UNL     1      -8.555  11.194  68.716  1.00  0.00    -0.133 C  
HETATM    7  C   UNL     1      -9.162   8.388  70.350  1.00  0.00    -0.161 C  
HETATM    8  C   UNL     1      -9.539   7.624  71.609  1.00  0.00    -0.182 C  
HETATM    9  C   UNL     1     -10.178   6.211  71.325  1.00  0.00    -0.252 C  
HETATM   10  C   UNL     1     -10.414   8.455  72.577  1.00  0.00    -0.372 C  
HETATM   11  C   UNL     1     -11.470   6.324  70.507  1.00  0.00    -0.407 C  
HETATM   12  C   UNL     1     -11.081   6.117  69.050  1.00  0.00    -0.437 C  
HETATM   13  C   UNL     1      -9.666   5.505  69.021  1.00  0.00    -0.195 C  
HETATM   14  C   UNL     1      -9.534   4.391  67.984  1.00  0.00    -0.208 C  
HETATM   15  C   UNL     1      -8.706   3.214  68.433  1.00  0.00    -0.141 C  
HETATM   16  C   UNL     1     -10.080   4.510  66.754  1.00  0.00    -0.220 C  
HETATM   17  C   UNL     1      -7.832   5.253  70.893  1.00  0.00    -0.098 C  
HETATM   18  C   UNL     1      -9.090   2.684  69.822  1.00  0.00    -0.189 C  
HETATM   19  C   UNL     1      -9.327   5.158  70.509  1.00  0.00    -0.210 C  
HETATM   20  C   UNL     1      -9.781   3.696  70.757  1.00  0.00    -0.222 C  
ENDROOT
BRANCH  16  21
HETATM   21  C   UNL     1      -9.745   3.682  65.620  1.00  0.00    -0.108 C  
HETATM   22  C   UNL     1      -8.743   3.850  64.735  1.00  0.00    -0.116 C  
HETATM   23  C   UNL     1      -7.857   5.075  64.588  1.00  0.00    -0.093 C  
HETATM   24  C   UNL     1      -6.393   4.734  64.889  1.00  0.00    -0.035 C  
HETATM   25  C   UNL     1      -5.907   3.519  64.098  1.00  0.00    -0.014 C  
HETATM   26  O   UNL     1      -6.219   4.505  66.287  1.00  0.00    -0.030 OA 
HETATM   27  C   UNL     1      -6.852   2.318  64.223  1.00  0.00    -0.039 C  
HETATM   28  H   UNL     1      -5.312   4.293  66.474  1.00  0.00     0.000 HD 
HETATM   29  C   UNL     1      -8.318   2.654  63.893  1.00  0.00    -0.086 C  
HETATM   30  C   UNL     1      -8.565   2.836  62.400  1.00  0.00    -0.074 C  
ENDBRANCH  16  21
TORSDOF 1
ENDMDL
MODEL       34
REMARK 921   NORMALIZED FREE ENERGY PREDICTED BY IDOCK:   -4.99 KCAL/MOL
REMARK 922        TOTAL FREE ENERGY PREDICTED BY IDOCK:   -6.00 KCAL/MOL
REMARK 923 INTER-LIGAND FREE ENERGY PREDICTED BY IDOCK:   -5.25 KCAL/MOL
REMARK 924 INTRA-LIGAND FREE ENERGY PREDICTED BY IDOCK:   -0.76 KCAL/MOL
REMARK 927      BINDING AFFINITY PREDICTED BY RF-SCORE:    0.00 PKD
ROOT
HETATM    1  C   UNL     1      -7.783   5.032  63.377  1.00  0.00    -0.074 C  
HETATM    2  C   UNL     1      -7.806   4.954  64.911  1.00  0.00    -0.089 C  
HETATM    3  C   UNL     1      -6.947   6.041  65.624  1.00  0.00    -0.061 C  
HETATM    4  C   UNL     1      -7.405   3.540  65.343  1.00  0.00    -0.076 C  
HETATM    5  C   UNL     1      -7.491   7.427  65.361  1.00  0.00    -0.090 C  
HETATM    6  C   UNL     1      -5.459   6.002  65.265  1.00  0.00    -0.017 C  
HETATM    7  C   UNL     1      -7.469   8.430  66.254  1.00  0.00    -0.089 C  
HETATM    8  C   UNL     1      -8.113   9.796  66.072  1.00  0.00    -0.114 C  
HETATM    9  C   UNL     1      -9.489   9.952  66.826  1.00  0.00    -0.212 C  
HETATM   10  C   UNL     1      -8.232  10.212  64.588  1.00  0.00    -0.165 C  
HETATM   11  C   UNL     1     -10.527   8.935  66.333  1.00  0.00    -0.071 C  
HETATM   12  C   UNL     1     -10.468   7.755  67.292  1.00  0.00    -0.392 C  
HETATM   13  C   UNL     1      -9.704   8.207  68.553  1.00  0.00    -0.170 C  
HETATM   14  C   UNL     1     -10.353   7.703  69.841  1.00  0.00    -0.225 C  
HETATM   15  C   UNL     1     -10.352   8.698  70.973  1.00  0.00    -0.275 C  
HETATM   16  C   UNL     1     -10.827   6.442  69.938  1.00  0.00    -0.370 C  
HETATM   17  C   UNL     1      -8.223  10.332  69.030  1.00  0.00    -0.139 C  
HETATM   18  C   UNL     1     -10.850  10.093  70.569  1.00  0.00    -0.340 C  
HETATM   19  C   UNL     1      -9.508   9.752  68.394  1.00  0.00    -0.146 C  
HETATM   20  C   UNL     1     -10.718  10.444  69.074  1.00  0.00    -0.260 C  
ENDROOT
BRANCH  16  21
HETATM   21  C   UNL     1     -11.152   5.778  71.179  1.00  0.00    -0.257 C  
HETATM   22  C   UNL     1     -10.319   5.142  72.024  1.00  0.00    -0.274 C  
HETATM   23  C   UNL     1      -8.867   4.777  71.766  1.00  0.00    -0.139 C  
HETATM   24  C   UNL     1      -7.936   5.501  72.746  1.00  0.00    -0.102 C  
HETATM   25  C   UNL     1      -8.372   5.319  74.200  1.00  0.00    -0.109 C  
HETATM   26  O   UNL     1      -7.874   6.892  72.428  1.00  0.00    -0.095 OA 
HETATM   27  C   UNL     1      -9.856   5.641  74.416  1.00  0.00    -0.229 C  
HETATM   28  H   UNL     1      -7.298   7.340  73.035  1.00  0.00     0.000 HD 
HETATM   29  C   UNL     1     -10.792   4.892  73.450  1.00  0.00    -0.360 C  
HETATM   30  C   UNL     1     -10.946   3.416  73.796  1.00  0.00    -0.307 C  
ENDBRANCH  16  21
TORSDOF 1
ENDMDL
MODEL       35
REMARK 921   NORMALIZED FREE ENERGY PREDICTED BY IDOCK:   -4.95 KCAL/MOL
REMARK 922        TOTAL FREE ENERGY PREDICTED BY IDOCK:   -5.96 KCAL/MOL
REMARK 923 INTER-LIGAND FREE ENERGY PREDICTED BY IDOCK:   -5.88 KCAL/MOL
REMARK 924 INTRA-LIGAND FREE ENERGY PREDICTED BY IDOCK:   -0.08 KCAL/MOL
REMARK 927      BINDING AFFINITY PREDICTED BY RF-SCORE:    0.00 PKD
ROOT
HETATM    1  C   UNL     1      -8.907   5.969  71.854  1.00  0.00    -0.138 C  
HETATM    2  C   UNL     1      -8.856   7.467  71.522  1.00  0.00    -0.131 C  
HETATM    3  C   UNL     1      -7.688   7.878  70.577  1.00  0.00    -0.086 C  
HETATM    4  C   UNL     1      -8.837   8.266  72.829  1.00  0.00    -0.310 C  
HETATM    5  C   UNL     1      -7.843   7.249  69.210  1.00  0.00    -0.116 C  
HETATM    6  C   UNL     1      -6.294   7.565  71.127  1.00  0.00    -0.035 C  
HETATM    7  C   UNL     1      -7.489   7.843  68.059  1.00  0.00    -0.108 C  
HETATM    8  C   UNL     1      -7.740   7.295  66.663  1.00  0.00    -0.101 C  
HETATM    9  C   UNL     1      -8.970   7.959  65.934  1.00  0.00    -0.166 C  
HETATM   10  C   UNL     1      -7.830   5.752  66.630  1.00  0.00    -0.101 C  
HETATM   11  C   UNL     1     -10.277   7.739  66.707  1.00  0.00    -0.346 C  
HETATM   12  C   UNL     1     -10.488   8.978  67.565  1.00  0.00    -0.338 C  
HETATM   13  C   UNL     1      -9.553  10.085  67.037  1.00  0.00    -0.212 C  
HETATM   14  C   UNL     1     -10.236  11.450  66.986  1.00  0.00    -0.246 C  
HETATM   15  C   UNL     1      -9.890  12.277  65.773  1.00  0.00    -0.260 C  
HETATM   16  C   UNL     1     -11.034  11.872  67.990  1.00  0.00    -0.271 C  
HETATM   17  C   UNL     1      -7.516  10.002  65.371  1.00  0.00    -0.139 C  
HETATM   18  C   UNL     1     -10.007  11.510  64.449  1.00  0.00    -0.311 C  
HETATM   19  C   UNL     1      -8.947   9.523  65.707  1.00  0.00    -0.219 C  
HETATM   20  C   UNL     1      -9.875   9.977  64.550  1.00  0.00    -0.244 C  
ENDROOT
BRANCH  16  21
HETATM   21  C   UNL     1     -11.453  13.240  68.190  1.00  0.00    -0.347 C  
HETATM   22  C   UNL     1     -10.690  14.307  68.492  1.00  0.00    -0.262 C  
HETATM   23  C   UNL     1      -9.230  14.291  68.913  1.00  0.00    -0.044 C  
HETATM   24  C   UNL     1      -8.355  15.026  67.889  1.00  0.00    -0.148 C  
HETATM   25  C   UNL     1      -8.892  16.420  67.565  1.00  0.00    -0.187 C  
HETATM   26  O   UNL     1      -8.248  14.255  66.692  1.00  0.00    -0.383 OA 
HETATM   27  C   UNL     1     -10.381  16.409  67.198  1.00  0.00    -0.290 C  
HETATM   28  H   UNL     1      -7.706  14.710  66.058  1.00  0.00     0.000 HD 
HETATM   29  C   UNL     1     -11.263  15.696  68.240  1.00  0.00    -0.353 C  
HETATM   30  C   UNL     1     -11.465  16.516  69.508  1.00  0.00     0.012 C  
ENDBRANCH  16  21
TORSDOF 1
ENDMDL
MODEL       36
REMARK 921   NORMALIZED FREE ENERGY PREDICTED BY IDOCK:   -4.94 KCAL/MOL
REMARK 922        TOTAL FREE ENERGY PREDICTED BY IDOCK:   -5.95 KCAL/MOL
REMARK 923 INTER-LIGAND FREE ENERGY PREDICTED BY IDOCK:   -5.82 KCAL/MOL
REMARK 924 INTRA-LIGAND FREE ENERGY PREDICTED BY IDOCK:   -0.13 KCAL/MOL
REMARK 927      BINDING AFFINITY PREDICTED BY RF-SCORE:    0.00 PKD
ROOT
HETATM    1  C   UNL     1     -10.451  14.625  65.317  1.00  0.00    -0.420 C  
HETATM    2  C   UNL     1     -10.933  13.505  66.251  1.00  0.00    -0.293 C  
HETATM    3  C   UNL     1     -11.340  12.189  65.523  1.00  0.00    -0.393 C  
HETATM    4  C   UNL     1     -12.068  14.043  67.128  1.00  0.00    -0.436 C  
HETATM    5  C   UNL     1     -10.150  11.552  64.840  1.00  0.00    -0.314 C  
HETATM    6  C   UNL     1     -12.478  12.355  64.514  1.00  0.00    -0.519 C  
HETATM    7  C   UNL     1      -9.960  10.227  64.731  1.00  0.00    -0.392 C  
HETATM    8  C   UNL     1      -8.723   9.550  64.162  1.00  0.00    -0.239 C  
HETATM    9  C   UNL     1      -7.740   8.998  65.265  1.00  0.00    -0.100 C  
HETATM   10  C   UNL     1      -7.978  10.429  63.131  1.00  0.00    -0.125 C  
HETATM   11  C   UNL     1      -7.219  10.117  66.175  1.00  0.00    -0.115 C  
HETATM   12  C   UNL     1      -8.119  10.134  67.402  1.00  0.00    -0.114 C  
HETATM   13  C   UNL     1      -8.916   8.813  67.422  1.00  0.00    -0.143 C  
HETATM   14  C   UNL     1      -9.009   8.210  68.823  1.00  0.00    -0.144 C  
HETATM   15  C   UNL     1      -8.878   6.709  68.867  1.00  0.00    -0.131 C  
HETATM   16  C   UNL     1      -9.248   8.984  69.904  1.00  0.00    -0.181 C  
HETATM   17  C   UNL     1      -9.271   6.959  65.587  1.00  0.00     0.176 C  
HETATM   18  C   UNL     1      -7.680   6.171  68.073  1.00  0.00    -0.102 C  
HETATM   19  C   UNL     1      -8.293   7.930  66.290  1.00  0.00    -0.126 C  
HETATM   20  C   UNL     1      -7.170   7.076  66.935  1.00  0.00    -0.077 C  
ENDROOT
BRANCH  16  21
HETATM   21  C   UNL     1      -9.671   8.490  71.194  1.00  0.00    -0.257 C  
HETATM   22  C   UNL     1      -8.962   7.766  72.080  1.00  0.00    -0.175 C  
HETATM   23  C   UNL     1      -7.615   7.103  71.841  1.00  0.00    -0.087 C  
HETATM   24  C   UNL     1      -6.540   7.699  72.758  1.00  0.00    -0.063 C  
HETATM   25  C   UNL     1      -6.973   7.714  74.224  1.00  0.00    -0.124 C  
HETATM   26  O   UNL     1      -6.212   9.022  72.335  1.00  0.00    -0.205 OA 
HETATM   27  C   UNL     1      -8.359   8.338  74.424  1.00  0.00    -0.130 C  
HETATM   28  H   UNL     1      -5.546   9.392  72.903  1.00  0.00     0.000 HD 
HETATM   29  C   UNL     1      -9.445   7.720  73.524  1.00  0.00    -0.346 C  
HETATM   30  C   UNL     1      -9.879   6.333  73.982  1.00  0.00    -0.249 C  
ENDBRANCH  16  21
TORSDOF 1
ENDMDL
MODEL       37
REMARK 921   NORMALIZED FREE ENERGY PREDICTED BY IDOCK:   -4.91 KCAL/MOL
REMARK 922        TOTAL FREE ENERGY PREDICTED BY IDOCK:   -5.92 KCAL/MOL
REMARK 923 INTER-LIGAND FREE ENERGY PREDICTED BY IDOCK:   -5.46 KCAL/MOL
REMARK 924 INTRA-LIGAND FREE ENERGY PREDICTED BY IDOCK:   -0.47 KCAL/MOL
REMARK 927      BINDING AFFINITY PREDICTED BY RF-SCORE:    0.00 PKD
ROOT
HETATM    1  C   UNL     1     -11.571  11.468  67.312  1.00  0.00    -0.280 C  
HETATM    2  C   UNL     1     -10.547  10.364  67.011  1.00  0.00    -0.305 C  
HETATM    3  C   UNL     1      -9.481  10.151  68.127  1.00  0.00    -0.151 C  
HETATM    4  C   UNL     1      -9.898  10.645  65.652  1.00  0.00    -0.307 C  
HETATM    5  C   UNL     1     -10.121   9.659  69.407  1.00  0.00    -0.213 C  
HETATM    6  C   UNL     1      -8.629  11.386  68.426  1.00  0.00    -0.156 C  
HETATM    7  C   UNL     1      -9.545   8.793  70.255  1.00  0.00    -0.198 C  
HETATM    8  C   UNL     1     -10.201   8.183  71.484  1.00  0.00    -0.261 C  
HETATM    9  C   UNL     1     -10.711   6.707  71.263  1.00  0.00    -0.269 C  
HETATM   10  C   UNL     1     -11.311   9.079  72.080  1.00  0.00    -0.395 C  
HETATM   11  C   UNL     1     -11.762   6.628  70.149  1.00  0.00    -0.412 C  
HETATM   12  C   UNL     1     -11.018   6.252  68.875  1.00  0.00    -0.435 C  
HETATM   13  C   UNL     1      -9.623   5.732  69.278  1.00  0.00    -0.176 C  
HETATM   14  C   UNL     1      -9.208   4.499  68.478  1.00  0.00    -0.181 C  
HETATM   15  C   UNL     1      -8.485   3.447  69.280  1.00  0.00    -0.095 C  
HETATM   16  C   UNL     1      -9.435   4.417  67.148  1.00  0.00    -0.193 C  
HETATM   17  C   UNL     1      -8.306   5.849  71.555  1.00  0.00    -0.127 C  
HETATM   18  C   UNL     1      -9.186   3.085  70.597  1.00  0.00    -0.208 C  
HETATM   19  C   UNL     1      -9.655   5.609  70.839  1.00  0.00    -0.212 C  
HETATM   20  C   UNL     1     -10.116   4.168  71.179  1.00  0.00    -0.145 C  
ENDROOT
BRANCH  16  21
HETATM   21  C   UNL     1      -8.806   3.467  66.262  1.00  0.00    -0.134 C  
HETATM   22  C   UNL     1      -8.697   3.527  64.921  1.00  0.00    -0.115 C  
HETATM   23  C   UNL     1      -9.404   4.501  63.994  1.00  0.00    -0.068 C  
HETATM   24  C   UNL     1      -8.395   5.396  63.264  1.00  0.00    -0.104 C  
HETATM   25  C   UNL     1      -7.290   4.586  62.586  1.00  0.00    -0.040 C  
HETATM   26  O   UNL     1      -7.821   6.334  64.174  1.00  0.00    -0.109 OA 
HETATM   27  C   UNL     1      -6.633   3.573  63.532  1.00  0.00    -0.034 C  
HETATM   28  H   UNL     1      -7.196   6.888  63.722  1.00  0.00     0.000 HD 
HETATM   29  C   UNL     1      -7.645   2.656  64.244  1.00  0.00    -0.071 C  
HETATM   30  C   UNL     1      -8.230   1.590  63.326  1.00  0.00    -0.061 C  
ENDBRANCH  16  21
TORSDOF 1
ENDMDL
MODEL       38
REMARK 921   NORMALIZED FREE ENERGY PREDICTED BY IDOCK:   -4.82 KCAL/MOL
REMARK 922        TOTAL FREE ENERGY PREDICTED BY IDOCK:   -5.82 KCAL/MOL
REMARK 923 INTER-LIGAND FREE ENERGY PREDICTED BY IDOCK:   -5.29 KCAL/MOL
REMARK 924 INTRA-LIGAND FREE ENERGY PREDICTED BY IDOCK:   -0.54 KCAL/MOL
REMARK 927      BINDING AFFINITY PREDICTED BY RF-SCORE:    0.00 PKD
ROOT
HETATM    1  C   UNL     1     -12.353   7.020  70.892  1.00  0.00    -0.361 C  
HETATM    2  C   UNL     1     -11.677   8.374  71.150  1.00  0.00    -0.315 C  
HETATM    3  C   UNL     1     -10.184   8.277  71.584  1.00  0.00    -0.286 C  
HETATM    4  C   UNL     1     -12.513   9.163  72.163  1.00  0.00    -0.436 C  
HETATM    5  C   UNL     1      -9.330   7.693  70.480  1.00  0.00    -0.163 C  
HETATM    6  C   UNL     1      -9.955   7.488  72.876  1.00  0.00    -0.303 C  
HETATM    7  C   UNL     1      -8.064   8.062  70.229  1.00  0.00    -0.113 C  
HETATM    8  C   UNL     1      -7.217   7.589  69.058  1.00  0.00    -0.085 C  
HETATM    9  C   UNL     1      -7.125   8.634  67.880  1.00  0.00    -0.083 C  
HETATM   10  C   UNL     1      -7.632   6.193  68.540  1.00  0.00    -0.092 C  
HETATM   11  C   UNL     1      -8.505   8.953  67.292  1.00  0.00    -0.114 C  
HETATM   12  C   UNL     1      -8.992  10.216  67.987  1.00  0.00    -0.125 C  
HETATM   13  C   UNL     1      -7.782  10.868  68.687  1.00  0.00    -0.122 C  
HETATM   14  C   UNL     1      -7.761  12.387  68.520  1.00  0.00    -0.120 C  
HETATM   15  C   UNL     1      -6.390  12.971  68.291  1.00  0.00    -0.089 C  
HETATM   16  C   UNL     1      -8.890  13.120  68.633  1.00  0.00     0.051 C  
HETATM   17  C   UNL     1      -5.368   9.957  69.212  1.00  0.00    -0.035 C  
HETATM   18  C   UNL     1      -5.585  12.248  67.203  1.00  0.00    -0.085 C  
HETATM   19  C   UNL     1      -6.531  10.064  68.198  1.00  0.00    -0.055 C  
HETATM   20  C   UNL     1      -5.986  10.783  66.936  1.00  0.00    -0.069 C  
ENDROOT
BRANCH  16  21
HETATM   21  C   UNL     1      -8.928  14.552  68.815  1.00  0.00    -0.157 C  
HETATM   22  C   UNL     1      -8.979  15.509  67.870  1.00  0.00    -0.173 C  
HETATM   23  C   UNL     1      -8.785  15.321  66.375  1.00  0.00    -0.265 C  
HETATM   24  C   UNL     1     -10.060  15.688  65.605  1.00  0.00    -0.365 C  
HETATM   25  C   UNL     1     -10.593  17.067  65.993  1.00  0.00    -0.208 C  
HETATM   26  O   UNL     1     -11.066  14.699  65.823  1.00  0.00    -0.317 OA 
HETATM   27  C   UNL     1     -10.724  17.244  67.510  1.00  0.00    -0.278 C  
HETATM   28  H   UNL     1     -11.856  14.926  65.346  1.00  0.00     0.000 HD 
HETATM   29  C   UNL     1      -9.435  16.903  68.280  1.00  0.00    -0.250 C  
HETATM   30  C   UNL     1      -8.356  17.970  68.136  1.00  0.00    -0.273 C  
ENDBRANCH  16  21
TORSDOF 1
ENDMDL
MODEL       39
REMARK 921   NORMALIZED FREE ENERGY PREDICTED BY IDOCK:   -4.81 KCAL/MOL
REMARK 922        TOTAL FREE ENERGY PREDICTED BY IDOCK:   -5.81 KCAL/MOL
REMARK 923 INTER-LIGAND FREE ENERGY PREDICTED BY IDOCK:   -5.31 KCAL/MOL
REMARK 924 INTRA-LIGAND FREE ENERGY PREDICTED BY IDOCK:   -0.50 KCAL/MOL
REMARK 927      BINDING AFFINITY PREDICTED BY RF-SCORE:    0.00 PKD
ROOT
HETATM    1  C   UNL     1      -8.765   4.482  63.500  1.00  0.00    -0.132 C  
HETATM    2  C   UNL     1      -8.764   5.023  64.937  1.00  0.00    -0.150 C  
HETATM    3  C   UNL     1      -7.501   5.856  65.310  1.00  0.00    -0.082 C  
HETATM    4  C   UNL     1      -8.983   3.859  65.908  1.00  0.00    -0.132 C  
HETATM    5  C   UNL     1      -7.418   7.122  64.487  1.00  0.00    -0.099 C  
HETATM    6  C   UNL     1      -6.183   5.086  65.194  1.00  0.00    -0.034 C  
HETATM    7  C   UNL     1      -6.942   8.291  64.943  1.00  0.00    -0.074 C  
HETATM    8  C   UNL     1      -6.954   9.612  64.189  1.00  0.00    -0.116 C  
HETATM    9  C   UNL     1      -8.108  10.588  64.640  1.00  0.00    -0.064 C  
HETATM   10  C   UNL     1      -6.940   9.427  62.654  1.00  0.00    -0.094 C  
HETATM   11  C   UNL     1      -9.495   9.971  64.420  1.00  0.00    -0.349 C  
HETATM   12  C   UNL     1      -9.906   9.342  65.743  1.00  0.00    -0.345 C  
HETATM   13  C   UNL     1      -8.977   9.900  66.841  1.00  0.00    -0.154 C  
HETATM   14  C   UNL     1      -9.732  10.244  68.124  1.00  0.00    -0.158 C  
HETATM   15  C   UNL     1      -9.270  11.509  68.801  1.00  0.00    -0.076 C  
HETATM   16  C   UNL     1     -10.691   9.428  68.612  1.00  0.00    -0.196 C  
HETATM   17  C   UNL     1      -6.721  11.251  66.700  1.00  0.00    -0.132 C  
HETATM   18  C   UNL     1      -9.147  12.708  67.851  1.00  0.00    -0.200 C  
HETATM   19  C   UNL     1      -8.153  11.040  66.154  1.00  0.00    -0.141 C  
HETATM   20  C   UNL     1      -8.932  12.364  66.363  1.00  0.00    -0.101 C  
ENDROOT
BRANCH  16  21
HETATM   21  C   UNL     1     -11.221   9.491  69.954  1.00  0.00    -0.209 C  
HETATM   22  C   UNL     1     -11.658   8.476  70.724  1.00  0.00    -0.257 C  
HETATM   23  C   UNL     1     -11.905   7.042  70.283  1.00  0.00    -0.243 C  
HETATM   24  C   UNL     1     -10.973   6.073  71.020  1.00  0.00    -0.286 C  
HETATM   25  C   UNL     1     -11.012   6.272  72.535  1.00  0.00    -0.286 C  
HETATM   26  O   UNL     1      -9.635   6.222  70.544  1.00  0.00    -0.164 OA 
HETATM   27  C   UNL     1     -10.814   7.736  72.944  1.00  0.00    -0.453 C  
HETATM   28  H   UNL     1      -9.057   5.621  71.000  1.00  0.00     0.000 HD 
HETATM   29  C   UNL     1     -11.770   8.706  72.225  1.00  0.00    -0.428 C  
HETATM   30  C   UNL     1     -13.199   8.634  72.752  1.00  0.00    -0.161 C  
ENDBRANCH  16  21
TORSDOF 1
ENDMDL
MODEL       40
REMARK 921   NORMALIZED FREE ENERGY PREDICTED BY IDOCK:   -4.74 KCAL/MOL
REMARK 922        TOTAL FREE ENERGY PREDICTED BY IDOCK:   -5.74 KCAL/MOL
REMARK 923 INTER-LIGAND FREE ENERGY PREDICTED BY IDOCK:   -5.30 KCAL/MOL
REMARK 924 INTRA-LIGAND FREE ENERGY PREDICTED BY IDOCK:   -0.44 KCAL/MOL
REMARK 927      BINDING AFFINITY PREDICTED BY RF-SCORE:    0.00 PKD
ROOT
HETATM    1  C   UNL     1     -11.037   6.489  72.477  1.00  0.00    -0.294 C  
HETATM    2  C   UNL     1      -9.931   7.450  72.017  1.00  0.00    -0.196 C  
HETATM    3  C   UNL     1      -8.781   6.772  71.214  1.00  0.00    -0.128 C  
HETATM    4  C   UNL     1      -9.400   8.216  73.233  1.00  0.00    -0.308 C  
HETATM    5  C   UNL     1      -9.287   6.209  69.904  1.00  0.00    -0.161 C  
HETATM    6  C   UNL     1      -8.037   5.679  71.983  1.00  0.00    -0.112 C  
HETATM    7  C   UNL     1      -8.577   6.189  68.765  1.00  0.00    -0.120 C  
HETATM    8  C   UNL     1      -9.091   5.746  67.404  1.00  0.00    -0.110 C  
HETATM    9  C   UNL     1      -9.466   6.943  66.448  1.00  0.00    -0.170 C  
HETATM   10  C   UNL     1     -10.244   4.720  67.503  1.00  0.00    -0.115 C  
HETATM   11  C   UNL     1     -10.573   7.822  67.044  1.00  0.00    -0.396 C  
HETATM   12  C   UNL     1      -9.878   8.981  67.743  1.00  0.00    -0.209 C  
HETATM   13  C   UNL     1      -8.416   9.021  67.253  1.00  0.00    -0.114 C  
HETATM   14  C   UNL     1      -7.933  10.444  66.978  1.00  0.00    -0.116 C  
HETATM   15  C   UNL     1      -7.061  10.583  65.755  1.00  0.00    -0.124 C  
HETATM   16  C   UNL     1      -8.234  11.461  67.815  1.00  0.00    -0.125 C  
HETATM   17  C   UNL     1      -6.975   7.274  65.910  1.00  0.00    -0.061 C  
HETATM   18  C   UNL     1      -7.639   9.904  64.505  1.00  0.00    -0.139 C  
HETATM   19  C   UNL     1      -8.337   7.986  66.082  1.00  0.00    -0.125 C  
HETATM   20  C   UNL     1      -8.632   8.754  64.767  1.00  0.00    -0.161 C  
ENDROOT
BRANCH  16  21
HETATM   21  C   UNL     1      -7.572  12.744  67.824  1.00  0.00    -0.141 C  
HETATM   22  C   UNL     1      -8.118  13.963  67.653  1.00  0.00    -0.183 C  
HETATM   23  C   UNL     1      -9.532  14.268  67.187  1.00  0.00    -0.229 C  
HETATM   24  C   UNL     1     -10.322  15.005  68.275  1.00  0.00    -0.236 C  
HETATM   25  C   UNL     1      -9.570  16.223  68.811  1.00  0.00    -0.242 C  
HETATM   26  O   UNL     1     -10.631  14.113  69.346  1.00  0.00    -0.404 OA 
HETATM   27  C   UNL     1      -8.129  15.894  69.221  1.00  0.00    -0.228 C  
HETATM   28  H   UNL     1     -11.120  14.570  70.020  1.00  0.00     0.000 HD 
HETATM   29  C   UNL     1      -7.327  15.179  68.118  1.00  0.00    -0.117 C  
HETATM   30  C   UNL     1      -6.912  16.111  66.985  1.00  0.00    -0.234 C  
ENDBRANCH  16  21
TORSDOF 1
ENDMDL
MODEL       41
REMARK 921   NORMALIZED FREE ENERGY PREDICTED BY IDOCK:   -4.72 KCAL/MOL
REMARK 922        TOTAL FREE ENERGY PREDICTED BY IDOCK:   -5.72 KCAL/MOL
REMARK 923 INTER-LIGAND FREE ENERGY PREDICTED BY IDOCK:   -4.98 KCAL/MOL
REMARK 924 INTRA-LIGAND FREE ENERGY PREDICTED BY IDOCK:   -0.75 KCAL/MOL
REMARK 927      BINDING AFFINITY PREDICTED BY RF-SCORE:    0.00 PKD
ROOT
HETATM    1  C   UNL     1     -13.956   8.472  71.083  1.00  0.00    -0.122 C  
HETATM    2  C   UNL     1     -12.818   9.498  70.988  1.00  0.00    -0.295 C  
HETATM    3  C   UNL     1     -11.396   8.908  71.234  1.00  0.00    -0.371 C  
HETATM    4  C   UNL     1     -13.119  10.665  71.933  1.00  0.00    -0.563 C  
HETATM    5  C   UNL     1     -11.025   7.911  70.159  1.00  0.00    -0.235 C  
HETATM    6  C   UNL     1     -11.212   8.266  72.611  1.00  0.00    -0.410 C  
HETATM    7  C   UNL     1      -9.782   7.744  69.679  1.00  0.00    -0.172 C  
HETATM    8  C   UNL     1      -9.391   6.843  68.519  1.00  0.00    -0.134 C  
HETATM    9  C   UNL     1      -9.169   7.616  67.163  1.00  0.00    -0.158 C  
HETATM   10  C   UNL     1     -10.354   5.647  68.336  1.00  0.00    -0.258 C  
HETATM   11  C   UNL     1     -10.440   8.347  66.710  1.00  0.00    -0.315 C  
HETATM   12  C   UNL     1     -10.318   9.779  67.209  1.00  0.00    -0.308 C  
HETATM   13  C   UNL     1      -8.847  10.018  67.608  1.00  0.00    -0.121 C  
HETATM   14  C   UNL     1      -8.334  11.384  67.155  1.00  0.00    -0.155 C  
HETATM   15  C   UNL     1      -6.917  11.380  66.641  1.00  0.00    -0.102 C  
HETATM   16  C   UNL     1      -9.097  12.493  67.272  1.00  0.00    -0.189 C  
HETATM   17  C   UNL     1      -6.844   8.349  67.977  1.00  0.00    -0.070 C  
HETATM   18  C   UNL     1      -6.635  10.274  65.615  1.00  0.00    -0.122 C  
HETATM   19  C   UNL     1      -8.069   8.750  67.122  1.00  0.00    -0.100 C  
HETATM   20  C   UNL     1      -7.560   9.043  65.686  1.00  0.00    -0.086 C  
ENDROOT
BRANCH  16  21
HETATM   21  C   UNL     1      -8.602  13.846  67.182  1.00  0.00    -0.217 C  
HETATM   22  C   UNL     1      -8.161  14.638  68.178  1.00  0.00    -0.142 C  
HETATM   23  C   UNL     1      -8.285  14.376  69.669  1.00  0.00     0.433 C  
HETATM   24  C   UNL     1      -6.904  14.233  70.319  1.00  0.00     0.122 C  
HETATM   25  C   UNL     1      -5.977  15.398  69.969  1.00  0.00    -0.146 C  
HETATM   26  O   UNL     1      -6.302  12.999  69.929  1.00  0.00    -0.259 OA 
HETATM   27  C   UNL     1      -5.916  15.671  68.461  1.00  0.00    -0.100 C  
HETATM   28  H   UNL     1      -5.447  12.910  70.331  1.00  0.00     0.000 HD 
HETATM   29  C   UNL     1      -7.303  15.843  67.815  1.00  0.00    -0.162 C  
HETATM   30  C   UNL     1      -7.953  17.181  68.146  1.00  0.00    -0.216 C  
ENDBRANCH  16  21
TORSDOF 1
ENDMDL
MODEL       42
REMARK 921   NORMALIZED FREE ENERGY PREDICTED BY IDOCK:   -4.72 KCAL/MOL
REMARK 922        TOTAL FREE ENERGY PREDICTED BY IDOCK:   -5.72 KCAL/MOL
REMARK 923 INTER-LIGAND FREE ENERGY PREDICTED BY IDOCK:   -5.24 KCAL/MOL
REMARK 924 INTRA-LIGAND FREE ENERGY PREDICTED BY IDOCK:   -0.48 KCAL/MOL
REMARK 927      BINDING AFFINITY PREDICTED BY RF-SCORE:    0.00 PKD
ROOT
HETATM    1  C   UNL     1     -11.782  12.175  66.960  1.00  0.00    -0.373 C  
HETATM    2  C   UNL     1     -10.597  11.253  66.638  1.00  0.00    -0.309 C  
HETATM    3  C   UNL     1      -9.555  11.118  67.789  1.00  0.00    -0.180 C  
HETATM    4  C   UNL     1      -9.943  11.719  65.333  1.00  0.00    -0.284 C  
HETATM    5  C   UNL     1     -10.164  10.451  69.003  1.00  0.00    -0.233 C  
HETATM    6  C   UNL     1      -8.905  12.439  68.207  1.00  0.00    -0.174 C  
HETATM    7  C   UNL     1      -9.500   9.619  69.821  1.00  0.00    -0.242 C  
HETATM    8  C   UNL     1     -10.108   8.837  70.976  1.00  0.00    -0.301 C  
HETATM    9  C   UNL     1     -10.386   7.323  70.637  1.00  0.00    -0.213 C  
HETATM   10  C   UNL     1     -11.359   9.521  71.573  1.00  0.00    -0.456 C  
HETATM   11  C   UNL     1     -11.371   7.171  69.470  1.00  0.00    -0.056 C  
HETATM   12  C   UNL     1     -10.531   6.996  68.213  1.00  0.00    -0.237 C  
HETATM   13  C   UNL     1      -9.092   6.654  68.649  1.00  0.00    -0.126 C  
HETATM   14  C   UNL     1      -8.469   5.553  67.793  1.00  0.00    -0.098 C  
HETATM   15  C   UNL     1      -7.632   4.562  68.561  1.00  0.00    -0.064 C  
HETATM   16  C   UNL     1      -8.631   5.533  66.452  1.00  0.00    -0.121 C  
HETATM   17  C   UNL     1      -7.894   6.800  70.990  1.00  0.00    -0.101 C  
HETATM   18  C   UNL     1      -8.323   4.013  69.817  1.00  0.00    -0.080 C  
HETATM   19  C   UNL     1      -9.166   6.420  70.195  1.00  0.00    -0.160 C  
HETATM   20  C   UNL     1      -9.423   4.908  70.421  1.00  0.00    -0.233 C  
ENDROOT
BRANCH  16  21
HETATM   21  C   UNL     1      -7.835   4.747  65.538  1.00  0.00    -0.094 C  
HETATM   22  C   UNL     1      -8.215   3.679  64.812  1.00  0.00    -0.090 C  
HETATM   23  C   UNL     1      -9.517   2.906  64.945  1.00  0.00    -0.123 C  
HETATM   24  C   UNL     1     -10.349   3.005  63.662  1.00  0.00    -0.209 C  
HETATM   25  C   UNL     1      -9.538   2.644  62.417  1.00  0.00    -0.088 C  
HETATM   26  O   UNL     1     -10.888   4.320  63.526  1.00  0.00    -0.436 OA 
HETATM   27  C   UNL     1      -8.206   3.399  62.340  1.00  0.00    -0.072 C  
HETATM   28  H   UNL     1     -11.403   4.382  62.730  1.00  0.00     0.000 HD 
HETATM   29  C   UNL     1      -7.358   3.276  63.619  1.00  0.00    -0.058 C  
HETATM   30  C   UNL     1      -6.702   1.908  63.769  1.00  0.00    -0.026 C  
ENDBRANCH  16  21
TORSDOF 1
ENDMDL
MODEL       43
REMARK 921   NORMALIZED FREE ENERGY PREDICTED BY IDOCK:   -4.69 KCAL/MOL
REMARK 922        TOTAL FREE ENERGY PREDICTED BY IDOCK:   -5.68 KCAL/MOL
REMARK 923 INTER-LIGAND FREE ENERGY PREDICTED BY IDOCK:   -4.91 KCAL/MOL
REMARK 924 INTRA-LIGAND FREE ENERGY PREDICTED BY IDOCK:   -0.77 KCAL/MOL
REMARK 927      BINDING AFFINITY PREDICTED BY RF-SCORE:    0.00 PKD
ROOT
HETATM    1  C   UNL     1      -9.660   3.951  68.960  1.00  0.00    -0.209 C  
HETATM    2  C   UNL     1      -9.767   5.463  68.714  1.00  0.00    -0.194 C  
HETATM    3  C   UNL     1      -8.433   6.244  68.910  1.00  0.00    -0.120 C  
HETATM    4  C   UNL     1     -10.890   6.031  69.588  1.00  0.00    -0.439 C  
HETATM    5  C   UNL     1      -7.399   5.823  67.889  1.00  0.00    -0.077 C  
HETATM    6  C   UNL     1      -7.838   6.131  70.315  1.00  0.00    -0.102 C  
HETATM    7  C   UNL     1      -6.495   6.651  67.342  1.00  0.00    -0.048 C  
HETATM    8  C   UNL     1      -5.523   6.295  66.229  1.00  0.00    -0.013 C  
HETATM    9  C   UNL     1      -5.972   6.809  64.807  1.00  0.00    -0.035 C  
HETATM   10  C   UNL     1      -5.169   4.790  66.198  1.00  0.00    -0.009 C  
HETATM   11  C   UNL     1      -7.321   6.213  64.386  1.00  0.00    -0.069 C  
HETATM   12  C   UNL     1      -8.385   7.232  64.769  1.00  0.00     0.011 C  
HETATM   13  C   UNL     1      -7.676   8.572  65.051  1.00  0.00    -0.102 C  
HETATM   14  C   UNL     1      -8.430   9.765  64.465  1.00  0.00    -0.182 C  
HETATM   15  C   UNL     1      -7.546  10.827  63.861  1.00  0.00     0.315 C  
HETATM   16  C   UNL     1      -9.775   9.854  64.549  1.00  0.00    -0.223 C  
HETATM   17  C   UNL     1      -5.136   9.163  65.410  1.00  0.00    -0.036 C  
HETATM   18  C   UNL     1      -6.482  10.273  62.903  1.00  0.00    -0.136 C  
HETATM   19  C   UNL     1      -6.189   8.362  64.610  1.00  0.00    -0.065 C  
HETATM   20  C   UNL     1      -6.081   8.801  63.126  1.00  0.00    -0.086 C  
ENDROOT
BRANCH  16  21
HETATM   21  C   UNL     1     -10.536  11.061  64.327  1.00  0.00    -0.402 C  
HETATM   22  C   UNL     1     -10.816  12.040  65.207  1.00  0.00    -0.340 C  
HETATM   23  C   UNL     1     -10.586  12.007  66.709  1.00  0.00    -0.260 C  
HETATM   24  C   UNL     1      -9.577  13.080  67.134  1.00  0.00    -0.230 C  
HETATM   25  C   UNL     1      -9.941  14.463  66.594  1.00  0.00    -0.278 C  
HETATM   26  O   UNL     1      -8.265  12.719  66.702  1.00  0.00    -0.406 OA 
HETATM   27  C   UNL     1     -10.221  14.452  65.086  1.00  0.00    -0.420 C  
HETATM   28  H   UNL     1      -7.640  13.384  66.965  1.00  0.00     0.000 HD 
HETATM   29  C   UNL     1     -11.256  13.394  64.663  1.00  0.00    -0.377 C  
HETATM   30  C   UNL     1     -12.684  13.772  65.040  1.00  0.00    -0.379 C  
ENDBRANCH  16  21
TORSDOF 1
ENDMDL
MODEL       44
REMARK 921   NORMALIZED FREE ENERGY PREDICTED BY IDOCK:   -4.68 KCAL/MOL
REMARK 922        TOTAL FREE ENERGY PREDICTED BY IDOCK:   -5.68 KCAL/MOL
REMARK 923 INTER-LIGAND FREE ENERGY PREDICTED BY IDOCK:   -4.92 KCAL/MOL
REMARK 924 INTRA-LIGAND FREE ENERGY PREDICTED BY IDOCK:   -0.76 KCAL/MOL
REMARK 927      BINDING AFFINITY PREDICTED BY RF-SCORE:    0.00 PKD
ROOT
HETATM    1  C   UNL     1      -5.310  10.545  64.881  1.00  0.00    -0.147 C  
HETATM    2  C   UNL     1      -6.352  10.089  65.912  1.00  0.00    -0.091 C  
HETATM    3  C   UNL     1      -7.643   9.473  65.294  1.00  0.00    -0.111 C  
HETATM    4  C   UNL     1      -6.673  11.259  66.847  1.00  0.00    -0.135 C  
HETATM    5  C   UNL     1      -7.336   8.189  64.554  1.00  0.00    -0.088 C  
HETATM    6  C   UNL     1      -8.413  10.421  64.372  1.00  0.00    -0.166 C  
HETATM    7  C   UNL     1      -8.159   7.130  64.504  1.00  0.00    -0.069 C  
HETATM    8  C   UNL     1      -7.837   5.783  63.876  1.00  0.00    -0.117 C  
HETATM    9  C   UNL     1      -7.441   4.674  64.924  1.00  0.00    -0.073 C  
HETATM   10  C   UNL     1      -6.792   5.884  62.740  1.00  0.00    -0.040 C  
HETATM   11  C   UNL     1      -6.193   5.067  65.726  1.00  0.00    -0.034 C  
HETATM   12  C   UNL     1      -6.689   5.699  67.018  1.00  0.00    -0.062 C  
HETATM   13  C   UNL     1      -8.182   5.344  67.177  1.00  0.00    -0.104 C  
HETATM   14  C   UNL     1      -8.541   4.963  68.612  1.00  0.00    -0.099 C  
HETATM   15  C   UNL     1      -9.516   3.818  68.729  1.00  0.00    -0.220 C  
HETATM   16  C   UNL     1      -8.051   5.654  69.664  1.00  0.00    -0.102 C  
HETATM   17  C   UNL     1      -9.927   4.335  65.483  1.00  0.00    -0.233 C  
HETATM   18  C   UNL     1      -9.143   2.601  67.872  1.00  0.00    -0.227 C  
HETATM   19  C   UNL     1      -8.488   4.303  66.049  1.00  0.00    -0.113 C  
HETATM   20  C   UNL     1      -8.254   2.891  66.647  1.00  0.00    -0.087 C  
ENDROOT
BRANCH  16  21
HETATM   21  C   UNL     1      -8.572   5.587  71.009  1.00  0.00    -0.126 C  
HETATM   22  C   UNL     1      -9.538   6.343  71.565  1.00  0.00    -0.169 C  
HETATM   23  C   UNL     1     -10.159   7.600  70.978  1.00  0.00    -0.196 C  
HETATM   24  C   UNL     1     -11.655   7.399  70.709  1.00  0.00    -0.290 C  
HETATM   25  C   UNL     1     -12.394   6.855  71.932  1.00  0.00    -0.364 C  
HETATM   26  O   UNL     1     -11.842   6.522  69.598  1.00  0.00    -0.645 OA 
HETATM   27  C   UNL     1     -11.712   5.620  72.533  1.00  0.00    -0.255 C  
HETATM   28  H   UNL     1     -12.768   6.398  69.432  1.00  0.00     0.000 HD 
HETATM   29  C   UNL     1     -10.216   5.832  72.829  1.00  0.00    -0.211 C  
HETATM   30  C   UNL     1      -9.969   6.705  74.054  1.00  0.00    -0.346 C  
ENDBRANCH  16  21
TORSDOF 1
ENDMDL
MODEL       45
REMARK 921   NORMALIZED FREE ENERGY PREDICTED BY IDOCK:   -4.59 KCAL/MOL
REMARK 922        TOTAL FREE ENERGY PREDICTED BY IDOCK:   -5.58 KCAL/MOL
REMARK 923 INTER-LIGAND FREE ENERGY PREDICTED BY IDOCK:   -5.07 KCAL/MOL
REMARK 924 INTRA-LIGAND FREE ENERGY PREDICTED BY IDOCK:   -0.51 KCAL/MOL
REMARK 927      BINDING AFFINITY PREDICTED BY RF-SCORE:    0.00 PKD
ROOT
HETATM    1  C   UNL     1     -12.755  12.776  64.939  1.00  0.00    -0.479 C  
HETATM    2  C   UNL     1     -11.389  12.081  64.831  1.00  0.00    -0.366 C  
HETATM    3  C   UNL     1     -10.359  12.513  65.917  1.00  0.00    -0.284 C  
HETATM    4  C   UNL     1     -10.839  12.281  63.415  1.00  0.00    -0.457 C  
HETATM    5  C   UNL     1     -10.820  12.109  67.300  1.00  0.00    -0.286 C  
HETATM    6  C   UNL     1     -10.025  14.006  65.908  1.00  0.00    -0.325 C  
HETATM    7  C   UNL     1      -9.998  11.713  68.285  1.00  0.00    -0.201 C  
HETATM    8  C   UNL     1     -10.431  11.184  69.644  1.00  0.00     0.003 C  
HETATM    9  C   UNL     1     -10.360   9.614  69.764  1.00  0.00    -0.266 C  
HETATM   10  C   UNL     1     -11.811  11.722  70.086  1.00  0.00    -0.408 C  
HETATM   11  C   UNL     1     -11.271   8.922  68.741  1.00  0.00     0.325 C  
HETATM   12  C   UNL     1     -10.397   8.579  67.543  1.00  0.00    -0.334 C  
HETATM   13  C   UNL     1      -8.923   8.699  67.983  1.00  0.00    -0.141 C  
HETATM   14  C   UNL     1      -8.060   7.560  67.443  1.00  0.00    -0.116 C  
HETATM   15  C   UNL     1      -7.033   7.039  68.416  1.00  0.00    -0.076 C  
HETATM   16  C   UNL     1      -8.195   7.119  66.173  1.00  0.00    -0.128 C  
HETATM   17  C   UNL     1      -7.819   9.770  70.120  1.00  0.00    -0.196 C  
HETATM   18  C   UNL     1      -7.600   6.739  69.811  1.00  0.00    -0.104 C  
HETATM   19  C   UNL     1      -8.964   8.910  69.533  1.00  0.00    -0.145 C  
HETATM   20  C   UNL     1      -8.880   7.509  70.193  1.00  0.00    -0.147 C  
ENDROOT
BRANCH  16  21
HETATM   21  C   UNL     1      -7.232   6.296  65.480  1.00  0.00    -0.070 C  
HETATM   22  C   UNL     1      -7.300   4.977  65.221  1.00  0.00    -0.072 C  
HETATM   23  C   UNL     1      -8.306   3.989  65.790  1.00  0.00    -0.109 C  
HETATM   24  C   UNL     1      -9.173   3.386  64.679  1.00  0.00    -0.140 C  
HETATM   25  C   UNL     1      -8.333   2.824  63.531  1.00  0.00    -0.086 C  
HETATM   26  O   UNL     1     -10.084   4.365  64.180  1.00  0.00    -0.366 OA 
HETATM   27  C   UNL     1      -7.291   3.825  63.017  1.00  0.00    -0.050 C  
HETATM   28  H   UNL     1     -10.621   3.992  63.491  1.00  0.00     0.000 HD 
HETATM   29  C   UNL     1      -6.402   4.409  64.130  1.00  0.00    -0.034 C  
HETATM   30  C   UNL     1      -5.363   3.419  64.643  1.00  0.00    -0.009 C  
ENDBRANCH  16  21
TORSDOF 1
ENDMDL
MODEL       46
REMARK 921   NORMALIZED FREE ENERGY PREDICTED BY IDOCK:   -4.58 KCAL/MOL
REMARK 922        TOTAL FREE ENERGY PREDICTED BY IDOCK:   -5.57 KCAL/MOL
REMARK 923 INTER-LIGAND FREE ENERGY PREDICTED BY IDOCK:   -5.09 KCAL/MOL
REMARK 924 INTRA-LIGAND FREE ENERGY PREDICTED BY IDOCK:   -0.47 KCAL/MOL
REMARK 927      BINDING AFFINITY PREDICTED BY RF-SCORE:    0.00 PKD
ROOT
HETATM    1  C   UNL     1      -9.386   5.800  74.035  1.00  0.00    -0.133 C  
HETATM    2  C   UNL     1      -8.999   6.728  72.875  1.00  0.00    -0.141 C  
HETATM    3  C   UNL     1      -7.618   6.408  72.227  1.00  0.00    -0.097 C  
HETATM    4  C   UNL     1      -9.077   8.182  73.352  1.00  0.00    -0.309 C  
HETATM    5  C   UNL     1      -7.628   5.048  71.564  1.00  0.00    -0.096 C  
HETATM    6  C   UNL     1      -6.435   6.495  73.193  1.00  0.00    -0.064 C  
HETATM    7  C   UNL     1      -6.961   4.751  70.438  1.00  0.00    -0.045 C  
HETATM    8  C   UNL     1      -7.043   3.436  69.678  1.00  0.00    -0.041 C  
HETATM    9  C   UNL     1      -7.971   3.497  68.404  1.00  0.00    -0.072 C  
HETATM   10  C   UNL     1      -7.409   2.239  70.585  1.00  0.00    -0.033 C  
HETATM   11  C   UNL     1      -9.417   3.855  68.770  1.00  0.00    -0.224 C  
HETATM   12  C   UNL     1      -9.553   5.359  68.582  1.00  0.00    -0.173 C  
HETATM   13  C   UNL     1      -8.347   5.844  67.751  1.00  0.00    -0.108 C  
HETATM   14  C   UNL     1      -8.745   6.867  66.689  1.00  0.00    -0.129 C  
HETATM   15  C   UNL     1      -8.031   6.708  65.370  1.00  0.00    -0.121 C  
HETATM   16  C   UNL     1      -9.625   7.854  66.962  1.00  0.00    -0.247 C  
HETATM   17  C   UNL     1      -6.085   4.663  67.104  1.00  0.00    -0.031 C  
HETATM   18  C   UNL     1      -8.037   5.269  64.834  1.00  0.00    -0.122 C  
HETATM   19  C   UNL     1      -7.617   4.544  67.273  1.00  0.00    -0.085 C  
HETATM   20  C   UNL     1      -8.211   4.162  65.893  1.00  0.00    -0.109 C  
ENDROOT
BRANCH  16  21
HETATM   21  C   UNL     1      -9.814   9.036  66.153  1.00  0.00    -0.349 C  
HETATM   22  C   UNL     1     -10.369  10.209  66.512  1.00  0.00    -0.270 C  
HETATM   23  C   UNL     1     -11.132  10.498  67.794  1.00  0.00    -0.382 C  
HETATM   24  C   UNL     1     -10.410  11.557  68.636  1.00  0.00    -0.210 C  
HETATM   25  C   UNL     1     -10.066  12.805  67.824  1.00  0.00    -0.224 C  
HETATM   26  O   UNL     1      -9.224  11.005  69.207  1.00  0.00    -0.389 OA 
HETATM   27  C   UNL     1      -9.346  12.476  66.511  1.00  0.00    -0.233 C  
HETATM   28  H   UNL     1      -8.776  11.660  69.728  1.00  0.00     0.000 HD 
HETATM   29  C   UNL     1     -10.086  11.434  65.652  1.00  0.00    -0.293 C  
HETATM   30  C   UNL     1     -11.322  12.000  64.964  1.00  0.00    -0.365 C  
ENDBRANCH  16  21
TORSDOF 1
ENDMDL
MODEL       47
REMARK 921   NORMALIZED FREE ENERGY PREDICTED BY IDOCK:   -4.54 KCAL/MOL
REMARK 922        TOTAL FREE ENERGY PREDICTED BY IDOCK:   -5.53 KCAL/MOL
REMARK 923 INTER-LIGAND FREE ENERGY PREDICTED BY IDOCK:   -4.87 KCAL/MOL
REMARK 924 INTRA-LIGAND FREE ENERGY PREDICTED BY IDOCK:   -0.66 KCAL/MOL
REMARK 927      BINDING AFFINITY PREDICTED BY RF-SCORE:    0.00 PKD
ROOT
HETATM    1  C   UNL     1      -8.963   3.996  66.945  1.00  0.00    -0.141 C  
HETATM    2  C   UNL     1      -9.565   5.404  67.068  1.00  0.00    -0.147 C  
HETATM    3  C   UNL     1      -9.419   6.045  68.480  1.00  0.00    -0.127 C  
HETATM    4  C   UNL     1     -11.027   5.361  66.612  1.00  0.00    -0.074 C  
HETATM    5  C   UNL     1      -7.966   6.283  68.825  1.00  0.00    -0.102 C  
HETATM    6  C   UNL     1     -10.086   5.249  69.604  1.00  0.00    -0.327 C  
HETATM    7  C   UNL     1      -7.520   7.328  69.541  1.00  0.00    -0.091 C  
HETATM    8  C   UNL     1      -6.061   7.667  69.804  1.00  0.00    -0.027 C  
HETATM    9  C   UNL     1      -5.502   8.821  68.885  1.00  0.00    -0.037 C  
HETATM   10  C   UNL     1      -5.140   6.425  69.771  1.00  0.00    -0.013 C  
HETATM   11  C   UNL     1      -5.581   8.454  67.398  1.00  0.00    -0.039 C  
HETATM   12  C   UNL     1      -6.875   9.055  66.870  1.00  0.00    -0.077 C  
HETATM   13  C   UNL     1      -7.372  10.089  67.901  1.00  0.00    -0.088 C  
HETATM   14  C   UNL     1      -7.895  11.365  67.242  1.00  0.00    -0.149 C  
HETATM   15  C   UNL     1      -7.530  12.636  67.965  1.00  0.00    -0.120 C  
HETATM   16  C   UNL     1      -8.667  11.315  66.134  1.00  0.00    -0.179 C  
HETATM   17  C   UNL     1      -6.655  10.557  70.391  1.00  0.00    -0.103 C  
HETATM   18  C   UNL     1      -6.043  12.731  68.335  1.00  0.00    -0.069 C  
HETATM   19  C   UNL     1      -6.214  10.231  68.944  1.00  0.00    -0.047 C  
HETATM   20  C   UNL     1      -5.299  11.388  68.464  1.00  0.00    -0.042 C  
ENDROOT
BRANCH  16  21
HETATM   21  C   UNL     1      -9.464  12.411  65.636  1.00  0.00    -0.046 C  
HETATM   22  C   UNL     1     -10.655  12.846  66.089  1.00  0.00    -0.287 C  
HETATM   23  C   UNL     1     -11.554  12.149  67.096  1.00  0.00    -0.405 C  
HETATM   24  C   UNL     1     -11.722  12.997  68.362  1.00  0.00    -0.351 C  
HETATM   25  C   UNL     1     -12.143  14.432  68.046  1.00  0.00    -0.266 C  
HETATM   26  O   UNL     1     -10.510  13.000  69.116  1.00  0.00    -0.432 OA 
HETATM   27  C   UNL     1     -11.249  15.089  66.986  1.00  0.00    -0.328 C  
HETATM   28  H   UNL     1     -10.614  13.526  69.900  1.00  0.00     0.000 HD 
HETATM   29  C   UNL     1     -11.104  14.250  65.703  1.00  0.00    -0.316 C  
HETATM   30  C   UNL     1     -12.352  14.277  64.829  1.00  0.00    -0.440 C  
ENDBRANCH  16  21
TORSDOF 1
ENDMDL
MODEL       48
REMARK 921   NORMALIZED FREE ENERGY PREDICTED BY IDOCK:   -4.39 KCAL/MOL
REMARK 922        TOTAL FREE ENERGY PREDICTED BY IDOCK:   -5.37 KCAL/MOL
REMARK 923 INTER-LIGAND FREE ENERGY PREDICTED BY IDOCK:   -4.85 KCAL/MOL
REMARK 924 INTRA-LIGAND FREE ENERGY PREDICTED BY IDOCK:   -0.52 KCAL/MOL
REMARK 927      BINDING AFFINITY PREDICTED BY RF-SCORE:    0.00 PKD
ROOT
HETATM    1  C   UNL     1      -6.199  17.852  65.939  1.00  0.00    -0.273 C  
HETATM    2  C   UNL     1      -6.376  16.901  67.132  1.00  0.00    -0.221 C  
HETATM    3  C   UNL     1      -7.754  17.018  67.851  1.00  0.00    -0.180 C  
HETATM    4  C   UNL     1      -5.210  17.101  68.105  1.00  0.00    -0.120 C  
HETATM    5  C   UNL     1      -8.885  16.604  66.936  1.00  0.00    -0.235 C  
HETATM    6  C   UNL     1      -8.047  18.406  68.426  1.00  0.00    -0.327 C  
HETATM    7  C   UNL     1      -9.993  15.966  67.345  1.00  0.00    -0.239 C  
HETATM    8  C   UNL     1     -11.092  15.426  66.442  1.00  0.00    -0.230 C  
HETATM    9  C   UNL     1     -11.005  13.870  66.200  1.00  0.00    -0.293 C  
HETATM   10  C   UNL     1     -11.207  16.199  65.108  1.00  0.00    -0.150 C  
HETATM   11  C   UNL     1      -9.684  13.471  65.530  1.00  0.00    -0.072 C  
HETATM   12  C   UNL     1      -8.739  13.055  66.648  1.00  0.00    -0.030 C  
HETATM   13  C   UNL     1      -9.580  12.831  67.921  1.00  0.00    -0.211 C  
HETATM   14  C   UNL     1      -9.145  11.587  68.695  1.00  0.00    -0.124 C  
HETATM   15  C   UNL     1     -10.281  10.786  69.278  1.00  0.00    -0.217 C  
HETATM   16  C   UNL     1      -7.839  11.292  68.870  1.00  0.00    -0.114 C  
HETATM   17  C   UNL     1     -12.067  13.467  68.506  1.00  0.00    -0.303 C  
HETATM   18  C   UNL     1     -11.408  10.493  68.278  1.00  0.00    -0.332 C  
HETATM   19  C   UNL     1     -11.073  12.915  67.458  1.00  0.00    -0.302 C  
HETATM   20  C   UNL     1     -11.526  11.476  67.097  1.00  0.00    -0.313 C  
ENDROOT
BRANCH  16  21
HETATM   21  C   UNL     1      -7.330  10.348  69.837  1.00  0.00    -0.149 C  
HETATM   22  C   UNL     1      -7.210   9.013  69.712  1.00  0.00    -0.056 C  
HETATM   23  C   UNL     1      -7.788   8.148  68.604  1.00  0.00    -0.114 C  
HETATM   24  C   UNL     1      -6.674   7.467  67.801  1.00  0.00    -0.062 C  
HETATM   25  C   UNL     1      -5.676   6.737  68.700  1.00  0.00    -0.018 C  
HETATM   26  O   UNL     1      -5.991   8.428  66.996  1.00  0.00    -0.051 OA 
HETATM   27  C   UNL     1      -5.153   7.620  69.840  1.00  0.00    -0.023 C  
HETATM   28  H   UNL     1      -5.300   8.007  66.499  1.00  0.00     0.000 HD 
HETATM   29  C   UNL     1      -6.273   8.281  70.665  1.00  0.00    -0.036 C  
HETATM   30  C   UNL     1      -6.984   7.304  71.595  1.00  0.00    -0.059 C  
ENDBRANCH  16  21
TORSDOF 1
ENDMDL
MODEL       49
REMARK 921   NORMALIZED FREE ENERGY PREDICTED BY IDOCK:   -4.17 KCAL/MOL
REMARK 922        TOTAL FREE ENERGY PREDICTED BY IDOCK:   -5.14 KCAL/MOL
REMARK 923 INTER-LIGAND FREE ENERGY PREDICTED BY IDOCK:   -4.54 KCAL/MOL
REMARK 924 INTRA-LIGAND FREE ENERGY PREDICTED BY IDOCK:   -0.60 KCAL/MOL
REMARK 927      BINDING AFFINITY PREDICTED BY RF-SCORE:    0.00 PKD
ROOT
HETATM    1  C   UNL     1      -9.081  18.625  66.725  1.00  0.00    -0.301 C  
HETATM    2  C   UNL     1      -8.378  17.270  66.559  1.00  0.00    -0.312 C  
HETATM    3  C   UNL     1      -8.205  16.467  67.883  1.00  0.00    -0.170 C  
HETATM    4  C   UNL     1      -7.038  17.488  65.848  1.00  0.00    -0.212 C  
HETATM    5  C   UNL     1      -9.546  16.067  68.459  1.00  0.00    -0.215 C  
HETATM    6  C   UNL     1      -7.385  17.189  68.954  1.00  0.00    -0.241 C  
HETATM    7  C   UNL     1      -9.777  14.916  69.109  1.00  0.00    -0.184 C  
HETATM    8  C   UNL     1     -11.132  14.425  69.594  1.00  0.00    -0.241 C  
HETATM    9  C   UNL     1     -11.783  13.335  68.659  1.00  0.00    -0.376 C  
HETATM   10  C   UNL     1     -12.119  15.579  69.887  1.00  0.00    -0.378 C  
HETATM   11  C   UNL     1     -12.018  13.869  67.240  1.00  0.00    -0.446 C  
HETATM   12  C   UNL     1     -10.816  13.443  66.410  1.00  0.00    -0.294 C  
HETATM   13  C   UNL     1     -10.063  12.349  67.195  1.00  0.00    -0.221 C  
HETATM   14  C   UNL     1      -9.598  11.204  66.297  1.00  0.00    -0.234 C  
HETATM   15  C   UNL     1      -9.734   9.834  66.911  1.00  0.00    -0.243 C  
HETATM   16  C   UNL     1      -9.061  11.441  65.080  1.00  0.00    -0.058 C  
HETATM   17  C   UNL     1     -10.252  11.551  69.697  1.00  0.00     0.474 C  
HETATM   18  C   UNL     1     -11.111   9.571  67.535  1.00  0.00     0.021 C  
HETATM   19  C   UNL     1     -10.985  11.994  68.409  1.00  0.00    -0.276 C  
HETATM   20  C   UNL     1     -11.900  10.823  67.966  1.00  0.00     0.047 C  
ENDROOT
BRANCH  16  21
HETATM   21  C   UNL     1      -8.308  10.480  64.310  1.00  0.00    -0.092 C  
HETATM   22  C   UNL     1      -7.038  10.074  64.501  1.00  0.00    -0.139 C  
HETATM   23  C   UNL     1      -6.017  10.694  65.439  1.00  0.00    -0.105 C  
HETATM   24  C   UNL     1      -5.597   9.701  66.529  1.00  0.00    -0.049 C  
HETATM   25  C   UNL     1      -5.168   8.353  65.949  1.00  0.00    -0.031 C  
HETATM   26  O   UNL     1      -6.664   9.512  67.459  1.00  0.00    -0.066 OA 
HETATM   27  C   UNL     1      -6.194   7.780  64.964  1.00  0.00    -0.038 C  
HETATM   28  H   UNL     1      -6.404   8.897  68.134  1.00  0.00     0.000 HD 
HETATM   29  C   UNL     1      -6.594   8.769  63.853  1.00  0.00    -0.087 C  
HETATM   30  C   UNL     1      -5.510   8.946  62.796  1.00  0.00    -0.070 C  
ENDBRANCH  16  21
TORSDOF 1
ENDMDL
MODEL       50
REMARK 921   NORMALIZED FREE ENERGY PREDICTED BY IDOCK:   -4.16 KCAL/MOL
REMARK 922        TOTAL FREE ENERGY PREDICTED BY IDOCK:   -5.13 KCAL/MOL
REMARK 923 INTER-LIGAND FREE ENERGY PREDICTED BY IDOCK:   -4.69 KCAL/MOL
REMARK 924 INTRA-LIGAND FREE ENERGY PREDICTED BY IDOCK:   -0.44 KCAL/MOL
REMARK 927      BINDING AFFINITY PREDICTED BY RF-SCORE:    0.00 PKD
ROOT
HETATM    1  C   UNL     1     -11.291  14.846  70.536  1.00  0.00    -0.280 C  
HETATM    2  C   UNL     1     -11.540  13.369  70.200  1.00  0.00    -0.171 C  
HETATM    3  C   UNL     1     -11.301  12.997  68.706  1.00  0.00    -0.332 C  
HETATM    4  C   UNL     1     -12.949  12.984  70.662  1.00  0.00     0.044 C  
HETATM    5  C   UNL     1      -9.848  13.176  68.324  1.00  0.00    -0.227 C  
HETATM    6  C   UNL     1     -12.185  13.763  67.719  1.00  0.00    -0.208 C  
HETATM    7  C   UNL     1      -9.193  12.389  67.456  1.00  0.00    -0.183 C  
HETATM    8  C   UNL     1      -7.707  12.461  67.140  1.00  0.00    -0.122 C  
HETATM    9  C   UNL     1      -6.850  11.356  67.869  1.00  0.00    -0.072 C  
HETATM   10  C   UNL     1      -7.113  13.871  67.359  1.00  0.00    -0.091 C  
HETATM   11  C   UNL     1      -6.955  11.469  69.395  1.00  0.00    -0.071 C  
HETATM   12  C   UNL     1      -8.043  10.498  69.829  1.00  0.00     0.017 C  
HETATM   13  C   UNL     1      -8.317   9.538  68.654  1.00  0.00    -0.117 C  
HETATM   14  C   UNL     1      -8.490   8.090  69.111  1.00  0.00    -0.136 C  
HETATM   15  C   UNL     1      -7.858   7.068  68.201  1.00  0.00    -0.118 C  
HETATM   16  C   UNL     1      -9.205   7.785  70.216  1.00  0.00    -0.156 C  
HETATM   17  C   UNL     1      -7.609   9.633  66.120  1.00  0.00    -0.102 C  
HETATM   18  C   UNL     1      -6.408   7.395  67.817  1.00  0.00    -0.048 C  
HETATM   19  C   UNL     1      -7.202   9.839  67.597  1.00  0.00    -0.089 C  
HETATM   20  C   UNL     1      -6.016   8.884  67.892  1.00  0.00    -0.050 C  
ENDROOT
BRANCH  16  21
HETATM   21  C   UNL     1      -9.693   6.466  70.543  1.00  0.00    -0.186 C  
HETATM   22  C   UNL     1      -9.495   5.764  71.675  1.00  0.00    -0.172 C  
HETATM   23  C   UNL     1      -8.525   6.100  72.795  1.00  0.00    -0.123 C  
HETATM   24  C   UNL     1      -9.273   6.374  74.106  1.00  0.00    -0.166 C  
HETATM   25  C   UNL     1     -10.259   5.258  74.453  1.00  0.00    -0.299 C  
HETATM   26  O   UNL     1      -9.960   7.623  74.028  1.00  0.00    -0.376 OA 
HETATM   27  C   UNL     1     -11.187   4.905  73.284  1.00  0.00    -0.423 C  
HETATM   28  H   UNL     1     -10.423   7.792  74.839  1.00  0.00     0.000 HD 
HETATM   29  C   UNL     1     -10.434   4.602  71.976  1.00  0.00    -0.198 C  
HETATM   30  C   UNL     1      -9.744   3.243  71.986  1.00  0.00    -0.235 C  
ENDBRANCH  16  21
TORSDOF 1
ENDMDL
MODEL       51
REMARK 921   NORMALIZED FREE ENERGY PREDICTED BY IDOCK:   -4.12 KCAL/MOL
REMARK 922        TOTAL FREE ENERGY PREDICTED BY IDOCK:   -5.08 KCAL/MOL
REMARK 923 INTER-LIGAND FREE ENERGY PREDICTED BY IDOCK:   -4.37 KCAL/MOL
REMARK 924 INTRA-LIGAND FREE ENERGY PREDICTED BY IDOCK:   -0.71 KCAL/MOL
REMARK 927      BINDING AFFINITY PREDICTED BY RF-SCORE:    0.00 PKD
ROOT
HETATM    1  C   UNL     1     -10.665   7.368  73.409  1.00  0.00    -0.407 C  
HETATM    2  C   UNL     1     -10.432   6.740  72.028  1.00  0.00    -0.226 C  
HETATM    3  C   UNL     1     -11.445   7.193  70.934  1.00  0.00    -0.333 C  
HETATM    4  C   UNL     1     -10.398   5.215  72.173  1.00  0.00    -0.272 C  
HETATM    5  C   UNL     1     -11.312   8.672  70.645  1.00  0.00    -0.277 C  
HETATM    6  C   UNL     1     -12.905   6.867  71.257  1.00  0.00    -0.336 C  
HETATM    7  C   UNL     1     -11.480   9.223  69.432  1.00  0.00     0.246 C  
HETATM    8  C   UNL     1     -11.236  10.682  69.077  1.00  0.00    -0.324 C  
HETATM    9  C   UNL     1      -9.863  10.934  68.344  1.00  0.00    -0.183 C  
HETATM   10  C   UNL     1     -11.413  11.631  70.284  1.00  0.00    -0.118 C  
HETATM   11  C   UNL     1      -8.668  10.512  69.210  1.00  0.00    -0.135 C  
HETATM   12  C   UNL     1      -8.302   9.098  68.785  1.00  0.00    -0.121 C  
HETATM   13  C   UNL     1      -8.993   8.814  67.436  1.00  0.00    -0.143 C  
HETATM   14  C   UNL     1      -8.081   8.078  66.457  1.00  0.00    -0.103 C  
HETATM   15  C   UNL     1      -8.196   8.540  65.026  1.00  0.00    -0.160 C  
HETATM   16  C   UNL     1      -7.290   7.061  66.865  1.00  0.00    -0.078 C  
HETATM   17  C   UNL     1     -10.899  10.095  66.146  1.00  0.00     0.097 C  
HETATM   18  C   UNL     1      -8.127  10.065  64.863  1.00  0.00    -0.154 C  
HETATM   19  C   UNL     1      -9.598  10.184  66.978  1.00  0.00    -0.209 C  
HETATM   20  C   UNL     1      -8.531  10.889  66.101  1.00  0.00    -0.171 C  
ENDROOT
BRANCH  16  21
HETATM   21  C   UNL     1      -6.654   6.109  65.986  1.00  0.00    -0.048 C  
HETATM   22  C   UNL     1      -7.077   4.875  65.650  1.00  0.00    -0.067 C  
HETATM   23  C   UNL     1      -8.218   4.101  66.289  1.00  0.00    -0.105 C  
HETATM   24  C   UNL     1      -9.337   3.835  65.275  1.00  0.00    -0.158 C  
HETATM   25  C   UNL     1      -8.810   3.210  63.984  1.00  0.00    -0.096 C  
HETATM   26  O   UNL     1     -10.032   5.047  64.980  1.00  0.00    -0.372 OA 
HETATM   27  C   UNL     1      -7.624   3.983  63.394  1.00  0.00    -0.065 C  
HETATM   28  H   UNL     1     -10.725   4.882  64.352  1.00  0.00     0.000 HD 
HETATM   29  C   UNL     1      -6.489   4.225  64.405  1.00  0.00    -0.042 C  
HETATM   30  C   UNL     1      -5.672   2.971  64.695  1.00  0.00    -0.014 C  
ENDBRANCH  16  21
TORSDOF 1
ENDMDL
MODEL       52
REMARK 921   NORMALIZED FREE ENERGY PREDICTED BY IDOCK:   -4.06 KCAL/MOL
REMARK 922        TOTAL FREE ENERGY PREDICTED BY IDOCK:   -5.02 KCAL/MOL
REMARK 923 INTER-LIGAND FREE ENERGY PREDICTED BY IDOCK:   -4.56 KCAL/MOL
REMARK 924 INTRA-LIGAND FREE ENERGY PREDICTED BY IDOCK:   -0.46 KCAL/MOL
REMARK 927      BINDING AFFINITY PREDICTED BY RF-SCORE:    0.00 PKD
ROOT
HETATM    1  C   UNL     1      -6.407  16.556  67.326  1.00  0.00    -0.213 C  
HETATM    2  C   UNL     1      -6.837  15.645  68.485  1.00  0.00    -0.115 C  
HETATM    3  C   UNL     1      -8.379  15.518  68.668  1.00  0.00    -0.172 C  
HETATM    4  C   UNL     1      -6.150  16.118  69.770  1.00  0.00    -0.181 C  
HETATM    5  C   UNL     1      -9.017  14.844  67.473  1.00  0.00    -0.190 C  
HETATM    6  C   UNL     1      -9.090  16.844  68.945  1.00  0.00    -0.223 C  
HETATM    7  C   UNL     1     -10.073  14.018  67.546  1.00  0.00    -0.237 C  
HETATM    8  C   UNL     1     -10.664  13.229  66.388  1.00  0.00    -0.291 C  
HETATM    9  C   UNL     1     -10.233  11.712  66.369  1.00  0.00    -0.256 C  
HETATM   10  C   UNL     1     -10.422  13.901  65.017  1.00  0.00    -0.428 C  
HETATM   11  C   UNL     1      -8.712  11.553  66.245  1.00  0.00    -0.159 C  
HETATM   12  C   UNL     1      -8.176  11.387  67.659  1.00  0.00    -0.128 C  
HETATM   13  C   UNL     1      -9.367  11.058  68.582  1.00  0.00    -0.196 C  
HETATM   14  C   UNL     1      -9.035   9.963  69.595  1.00  0.00    -0.232 C  
HETATM   15  C   UNL     1     -10.151   8.979  69.839  1.00  0.00    -0.213 C  
HETATM   16  C   UNL     1      -7.849   9.943  70.241  1.00  0.00    -0.151 C  
HETATM   17  C   UNL     1     -11.968  11.212  68.199  1.00  0.00    -0.131 C  
HETATM   18  C   UNL     1     -10.776   8.422  68.553  1.00  0.00    -0.069 C  
HETATM   19  C   UNL     1     -10.585  10.821  67.627  1.00  0.00    -0.271 C  
HETATM   20  C   UNL     1     -10.627   9.306  67.299  1.00  0.00    -0.303 C  
ENDROOT
BRANCH  16  21
HETATM   21  C   UNL     1      -7.570   9.165  71.425  1.00  0.00    -0.012 C  
HETATM   22  C   UNL     1      -7.261   7.857  71.507  1.00  0.00    -0.067 C  
HETATM   23  C   UNL     1      -7.349   6.831  70.390  1.00  0.00    -0.081 C  
HETATM   24  C   UNL     1      -5.964   6.263  70.055  1.00  0.00    -0.026 C  
HETATM   25  C   UNL     1      -5.228   5.765  71.299  1.00  0.00    -0.013 C  
HETATM   26  O   UNL     1      -5.177   7.249  69.387  1.00  0.00    -0.015 OA 
HETATM   27  C   UNL     1      -5.205   6.803  72.428  1.00  0.00    -0.036 C  
HETATM   28  H   UNL     1      -4.319   6.898  69.180  1.00  0.00     0.000 HD 
HETATM   29  C   UNL     1      -6.599   7.352  72.783  1.00  0.00    -0.060 C  
HETATM   30  C   UNL     1      -7.450   6.356  73.563  1.00  0.00    -0.089 C  
ENDBRANCH  16  21
TORSDOF 1
ENDMDL
MODEL       53
REMARK 921   NORMALIZED FREE ENERGY PREDICTED BY IDOCK:   -4.00 KCAL/MOL
REMARK 922        TOTAL FREE ENERGY PREDICTED BY IDOCK:   -4.96 KCAL/MOL
REMARK 923 INTER-LIGAND FREE ENERGY PREDICTED BY IDOCK:   -4.50 KCAL/MOL
REMARK 924 INTRA-LIGAND FREE ENERGY PREDICTED BY IDOCK:   -0.46 KCAL/MOL
REMARK 927      BINDING AFFINITY PREDICTED BY RF-SCORE:    0.00 PKD
ROOT
HETATM    1  C   UNL     1      -7.434   8.694  74.460  1.00  0.00    -0.170 C  
HETATM    2  C   UNL     1      -6.757   8.178  73.183  1.00  0.00    -0.121 C  
HETATM    3  C   UNL     1      -6.983   6.662  72.901  1.00  0.00    -0.076 C  
HETATM    4  C   UNL     1      -5.267   8.530  73.232  1.00  0.00    -0.054 C  
HETATM    5  C   UNL     1      -8.443   6.367  72.636  1.00  0.00    -0.122 C  
HETATM    6  C   UNL     1      -6.468   5.735  74.004  1.00  0.00    -0.074 C  
HETATM    7  C   UNL     1      -8.881   5.442  71.767  1.00  0.00    -0.142 C  
HETATM    8  C   UNL     1     -10.333   5.201  71.384  1.00  0.00    -0.273 C  
HETATM    9  C   UNL     1     -10.735   5.833  69.996  1.00  0.00    -0.400 C  
HETATM   10  C   UNL     1     -11.324   5.610  72.498  1.00  0.00    -0.349 C  
HETATM   11  C   UNL     1     -10.552   7.356  69.989  1.00  0.00    -0.241 C  
HETATM   12  C   UNL     1      -9.181   7.625  69.385  1.00  0.00    -0.149 C  
HETATM   13  C   UNL     1      -8.711   6.335  68.684  1.00  0.00    -0.120 C  
HETATM   14  C   UNL     1      -8.053   6.612  67.333  1.00  0.00    -0.121 C  
HETATM   15  C   UNL     1      -8.397   5.617  66.254  1.00  0.00    -0.114 C  
HETATM   16  C   UNL     1      -7.193   7.641  67.171  1.00  0.00    -0.090 C  
HETATM   17  C   UNL     1      -9.609   3.862  68.790  1.00  0.00    -0.187 C  
HETATM   18  C   UNL     1      -9.901   5.336  66.130  1.00  0.00    -0.186 C  
HETATM   19  C   UNL     1      -9.943   5.370  68.709  1.00  0.00    -0.235 C  
HETATM   20  C   UNL     1     -10.738   5.602  67.397  1.00  0.00    -0.283 C  
ENDROOT
BRANCH  16  21
HETATM   21  C   UNL     1      -6.288   7.790  66.055  1.00  0.00    -0.042 C  
HETATM   22  C   UNL     1      -6.559   8.256  64.821  1.00  0.00    -0.067 C  
HETATM   23  C   UNL     1      -7.934   8.529  64.235  1.00  0.00    -0.149 C  
HETATM   24  C   UNL     1      -8.105  10.018  63.907  1.00  0.00    -0.152 C  
HETATM   25  C   UNL     1      -6.952  10.560  63.063  1.00  0.00    -0.024 C  
HETATM   26  O   UNL     1      -8.224  10.775  65.111  1.00  0.00    -0.299 OA 
HETATM   27  C   UNL     1      -5.578  10.220  63.652  1.00  0.00    -0.141 C  
HETATM   28  H   UNL     1      -8.330  11.697  64.909  1.00  0.00     0.000 HD 
HETATM   29  C   UNL     1      -5.396   8.721  63.955  1.00  0.00    -0.061 C  
HETATM   30  C   UNL     1      -5.191   7.881  62.699  1.00  0.00    -0.055 C  
ENDBRANCH  16  21
TORSDOF 1
ENDMDL
MODEL       54
REMARK 921   NORMALIZED FREE ENERGY PREDICTED BY IDOCK:   -3.97 KCAL/MOL
REMARK 922        TOTAL FREE ENERGY PREDICTED BY IDOCK:   -4.92 KCAL/MOL
REMARK 923 INTER-LIGAND FREE ENERGY PREDICTED BY IDOCK:   -4.25 KCAL/MOL
REMARK 924 INTRA-LIGAND FREE ENERGY PREDICTED BY IDOCK:   -0.67 KCAL/MOL
REMARK 927      BINDING AFFINITY PREDICTED BY RF-SCORE:    0.00 PKD
ROOT
HETATM    1  C   UNL     1      -9.450   4.352  62.582  1.00  0.00    -0.118 C  
HETATM    2  C   UNL     1      -9.649   4.604  64.084  1.00  0.00     0.083 C  
HETATM    3  C   UNL     1      -8.352   4.470  64.937  1.00  0.00    -0.121 C  
HETATM    4  C   UNL     1     -10.764   3.688  64.598  1.00  0.00     0.006 C  
HETATM    5  C   UNL     1      -7.340   5.530  64.562  1.00  0.00    -0.064 C  
HETATM    6  C   UNL     1      -7.694   3.090  64.868  1.00  0.00    -0.077 C  
HETATM    7  C   UNL     1      -6.506   6.120  65.433  1.00  0.00    -0.039 C  
HETATM    8  C   UNL     1      -5.563   7.271  65.119  1.00  0.00    -0.033 C  
HETATM    9  C   UNL     1      -6.098   8.676  65.595  1.00  0.00    -0.052 C  
HETATM   10  C   UNL     1      -5.130   7.306  63.635  1.00  0.00    -0.029 C  
HETATM   11  C   UNL     1      -7.429   9.036  64.924  1.00  0.00    -0.105 C  
HETATM   12  C   UNL     1      -8.529   8.616  65.888  1.00  0.00    -0.158 C  
HETATM   13  C   UNL     1      -7.883   8.372  67.267  1.00  0.00    -0.098 C  
HETATM   14  C   UNL     1      -8.723   8.935  68.412  1.00  0.00    -0.134 C  
HETATM   15  C   UNL     1      -7.924   9.582  69.514  1.00  0.00    -0.110 C  
HETATM   16  C   UNL     1     -10.067   8.794  68.430  1.00  0.00    -0.217 C  
HETATM   17  C   UNL     1      -5.365   8.125  67.996  1.00  0.00    -0.034 C  
HETATM   18  C   UNL     1      -6.873  10.581  69.009  1.00  0.00    -0.068 C  
HETATM   19  C   UNL     1      -6.406   8.875  67.133  1.00  0.00    -0.060 C  
HETATM   20  C   UNL     1      -6.384  10.364  67.564  1.00  0.00    -0.058 C  
ENDROOT
BRANCH  16  21
HETATM   21  C   UNL     1     -10.900   8.992  69.592  1.00  0.00    -0.196 C  
HETATM   22  C   UNL     1     -11.441   8.058  70.396  1.00  0.00    -0.140 C  
HETATM   23  C   UNL     1     -11.487   6.560  70.146  1.00  0.00    -0.477 C  
HETATM   24  C   UNL     1     -10.695   5.799  71.216  1.00  0.00    -0.258 C  
HETATM   25  C   UNL     1     -11.101   6.203  72.633  1.00  0.00    -0.308 C  
HETATM   26  O   UNL     1      -9.295   6.010  71.033  1.00  0.00    -0.159 OA 
HETATM   27  C   UNL     1     -11.098   7.723  72.837  1.00  0.00    -0.457 C  
HETATM   28  H   UNL     1      -8.804   5.539  71.696  1.00  0.00     0.000 HD 
HETATM   29  C   UNL     1     -11.918   8.485  71.779  1.00  0.00    -0.393 C  
HETATM   30  C   UNL     1     -13.422   8.347  71.979  1.00  0.00    -0.375 C  
ENDBRANCH  16  21
TORSDOF 1
ENDMDL
MODEL       55
REMARK 921   NORMALIZED FREE ENERGY PREDICTED BY IDOCK:   -3.96 KCAL/MOL
REMARK 922        TOTAL FREE ENERGY PREDICTED BY IDOCK:   -4.91 KCAL/MOL
REMARK 923 INTER-LIGAND FREE ENERGY PREDICTED BY IDOCK:   -4.36 KCAL/MOL
REMARK 924 INTRA-LIGAND FREE ENERGY PREDICTED BY IDOCK:   -0.55 KCAL/MOL
REMARK 927      BINDING AFFINITY PREDICTED BY RF-SCORE:    0.00 PKD
ROOT
HETATM    1  C   UNL     1     -11.428  10.724  70.097  1.00  0.00    -0.415 C  
HETATM    2  C   UNL     1     -10.655   9.713  69.237  1.00  0.00    -0.236 C  
HETATM    3  C   UNL     1      -9.158   9.541  69.634  1.00  0.00    -0.207 C  
HETATM    4  C   UNL     1     -10.811  10.092  67.761  1.00  0.00    -0.346 C  
HETATM    5  C   UNL     1      -9.025   8.955  71.023  1.00  0.00    -0.298 C  
HETATM    6  C   UNL     1      -8.332  10.825  69.542  1.00  0.00     0.064 C  
HETATM    7  C   UNL     1      -8.055   8.105  71.395  1.00  0.00    -0.132 C  
HETATM    8  C   UNL     1      -7.957   7.402  72.740  1.00  0.00    -0.118 C  
HETATM    9  C   UNL     1      -8.438   5.901  72.707  1.00  0.00    -0.122 C  
HETATM   10  C   UNL     1      -8.642   8.189  73.880  1.00  0.00    -0.288 C  
HETATM   11  C   UNL     1      -9.908   5.783  72.283  1.00  0.00    -0.185 C  
HETATM   12  C   UNL     1      -9.908   5.512  70.786  1.00  0.00    -0.247 C  
HETATM   13  C   UNL     1      -8.483   5.084  70.382  1.00  0.00    -0.105 C  
HETATM   14  C   UNL     1      -8.481   3.916  69.397  1.00  0.00    -0.093 C  
HETATM   15  C   UNL     1      -7.401   2.894  69.641  1.00  0.00    -0.044 C  
HETATM   16  C   UNL     1      -9.356   3.867  68.368  1.00  0.00    -0.222 C  
HETATM   17  C   UNL     1      -6.189   5.217  71.668  1.00  0.00    -0.030 C  
HETATM   18  C   UNL     1      -7.307   2.432  71.102  1.00  0.00    -0.033 C  
HETATM   19  C   UNL     1      -7.702   4.903  71.727  1.00  0.00    -0.102 C  
HETATM   20  C   UNL     1      -7.854   3.419  72.152  1.00  0.00    -0.059 C  
ENDROOT
BRANCH  16  21
HETATM   21  C   UNL     1      -9.229   3.000  67.220  1.00  0.00    -0.214 C  
HETATM   22  C   UNL     1      -9.261   3.337  65.917  1.00  0.00    -0.148 C  
HETATM   23  C   UNL     1      -9.660   4.682  65.336  1.00  0.00    -0.177 C  
HETATM   24  C   UNL     1      -8.483   5.333  64.598  1.00  0.00    -0.142 C  
HETATM   25  C   UNL     1      -7.841   4.386  63.584  1.00  0.00    -0.080 C  
HETATM   26  O   UNL     1      -7.503   5.780  65.534  1.00  0.00    -0.074 OA 
HETATM   27  C   UNL     1      -7.501   3.018  64.188  1.00  0.00    -0.067 C  
HETATM   28  H   UNL     1      -6.774   6.183  65.077  1.00  0.00     0.000 HD 
HETATM   29  C   UNL     1      -8.691   2.352  64.904  1.00  0.00    -0.111 C  
HETATM   30  C   UNL     1      -9.730   1.793  63.939  1.00  0.00    -0.131 C  
ENDBRANCH  16  21
TORSDOF 1
ENDMDL
MODEL       56
REMARK 921   NORMALIZED FREE ENERGY PREDICTED BY IDOCK:   -3.95 KCAL/MOL
REMARK 922        TOTAL FREE ENERGY PREDICTED BY IDOCK:   -4.90 KCAL/MOL
REMARK 923 INTER-LIGAND FREE ENERGY PREDICTED BY IDOCK:   -4.48 KCAL/MOL
REMARK 924 INTRA-LIGAND FREE ENERGY PREDICTED BY IDOCK:   -0.42 KCAL/MOL
REMARK 927      BINDING AFFINITY PREDICTED BY RF-SCORE:    0.00 PKD
ROOT
HETATM    1  C   UNL     1      -6.154  10.566  64.739  1.00  0.00    -0.057 C  
HETATM    2  C   UNL     1      -7.346   9.879  65.421  1.00  0.00    -0.128 C  
HETATM    3  C   UNL     1      -8.127   8.887  64.507  1.00  0.00    -0.150 C  
HETATM    4  C   UNL     1      -8.267  10.951  66.012  1.00  0.00    -0.155 C  
HETATM    5  C   UNL     1      -7.260   7.713  64.109  1.00  0.00    -0.080 C  
HETATM    6  C   UNL     1      -8.726   9.526  63.253  1.00  0.00    -0.238 C  
HETATM    7  C   UNL     1      -7.713   6.459  63.946  1.00  0.00    -0.104 C  
HETATM    8  C   UNL     1      -6.856   5.234  63.667  1.00  0.00    -0.045 C  
HETATM    9  C   UNL     1      -6.597   4.339  64.939  1.00  0.00    -0.044 C  
HETATM   10  C   UNL     1      -5.535   5.578  62.941  1.00  0.00    -0.014 C  
HETATM   11  C   UNL     1      -5.866   5.114  66.043  1.00  0.00    -0.018 C  
HETATM   12  C   UNL     1      -6.936   5.638  66.988  1.00  0.00    -0.065 C  
HETATM   13  C   UNL     1      -8.244   4.876  66.693  1.00  0.00    -0.107 C  
HETATM   14  C   UNL     1      -8.987   4.477  67.967  1.00  0.00    -0.136 C  
HETATM   15  C   UNL     1      -9.615   3.107  67.921  1.00  0.00    -0.130 C  
HETATM   16  C   UNL     1      -9.101   5.331  69.007  1.00  0.00    -0.141 C  
HETATM   17  C   UNL     1      -8.945   3.324  64.684  1.00  0.00    -0.129 C  
HETATM   18  C   UNL     1      -8.664   2.009  67.427  1.00  0.00    -0.133 C  
HETATM   19  C   UNL     1      -7.849   3.737  65.694  1.00  0.00    -0.093 C  
HETATM   20  C   UNL     1      -7.497   2.484  66.538  1.00  0.00    -0.070 C  
ENDROOT
BRANCH  16  21
HETATM   21  C   UNL     1     -10.037   5.182  70.097  1.00  0.00    -0.342 C  
HETATM   22  C   UNL     1      -9.916   5.623  71.363  1.00  0.00    -0.237 C  
HETATM   23  C   UNL     1      -8.666   6.194  72.011  1.00  0.00    -0.135 C  
HETATM   24  C   UNL     1      -8.879   7.655  72.425  1.00  0.00    -0.134 C  
HETATM   25  C   UNL     1     -10.148   7.840  73.257  1.00  0.00    -0.374 C  
HETATM   26  O   UNL     1      -8.929   8.491  71.269  1.00  0.00    -0.156 OA 
HETATM   27  C   UNL     1     -11.381   7.205  72.602  1.00  0.00    -0.306 C  
HETATM   28  H   UNL     1      -9.062   9.396  71.525  1.00  0.00     0.000 HD 
HETATM   29  C   UNL     1     -11.176   5.730  72.213  1.00  0.00    -0.333 C  
HETATM   30  C   UNL     1     -11.189   4.790  73.412  1.00  0.00    -0.425 C  
ENDBRANCH  16  21
TORSDOF 1
ENDMDL
MODEL       57
REMARK 921   NORMALIZED FREE ENERGY PREDICTED BY IDOCK:   -3.82 KCAL/MOL
REMARK 922        TOTAL FREE ENERGY PREDICTED BY IDOCK:   -4.77 KCAL/MOL
REMARK 923 INTER-LIGAND FREE ENERGY PREDICTED BY IDOCK:   -4.01 KCAL/MOL
REMARK 924 INTRA-LIGAND FREE ENERGY PREDICTED BY IDOCK:   -0.76 KCAL/MOL
REMARK 927      BINDING AFFINITY PREDICTED BY RF-SCORE:    0.00 PKD
ROOT
HETATM    1  C   UNL     1      -8.380   8.393  64.248  1.00  0.00    -0.091 C  
HETATM    2  C   UNL     1      -7.852   9.741  64.759  1.00  0.00    -0.134 C  
HETATM    3  C   UNL     1      -8.197  10.956  63.845  1.00  0.00     0.218 C  
HETATM    4  C   UNL     1      -6.344   9.625  65.004  1.00  0.00    -0.089 C  
HETATM    5  C   UNL     1      -9.690  11.192  63.790  1.00  0.00    -0.338 C  
HETATM    6  C   UNL     1      -7.645  10.848  62.422  1.00  0.00    -0.116 C  
HETATM    7  C   UNL     1     -10.261  12.404  63.706  1.00  0.00    -0.404 C  
HETATM    8  C   UNL     1     -11.753  12.690  63.771  1.00  0.00    -0.566 C  
HETATM    9  C   UNL     1     -12.236  13.218  65.176  1.00  0.00    -0.487 C  
HETATM   10  C   UNL     1     -12.614  11.499  63.290  1.00  0.00    -0.018 C  
HETATM   11  C   UNL     1     -11.959  12.203  66.292  1.00  0.00    -0.213 C  
HETATM   12  C   UNL     1     -10.633  12.602  66.924  1.00  0.00    -0.256 C  
HETATM   13  C   UNL     1     -10.308  14.041  66.472  1.00  0.00    -0.285 C  
HETATM   14  C   UNL     1      -9.757  14.898  67.610  1.00  0.00    -0.212 C  
HETATM   15  C   UNL     1     -10.257  16.321  67.620  1.00  0.00    -0.272 C  
HETATM   16  C   UNL     1      -8.852  14.405  68.484  1.00  0.00    -0.182 C  
HETATM   17  C   UNL     1     -11.347  15.557  64.586  1.00  0.00    -0.363 C  
HETATM   18  C   UNL     1     -11.781  16.440  67.478  1.00  0.00     0.532 C  
HETATM   19  C   UNL     1     -11.592  14.549  65.734  1.00  0.00    -0.347 C  
HETATM   20  C   UNL     1     -12.484  15.253  66.790  1.00  0.00     1.042 C  
ENDROOT
BRANCH  16  21
HETATM   21  C   UNL     1      -8.042  15.206  69.370  1.00  0.00    -0.200 C  
HETATM   22  C   UNL     1      -6.825  15.733  69.136  1.00  0.00    -0.168 C  
HETATM   23  C   UNL     1      -5.913  15.426  67.960  1.00  0.00    -0.154 C  
HETATM   24  C   UNL     1      -5.680  16.677  67.105  1.00  0.00    -0.151 C  
HETATM   25  C   UNL     1      -5.230  17.875  67.942  1.00  0.00    -0.139 C  
HETATM   26  O   UNL     1      -6.866  17.007  66.383  1.00  0.00    -0.237 OA 
HETATM   27  C   UNL     1      -6.139  18.124  69.152  1.00  0.00    -0.235 C  
HETATM   28  H   UNL     1      -6.722  17.782  65.853  1.00  0.00     0.000 HD 
HETATM   29  C   UNL     1      -6.350  16.874  70.026  1.00  0.00     0.044 C  
HETATM   30  C   UNL     1      -5.130  16.527  70.872  1.00  0.00    -0.191 C  
ENDBRANCH  16  21
TORSDOF 1
ENDMDL
MODEL       58
REMARK 921   NORMALIZED FREE ENERGY PREDICTED BY IDOCK:   -3.73 KCAL/MOL
REMARK 922        TOTAL FREE ENERGY PREDICTED BY IDOCK:   -4.68 KCAL/MOL
REMARK 923 INTER-LIGAND FREE ENERGY PREDICTED BY IDOCK:   -4.18 KCAL/MOL
REMARK 924 INTRA-LIGAND FREE ENERGY PREDICTED BY IDOCK:   -0.49 KCAL/MOL
REMARK 927      BINDING AFFINITY PREDICTED BY RF-SCORE:    0.00 PKD
ROOT
HETATM    1  C   UNL     1     -13.092  13.925  65.907  1.00  0.00    -0.035 C  
HETATM    2  C   UNL     1     -12.059  13.050  65.181  1.00  0.00    -0.476 C  
HETATM    3  C   UNL     1     -10.603  13.601  65.227  1.00  0.00    -0.354 C  
HETATM    4  C   UNL     1     -12.531  12.812  63.743  1.00  0.00    -0.474 C  
HETATM    5  C   UNL     1     -10.071  13.623  66.644  1.00  0.00    -0.277 C  
HETATM    6  C   UNL     1     -10.434  14.986  64.599  1.00  0.00    -0.115 C  
HETATM    7  C   UNL     1      -8.792  13.383  66.975  1.00  0.00    -0.217 C  
HETATM    8  C   UNL     1      -8.247  13.277  68.390  1.00  0.00    -0.134 C  
HETATM    9  C   UNL     1      -8.026  11.792  68.874  1.00  0.00     0.009 C  
HETATM   10  C   UNL     1      -9.072  14.087  69.416  1.00  0.00     0.598 C  
HETATM   11  C   UNL     1      -9.336  10.993  68.873  1.00  0.00    -0.155 C  
HETATM   12  C   UNL     1      -9.388  10.245  67.548  1.00  0.00    -0.164 C  
HETATM   13  C   UNL     1      -7.974  10.275  66.932  1.00  0.00    -0.112 C  
HETATM   14  C   UNL     1      -7.576   8.933  66.321  1.00  0.00    -0.095 C  
HETATM   15  C   UNL     1      -6.138   8.543  66.552  1.00  0.00    -0.056 C  
HETATM   16  C   UNL     1      -8.452   8.209  65.591  1.00  0.00    -0.170 C  
HETATM   17  C   UNL     1      -5.838  11.694  67.530  1.00  0.00    -0.075 C  
HETATM   18  C   UNL     1      -5.688   8.681  68.013  1.00  0.00    -0.035 C  
HETATM   19  C   UNL     1      -7.045  10.874  68.041  1.00  0.00    -0.077 C  
HETATM   20  C   UNL     1      -6.487   9.686  68.867  1.00  0.00    -0.046 C  
ENDROOT
BRANCH  16  21
HETATM   21  C   UNL     1      -8.091   7.117  64.717  1.00  0.00    -0.092 C  
HETATM   22  C   UNL     1      -8.294   5.799  64.906  1.00  0.00    -0.127 C  
HETATM   23  C   UNL     1      -8.753   5.125  66.188  1.00  0.00    -0.123 C  
HETATM   24  C   UNL     1     -10.110   4.438  65.992  1.00  0.00    -0.239 C  
HETATM   25  C   UNL     1     -10.121   3.519  64.770  1.00  0.00    -0.087 C  
HETATM   26  O   UNL     1     -11.143   5.415  65.875  1.00  0.00    -0.757 OA 
HETATM   27  C   UNL     1      -9.600   4.212  63.505  1.00  0.00    -0.128 C  
HETATM   28  H   UNL     1     -11.983   4.990  65.753  1.00  0.00     0.000 HD 
HETATM   29  C   UNL     1      -8.224   4.878  63.695  1.00  0.00    -0.118 C  
HETATM   30  C   UNL     1      -7.079   3.873  63.752  1.00  0.00    -0.050 C  
ENDBRANCH  16  21
TORSDOF 1
ENDMDL
MODEL       59
REMARK 921   NORMALIZED FREE ENERGY PREDICTED BY IDOCK:   -3.72 KCAL/MOL
REMARK 922        TOTAL FREE ENERGY PREDICTED BY IDOCK:   -4.66 KCAL/MOL
REMARK 923 INTER-LIGAND FREE ENERGY PREDICTED BY IDOCK:   -3.94 KCAL/MOL
REMARK 924 INTRA-LIGAND FREE ENERGY PREDICTED BY IDOCK:   -0.72 KCAL/MOL
REMARK 927      BINDING AFFINITY PREDICTED BY RF-SCORE:    0.00 PKD
ROOT
HETATM    1  C   UNL     1     -12.328   7.701  71.995  1.00  0.00    -0.312 C  
HETATM    2  C   UNL     1     -11.304   8.179  70.955  1.00  0.00    -0.293 C  
HETATM    3  C   UNL     1      -9.829   7.801  71.284  1.00  0.00    -0.194 C  
HETATM    4  C   UNL     1     -11.471   9.688  70.749  1.00  0.00    -0.399 C  
HETATM    5  C   UNL     1      -9.632   6.301  71.267  1.00  0.00    -0.189 C  
HETATM    6  C   UNL     1      -9.315   8.368  72.609  1.00  0.00    -0.334 C  
HETATM    7  C   UNL     1      -8.512   5.690  70.849  1.00  0.00    -0.125 C  
HETATM    8  C   UNL     1      -8.320   4.189  70.703  1.00  0.00    -0.086 C  
HETATM    9  C   UNL     1      -8.443   3.676  69.217  1.00  0.00    -0.096 C  
HETATM   10  C   UNL     1      -9.222   3.373  71.658  1.00  0.00    -0.190 C  
HETATM   11  C   UNL     1      -9.825   3.978  68.622  1.00  0.00    -0.046 C  
HETATM   12  C   UNL     1      -9.691   5.284  67.853  1.00  0.00    -0.174 C  
HETATM   13  C   UNL     1      -8.187   5.564  67.654  1.00  0.00    -0.101 C  
HETATM   14  C   UNL     1      -7.871   6.077  66.250  1.00  0.00    -0.104 C  
HETATM   15  C   UNL     1      -6.598   5.528  65.656  1.00  0.00    -0.041 C  
HETATM   16  C   UNL     1      -8.660   6.990  65.643  1.00  0.00    -0.121 C  
HETATM   17  C   UNL     1      -6.049   4.490  68.754  1.00  0.00    -0.030 C  
HETATM   18  C   UNL     1      -6.472   4.003  65.768  1.00  0.00    -0.033 C  
HETATM   19  C   UNL     1      -7.451   4.270  68.139  1.00  0.00    -0.068 C  
HETATM   20  C   UNL     1      -7.280   3.346  66.905  1.00  0.00    -0.063 C  
ENDROOT
BRANCH  16  21
HETATM   21  C   UNL     1      -8.283   7.765  64.485  1.00  0.00    -0.060 C  
HETATM   22  C   UNL     1      -7.752   9.002  64.449  1.00  0.00    -0.118 C  
HETATM   23  C   UNL     1      -7.627   9.971  65.613  1.00  0.00    -0.137 C  
HETATM   24  C   UNL     1      -6.156  10.273  65.921  1.00  0.00    -0.103 C  
HETATM   25  C   UNL     1      -5.379  10.698  64.674  1.00  0.00    -0.129 C  
HETATM   26  O   UNL     1      -5.535   9.134  66.516  1.00  0.00    -0.040 OA 
HETATM   27  C   UNL     1      -5.571   9.729  63.501  1.00  0.00    -0.094 C  
HETATM   28  H   UNL     1      -4.623   9.320  66.706  1.00  0.00     0.000 HD 
HETATM   29  C   UNL     1      -7.049   9.448  63.174  1.00  0.00    -0.097 C  
HETATM   30  C   UNL     1      -7.734  10.614  62.470  1.00  0.00    -0.159 C  
ENDBRANCH  16  21
TORSDOF 1
ENDMDL
MODEL       60
REMARK 921   NORMALIZED FREE ENERGY PREDICTED BY IDOCK:   -3.70 KCAL/MOL
REMARK 922        TOTAL FREE ENERGY PREDICTED BY IDOCK:   -4.64 KCAL/MOL
REMARK 923 INTER-LIGAND FREE ENERGY PREDICTED BY IDOCK:   -4.11 KCAL/MOL
REMARK 924 INTRA-LIGAND FREE ENERGY PREDICTED BY IDOCK:   -0.53 KCAL/MOL
REMARK 927      BINDING AFFINITY PREDICTED BY RF-SCORE:    0.00 PKD
ROOT
HETATM    1  C   UNL     1      -9.608  13.914  66.178  1.00  0.00    -0.249 C  
HETATM    2  C   UNL     1     -10.259  12.589  66.601  1.00  0.00    -0.243 C  
HETATM    3  C   UNL     1     -10.550  11.610  65.424  1.00  0.00    -0.331 C  
HETATM    4  C   UNL     1     -11.522  12.892  67.413  1.00  0.00    -0.388 C  
HETATM    5  C   UNL     1      -9.267  11.147  64.769  1.00  0.00    -0.157 C  
HETATM    6  C   UNL     1     -11.493  12.171  64.358  1.00  0.00    -0.417 C  
HETATM    7  C   UNL     1      -9.079   9.918  64.261  1.00  0.00    -0.297 C  
HETATM    8  C   UNL     1      -7.770   9.378  63.706  1.00  0.00    -0.120 C  
HETATM    9  C   UNL     1      -7.000   8.432  64.707  1.00  0.00    -0.072 C  
HETATM   10  C   UNL     1      -6.846  10.488  63.156  1.00  0.00    -0.005 C  
HETATM   11  C   UNL     1      -6.631   9.159  66.007  1.00  0.00    -0.069 C  
HETATM   12  C   UNL     1      -7.731   8.841  67.009  1.00  0.00    -0.095 C  
HETATM   13  C   UNL     1      -8.536   7.643  66.465  1.00  0.00    -0.133 C  
HETATM   14  C   UNL     1      -8.879   6.628  67.555  1.00  0.00    -0.116 C  
HETATM   15  C   UNL     1      -8.776   5.187  67.122  1.00  0.00    -0.103 C  
HETATM   16  C   UNL     1      -9.292   7.026  68.778  1.00  0.00    -0.134 C  
HETATM   17  C   UNL     1      -8.589   6.509  64.089  1.00  0.00     0.366 C  
HETATM   18  C   UNL     1      -7.465   4.853  66.397  1.00  0.00    -0.087 C  
HETATM   19  C   UNL     1      -7.737   7.131  65.220  1.00  0.00    -0.114 C  
HETATM   20  C   UNL     1      -6.754   6.040  65.718  1.00  0.00    -0.048 C  
ENDROOT
BRANCH  16  21
HETATM   21  C   UNL     1      -9.939   6.173  69.747  1.00  0.00    -0.213 C  
HETATM   22  C   UNL     1      -9.375   5.493  70.763  1.00  0.00    -0.199 C  
HETATM   23  C   UNL     1      -7.890   5.282  71.003  1.00  0.00    -0.102 C  
HETATM   24  C   UNL     1      -7.447   5.934  72.318  1.00  0.00    -0.099 C  
HETATM   25  C   UNL     1      -8.330   5.518  73.495  1.00  0.00    -0.113 C  
HETATM   26  O   UNL     1      -7.450   7.356  72.187  1.00  0.00    -0.077 OA 
HETATM   27  C   UNL     1      -9.825   5.690  73.201  1.00  0.00    -0.180 C  
HETATM   28  H   UNL     1      -7.177   7.760  73.002  1.00  0.00     0.000 HD 
HETATM   29  C   UNL     1     -10.275   5.011  71.894  1.00  0.00    -0.267 C  
HETATM   30  C   UNL     1     -10.357   3.494  72.010  1.00  0.00    -0.050 C  
ENDBRANCH  16  21
TORSDOF 1
ENDMDL
MODEL       61
REMARK 921   NORMALIZED FREE ENERGY PREDICTED BY IDOCK:   -3.63 KCAL/MOL
REMARK 922        TOTAL FREE ENERGY PREDICTED BY IDOCK:   -4.57 KCAL/MOL
REMARK 923 INTER-LIGAND FREE ENERGY PREDICTED BY IDOCK:   -3.86 KCAL/MOL
REMARK 924 INTRA-LIGAND FREE ENERGY PREDICTED BY IDOCK:   -0.71 KCAL/MOL
REMARK 927      BINDING AFFINITY PREDICTED BY RF-SCORE:    0.00 PKD
ROOT
HETATM    1  C   UNL     1      -6.805  13.928  67.373  1.00  0.00    -0.029 C  
HETATM    2  C   UNL     1      -7.181  12.841  68.390  1.00  0.00    -0.115 C  
HETATM    3  C   UNL     1      -8.660  12.361  68.302  1.00  0.00    -0.172 C  
HETATM    4  C   UNL     1      -6.825  13.331  69.797  1.00  0.00     0.226 C  
HETATM    5  C   UNL     1      -8.936  11.678  66.981  1.00  0.00    -0.182 C  
HETATM    6  C   UNL     1      -9.694  13.465  68.530  1.00  0.00    -0.156 C  
HETATM    7  C   UNL     1      -9.769  10.636  66.828  1.00  0.00    -0.222 C  
HETATM    8  C   UNL     1      -9.979   9.848  65.544  1.00  0.00    -0.363 C  
HETATM    9  C   UNL     1      -9.209   8.472  65.512  1.00  0.00    -0.109 C  
HETATM   10  C   UNL     1      -9.696  10.682  64.274  1.00  0.00    -0.372 C  
HETATM   11  C   UNL     1      -7.693   8.664  65.637  1.00  0.00    -0.091 C  
HETATM   12  C   UNL     1      -7.352   8.489  67.110  1.00  0.00    -0.084 C  
HETATM   13  C   UNL     1      -8.559   7.820  67.799  1.00  0.00    -0.121 C  
HETATM   14  C   UNL     1      -8.139   6.736  68.789  1.00  0.00    -0.120 C  
HETATM   15  C   UNL     1      -9.019   5.511  68.786  1.00  0.00    -0.120 C  
HETATM   16  C   UNL     1      -7.092   6.917  69.624  1.00  0.00    -0.068 C  
HETATM   17  C   UNL     1     -11.036   7.432  66.993  1.00  0.00    -0.172 C  
HETATM   18  C   UNL     1      -9.295   4.953  67.383  1.00  0.00    -0.145 C  
HETATM   19  C   UNL     1      -9.530   7.412  66.640  1.00  0.00    -0.240 C  
HETATM   20  C   UNL     1      -9.168   5.962  66.225  1.00  0.00    -0.171 C  
ENDROOT
BRANCH  16  21
HETATM   21  C   UNL     1      -6.821   6.113  70.792  1.00  0.00    -0.062 C  
HETATM   22  C   UNL     1      -7.393   6.195  72.008  1.00  0.00    -0.093 C  
HETATM   23  C   UNL     1      -8.307   7.300  72.510  1.00  0.00    -0.124 C  
HETATM   24  C   UNL     1      -9.704   6.756  72.830  1.00  0.00    -0.153 C  
HETATM   25  C   UNL     1      -9.653   5.532  73.743  1.00  0.00    -0.142 C  
HETATM   26  O   UNL     1     -10.393   6.433  71.622  1.00  0.00    -0.201 OA 
HETATM   27  C   UNL     1      -8.681   4.458  73.238  1.00  0.00    -0.100 C  
HETATM   28  H   UNL     1     -11.259   6.096  71.819  1.00  0.00     0.000 HD 
HETATM   29  C   UNL     1      -7.270   4.999  72.945  1.00  0.00    -0.085 C  
HETATM   30  C   UNL     1      -6.469   5.290  74.208  1.00  0.00    -0.070 C  
ENDBRANCH  16  21
TORSDOF 1
ENDMDL
MODEL       62
REMARK 921   NORMALIZED FREE ENERGY PREDICTED BY IDOCK:   -3.57 KCAL/MOL
REMARK 922        TOTAL FREE ENERGY PREDICTED BY IDOCK:   -4.51 KCAL/MOL
REMARK 923 INTER-LIGAND FREE ENERGY PREDICTED BY IDOCK:   -4.01 KCAL/MOL
REMARK 924 INTRA-LIGAND FREE ENERGY PREDICTED BY IDOCK:   -0.50 KCAL/MOL
REMARK 927      BINDING AFFINITY PREDICTED BY RF-SCORE:    0.00 PKD
ROOT
HETATM    1  C   UNL     1     -10.977  16.461  70.266  1.00  0.00    -0.262 C  
HETATM    2  C   UNL     1     -11.143  14.953  70.029  1.00  0.00    -0.263 C  
HETATM    3  C   UNL     1     -10.903  14.501  68.557  1.00  0.00    -0.256 C  
HETATM    4  C   UNL     1     -12.521  14.518  70.538  1.00  0.00    -0.408 C  
HETATM    5  C   UNL     1      -9.469  14.739  68.140  1.00  0.00    -0.208 C  
HETATM    6  C   UNL     1     -11.844  15.150  67.539  1.00  0.00    -0.113 C  
HETATM    7  C   UNL     1      -8.780  13.937  67.312  1.00  0.00    -0.225 C  
HETATM    8  C   UNL     1      -7.305  14.074  66.966  1.00  0.00     0.378 C  
HETATM    9  C   UNL     1      -6.375  13.070  67.749  1.00  0.00    -0.149 C  
HETATM   10  C   UNL     1      -6.792  15.528  67.086  1.00  0.00    -0.076 C  
HETATM   11  C   UNL     1      -6.466  13.274  69.267  1.00  0.00    -0.107 C  
HETATM   12  C   UNL     1      -7.489  12.271  69.780  1.00  0.00     0.952 C  
HETATM   13  C   UNL     1      -7.722  11.224  68.672  1.00  0.00    -0.136 C  
HETATM   14  C   UNL     1      -7.803   9.801  69.223  1.00  0.00    -0.105 C  
HETATM   15  C   UNL     1      -7.124   8.760  68.368  1.00  0.00    -0.077 C  
HETATM   16  C   UNL     1      -8.484   9.527  70.357  1.00  0.00    -0.238 C  
HETATM   17  C   UNL     1      -7.055  11.197  66.125  1.00  0.00     0.003 C  
HETATM   18  C   UNL     1      -5.702   9.146  67.939  1.00  0.00    -0.038 C  
HETATM   19  C   UNL     1      -6.640  11.521  67.579  1.00  0.00    -0.087 C  
HETATM   20  C   UNL     1      -5.397  10.657  67.913  1.00  0.00    -0.036 C  
ENDROOT
BRANCH  16  21
HETATM   21  C   UNL     1      -8.889   8.205  70.775  1.00  0.00    -0.149 C  
HETATM   22  C   UNL     1     -10.001   7.850  71.445  1.00  0.00    -0.208 C  
HETATM   23  C   UNL     1     -10.993   8.783  72.119  1.00  0.00    -0.404 C  
HETATM   24  C   UNL     1     -12.378   8.675  71.469  1.00  0.00    -0.324 C  
HETATM   25  C   UNL     1     -12.858   7.227  71.369  1.00  0.00    -0.425 C  
HETATM   26  O   UNL     1     -12.360   9.271  70.172  1.00  0.00    -0.362 OA 
HETATM   27  C   UNL     1     -11.813   6.300  70.736  1.00  0.00    -0.205 C  
HETATM   28  H   UNL     1     -13.217   9.204  69.769  1.00  0.00     0.000 HD 
HETATM   29  C   UNL     1     -10.430   6.389  71.407  1.00  0.00    -0.257 C  
HETATM   30  C   UNL     1     -10.382   5.700  72.766  1.00  0.00    -0.224 C  
ENDBRANCH  16  21
TORSDOF 1
ENDMDL
MODEL       63
REMARK 921   NORMALIZED FREE ENERGY PREDICTED BY IDOCK:   -3.56 KCAL/MOL
REMARK 922        TOTAL FREE ENERGY PREDICTED BY IDOCK:   -4.49 KCAL/MOL
REMARK 923 INTER-LIGAND FREE ENERGY PREDICTED BY IDOCK:   -4.04 KCAL/MOL
REMARK 924 INTRA-LIGAND FREE ENERGY PREDICTED BY IDOCK:   -0.45 KCAL/MOL
REMARK 927      BINDING AFFINITY PREDICTED BY RF-SCORE:    0.00 PKD
ROOT
HETATM    1  C   UNL     1      -5.797   8.390  65.312  1.00  0.00    -0.044 C  
HETATM    2  C   UNL     1      -6.835   9.498  65.081  1.00  0.00    -0.092 C  
HETATM    3  C   UNL     1      -8.315   9.037  65.239  1.00  0.00    -0.157 C  
HETATM    4  C   UNL     1      -6.582  10.139  63.713  1.00  0.00    -0.119 C  
HETATM    5  C   UNL     1      -8.606   8.611  66.661  1.00  0.00    -0.124 C  
HETATM    6  C   UNL     1      -8.732   7.922  64.277  1.00  0.00     0.398 C  
HETATM    7  C   UNL     1      -9.780   8.805  67.283  1.00  0.00    -0.238 C  
HETATM    8  C   UNL     1     -10.072   8.503  68.744  1.00  0.00    -0.210 C  
HETATM    9  C   UNL     1     -10.049   9.778  69.672  1.00  0.00    -0.250 C  
HETATM   10  C   UNL     1      -9.181   7.375  69.314  1.00  0.00    -0.147 C  
HETATM   11  C   UNL     1      -8.679  10.468  69.657  1.00  0.00     0.029 C  
HETATM   12  C   UNL     1      -8.765  11.581  68.622  1.00  0.00    -0.103 C  
HETATM   13  C   UNL     1     -10.255  11.816  68.303  1.00  0.00    -0.209 C  
HETATM   14  C   UNL     1     -10.601  13.301  68.196  1.00  0.00    -0.259 C  
HETATM   15  C   UNL     1     -11.931  13.677  68.798  1.00  0.00    -0.394 C  
HETATM   16  C   UNL     1      -9.784  14.166  67.557  1.00  0.00    -0.234 C  
HETATM   17  C   UNL     1     -12.405  10.399  68.853  1.00  0.00     0.627 C  
HETATM   18  C   UNL     1     -12.148  13.122  70.212  1.00  0.00    -0.399 C  
HETATM   19  C   UNL     1     -11.048  10.957  69.344  1.00  0.00    -0.317 C  
HETATM   20  C   UNL     1     -11.333  11.864  70.569  1.00  0.00     0.564 C  
ENDROOT
BRANCH  16  21
HETATM   21  C   UNL     1     -10.164  15.490  67.124  1.00  0.00    -0.260 C  
HETATM   22  C   UNL     1      -9.644  16.672  67.509  1.00  0.00    -0.242 C  
HETATM   23  C   UNL     1      -8.681  16.909  68.660  1.00  0.00    -0.267 C  
HETATM   24  C   UNL     1      -7.340  17.453  68.151  1.00  0.00    -0.205 C  
HETATM   25  C   UNL     1      -7.519  18.662  67.232  1.00  0.00    -0.225 C  
HETATM   26  O   UNL     1      -6.620  16.426  67.469  1.00  0.00    -0.127 OA 
HETATM   27  C   UNL     1      -8.538  18.409  66.115  1.00  0.00    -0.136 C  
HETATM   28  H   UNL     1      -5.790  16.763  67.153  1.00  0.00     0.000 HD 
HETATM   29  C   UNL     1      -9.893  17.890  66.629  1.00  0.00    -0.342 C  
HETATM   30  C   UNL     1     -10.730  18.972  67.302  1.00  0.00    -0.556 C  
ENDBRANCH  16  21
TORSDOF 1
ENDMDL
MODEL       64
REMARK 921   NORMALIZED FREE ENERGY PREDICTED BY IDOCK:   -3.53 KCAL/MOL
REMARK 922        TOTAL FREE ENERGY PREDICTED BY IDOCK:   -4.46 KCAL/MOL
REMARK 923 INTER-LIGAND FREE ENERGY PREDICTED BY IDOCK:   -3.92 KCAL/MOL
REMARK 924 INTRA-LIGAND FREE ENERGY PREDICTED BY IDOCK:   -0.54 KCAL/MOL
REMARK 927      BINDING AFFINITY PREDICTED BY RF-SCORE:    0.00 PKD
ROOT
HETATM    1  C   UNL     1     -10.944  11.505  67.677  1.00  0.00    -0.296 C  
HETATM    2  C   UNL     1      -9.780  10.600  67.251  1.00  0.00    -0.195 C  
HETATM    3  C   UNL     1      -8.736  10.321  68.374  1.00  0.00    -0.129 C  
HETATM    4  C   UNL     1      -9.123  11.189  65.999  1.00  0.00    -0.217 C  
HETATM    5  C   UNL     1      -9.353   9.540  69.513  1.00  0.00    -0.199 C  
HETATM    6  C   UNL     1      -8.056  11.576  68.926  1.00  0.00    -0.035 C  
HETATM    7  C   UNL     1      -8.703   8.612  70.234  1.00  0.00    -0.151 C  
HETATM    8  C   UNL     1      -9.321   7.724  71.302  1.00  0.00    -0.171 C  
HETATM    9  C   UNL     1      -9.633   6.260  70.805  1.00  0.00    -0.193 C  
HETATM   10  C   UNL     1     -10.555   8.365  71.977  1.00  0.00    -0.387 C  
HETATM   11  C   UNL     1     -10.626   6.255  69.635  1.00  0.00    -0.323 C  
HETATM   12  C   UNL     1      -9.796   6.198  68.361  1.00  0.00    -0.142 C  
HETATM   13  C   UNL     1      -8.362   5.782  68.748  1.00  0.00    -0.104 C  
HETATM   14  C   UNL     1      -7.767   4.767  67.775  1.00  0.00    -0.083 C  
HETATM   15  C   UNL     1      -6.946   3.682  68.427  1.00  0.00    -0.050 C  
HETATM   16  C   UNL     1      -7.935   4.893  66.440  1.00  0.00    -0.107 C  
HETATM   17  C   UNL     1      -7.151   5.652  71.082  1.00  0.00    -0.068 C  
HETATM   18  C   UNL     1      -7.643   3.016  69.621  1.00  0.00    -0.044 C  
HETATM   19  C   UNL     1      -8.434   5.386  70.261  1.00  0.00    -0.119 C  
HETATM   20  C   UNL     1      -8.721   3.863  70.325  1.00  0.00    -0.123 C  
ENDROOT
BRANCH  16  21
HETATM   21  C   UNL     1      -7.160   4.194  65.442  1.00  0.00    -0.063 C  
HETATM   22  C   UNL     1      -7.423   3.004  64.869  1.00  0.00    -0.075 C  
HETATM   23  C   UNL     1      -8.485   2.005  65.295  1.00  0.00    -0.099 C  
HETATM   24  C   UNL     1      -9.529   1.808  64.189  1.00  0.00    -0.128 C  
HETATM   25  C   UNL     1      -8.888   1.492  62.838  1.00  0.00    -0.075 C  
HETATM   26  O   UNL     1     -10.352   2.970  64.077  1.00  0.00    -0.254 OA 
HETATM   27  C   UNL     1      -7.782   2.486  62.463  1.00  0.00    -0.054 C  
HETATM   28  H   UNL     1     -10.998   2.848  63.392  1.00  0.00     0.000 HD 
HETATM   29  C   UNL     1      -6.718   2.662  63.562  1.00  0.00    -0.031 C  
HETATM   30  C   UNL     1      -5.770   1.474  63.669  1.00  0.00    -0.008 C  
ENDBRANCH  16  21
TORSDOF 1
ENDMDL
MODEL       65
REMARK 921   NORMALIZED FREE ENERGY PREDICTED BY IDOCK:   -3.46 KCAL/MOL
REMARK 922        TOTAL FREE ENERGY PREDICTED BY IDOCK:   -4.39 KCAL/MOL
REMARK 923 INTER-LIGAND FREE ENERGY PREDICTED BY IDOCK:   -3.62 KCAL/MOL
REMARK 924 INTRA-LIGAND FREE ENERGY PREDICTED BY IDOCK:   -0.77 KCAL/MOL
REMARK 927      BINDING AFFINITY PREDICTED BY RF-SCORE:    0.00 PKD
ROOT
HETATM    1  C   UNL     1     -11.331  15.324  70.983  1.00  0.00    -0.393 C  
HETATM    2  C   UNL     1     -11.327  13.857  70.527  1.00  0.00     0.139 C  
HETATM    3  C   UNL     1     -11.088  13.658  69.000  1.00  0.00    -0.295 C  
HETATM    4  C   UNL     1     -12.624  13.188  70.992  1.00  0.00    -0.397 C  
HETATM    5  C   UNL     1      -9.708  14.126  68.596  1.00  0.00    -0.196 C  
HETATM    6  C   UNL     1     -12.135  14.328  68.108  1.00  0.00    -0.275 C  
HETATM    7  C   UNL     1      -8.960  13.544  67.646  1.00  0.00    -0.200 C  
HETATM    8  C   UNL     1      -7.525  13.908  67.297  1.00  0.00    -0.051 C  
HETATM    9  C   UNL     1      -6.455  12.921  67.904  1.00  0.00    -0.127 C  
HETATM   10  C   UNL     1      -7.183  15.380  67.622  1.00  0.00    -0.206 C  
HETATM   11  C   UNL     1      -6.514  12.890  69.437  1.00  0.00    -0.091 C  
HETATM   12  C   UNL     1      -7.393  11.706  69.814  1.00  0.00     0.461 C  
HETATM   13  C   UNL     1      -7.541  10.810  68.567  1.00  0.00    -0.104 C  
HETATM   14  C   UNL     1      -7.434   9.324  68.902  1.00  0.00    -0.075 C  
HETATM   15  C   UNL     1      -6.669   8.509  67.890  1.00  0.00    -0.066 C  
HETATM   16  C   UNL     1      -8.036   8.806  69.995  1.00  0.00    -0.111 C  
HETATM   17  C   UNL     1      -6.969  11.236  66.033  1.00  0.00     0.143 C  
HETATM   18  C   UNL     1      -5.318   9.123  67.496  1.00  0.00    -0.037 C  
HETATM   19  C   UNL     1      -6.543  11.393  67.511  1.00  0.00    -0.078 C  
HETATM   20  C   UNL     1      -5.195  10.647  67.690  1.00  0.00    -0.036 C  
ENDROOT
BRANCH  16  21
HETATM   21  C   UNL     1      -8.267   7.399  70.219  1.00  0.00    -0.132 C  
HETATM   22  C   UNL     1      -9.291   6.644  69.778  1.00  0.00    -0.145 C  
HETATM   23  C   UNL     1     -10.569   7.139  69.121  1.00  0.00    -0.227 C  
HETATM   24  C   UNL     1     -10.684   6.622  67.683  1.00  0.00    -0.302 C  
HETATM   25  C   UNL     1     -10.489   5.108  67.596  1.00  0.00    -0.130 C  
HETATM   26  O   UNL     1      -9.735   7.283  66.845  1.00  0.00    -0.171 OA 
HETATM   27  C   UNL     1      -9.220   4.634  68.315  1.00  0.00    -0.166 C  
HETATM   28  H   UNL     1      -9.806   6.962  65.954  1.00  0.00     0.000 HD 
HETATM   29  C   UNL     1      -9.119   5.130  69.769  1.00  0.00    -0.154 C  
HETATM   30  C   UNL     1     -10.065   4.399  70.715  1.00  0.00    -0.199 C  
ENDBRANCH  16  21
TORSDOF 1
ENDMDL
MODEL       66
REMARK 921   NORMALIZED FREE ENERGY PREDICTED BY IDOCK:   -3.46 KCAL/MOL
REMARK 922        TOTAL FREE ENERGY PREDICTED BY IDOCK:   -4.39 KCAL/MOL
REMARK 923 INTER-LIGAND FREE ENERGY PREDICTED BY IDOCK:   -3.96 KCAL/MOL
REMARK 924 INTRA-LIGAND FREE ENERGY PREDICTED BY IDOCK:   -0.43 KCAL/MOL
REMARK 927      BINDING AFFINITY PREDICTED BY RF-SCORE:    0.00 PKD
ROOT
HETATM    1  C   UNL     1     -13.164   6.970  71.622  1.00  0.00    -0.368 C  
HETATM    2  C   UNL     1     -11.799   7.431  71.090  1.00  0.00    -0.330 C  
HETATM    3  C   UNL     1     -10.592   7.056  72.001  1.00  0.00    -0.237 C  
HETATM    4  C   UNL     1     -11.855   8.937  70.814  1.00  0.00    -0.230 C  
HETATM    5  C   UNL     1     -10.417   5.555  72.086  1.00  0.00    -0.272 C  
HETATM    6  C   UNL     1     -10.665   7.641  73.413  1.00  0.00    -0.330 C  
HETATM    7  C   UNL     1      -9.229   4.937  72.173  1.00  0.00    -0.159 C  
HETATM    8  C   UNL     1      -9.006   3.433  72.137  1.00  0.00    -0.139 C  
HETATM    9  C   UNL     1      -8.510   2.899  70.739  1.00  0.00    -0.095 C  
HETATM   10  C   UNL     1     -10.226   2.632  72.646  1.00  0.00    -0.235 C  
HETATM   11  C   UNL     1      -9.522   3.194  69.625  1.00  0.00    -0.191 C  
HETATM   12  C   UNL     1      -9.074   4.489  68.962  1.00  0.00    -0.172 C  
HETATM   13  C   UNL     1      -7.620   4.763  69.396  1.00  0.00    -0.056 C  
HETATM   14  C   UNL     1      -6.750   5.255  68.240  1.00  0.00    -0.054 C  
HETATM   15  C   UNL     1      -5.350   4.696  68.229  1.00  0.00    -0.011 C  
HETATM   16  C   UNL     1      -7.213   6.161  67.351  1.00  0.00    -0.076 C  
HETATM   17  C   UNL     1      -6.132   3.702  71.291  1.00  0.00    -0.014 C  
HETATM   18  C   UNL     1      -5.292   3.172  68.403  1.00  0.00    -0.013 C  
HETATM   19  C   UNL     1      -7.158   3.475  70.157  1.00  0.00    -0.041 C  
HETATM   20  C   UNL     1      -6.501   2.534  69.114  1.00  0.00    -0.029 C  
ENDROOT
BRANCH  16  21
HETATM   21  C   UNL     1      -6.387   6.919  66.441  1.00  0.00    -0.050 C  
HETATM   22  C   UNL     1      -6.780   7.722  65.434  1.00  0.00    -0.045 C  
HETATM   23  C   UNL     1      -8.185   7.851  64.870  1.00  0.00    -0.128 C  
HETATM   24  C   UNL     1      -8.732   9.269  65.079  1.00  0.00    -0.190 C  
HETATM   25  C   UNL     1      -7.763  10.341  64.581  1.00  0.00    -0.114 C  
HETATM   26  O   UNL     1      -9.027   9.483  66.459  1.00  0.00    -0.142 OA 
HETATM   27  C   UNL     1      -6.341  10.150  65.123  1.00  0.00    -0.121 C  
HETATM   28  H   UNL     1      -9.366  10.361  66.588  1.00  0.00     0.000 HD 
HETATM   29  C   UNL     1      -5.782   8.735  64.888  1.00  0.00    -0.055 C  
HETATM   30  C   UNL     1      -5.383   8.485  63.439  1.00  0.00    -0.063 C  
ENDBRANCH  16  21
TORSDOF 1
ENDMDL
MODEL       67
REMARK 921   NORMALIZED FREE ENERGY PREDICTED BY IDOCK:   -3.39 KCAL/MOL
REMARK 922        TOTAL FREE ENERGY PREDICTED BY IDOCK:   -4.31 KCAL/MOL
REMARK 923 INTER-LIGAND FREE ENERGY PREDICTED BY IDOCK:   -3.84 KCAL/MOL
REMARK 924 INTRA-LIGAND FREE ENERGY PREDICTED BY IDOCK:   -0.48 KCAL/MOL
REMARK 927      BINDING AFFINITY PREDICTED BY RF-SCORE:    0.00 PKD
ROOT
HETATM    1  C   UNL     1      -7.085  11.337  66.415  1.00  0.00    -0.053 C  
HETATM    2  C   UNL     1      -8.145  10.394  67.003  1.00  0.00    -0.116 C  
HETATM    3  C   UNL     1      -8.951   9.589  65.941  1.00  0.00    -0.210 C  
HETATM    4  C   UNL     1      -9.067  11.196  67.927  1.00  0.00    -0.150 C  
HETATM    5  C   UNL     1      -8.054   8.635  65.182  1.00  0.00    -0.143 C  
HETATM    6  C   UNL     1      -9.726  10.458  64.948  1.00  0.00    -0.372 C  
HETATM    7  C   UNL     1      -8.436   7.423  64.747  1.00  0.00     0.085 C  
HETATM    8  C   UNL     1      -7.533   6.391  64.090  1.00  0.00    -0.084 C  
HETATM    9  C   UNL     1      -7.076   5.238  65.065  1.00  0.00    -0.062 C  
HETATM   10  C   UNL     1      -6.326   7.025  63.361  1.00  0.00    -0.044 C  
HETATM   11  C   UNL     1      -6.282   5.784  66.259  1.00  0.00    -0.034 C  
HETATM   12  C   UNL     1      -7.276   5.956  67.399  1.00  0.00    -0.076 C  
HETATM   13  C   UNL     1      -8.553   5.170  67.036  1.00  0.00    -0.105 C  
HETATM   14  C   UNL     1      -9.123   4.403  68.228  1.00  0.00    -0.165 C  
HETATM   15  C   UNL     1      -9.656   3.033  67.892  1.00  0.00    -0.114 C  
HETATM   16  C   UNL     1      -9.180   4.960  69.457  1.00  0.00    -0.171 C  
HETATM   17  C   UNL     1      -9.362   4.102  64.770  1.00  0.00    -0.164 C  
HETATM   18  C   UNL     1      -8.692   2.185  67.052  1.00  0.00    -0.134 C  
HETATM   19  C   UNL     1      -8.192   4.354  65.750  1.00  0.00    -0.109 C  
HETATM   20  C   UNL     1      -7.665   2.971  66.214  1.00  0.00    -0.077 C  
ENDROOT
BRANCH  16  21
HETATM   21  C   UNL     1      -9.979   4.460  70.552  1.00  0.00    -0.256 C  
HETATM   22  C   UNL     1      -9.556   3.898  71.700  1.00  0.00    -0.232 C  
HETATM   23  C   UNL     1      -8.141   3.451  72.026  1.00  0.00    -0.063 C  
HETATM   24  C   UNL     1      -7.569   4.250  73.203  1.00  0.00    -0.081 C  
HETATM   25  C   UNL     1      -8.510   4.257  74.408  1.00  0.00    -0.093 C  
HETATM   26  O   UNL     1      -7.289   5.590  72.797  1.00  0.00    -0.088 OA 
HETATM   27  C   UNL     1      -9.942   4.659  74.036  1.00  0.00    -0.199 C  
HETATM   28  H   UNL     1      -6.935   6.085  73.526  1.00  0.00     0.000 HD 
HETATM   29  C   UNL     1     -10.526   3.836  72.873  1.00  0.00    -0.246 C  
HETATM   30  C   UNL     1     -10.909   2.418  73.279  1.00  0.00    -0.282 C  
ENDBRANCH  16  21
TORSDOF 1
ENDMDL
MODEL       68
REMARK 921   NORMALIZED FREE ENERGY PREDICTED BY IDOCK:   -3.38 KCAL/MOL
REMARK 922        TOTAL FREE ENERGY PREDICTED BY IDOCK:   -4.30 KCAL/MOL
REMARK 923 INTER-LIGAND FREE ENERGY PREDICTED BY IDOCK:   -3.80 KCAL/MOL
REMARK 924 INTRA-LIGAND FREE ENERGY PREDICTED BY IDOCK:   -0.51 KCAL/MOL
REMARK 927      BINDING AFFINITY PREDICTED BY RF-SCORE:    0.00 PKD
ROOT
HETATM    1  C   UNL     1     -13.391   5.990  72.453  1.00  0.00     0.638 C  
HETATM    2  C   UNL     1     -12.423   6.856  71.635  1.00  0.00    -0.418 C  
HETATM    3  C   UNL     1     -10.944   6.805  72.122  1.00  0.00    -0.270 C  
HETATM    4  C   UNL     1     -12.956   8.291  71.588  1.00  0.00    -0.357 C  
HETATM    5  C   UNL     1     -10.360   5.419  71.955  1.00  0.00    -0.270 C  
HETATM    6  C   UNL     1     -10.741   7.272  73.565  1.00  0.00    -0.367 C  
HETATM    7  C   UNL     1      -9.081   5.172  71.630  1.00  0.00    -0.163 C  
HETATM    8  C   UNL     1      -8.489   3.803  71.334  1.00  0.00    -0.094 C  
HETATM    9  C   UNL     1      -8.313   3.508  69.795  1.00  0.00    -0.080 C  
HETATM   10  C   UNL     1      -9.242   2.655  72.046  1.00  0.00    -0.156 C  
HETATM   11  C   UNL     1      -9.654   3.549  69.050  1.00  0.00    -0.143 C  
HETATM   12  C   UNL     1      -9.785   4.950  68.470  1.00  0.00    -0.218 C  
HETATM   13  C   UNL     1      -8.395   5.616  68.521  1.00  0.00    -0.106 C  
HETATM   14  C   UNL     1      -8.076   6.398  67.248  1.00  0.00    -0.113 C  
HETATM   15  C   UNL     1      -6.648   6.274  66.780  1.00  0.00    -0.055 C  
HETATM   16  C   UNL     1      -9.007   7.172  66.649  1.00  0.00    -0.164 C  
HETATM   17  C   UNL     1      -6.181   4.943  69.778  1.00  0.00    -0.026 C  
HETATM   18  C   UNL     1      -6.139   4.827  66.726  1.00  0.00    -0.031 C  
HETATM   19  C   UNL     1      -7.402   4.483  68.948  1.00  0.00    -0.056 C  
HETATM   20  C   UNL     1      -6.864   3.828  67.650  1.00  0.00    -0.050 C  
ENDROOT
BRANCH  16  21
HETATM   21  C   UNL     1      -8.724   8.182  65.657  1.00  0.00    -0.176 C  
HETATM   22  C   UNL     1      -9.296   9.394  65.519  1.00  0.00    -0.315 C  
HETATM   23  C   UNL     1     -10.533   9.903  66.239  1.00  0.00    -0.171 C  
HETATM   24  C   UNL     1     -10.196  11.107  67.126  1.00  0.00    -0.200 C  
HETATM   25  C   UNL     1      -9.432  12.190  66.365  1.00  0.00    -0.238 C  
HETATM   26  O   UNL     1      -9.439  10.685  68.261  1.00  0.00    -0.149 OA 
HETATM   27  C   UNL     1      -8.222  11.635  65.604  1.00  0.00     0.449 C  
HETATM   28  H   UNL     1      -9.230  11.431  68.810  1.00  0.00     0.000 HD 
HETATM   29  C   UNL     1      -8.566  10.444  64.691  1.00  0.00    -0.192 C  
HETATM   30  C   UNL     1      -9.312  10.858  63.429  1.00  0.00    -0.308 C  
ENDBRANCH  16  21
TORSDOF 1
ENDMDL
MODEL       69
REMARK 921   NORMALIZED FREE ENERGY PREDICTED BY IDOCK:   -3.34 KCAL/MOL
REMARK 922        TOTAL FREE ENERGY PREDICTED BY IDOCK:   -4.26 KCAL/MOL
REMARK 923 INTER-LIGAND FREE ENERGY PREDICTED BY IDOCK:   -4.19 KCAL/MOL
REMARK 924 INTRA-LIGAND FREE ENERGY PREDICTED BY IDOCK:   -0.07 KCAL/MOL
REMARK 927      BINDING AFFINITY PREDICTED BY RF-SCORE:    0.00 PKD
ROOT
HETATM    1  C   UNL     1      -6.644   6.735  68.307  1.00  0.00    -0.062 C  
HETATM    2  C   UNL     1      -7.247   8.004  68.925  1.00  0.00    -0.075 C  
HETATM    3  C   UNL     1      -6.788   9.331  68.249  1.00  0.00    -0.064 C  
HETATM    4  C   UNL     1      -6.967   8.007  70.430  1.00  0.00    -0.041 C  
HETATM    5  C   UNL     1      -7.266   9.409  66.816  1.00  0.00    -0.083 C  
HETATM    6  C   UNL     1      -5.277   9.570  68.296  1.00  0.00    -0.033 C  
HETATM    7  C   UNL     1      -7.642  10.544  66.205  1.00  0.00    -0.135 C  
HETATM    8  C   UNL     1      -8.241  10.646  64.811  1.00  0.00    -0.038 C  
HETATM    9  C   UNL     1      -9.807  10.828  64.807  1.00  0.00    -0.358 C  
HETATM   10  C   UNL     1      -7.806   9.489  63.883  1.00  0.00    -0.133 C  
HETATM   11  C   UNL     1     -10.520   9.648  65.479  1.00  0.00     0.400 C  
HETATM   12  C   UNL     1     -10.768  10.056  66.924  1.00  0.00    -0.211 C  
HETATM   13  C   UNL     1     -10.571  11.583  67.025  1.00  0.00    -0.277 C  
HETATM   14  C   UNL     1     -11.635  12.252  67.894  1.00  0.00    -0.416 C  
HETATM   15  C   UNL     1     -12.122  13.580  67.373  1.00  0.00    -0.360 C  
HETATM   16  C   UNL     1     -12.041  11.696  69.057  1.00  0.00    -0.288 C  
HETATM   17  C   UNL     1      -9.505  13.320  65.359  1.00  0.00     0.228 C  
HETATM   18  C   UNL     1     -12.504  13.558  65.887  1.00  0.00    -0.484 C  
HETATM   19  C   UNL     1     -10.414  12.084  65.551  1.00  0.00    -0.307 C  
HETATM   20  C   UNL     1     -11.829  12.462  65.039  1.00  0.00    -0.440 C  
ENDROOT
BRANCH  16  21
HETATM   21  C   UNL     1     -12.779  12.389  70.087  1.00  0.00     0.191 C  
HETATM   22  C   UNL     1     -12.375  13.426  70.844  1.00  0.00    -0.436 C  
HETATM   23  C   UNL     1     -10.963  13.977  70.952  1.00  0.00     1.165 C  
HETATM   24  C   UNL     1     -10.898  15.423  70.446  1.00  0.00    -0.308 C  
HETATM   25  C   UNL     1     -11.961  16.311  71.094  1.00  0.00    -0.219 C  
HETATM   26  O   UNL     1     -11.039  15.454  69.026  1.00  0.00    -0.238 OA 
HETATM   27  C   UNL     1     -13.366  15.700  71.017  1.00  0.00    -0.367 C  
HETATM   28  H   UNL     1     -10.999  16.350  68.712  1.00  0.00     0.000 HD 
HETATM   29  C   UNL     1     -13.437  14.258  71.552  1.00  0.00    -0.426 C  
HETATM   30  C   UNL     1     -13.364  14.182  73.072  1.00  0.00    -0.374 C  
ENDBRANCH  16  21
TORSDOF 1
ENDMDL
MODEL       70
REMARK 921   NORMALIZED FREE ENERGY PREDICTED BY IDOCK:   -3.32 KCAL/MOL
REMARK 922        TOTAL FREE ENERGY PREDICTED BY IDOCK:   -4.24 KCAL/MOL
REMARK 923 INTER-LIGAND FREE ENERGY PREDICTED BY IDOCK:   -3.81 KCAL/MOL
REMARK 924 INTRA-LIGAND FREE ENERGY PREDICTED BY IDOCK:   -0.43 KCAL/MOL
REMARK 927      BINDING AFFINITY PREDICTED BY RF-SCORE:    0.00 PKD
ROOT
HETATM    1  C   UNL     1      -9.994  13.772  64.806  1.00  0.00    -0.129 C  
HETATM    2  C   UNL     1     -10.386  12.365  65.280  1.00  0.00    -0.308 C  
HETATM    3  C   UNL     1      -9.495  11.221  64.708  1.00  0.00    -0.221 C  
HETATM    4  C   UNL     1     -11.869  12.133  64.978  1.00  0.00    -0.357 C  
HETATM    5  C   UNL     1      -8.068  11.343  65.197  1.00  0.00     0.611 C  
HETATM    6  C   UNL     1      -9.503  11.122  63.181  1.00  0.00    -0.371 C  
HETATM    7  C   UNL     1      -7.272  10.298  65.474  1.00  0.00    -0.149 C  
HETATM    8  C   UNL     1      -5.880  10.378  66.081  1.00  0.00    -0.087 C  
HETATM    9  C   UNL     1      -5.842  10.053  67.624  1.00  0.00    -0.042 C  
HETATM   10  C   UNL     1      -5.164  11.712  65.769  1.00  0.00     0.567 C  
HETATM   11  C   UNL     1      -6.705  11.029  68.434  1.00  0.00    -0.060 C  
HETATM   12  C   UNL     1      -8.058  10.360  68.622  1.00  0.00    -0.118 C  
HETATM   13  C   UNL     1      -7.898   8.864  68.282  1.00  0.00    -0.101 C  
HETATM   14  C   UNL     1      -8.638   7.960  69.267  1.00  0.00    -0.138 C  
HETATM   15  C   UNL     1      -7.898   6.699  69.636  1.00  0.00    -0.115 C  
HETATM   16  C   UNL     1      -9.878   8.269  69.706  1.00  0.00    -0.187 C  
HETATM   17  C   UNL     1      -5.962   7.543  67.082  1.00  0.00    -0.046 C  
HETATM   18  C   UNL     1      -6.436   6.938  70.039  1.00  0.00    -0.040 C  
HETATM   19  C   UNL     1      -6.360   8.637  68.100  1.00  0.00    -0.052 C  
HETATM   20  C   UNL     1      -5.789   8.220  69.481  1.00  0.00    -0.030 C  
ENDROOT
BRANCH  16  21
HETATM   21  C   UNL     1     -10.773   7.345  70.362  1.00  0.00    -0.250 C  
HETATM   22  C   UNL     1     -11.642   7.596  71.359  1.00  0.00    -0.300 C  
HETATM   23  C   UNL     1     -11.732   8.867  72.188  1.00  0.00    -0.411 C  
HETATM   24  C   UNL     1     -13.083   9.563  71.982  1.00  0.00    -0.438 C  
HETATM   25  C   UNL     1     -14.261   8.608  72.180  1.00  0.00    -0.520 C  
HETATM   26  O   UNL     1     -13.143  10.144  70.680  1.00  0.00    -0.548 OA 
HETATM   27  C   UNL     1     -14.113   7.312  71.374  1.00  0.00    -0.456 C  
HETATM   28  H   UNL     1     -13.980  10.575  70.552  1.00  0.00     0.000 HD 
HETATM   29  C   UNL     1     -12.768   6.599  71.603  1.00  0.00    -0.280 C  
HETATM   30  C   UNL     1     -12.687   5.900  72.954  1.00  0.00     0.766 C  
ENDBRANCH  16  21
TORSDOF 1
ENDMDL
MODEL       71
REMARK 921   NORMALIZED FREE ENERGY PREDICTED BY IDOCK:   -3.23 KCAL/MOL
REMARK 922        TOTAL FREE ENERGY PREDICTED BY IDOCK:   -4.15 KCAL/MOL
REMARK 923 INTER-LIGAND FREE ENERGY PREDICTED BY IDOCK:   -3.63 KCAL/MOL
REMARK 924 INTRA-LIGAND FREE ENERGY PREDICTED BY IDOCK:   -0.52 KCAL/MOL
REMARK 927      BINDING AFFINITY PREDICTED BY RF-SCORE:    0.00 PKD
ROOT
HETATM    1  C   UNL     1     -10.108   3.483  62.656  1.00  0.00    -0.141 C  
HETATM    2  C   UNL     1     -10.292   4.449  63.834  1.00  0.00     0.142 C  
HETATM    3  C   UNL     1      -9.130   4.430  64.872  1.00  0.00    -0.151 C  
HETATM    4  C   UNL     1     -11.647   4.176  64.495  1.00  0.00     1.173 C  
HETATM    5  C   UNL     1      -7.837   4.916  64.254  1.00  0.00    -0.088 C  
HETATM    6  C   UNL     1      -8.899   3.069  65.532  1.00  0.00    -0.137 C  
HETATM    7  C   UNL     1      -6.908   5.630  64.908  1.00  0.00    -0.051 C  
HETATM    8  C   UNL     1      -5.658   6.238  64.292  1.00  0.00    -0.022 C  
HETATM    9  C   UNL     1      -5.782   7.783  64.001  1.00  0.00    -0.052 C  
HETATM   10  C   UNL     1      -5.167   5.467  63.044  1.00  0.00    -0.013 C  
HETATM   11  C   UNL     1      -6.920   8.088  63.019  1.00  0.00    -0.086 C  
HETATM   12  C   UNL     1      -8.136   8.444  63.860  1.00  0.00    -0.143 C  
HETATM   13  C   UNL     1      -7.652   8.733  65.296  1.00  0.00    -0.091 C  
HETATM   14  C   UNL     1      -8.343   9.948  65.911  1.00  0.00    -0.126 C  
HETATM   15  C   UNL     1      -7.440  10.828  66.738  1.00  0.00    -0.129 C  
HETATM   16  C   UNL     1      -9.668  10.155  65.753  1.00  0.00    -0.307 C  
HETATM   17  C   UNL     1      -5.350   8.270  66.488  1.00  0.00    -0.028 C  
HETATM   18  C   UNL     1      -6.122  11.191  66.039  1.00  0.00    -0.047 C  
HETATM   19  C   UNL     1      -6.088   8.747  65.215  1.00  0.00    -0.055 C  
HETATM   20  C   UNL     1      -5.654  10.212  64.946  1.00  0.00    -0.111 C  
ENDROOT
BRANCH  16  21
HETATM   21  C   UNL     1     -10.460  11.067  66.545  1.00  0.00    -0.309 C  
HETATM   22  C   UNL     1     -10.630  12.391  66.366  1.00  0.00    -0.271 C  
HETATM   23  C   UNL     1      -9.853  13.287  65.416  1.00  0.00    -0.128 C  
HETATM   24  C   UNL     1     -10.775  13.887  64.348  1.00  0.00    -0.268 C  
HETATM   25  C   UNL     1     -12.009  14.553  64.958  1.00  0.00    -0.399 C  
HETATM   26  O   UNL     1     -11.175  12.878  63.421  1.00  0.00    -0.588 OA 
HETATM   27  C   UNL     1     -12.739  13.643  65.953  1.00  0.00    -0.428 C  
HETATM   28  H   UNL     1     -11.746  13.250  62.760  1.00  0.00     0.000 HD 
HETATM   29  C   UNL     1     -11.818  13.063  67.042  1.00  0.00    -0.437 C  
HETATM   30  C   UNL     1     -11.424  14.090  68.097  1.00  0.00    -0.341 C  
ENDBRANCH  16  21
TORSDOF 1
ENDMDL
MODEL       72
REMARK 921   NORMALIZED FREE ENERGY PREDICTED BY IDOCK:   -3.19 KCAL/MOL
REMARK 922        TOTAL FREE ENERGY PREDICTED BY IDOCK:   -4.10 KCAL/MOL
REMARK 923 INTER-LIGAND FREE ENERGY PREDICTED BY IDOCK:   -3.60 KCAL/MOL
REMARK 924 INTRA-LIGAND FREE ENERGY PREDICTED BY IDOCK:   -0.50 KCAL/MOL
REMARK 927      BINDING AFFINITY PREDICTED BY RF-SCORE:    0.00 PKD
ROOT
HETATM    1  C   UNL     1     -11.502   7.360  69.644  1.00  0.00     0.103 C  
HETATM    2  C   UNL     1     -11.260   8.790  70.148  1.00  0.00    -0.162 C  
HETATM    3  C   UNL     1     -10.019   8.944  71.077  1.00  0.00    -0.324 C  
HETATM    4  C   UNL     1     -12.537   9.306  70.817  1.00  0.00    -0.059 C  
HETATM    5  C   UNL     1      -8.737   8.641  70.333  1.00  0.00    -0.165 C  
HETATM    6  C   UNL     1     -10.079   8.099  72.352  1.00  0.00    -0.355 C  
HETATM    7  C   UNL     1      -7.570   9.269  70.550  1.00  0.00    -0.147 C  
HETATM    8  C   UNL     1      -6.296   9.078  69.742  1.00  0.00    -0.038 C  
HETATM    9  C   UNL     1      -6.034  10.226  68.692  1.00  0.00    -0.044 C  
HETATM   10  C   UNL     1      -6.202   7.682  69.086  1.00  0.00    -0.035 C  
HETATM   11  C   UNL     1      -7.167  10.324  67.662  1.00  0.00    -0.087 C  
HETATM   12  C   UNL     1      -8.118  11.400  68.165  1.00  0.00    -0.137 C  
HETATM   13  C   UNL     1      -7.387  12.206  69.258  1.00  0.00     0.156 C  
HETATM   14  C   UNL     1      -7.635  13.709  69.138  1.00  0.00     0.140 C  
HETATM   15  C   UNL     1      -6.426  14.566  69.416  1.00  0.00    -0.132 C  
HETATM   16  C   UNL     1      -8.864  14.196  68.860  1.00  0.00     0.021 C  
HETATM   17  C   UNL     1      -5.160  11.735  70.580  1.00  0.00    -0.119 C  
HETATM   18  C   UNL     1      -5.164  14.115  68.667  1.00  0.00    -0.091 C  
HETATM   19  C   UNL     1      -5.903  11.708  69.225  1.00  0.00    -0.061 C  
HETATM   20  C   UNL     1      -5.128  12.632  68.249  1.00  0.00    -0.066 C  
ENDROOT
BRANCH  16  21
HETATM   21  C   UNL     1      -9.266  15.571  69.044  1.00  0.00    -0.238 C  
HETATM   22  C   UNL     1      -9.076  16.612  68.211  1.00  0.00    -0.218 C  
HETATM   23  C   UNL     1      -8.196  16.635  66.973  1.00  0.00    -0.222 C  
HETATM   24  C   UNL     1      -9.032  16.875  65.710  1.00  0.00     0.131 C  
HETATM   25  C   UNL     1      -9.946  18.093  65.844  1.00  0.00    -0.105 C  
HETATM   26  O   UNL     1      -9.807  15.716  65.406  1.00  0.00    -0.310 OA 
HETATM   27  C   UNL     1     -10.780  18.066  67.131  1.00  0.00    -0.276 C  
HETATM   28  H   UNL     1     -10.325  15.864  64.624  1.00  0.00     0.000 HD 
HETATM   29  C   UNL     1      -9.937  17.854  68.402  1.00  0.00    -0.367 C  
HETATM   30  C   UNL     1      -9.147  19.093  68.806  1.00  0.00    -0.397 C  
ENDBRANCH  16  21
TORSDOF 1
ENDMDL
MODEL       73
REMARK 921   NORMALIZED FREE ENERGY PREDICTED BY IDOCK:   -3.15 KCAL/MOL
REMARK 922        TOTAL FREE ENERGY PREDICTED BY IDOCK:   -4.06 KCAL/MOL
REMARK 923 INTER-LIGAND FREE ENERGY PREDICTED BY IDOCK:   -3.48 KCAL/MOL
REMARK 924 INTRA-LIGAND FREE ENERGY PREDICTED BY IDOCK:   -0.58 KCAL/MOL
REMARK 927      BINDING AFFINITY PREDICTED BY RF-SCORE:    0.00 PKD
ROOT
HETATM    1  C   UNL     1      -8.513   6.364  74.523  1.00  0.00    -0.144 C  
HETATM    2  C   UNL     1      -8.189   6.869  73.110  1.00  0.00    -0.118 C  
HETATM    3  C   UNL     1      -7.000   6.135  72.420  1.00  0.00    -0.079 C  
HETATM    4  C   UNL     1      -7.967   8.384  73.161  1.00  0.00    -0.150 C  
HETATM    5  C   UNL     1      -7.325   4.677  72.177  1.00  0.00    -0.080 C  
HETATM    6  C   UNL     1      -5.673   6.242  73.174  1.00  0.00    -0.038 C  
HETATM    7  C   UNL     1      -6.907   3.978  71.110  1.00  0.00    -0.032 C  
HETATM    8  C   UNL     1      -7.311   2.552  70.769  1.00  0.00    -0.033 C  
HETATM    9  C   UNL     1      -8.418   2.457  69.650  1.00  0.00    -0.087 C  
HETATM   10  C   UNL     1      -7.697   1.722  72.016  1.00  0.00    -0.041 C  
HETATM   11  C   UNL     1      -9.713   3.167  70.068  1.00  0.00    -0.052 C  
HETATM   12  C   UNL     1      -9.650   4.569  69.479  1.00  0.00    -0.266 C  
HETATM   13  C   UNL     1      -8.540   4.583  68.408  1.00  0.00    -0.104 C  
HETATM   14  C   UNL     1      -8.950   5.353  67.154  1.00  0.00    -0.112 C  
HETATM   15  C   UNL     1      -8.498   4.725  65.860  1.00  0.00    -0.117 C  
HETATM   16  C   UNL     1      -9.614   6.526  67.238  1.00  0.00    -0.148 C  
HETATM   17  C   UNL     1      -6.621   2.865  67.858  1.00  0.00    -0.037 C  
HETATM   18  C   UNL     1      -8.810   3.225  65.759  1.00  0.00    -0.136 C  
HETATM   19  C   UNL     1      -8.104   3.089  68.236  1.00  0.00    -0.074 C  
HETATM   20  C   UNL     1      -8.971   2.484  67.101  1.00  0.00    -0.175 C  
ENDROOT
BRANCH  16  21
HETATM   21  C   UNL     1      -9.755   7.472  66.156  1.00  0.00    -0.001 C  
HETATM   22  C   UNL     1      -9.316   8.744  66.101  1.00  0.00    -0.297 C  
HETATM   23  C   UNL     1      -8.759   9.564  67.253  1.00  0.00    -0.132 C  
HETATM   24  C   UNL     1      -7.296   9.947  66.998  1.00  0.00    -0.091 C  
HETATM   25  C   UNL     1      -7.099  10.591  65.626  1.00  0.00    -0.119 C  
HETATM   26  O   UNL     1      -6.459   8.797  67.120  1.00  0.00    -0.059 OA 
HETATM   27  C   UNL     1      -7.720   9.767  64.491  1.00  0.00    -0.137 C  
HETATM   28  H   UNL     1      -5.553   9.035  66.962  1.00  0.00     0.000 HD 
HETATM   29  C   UNL     1      -9.197   9.407  64.735  1.00  0.00    -0.220 C  
HETATM   30  C   UNL     1     -10.138  10.591  64.543  1.00  0.00    -0.402 C  
ENDBRANCH  16  21
TORSDOF 1
ENDMDL
MODEL       74
REMARK 921   NORMALIZED FREE ENERGY PREDICTED BY IDOCK:   -3.10 KCAL/MOL
REMARK 922        TOTAL FREE ENERGY PREDICTED BY IDOCK:   -4.00 KCAL/MOL
REMARK 923 INTER-LIGAND FREE ENERGY PREDICTED BY IDOCK:   -3.58 KCAL/MOL
REMARK 924 INTRA-LIGAND FREE ENERGY PREDICTED BY IDOCK:   -0.42 KCAL/MOL
REMARK 927      BINDING AFFINITY PREDICTED BY RF-SCORE:    0.00 PKD
ROOT
HETATM    1  C   UNL     1      -9.625   4.522  67.320  1.00  0.00    -0.213 C  
HETATM    2  C   UNL     1     -10.099   5.946  67.641  1.00  0.00    -0.194 C  
HETATM    3  C   UNL     1      -9.609   6.494  69.015  1.00  0.00    -0.135 C  
HETATM    4  C   UNL     1     -11.625   6.002  67.520  1.00  0.00     0.998 C  
HETATM    5  C   UNL     1      -8.103   6.641  69.039  1.00  0.00    -0.116 C  
HETATM    6  C   UNL     1     -10.059   5.665  70.219  1.00  0.00    -0.287 C  
HETATM    7  C   UNL     1      -7.449   7.618  69.687  1.00  0.00    -0.091 C  
HETATM    8  C   UNL     1      -5.950   7.869  69.635  1.00  0.00    -0.026 C  
HETATM    9  C   UNL     1      -5.538   9.048  68.672  1.00  0.00    -0.041 C  
HETATM   10  C   UNL     1      -5.136   6.589  69.339  1.00  0.00    -0.013 C  
HETATM   11  C   UNL     1      -5.963   8.775  67.223  1.00  0.00    -0.047 C  
HETATM   12  C   UNL     1      -7.303   9.469  67.025  1.00  0.00    -0.087 C  
HETATM   13  C   UNL     1      -7.498  10.462  68.189  1.00  0.00    -0.090 C  
HETATM   14  C   UNL     1      -8.075  11.798  67.725  1.00  0.00    -0.143 C  
HETATM   15  C   UNL     1      -7.484  13.005  68.409  1.00  0.00    -0.128 C  
HETATM   16  C   UNL     1      -9.072  11.853  66.816  1.00  0.00    -0.197 C  
HETATM   17  C   UNL     1      -6.225  10.744  70.477  1.00  0.00    -0.086 C  
HETATM   18  C   UNL     1      -5.949  13.006  68.443  1.00  0.00    -0.077 C  
HETATM   19  C   UNL     1      -6.133  10.485  68.955  1.00  0.00    -0.040 C  
HETATM   20  C   UNL     1      -5.277  11.623  68.339  1.00  0.00    -0.039 C  
ENDROOT
BRANCH  16  21
HETATM   21  C   UNL     1      -9.891  13.014  66.560  1.00  0.00    -0.263 C  
HETATM   22  C   UNL     1     -10.410  13.424  65.387  1.00  0.00    -0.321 C  
HETATM   23  C   UNL     1     -10.074  12.884  64.007  1.00  0.00    -0.142 C  
HETATM   24  C   UNL     1     -11.305  12.244  63.353  1.00  0.00    -0.428 C  
HETATM   25  C   UNL     1     -12.520  13.172  63.377  1.00  0.00    -0.328 C  
HETATM   26  O   UNL     1     -11.621  11.012  64.001  1.00  0.00    -0.163 OA 
HETATM   27  C   UNL     1     -12.799  13.744  64.773  1.00  0.00    -0.160 C  
HETATM   28  H   UNL     1     -12.383  10.616  63.596  1.00  0.00     0.000 HD 
HETATM   29  C   UNL     1     -11.570  14.411  65.417  1.00  0.00    -0.347 C  
HETATM   30  C   UNL     1     -11.238  15.767  64.804  1.00  0.00    -0.375 C  
ENDBRANCH  16  21
TORSDOF 1
ENDMDL
MODEL       75
REMARK 921   NORMALIZED FREE ENERGY PREDICTED BY IDOCK:   -3.06 KCAL/MOL
REMARK 922        TOTAL FREE ENERGY PREDICTED BY IDOCK:   -3.97 KCAL/MOL
REMARK 923 INTER-LIGAND FREE ENERGY PREDICTED BY IDOCK:   -3.44 KCAL/MOL
REMARK 924 INTRA-LIGAND FREE ENERGY PREDICTED BY IDOCK:   -0.53 KCAL/MOL
REMARK 927      BINDING AFFINITY PREDICTED BY RF-SCORE:    0.00 PKD
ROOT
HETATM    1  C   UNL     1     -11.969   7.600  72.603  1.00  0.00    -0.208 C  
HETATM    2  C   UNL     1     -10.940   7.654  71.465  1.00  0.00    -0.263 C  
HETATM    3  C   UNL     1      -9.464   7.453  71.921  1.00  0.00    -0.166 C  
HETATM    4  C   UNL     1     -11.121   8.963  70.691  1.00  0.00    -0.306 C  
HETATM    5  C   UNL     1      -9.250   6.066  72.486  1.00  0.00    -0.141 C  
HETATM    6  C   UNL     1      -8.970   8.494  72.928  1.00  0.00    -0.171 C  
HETATM    7  C   UNL     1      -8.119   5.356  72.342  1.00  0.00    -0.107 C  
HETATM    8  C   UNL     1      -7.910   3.918  72.788  1.00  0.00    -0.075 C  
HETATM    9  C   UNL     1      -8.012   2.869  71.614  1.00  0.00    -0.056 C  
HETATM   10  C   UNL     1      -8.813   3.520  73.979  1.00  0.00    -0.088 C  
HETATM   11  C   UNL     1      -9.391   2.899  70.942  1.00  0.00    -0.220 C  
HETATM   12  C   UNL     1      -9.264   3.809  69.729  1.00  0.00    -0.213 C  
HETATM   13  C   UNL     1      -7.761   4.011  69.445  1.00  0.00    -0.053 C  
HETATM   14  C   UNL     1      -7.436   3.947  67.953  1.00  0.00    -0.067 C  
HETATM   15  C   UNL     1      -6.152   3.230  67.623  1.00  0.00    -0.028 C  
HETATM   16  C   UNL     1      -8.229   4.545  67.037  1.00  0.00    -0.102 C  
HETATM   17  C   UNL     1      -5.623   3.475  70.885  1.00  0.00    -0.012 C  
HETATM   18  C   UNL     1      -6.010   1.868  68.317  1.00  0.00    -0.024 C  
HETATM   19  C   UNL     1      -7.016   3.015  70.395  1.00  0.00    -0.034 C  
HETATM   20  C   UNL     1      -6.822   1.690  69.614  1.00  0.00    -0.033 C  
ENDROOT
BRANCH  16  21
HETATM   21  C   UNL     1      -7.849   4.818  65.671  1.00  0.00    -0.095 C  
HETATM   22  C   UNL     1      -8.113   4.086  64.572  1.00  0.00    -0.087 C  
HETATM   23  C   UNL     1      -8.686   2.679  64.533  1.00  0.00    -0.100 C  
HETATM   24  C   UNL     1     -10.050   2.661  63.833  1.00  0.00    -0.139 C  
HETATM   25  C   UNL     1     -10.009   3.352  62.470  1.00  0.00    -0.113 C  
HETATM   26  O   UNL     1     -11.036   3.277  64.661  1.00  0.00    -0.389 OA 
HETATM   27  C   UNL     1      -9.375   4.746  62.533  1.00  0.00    -0.033 C  
HETATM   28  H   UNL     1     -11.881   3.266  64.227  1.00  0.00     0.000 HD 
HETATM   29  C   UNL     1      -7.993   4.760  63.211  1.00  0.00    -0.086 C  
HETATM   30  C   UNL     1      -6.893   4.176  62.332  1.00  0.00    -0.031 C  
ENDBRANCH  16  21
TORSDOF 1
ENDMDL
MODEL       76
REMARK 921   NORMALIZED FREE ENERGY PREDICTED BY IDOCK:   -3.06 KCAL/MOL
REMARK 922        TOTAL FREE ENERGY PREDICTED BY IDOCK:   -3.96 KCAL/MOL
REMARK 923 INTER-LIGAND FREE ENERGY PREDICTED BY IDOCK:   -3.47 KCAL/MOL
REMARK 924 INTRA-LIGAND FREE ENERGY PREDICTED BY IDOCK:   -0.49 KCAL/MOL
REMARK 927      BINDING AFFINITY PREDICTED BY RF-SCORE:    0.00 PKD
ROOT
HETATM    1  C   UNL     1     -10.279   4.742  68.362  1.00  0.00    -0.052 C  
HETATM    2  C   UNL     1     -10.292   6.111  69.057  1.00  0.00    -0.263 C  
HETATM    3  C   UNL     1      -8.952   6.492  69.755  1.00  0.00    -0.142 C  
HETATM    4  C   UNL     1     -11.473   6.165  70.031  1.00  0.00    -0.369 C  
HETATM    5  C   UNL     1      -7.836   6.651  68.746  1.00  0.00    -0.111 C  
HETATM    6  C   UNL     1      -8.513   5.516  70.849  1.00  0.00    -0.123 C  
HETATM    7  C   UNL     1      -6.843   7.548  68.851  1.00  0.00    -0.068 C  
HETATM    8  C   UNL     1      -5.776   7.821  67.802  1.00  0.00    -0.037 C  
HETATM    9  C   UNL     1      -6.050   9.113  66.941  1.00  0.00    -0.061 C  
HETATM   10  C   UNL     1      -5.490   6.595  66.904  1.00  0.00    -0.013 C  
HETATM   11  C   UNL     1      -7.373   9.015  66.171  1.00  0.00    -0.091 C  
HETATM   12  C   UNL     1      -8.424   9.714  67.022  1.00  0.00    -0.124 C  
HETATM   13  C   UNL     1      -7.689  10.554  68.087  1.00  0.00    -0.096 C  
HETATM   14  C   UNL     1      -8.321  11.931  68.281  1.00  0.00    -0.159 C  
HETATM   15  C   UNL     1      -7.332  13.051  68.479  1.00  0.00    -0.115 C  
HETATM   16  C   UNL     1      -9.663  12.085  68.325  1.00  0.00    -0.205 C  
HETATM   17  C   UNL     1      -5.176  10.567  68.872  1.00  0.00    -0.041 C  
HETATM   18  C   UNL     1      -6.200  13.064  67.442  1.00  0.00    -0.082 C  
HETATM   19  C   UNL     1      -6.174  10.498  67.693  1.00  0.00    -0.056 C  
HETATM   20  C   UNL     1      -5.892  11.712  66.770  1.00  0.00    -0.140 C  
ENDROOT
BRANCH  16  21
HETATM   21  C   UNL     1     -10.341  13.260  68.820  1.00  0.00    -0.154 C  
HETATM   22  C   UNL     1     -11.559  13.339  69.388  1.00  0.00    -0.364 C  
HETATM   23  C   UNL     1     -12.608  12.242  69.445  1.00  0.00     0.448 C  
HETATM   24  C   UNL     1     -12.897  11.833  70.895  1.00  0.00    -0.152 C  
HETATM   25  C   UNL     1     -13.209  13.036  71.784  1.00  0.00    -0.486 C  
HETATM   26  O   UNL     1     -11.790  11.107  71.430  1.00  0.00    -0.091 OA 
HETATM   27  C   UNL     1     -12.161  14.149  71.661  1.00  0.00    -0.291 C  
HETATM   28  H   UNL     1     -11.968  10.854  72.328  1.00  0.00     0.000 HD 
HETATM   29  C   UNL     1     -11.893  14.579  70.208  1.00  0.00    -0.373 C  
HETATM   30  C   UNL     1     -13.019  15.420  69.618  1.00  0.00     0.341 C  
ENDBRANCH  16  21
TORSDOF 1
ENDMDL
MODEL       77
REMARK 921   NORMALIZED FREE ENERGY PREDICTED BY IDOCK:   -3.03 KCAL/MOL
REMARK 922        TOTAL FREE ENERGY PREDICTED BY IDOCK:   -3.93 KCAL/MOL
REMARK 923 INTER-LIGAND FREE ENERGY PREDICTED BY IDOCK:   -3.32 KCAL/MOL
REMARK 924 INTRA-LIGAND FREE ENERGY PREDICTED BY IDOCK:   -0.61 KCAL/MOL
REMARK 927      BINDING AFFINITY PREDICTED BY RF-SCORE:    0.00 PKD
ROOT
HETATM    1  C   UNL     1     -11.976   7.596  72.593  1.00  0.00    -0.208 C  
HETATM    2  C   UNL     1     -10.995   7.644  71.412  1.00  0.00    -0.257 C  
HETATM    3  C   UNL     1      -9.507   7.394  71.799  1.00  0.00    -0.166 C  
HETATM    4  C   UNL     1     -11.173   8.973  70.671  1.00  0.00    -0.318 C  
HETATM    5  C   UNL     1      -9.308   5.990  72.329  1.00  0.00    -0.149 C  
HETATM    6  C   UNL     1      -8.941   8.401  72.802  1.00  0.00    -0.291 C  
HETATM    7  C   UNL     1      -8.205   5.253  72.122  1.00  0.00    -0.114 C  
HETATM    8  C   UNL     1      -8.018   3.801  72.531  1.00  0.00    -0.073 C  
HETATM    9  C   UNL     1      -8.200   2.779  71.344  1.00  0.00    -0.074 C  
HETATM   10  C   UNL     1      -8.879   3.405  73.753  1.00  0.00    -0.087 C  
HETATM   11  C   UNL     1      -9.605   2.860  70.734  1.00  0.00    -0.195 C  
HETATM   12  C   UNL     1      -9.504   3.790  69.533  1.00  0.00    -0.257 C  
HETATM   13  C   UNL     1      -8.011   3.956  69.187  1.00  0.00    -0.058 C  
HETATM   14  C   UNL     1      -7.753   3.913  67.682  1.00  0.00    -0.075 C  
HETATM   15  C   UNL     1      -6.504   3.167  67.283  1.00  0.00    -0.037 C  
HETATM   16  C   UNL     1      -8.567   4.550  66.813  1.00  0.00    -0.104 C  
HETATM   17  C   UNL     1      -5.828   3.334  70.522  1.00  0.00    -0.018 C  
HETATM   18  C   UNL     1      -6.371   1.788  67.944  1.00  0.00    -0.025 C  
HETATM   19  C   UNL     1      -7.254   2.922  70.086  1.00  0.00    -0.040 C  
HETATM   20  C   UNL     1      -7.131   1.607  69.273  1.00  0.00    -0.036 C  
ENDROOT
BRANCH  16  21
HETATM   21  C   UNL     1      -8.239   4.839  65.437  1.00  0.00    -0.118 C  
HETATM   22  C   UNL     1      -8.020   6.041  64.870  1.00  0.00    -0.126 C  
HETATM   23  C   UNL     1      -8.285   7.401  65.492  1.00  0.00    -0.135 C  
HETATM   24  C   UNL     1      -6.982   8.193  65.656  1.00  0.00    -0.066 C  
HETATM   25  C   UNL     1      -6.174   8.251  64.360  1.00  0.00    -0.065 C  
HETATM   26  O   UNL     1      -6.189   7.624  66.698  1.00  0.00    -0.043 OA 
HETATM   27  C   UNL     1      -5.972   6.869  63.727  1.00  0.00    -0.039 C  
HETATM   28  H   UNL     1      -5.381   8.114  66.799  1.00  0.00     0.000 HD 
HETATM   29  C   UNL     1      -7.284   6.086  63.537  1.00  0.00    -0.056 C  
HETATM   30  C   UNL     1      -8.131   6.614  62.385  1.00  0.00    -0.088 C  
ENDBRANCH  16  21
TORSDOF 1
ENDMDL
MODEL       78
REMARK 921   NORMALIZED FREE ENERGY PREDICTED BY IDOCK:   -3.03 KCAL/MOL
REMARK 922        TOTAL FREE ENERGY PREDICTED BY IDOCK:   -3.93 KCAL/MOL
REMARK 923 INTER-LIGAND FREE ENERGY PREDICTED BY IDOCK:   -3.39 KCAL/MOL
REMARK 924 INTRA-LIGAND FREE ENERGY PREDICTED BY IDOCK:   -0.54 KCAL/MOL
REMARK 927      BINDING AFFINITY PREDICTED BY RF-SCORE:    0.00 PKD
ROOT
HETATM    1  C   UNL     1      -6.630   7.284  67.327  1.00  0.00    -0.063 C  
HETATM    2  C   UNL     1      -6.741   8.736  67.816  1.00  0.00    -0.066 C  
HETATM    3  C   UNL     1      -6.544   9.807  66.702  1.00  0.00    -0.071 C  
HETATM    4  C   UNL     1      -5.770   8.944  68.982  1.00  0.00    -0.040 C  
HETATM    5  C   UNL     1      -7.644   9.729  65.667  1.00  0.00    -0.109 C  
HETATM    6  C   UNL     1      -5.183   9.746  66.004  1.00  0.00    -0.035 C  
HETATM    7  C   UNL     1      -8.161  10.793  65.031  1.00  0.00    -0.005 C  
HETATM    8  C   UNL     1      -9.346  10.768  64.078  1.00  0.00    -0.285 C  
HETATM    9  C   UNL     1     -10.696  11.254  64.734  1.00  0.00    -0.352 C  
HETATM   10  C   UNL     1      -9.522   9.404  63.372  1.00  0.00     0.522 C  
HETATM   11  C   UNL     1     -11.102  10.373  65.922  1.00  0.00     0.381 C  
HETATM   12  C   UNL     1     -10.583  11.067  67.174  1.00  0.00    -0.294 C  
HETATM   13  C   UNL     1     -10.221  12.517  66.796  1.00  0.00    -0.243 C  
HETATM   14  C   UNL     1     -10.668  13.524  67.855  1.00  0.00    -0.258 C  
HETATM   15  C   UNL     1     -11.220  14.812  67.299  1.00  0.00    -0.351 C  
HETATM   16  C   UNL     1     -10.512  13.271  69.172  1.00  0.00     0.054 C  
HETATM   17  C   UNL     1      -9.935  13.694  64.457  1.00  0.00     0.057 C  
HETATM   18  C   UNL     1     -12.272  14.609  66.199  1.00  0.00    -0.167 C  
HETATM   19  C   UNL     1     -10.750  12.715  65.335  1.00  0.00    -0.308 C  
HETATM   20  C   UNL     1     -12.194  13.271  65.438  1.00  0.00    -0.501 C  
ENDROOT
BRANCH  16  21
HETATM   21  C   UNL     1     -10.594  14.263  70.218  1.00  0.00     0.552 C  
HETATM   22  C   UNL     1     -11.677  14.639  70.924  1.00  0.00    -0.335 C  
HETATM   23  C   UNL     1     -13.122  14.265  70.640  1.00  0.00    -0.247 C  
HETATM   24  C   UNL     1     -13.713  13.441  71.790  1.00  0.00    -0.254 C  
HETATM   25  C   UNL     1     -13.501  14.109  73.149  1.00  0.00    -0.021 C  
HETATM   26  O   UNL     1     -13.144  12.131  71.799  1.00  0.00    -0.438 OA 
HETATM   27  C   UNL     1     -12.043  14.524  73.382  1.00  0.00    -0.108 C  
HETATM   28  H   UNL     1     -13.510  11.621  72.511  1.00  0.00     0.000 HD 
HETATM   29  C   UNL     1     -11.459  15.376  72.240  1.00  0.00    -0.506 C  
HETATM   30  C   UNL     1     -11.984  16.807  72.236  1.00  0.00     0.101 C  
ENDBRANCH  16  21
TORSDOF 1
ENDMDL
MODEL       79
REMARK 921   NORMALIZED FREE ENERGY PREDICTED BY IDOCK:   -2.95 KCAL/MOL
REMARK 922        TOTAL FREE ENERGY PREDICTED BY IDOCK:   -3.85 KCAL/MOL
REMARK 923 INTER-LIGAND FREE ENERGY PREDICTED BY IDOCK:   -3.35 KCAL/MOL
REMARK 924 INTRA-LIGAND FREE ENERGY PREDICTED BY IDOCK:   -0.50 KCAL/MOL
REMARK 927      BINDING AFFINITY PREDICTED BY RF-SCORE:    0.00 PKD
ROOT
HETATM    1  C   UNL     1      -9.717  18.022  66.360  1.00  0.00    -0.324 C  
HETATM    2  C   UNL     1      -8.772  16.836  66.604  1.00  0.00    -0.281 C  
HETATM    3  C   UNL     1      -8.812  16.267  68.054  1.00  0.00    -0.182 C  
HETATM    4  C   UNL     1      -7.352  17.238  66.191  1.00  0.00    -0.316 C  
HETATM    5  C   UNL     1     -10.167  15.672  68.370  1.00  0.00    -0.222 C  
HETATM    6  C   UNL     1      -8.436  17.280  69.137  1.00  0.00     0.029 C  
HETATM    7  C   UNL     1     -10.356  14.592  69.145  1.00  0.00    -0.222 C  
HETATM    8  C   UNL     1     -11.686  13.895  69.386  1.00  0.00    -0.367 C  
HETATM    9  C   UNL     1     -11.874  12.579  68.537  1.00  0.00    -0.341 C  
HETATM   10  C   UNL     1     -12.898  14.842  69.235  1.00  0.00     0.479 C  
HETATM   11  C   UNL     1     -11.822  12.862  67.030  1.00  0.00    -0.437 C  
HETATM   12  C   UNL     1     -10.390  12.595  66.587  1.00  0.00    -0.249 C  
HETATM   13  C   UNL     1      -9.690  11.797  67.706  1.00  0.00    -0.185 C  
HETATM   14  C   UNL     1      -8.818  10.668  67.158  1.00  0.00    -0.139 C  
HETATM   15  C   UNL     1      -8.870   9.393  67.959  1.00  0.00    -0.124 C  
HETATM   16  C   UNL     1      -8.033  10.853  66.074  1.00  0.00    -0.132 C  
HETATM   17  C   UNL     1     -10.380  11.309  70.199  1.00  0.00     0.967 C  
HETATM   18  C   UNL     1     -10.295   8.928  68.288  1.00  0.00    -0.250 C  
HETATM   19  C   UNL     1     -10.820  11.416  68.720  1.00  0.00    -0.251 C  
HETATM   20  C   UNL     1     -11.373  10.030  68.297  1.00  0.00    -0.117 C  
ENDROOT
BRANCH  16  21
HETATM   21  C   UNL     1      -6.952   9.980  65.681  1.00  0.00    -0.115 C  
HETATM   22  C   UNL     1      -7.022   8.837  64.974  1.00  0.00    -0.076 C  
HETATM   23  C   UNL     1      -8.282   8.071  64.607  1.00  0.00    -0.109 C  
HETATM   24  C   UNL     1      -8.472   8.023  63.086  1.00  0.00     0.116 C  
HETATM   25  C   UNL     1      -7.218   7.536  62.361  1.00  0.00    -0.083 C  
HETATM   26  O   UNL     1      -8.847   9.311  62.598  1.00  0.00    -0.248 OA 
HETATM   27  C   UNL     1      -5.955   8.291  62.794  1.00  0.00    -0.082 C  
HETATM   28  H   UNL     1      -8.965   9.281  61.656  1.00  0.00     0.000 HD 
HETATM   29  C   UNL     1      -5.749   8.314  64.320  1.00  0.00    -0.060 C  
HETATM   30  C   UNL     1      -5.276   6.977  64.877  1.00  0.00    -0.028 C  
ENDBRANCH  16  21
TORSDOF 1
ENDMDL
MODEL       80
REMARK 921   NORMALIZED FREE ENERGY PREDICTED BY IDOCK:   -2.91 KCAL/MOL
REMARK 922        TOTAL FREE ENERGY PREDICTED BY IDOCK:   -3.80 KCAL/MOL
REMARK 923 INTER-LIGAND FREE ENERGY PREDICTED BY IDOCK:   -3.23 KCAL/MOL
REMARK 924 INTRA-LIGAND FREE ENERGY PREDICTED BY IDOCK:   -0.57 KCAL/MOL
REMARK 927      BINDING AFFINITY PREDICTED BY RF-SCORE:    0.00 PKD
ROOT
HETATM    1  C   UNL     1      -9.218   3.000  64.724  1.00  0.00    -0.146 C  
HETATM    2  C   UNL     1      -9.755   4.420  64.956  1.00  0.00    -0.172 C  
HETATM    3  C   UNL     1      -9.530   4.966  66.398  1.00  0.00    -0.156 C  
HETATM    4  C   UNL     1     -11.233   4.464  64.556  1.00  0.00     0.329 C  
HETATM    5  C   UNL     1      -8.056   5.124  66.699  1.00  0.00    -0.108 C  
HETATM    6  C   UNL     1     -10.188   4.128  67.497  1.00  0.00     0.229 C  
HETATM    7  C   UNL     1      -7.541   6.104  67.459  1.00  0.00    -0.093 C  
HETATM    8  C   UNL     1      -6.060   6.367  67.684  1.00  0.00    -0.021 C  
HETATM    9  C   UNL     1      -5.488   7.553  66.816  1.00  0.00    -0.024 C  
HETATM   10  C   UNL     1      -5.194   5.094  67.540  1.00  0.00    -0.007 C  
HETATM   11  C   UNL     1      -5.637   7.282  65.314  1.00  0.00    -0.033 C  
HETATM   12  C   UNL     1      -6.923   7.967  64.874  1.00  0.00    -0.059 C  
HETATM   13  C   UNL     1      -7.338   8.953  65.985  1.00  0.00    -0.090 C  
HETATM   14  C   UNL     1      -7.830  10.287  65.426  1.00  0.00    -0.149 C  
HETATM   15  C   UNL     1      -7.386  11.496  66.210  1.00  0.00     0.133 C  
HETATM   16  C   UNL     1      -8.644  10.337  64.349  1.00  0.00    -0.195 C  
HETATM   17  C   UNL     1      -6.510   9.236  68.469  1.00  0.00    -0.053 C  
HETATM   18  C   UNL     1      -5.883  11.508  66.526  1.00  0.00    -0.106 C  
HETATM   19  C   UNL     1      -6.137   8.984  66.989  1.00  0.00    -0.058 C  
HETATM   20  C   UNL     1      -5.192  10.130  66.544  1.00  0.00    -0.040 C  
ENDROOT
BRANCH  16  21
HETATM   21  C   UNL     1      -9.411  11.493  63.950  1.00  0.00    -0.138 C  
HETATM   22  C   UNL     1     -10.537  11.977  64.509  1.00  0.00    -0.356 C  
HETATM   23  C   UNL     1     -11.395  11.295  65.561  1.00  0.00     0.026 C  
HETATM   24  C   UNL     1     -11.416  12.104  66.863  1.00  0.00    -0.351 C  
HETATM   25  C   UNL     1     -11.775  13.571  66.626  1.00  0.00    -0.425 C  
HETATM   26  O   UNL     1     -10.151  12.013  67.518  1.00  0.00    -0.192 OA 
HETATM   27  C   UNL     1     -10.929  14.215  65.521  1.00  0.00    -0.310 C  
HETATM   28  H   UNL     1     -10.164  12.515  68.324  1.00  0.00     0.000 HD 
HETATM   29  C   UNL     1     -10.932  13.416  64.204  1.00  0.00    -0.329 C  
HETATM   30  C   UNL     1     -12.240  13.544  63.433  1.00  0.00    -0.338 C  
ENDBRANCH  16  21
TORSDOF 1
ENDMDL
MODEL       81
REMARK 921   NORMALIZED FREE ENERGY PREDICTED BY IDOCK:   -2.90 KCAL/MOL
REMARK 922        TOTAL FREE ENERGY PREDICTED BY IDOCK:   -3.79 KCAL/MOL
REMARK 923 INTER-LIGAND FREE ENERGY PREDICTED BY IDOCK:   -3.37 KCAL/MOL
REMARK 924 INTRA-LIGAND FREE ENERGY PREDICTED BY IDOCK:   -0.42 KCAL/MOL
REMARK 927      BINDING AFFINITY PREDICTED BY RF-SCORE:    0.00 PKD
ROOT
HETATM    1  C   UNL     1      -9.635  11.251  62.880  1.00  0.00    -0.377 C  
HETATM    2  C   UNL     1      -9.749  12.188  64.091  1.00  0.00    -0.089 C  
HETATM    3  C   UNL     1     -10.152  11.480  65.419  1.00  0.00    -0.304 C  
HETATM    4  C   UNL     1     -10.705  13.334  63.745  1.00  0.00     0.033 C  
HETATM    5  C   UNL     1      -9.086  10.504  65.864  1.00  0.00    -0.192 C  
HETATM    6  C   UNL     1     -11.505  10.767  65.365  1.00  0.00     0.783 C  
HETATM    7  C   UNL     1      -8.769  10.263  67.146  1.00  0.00    -0.131 C  
HETATM    8  C   UNL     1      -7.625   9.384  67.629  1.00  0.00    -0.088 C  
HETATM    9  C   UNL     1      -6.354  10.196  68.090  1.00  0.00    -0.053 C  
HETATM   10  C   UNL     1      -7.251   8.276  66.618  1.00  0.00    -0.081 C  
HETATM   11  C   UNL     1      -5.774  11.042  66.949  1.00  0.00    -0.077 C  
HETATM   12  C   UNL     1      -6.361  12.438  67.103  1.00  0.00    -0.093 C  
HETATM   13  C   UNL     1      -6.967  12.544  68.517  1.00  0.00    -0.086 C  
HETATM   14  C   UNL     1      -6.659  13.884  69.183  1.00  0.00    -0.111 C  
HETATM   15  C   UNL     1      -6.342  13.793  70.654  1.00  0.00     0.066 C  
HETATM   16  C   UNL     1      -6.732  15.043  68.492  1.00  0.00    -0.098 C  
HETATM   17  C   UNL     1      -7.512  10.711  70.326  1.00  0.00     0.437 C  
HETATM   18  C   UNL     1      -5.305  12.713  70.996  1.00  0.00    -0.166 C  
HETATM   19  C   UNL     1      -6.522  11.242  69.263  1.00  0.00    -0.089 C  
HETATM   20  C   UNL     1      -5.186  11.556  69.985  1.00  0.00    -0.077 C  
ENDROOT
BRANCH  16  21
HETATM   21  C   UNL     1      -6.782  16.357  69.090  1.00  0.00    -0.205 C  
HETATM   22  C   UNL     1      -6.499  17.542  68.517  1.00  0.00    -0.186 C  
HETATM   23  C   UNL     1      -5.844  17.764  67.164  1.00  0.00    -0.161 C  
HETATM   24  C   UNL     1      -6.795  18.493  66.207  1.00  0.00    -0.230 C  
HETATM   25  C   UNL     1      -7.381  19.761  66.828  1.00  0.00    -0.261 C  
HETATM   26  O   UNL     1      -7.848  17.619  65.801  1.00  0.00    -0.548 OA 
HETATM   27  C   UNL     1      -7.984  19.514  68.216  1.00  0.00    -0.368 C  
HETATM   28  H   UNL     1      -8.437  18.070  65.208  1.00  0.00     0.000 HD 
HETATM   29  C   UNL     1      -7.019  18.808  69.186  1.00  0.00    -0.293 C  
HETATM   30  C   UNL     1      -5.917  19.726  69.703  1.00  0.00    -0.325 C  
ENDBRANCH  16  21
TORSDOF 1
ENDMDL
MODEL       82
REMARK 921   NORMALIZED FREE ENERGY PREDICTED BY IDOCK:   -2.85 KCAL/MOL
REMARK 922        TOTAL FREE ENERGY PREDICTED BY IDOCK:   -3.74 KCAL/MOL
REMARK 923 INTER-LIGAND FREE ENERGY PREDICTED BY IDOCK:   -3.11 KCAL/MOL
REMARK 924 INTRA-LIGAND FREE ENERGY PREDICTED BY IDOCK:   -0.63 KCAL/MOL
REMARK 927      BINDING AFFINITY PREDICTED BY RF-SCORE:    0.00 PKD
ROOT
HETATM    1  C   UNL     1     -11.929  13.324  70.629  1.00  0.00    -0.268 C  
HETATM    2  C   UNL     1     -11.783  11.836  70.280  1.00  0.00    -0.317 C  
HETATM    3  C   UNL     1     -11.322  11.560  68.817  1.00  0.00    -0.327 C  
HETATM    4  C   UNL     1     -13.096  11.117  70.606  1.00  0.00    -0.021 C  
HETATM    5  C   UNL     1      -9.925  12.088  68.575  1.00  0.00    -0.188 C  
HETATM    6  C   UNL     1     -12.267  12.110  67.746  1.00  0.00     0.281 C  
HETATM    7  C   UNL     1      -9.021  11.496  67.778  1.00  0.00    -0.160 C  
HETATM    8  C   UNL     1      -7.573  11.927  67.605  1.00  0.00    -0.136 C  
HETATM    9  C   UNL     1      -6.549  11.046  68.419  1.00  0.00    -0.058 C  
HETATM   10  C   UNL     1      -7.358  13.434  67.873  1.00  0.00    -0.140 C  
HETATM   11  C   UNL     1      -6.821  11.104  69.928  1.00  0.00    -0.060 C  
HETATM   12  C   UNL     1      -7.681   9.893  70.260  1.00  0.00    -0.160 C  
HETATM   13  C   UNL     1      -7.604   8.916  69.069  1.00  0.00    -0.085 C  
HETATM   14  C   UNL     1      -7.467   7.462  69.516  1.00  0.00    -0.090 C  
HETATM   15  C   UNL     1      -6.525   6.636  68.676  1.00  0.00    -0.046 C  
HETATM   16  C   UNL     1      -8.189   6.975  70.548  1.00  0.00    -0.123 C  
HETATM   17  C   UNL     1      -6.704   9.223  66.614  1.00  0.00    -0.076 C  
HETATM   18  C   UNL     1      -5.167   7.308  68.430  1.00  0.00    -0.021 C  
HETATM   19  C   UNL     1      -6.499   9.495  68.123  1.00  0.00    -0.057 C  
HETATM   20  C   UNL     1      -5.152   8.846  68.535  1.00  0.00    -0.030 C  
ENDROOT
BRANCH  16  21
HETATM   21  C   UNL     1      -8.375   5.572  70.834  1.00  0.00    -0.120 C  
HETATM   22  C   UNL     1      -9.190   4.698  70.214  1.00  0.00    -0.195 C  
HETATM   23  C   UNL     1     -10.276   5.028  69.204  1.00  0.00    -0.227 C  
HETATM   24  C   UNL     1      -9.967   4.400  67.839  1.00  0.00    -0.023 C  
HETATM   25  C   UNL     1      -9.653   2.908  67.947  1.00  0.00    -0.098 C  
HETATM   26  O   UNL     1      -8.877   5.083  67.221  1.00  0.00    -0.104 OA 
HETATM   27  C   UNL     1      -8.594   2.603  69.012  1.00  0.00    -0.116 C  
HETATM   28  H   UNL     1      -8.685   4.695  66.375  1.00  0.00     0.000 HD 
HETATM   29  C   UNL     1      -8.919   3.209  70.390  1.00  0.00    -0.170 C  
HETATM   30  C   UNL     1     -10.030   2.465  71.121  1.00  0.00     0.025 C  
ENDBRANCH  16  21
TORSDOF 1
ENDMDL
MODEL       83
REMARK 921   NORMALIZED FREE ENERGY PREDICTED BY IDOCK:   -2.72 KCAL/MOL
REMARK 922        TOTAL FREE ENERGY PREDICTED BY IDOCK:   -3.60 KCAL/MOL
REMARK 923 INTER-LIGAND FREE ENERGY PREDICTED BY IDOCK:   -3.12 KCAL/MOL
REMARK 924 INTRA-LIGAND FREE ENERGY PREDICTED BY IDOCK:   -0.48 KCAL/MOL
REMARK 927      BINDING AFFINITY PREDICTED BY RF-SCORE:    0.00 PKD
ROOT
HETATM    1  C   UNL     1     -13.660  14.047  65.432  1.00  0.00     1.037 C  
HETATM    2  C   UNL     1     -12.279  13.551  64.978  1.00  0.00    -0.453 C  
HETATM    3  C   UNL     1     -11.181  14.655  64.931  1.00  0.00    -0.400 C  
HETATM    4  C   UNL     1     -12.425  12.837  63.631  1.00  0.00    -0.482 C  
HETATM    5  C   UNL     1     -10.892  15.198  66.313  1.00  0.00    -0.333 C  
HETATM    6  C   UNL     1     -11.497  15.815  63.984  1.00  0.00     0.116 C  
HETATM    7  C   UNL     1      -9.679  15.590  66.733  1.00  0.00    -0.252 C  
HETATM    8  C   UNL     1      -9.325  16.025  68.147  1.00  0.00    -0.200 C  
HETATM    9  C   UNL     1      -8.598  14.908  68.990  1.00  0.00    -0.170 C  
HETATM   10  C   UNL     1     -10.531  16.615  68.913  1.00  0.00    -0.322 C  
HETATM   11  C   UNL     1      -9.470  13.655  69.147  1.00  0.00     0.395 C  
HETATM   12  C   UNL     1      -9.047  12.692  68.048  1.00  0.00    -0.207 C  
HETATM   13  C   UNL     1      -7.694  13.177  67.487  1.00  0.00    -0.168 C  
HETATM   14  C   UNL     1      -6.719  12.027  67.240  1.00  0.00    -0.144 C  
HETATM   15  C   UNL     1      -5.288  12.332  67.605  1.00  0.00    -0.097 C  
HETATM   16  C   UNL     1      -7.131  10.866  66.686  1.00  0.00    -0.135 C  
HETATM   17  C   UNL     1      -6.396  15.449  67.780  1.00  0.00    -0.182 C  
HETATM   18  C   UNL     1      -5.125  12.953  68.999  1.00  0.00    -0.068 C  
HETATM   19  C   UNL     1      -7.234  14.330  68.441  1.00  0.00    -0.113 C  
HETATM   20  C   UNL     1      -6.362  13.689  69.552  1.00  0.00    -0.114 C  
ENDROOT
BRANCH  16  21
HETATM   21  C   UNL     1      -6.256   9.866  66.122  1.00  0.00    -0.072 C  
HETATM   22  C   UNL     1      -6.551   8.923  65.206  1.00  0.00    -0.068 C  
HETATM   23  C   UNL     1      -7.935   8.542  64.709  1.00  0.00    -0.143 C  
HETATM   24  C   UNL     1      -8.078   8.830  63.209  1.00  0.00    -0.170 C  
HETATM   25  C   UNL     1      -6.936   8.224  62.393  1.00  0.00    -0.090 C  
HETATM   26  O   UNL     1      -8.143  10.238  62.983  1.00  0.00    -0.150 OA 
HETATM   27  C   UNL     1      -5.555   8.582  62.953  1.00  0.00    -0.070 C  
HETATM   28  H   UNL     1      -8.232  10.416  62.055  1.00  0.00     0.000 HD 
HETATM   29  C   UNL     1      -5.402   8.266  64.452  1.00  0.00    -0.040 C  
HETATM   30  C   UNL     1      -5.255   6.776  64.735  1.00  0.00    -0.027 C  
ENDBRANCH  16  21
TORSDOF 1
ENDMDL
MODEL       84
REMARK 921   NORMALIZED FREE ENERGY PREDICTED BY IDOCK:   -2.64 KCAL/MOL
REMARK 922        TOTAL FREE ENERGY PREDICTED BY IDOCK:   -3.51 KCAL/MOL
REMARK 923 INTER-LIGAND FREE ENERGY PREDICTED BY IDOCK:   -3.01 KCAL/MOL
REMARK 924 INTRA-LIGAND FREE ENERGY PREDICTED BY IDOCK:   -0.50 KCAL/MOL
REMARK 927      BINDING AFFINITY PREDICTED BY RF-SCORE:    0.00 PKD
ROOT
HETATM    1  C   UNL     1      -6.805   6.877  67.508  1.00  0.00    -0.077 C  
HETATM    2  C   UNL     1      -7.778   8.026  67.206  1.00  0.00    -0.101 C  
HETATM    3  C   UNL     1      -9.283   7.631  67.276  1.00  0.00    -0.154 C  
HETATM    4  C   UNL     1      -7.415   8.641  65.851  1.00  0.00    -0.085 C  
HETATM    5  C   UNL     1      -9.679   7.233  68.681  1.00  0.00    -0.146 C  
HETATM    6  C   UNL     1      -9.690   6.525  66.300  1.00  0.00    -0.067 C  
HETATM    7  C   UNL     1     -10.879   7.485  69.229  1.00  0.00    -0.131 C  
HETATM    8  C   UNL     1     -11.272   7.210  70.672  1.00  0.00    -0.311 C  
HETATM    9  C   UNL     1     -11.249   8.493  71.589  1.00  0.00    -0.361 C  
HETATM   10  C   UNL     1     -10.467   6.051  71.304  1.00  0.00    -0.283 C  
HETATM   11  C   UNL     1      -9.852   9.124  71.652  1.00  0.00    -0.295 C  
HETATM   12  C   UNL     1      -9.826  10.228  70.606  1.00  0.00     0.579 C  
HETATM   13  C   UNL     1     -11.283  10.524  70.194  1.00  0.00    -0.389 C  
HETATM   14  C   UNL     1     -11.557  12.020  70.054  1.00  0.00    -0.275 C  
HETATM   15  C   UNL     1     -12.903  12.460  70.570  1.00  0.00     0.087 C  
HETATM   16  C   UNL     1     -10.665  12.843  69.460  1.00  0.00     0.269 C  
HETATM   17  C   UNL     1     -13.522   9.206  70.623  1.00  0.00     0.391 C  
HETATM   18  C   UNL     1     -13.230  11.930  71.974  1.00  0.00    -0.461 C  
HETATM   19  C   UNL     1     -12.175   9.711  71.191  1.00  0.00    -0.437 C  
HETATM   20  C   UNL     1     -12.493  10.642  72.390  1.00  0.00     0.837 C  
ENDROOT
BRANCH  16  21
HETATM   21  C   UNL     1     -10.960  14.178  68.994  1.00  0.00    -0.286 C  
HETATM   22  C   UNL     1     -10.510  14.788  67.881  1.00  0.00    -0.246 C  
HETATM   23  C   UNL     1      -9.407  14.297  66.958  1.00  0.00    -0.249 C  
HETATM   24  C   UNL     1      -9.952  14.011  65.554  1.00  0.00    -0.276 C  
HETATM   25  C   UNL     1     -10.752  15.187  64.993  1.00  0.00    -0.451 C  
HETATM   26  O   UNL     1     -10.763  12.836  65.572  1.00  0.00    -0.270 OA 
HETATM   27  C   UNL     1     -11.820  15.694  65.970  1.00  0.00     0.601 C  
HETATM   28  H   UNL     1     -11.101  12.659  64.702  1.00  0.00     0.000 HD 
HETATM   29  C   UNL     1     -11.266  16.009  67.372  1.00  0.00    -0.085 C  
HETATM   30  C   UNL     1     -10.453  17.297  67.416  1.00  0.00    -0.338 C  
ENDBRANCH  16  21
TORSDOF 1
ENDMDL
MODEL       85
REMARK 921   NORMALIZED FREE ENERGY PREDICTED BY IDOCK:   -2.60 KCAL/MOL
REMARK 922        TOTAL FREE ENERGY PREDICTED BY IDOCK:   -3.48 KCAL/MOL
REMARK 923 INTER-LIGAND FREE ENERGY PREDICTED BY IDOCK:   -3.31 KCAL/MOL
REMARK 924 INTRA-LIGAND FREE ENERGY PREDICTED BY IDOCK:   -0.17 KCAL/MOL
REMARK 927      BINDING AFFINITY PREDICTED BY RF-SCORE:    0.00 PKD
ROOT
HETATM    1  C   UNL     1     -10.770   4.921  68.281  1.00  0.00     0.399 C  
HETATM    2  C   UNL     1     -10.668   6.306  68.935  1.00  0.00    -0.357 C  
HETATM    3  C   UNL     1      -9.319   6.577  69.666  1.00  0.00    -0.144 C  
HETATM    4  C   UNL     1     -11.868   6.507  69.866  1.00  0.00    -0.223 C  
HETATM    5  C   UNL     1      -8.162   6.593  68.690  1.00  0.00    -0.119 C  
HETATM    6  C   UNL     1      -9.012   5.599  70.802  1.00  0.00    -0.154 C  
HETATM    7  C   UNL     1      -7.090   7.392  68.802  1.00  0.00    -0.081 C  
HETATM    8  C   UNL     1      -5.970   7.524  67.782  1.00  0.00    -0.039 C  
HETATM    9  C   UNL     1      -6.088   8.809  66.875  1.00  0.00    -0.058 C  
HETATM   10  C   UNL     1      -5.778   6.248  66.931  1.00  0.00    -0.016 C  
HETATM   11  C   UNL     1      -7.391   8.816  66.064  1.00  0.00    -0.089 C  
HETATM   12  C   UNL     1      -8.392   9.641  66.859  1.00  0.00    -0.117 C  
HETATM   13  C   UNL     1      -7.611  10.439  67.922  1.00  0.00    -0.088 C  
HETATM   14  C   UNL     1      -8.110  11.877  68.055  1.00  0.00    -0.151 C  
HETATM   15  C   UNL     1      -7.021  12.901  68.252  1.00  0.00    -0.099 C  
HETATM   16  C   UNL     1      -9.430  12.164  68.049  1.00  0.00    -0.201 C  
HETATM   17  C   UNL     1      -5.134  10.232  68.790  1.00  0.00    -0.038 C  
HETATM   18  C   UNL     1      -5.862  12.770  67.255  1.00  0.00    -0.019 C  
HETATM   19  C   UNL     1      -6.098  10.223  67.581  1.00  0.00    -0.056 C  
HETATM   20  C   UNL     1      -5.669  11.373  66.633  1.00  0.00    -0.142 C  
ENDROOT
BRANCH  16  21
HETATM   21  C   UNL     1     -10.004  13.415  68.486  1.00  0.00    -0.193 C  
HETATM   22  C   UNL     1      -9.928  14.618  67.887  1.00  0.00    -0.221 C  
HETATM   23  C   UNL     1      -9.032  14.997  66.719  1.00  0.00    -0.293 C  
HETATM   24  C   UNL     1      -9.865  15.390  65.493  1.00  0.00    -0.324 C  
HETATM   25  C   UNL     1     -10.927  16.438  65.826  1.00  0.00    -0.032 C  
HETATM   26  O   UNL     1     -10.485  14.233  64.929  1.00  0.00    -0.407 OA 
HETATM   27  C   UNL     1     -11.777  16.052  67.043  1.00  0.00     0.603 C  
HETATM   28  H   UNL     1     -11.001  14.476  64.170  1.00  0.00     0.000 HD 
HETATM   29  C   UNL     1     -10.940  15.685  68.283  1.00  0.00    -0.315 C  
HETATM   30  C   UNL     1     -10.318  16.900  68.961  1.00  0.00    -0.333 C  
ENDBRANCH  16  21
TORSDOF 1
ENDMDL
MODEL       86
REMARK 921   NORMALIZED FREE ENERGY PREDICTED BY IDOCK:   -2.54 KCAL/MOL
REMARK 922        TOTAL FREE ENERGY PREDICTED BY IDOCK:   -3.41 KCAL/MOL
REMARK 923 INTER-LIGAND FREE ENERGY PREDICTED BY IDOCK:   -2.93 KCAL/MOL
REMARK 924 INTRA-LIGAND FREE ENERGY PREDICTED BY IDOCK:   -0.48 KCAL/MOL
REMARK 927      BINDING AFFINITY PREDICTED BY RF-SCORE:    0.00 PKD
ROOT
HETATM    1  C   UNL     1     -13.331  13.887  65.766  1.00  0.00     0.486 C  
HETATM    2  C   UNL     1     -11.936  13.272  65.952  1.00  0.00    -0.466 C  
HETATM    3  C   UNL     1     -10.790  14.046  65.233  1.00  0.00    -0.352 C  
HETATM    4  C   UNL     1     -11.980  11.801  65.528  1.00  0.00     0.135 C  
HETATM    5  C   UNL     1     -10.615  15.430  65.818  1.00  0.00    -0.361 C  
HETATM    6  C   UNL     1     -10.958  14.151  63.716  1.00  0.00     0.855 C  
HETATM    7  C   UNL     1      -9.432  16.053  65.944  1.00  0.00    -0.351 C  
HETATM    8  C   UNL     1      -9.201  17.388  66.635  1.00  0.00    -0.278 C  
HETATM    9  C   UNL     1      -8.611  17.254  68.092  1.00  0.00    -0.242 C  
HETATM   10  C   UNL     1     -10.449  18.300  66.613  1.00  0.00    -0.382 C  
HETATM   11  C   UNL     1      -9.549  16.466  69.015  1.00  0.00    -0.264 C  
HETATM   12  C   UNL     1      -9.064  15.024  69.000  1.00  0.00    -0.205 C  
HETATM   13  C   UNL     1      -7.642  15.009  68.402  1.00  0.00    -0.115 C  
HETATM   14  C   UNL     1      -6.701  14.075  69.160  1.00  0.00    -0.112 C  
HETATM   15  C   UNL     1      -5.300  14.606  69.334  1.00  0.00    -0.086 C  
HETATM   16  C   UNL     1      -7.108  12.856  69.577  1.00  0.00     0.278 C  
HETATM   17  C   UNL     1      -6.278  16.843  67.094  1.00  0.00    -0.215 C  
HETATM   18  C   UNL     1      -5.248  16.048  69.858  1.00  0.00    -0.131 C  
HETATM   19  C   UNL     1      -7.227  16.513  68.271  1.00  0.00    -0.159 C  
HETATM   20  C   UNL     1      -6.498  16.906  69.582  1.00  0.00    -0.181 C  
ENDROOT
BRANCH  16  21
HETATM   21  C   UNL     1      -6.227  11.793  70.000  1.00  0.00    -0.136 C  
HETATM   22  C   UNL     1      -6.466  10.468  70.005  1.00  0.00    -0.135 C  
HETATM   23  C   UNL     1      -7.803   9.785  69.775  1.00  0.00    -0.159 C  
HETATM   24  C   UNL     1      -7.764   8.910  68.517  1.00  0.00    -0.098 C  
HETATM   25  C   UNL     1      -6.571   7.954  68.514  1.00  0.00    -0.061 C  
HETATM   26  O   UNL     1      -7.732   9.730  67.349  1.00  0.00    -0.095 OA 
HETATM   27  C   UNL     1      -5.244   8.665  68.804  1.00  0.00    -0.033 C  
HETATM   28  H   UNL     1      -7.708   9.188  66.569  1.00  0.00     0.000 HD 
HETATM   29  C   UNL     1      -5.275   9.521  70.083  1.00  0.00    -0.031 C  
HETATM   30  C   UNL     1      -5.236   8.688  71.359  1.00  0.00    -0.034 C  
ENDBRANCH  16  21
TORSDOF 1
ENDMDL
MODEL       87
REMARK 921   NORMALIZED FREE ENERGY PREDICTED BY IDOCK:   -2.45 KCAL/MOL
REMARK 922        TOTAL FREE ENERGY PREDICTED BY IDOCK:   -3.32 KCAL/MOL
REMARK 923 INTER-LIGAND FREE ENERGY PREDICTED BY IDOCK:   -2.97 KCAL/MOL
REMARK 924 INTRA-LIGAND FREE ENERGY PREDICTED BY IDOCK:   -0.35 KCAL/MOL
REMARK 927      BINDING AFFINITY PREDICTED BY RF-SCORE:    0.00 PKD
ROOT
HETATM    1  C   UNL     1     -10.108   8.164  66.274  1.00  0.00    -0.074 C  
HETATM    2  C   UNL     1      -9.243   9.406  66.535  1.00  0.00    -0.202 C  
HETATM    3  C   UNL     1      -9.083  10.350  65.306  1.00  0.00    -0.227 C  
HETATM    4  C   UNL     1      -7.887   8.960  67.090  1.00  0.00    -0.096 C  
HETATM    5  C   UNL     1     -10.410  10.957  64.906  1.00  0.00    -0.371 C  
HETATM    6  C   UNL     1      -8.436   9.689  64.087  1.00  0.00    -0.186 C  
HETATM    7  C   UNL     1     -10.557  12.200  64.421  1.00  0.00    -0.363 C  
HETATM    8  C   UNL     1     -11.880  12.886  64.123  1.00  0.00    -0.479 C  
HETATM    9  C   UNL     1     -12.328  13.909  65.237  1.00  0.00    -0.485 C  
HETATM   10  C   UNL     1     -13.012  11.889  63.786  1.00  0.00    -0.290 C  
HETATM   11  C   UNL     1     -12.513  13.225  66.598  1.00  0.00    -0.129 C  
HETATM   12  C   UNL     1     -11.209  13.414  67.359  1.00  0.00    -0.311 C  
HETATM   13  C   UNL     1     -10.399  14.515  66.645  1.00  0.00    -0.274 C  
HETATM   14  C   UNL     1      -9.738  15.482  67.627  1.00  0.00    -0.212 C  
HETATM   15  C   UNL     1      -9.763  16.926  67.195  1.00  0.00    -0.253 C  
HETATM   16  C   UNL     1      -9.139  15.036  68.753  1.00  0.00    -0.197 C  
HETATM   17  C   UNL     1     -10.688  15.643  64.284  1.00  0.00     0.581 C  
HETATM   18  C   UNL     1     -11.145  17.408  66.734  1.00  0.00     0.372 C  
HETATM   19  C   UNL     1     -11.365  15.117  65.571  1.00  0.00    -0.274 C  
HETATM   20  C   UNL     1     -12.104  16.311  66.231  1.00  0.00     1.919 C  
ENDROOT
BRANCH  16  21
HETATM   21  C   UNL     1      -8.224  15.808  69.560  1.00  0.00    -0.136 C  
HETATM   22  C   UNL     1      -6.970  16.194  69.255  1.00  0.00    -0.210 C  
HETATM   23  C   UNL     1      -6.135  15.724  68.077  1.00  0.00    -0.149 C  
HETATM   24  C   UNL     1      -5.811  16.888  67.133  1.00  0.00    -0.172 C  
HETATM   25  C   UNL     1      -5.218  18.086  67.874  1.00  0.00    -0.151 C  
HETATM   26  O   UNL     1      -6.985  17.287  66.425  1.00  0.00    -0.229 OA 
HETATM   27  C   UNL     1      -6.055  18.501  69.090  1.00  0.00    -0.247 C  
HETATM   28  H   UNL     1      -6.785  18.008  65.840  1.00  0.00     0.000 HD 
HETATM   29  C   UNL     1      -6.355  17.337  70.053  1.00  0.00     0.079 C  
HETATM   30  C   UNL     1      -5.146  16.925  70.884  1.00  0.00    -0.209 C  
ENDBRANCH  16  21
TORSDOF 1
ENDMDL
MODEL       88
REMARK 921   NORMALIZED FREE ENERGY PREDICTED BY IDOCK:   -2.39 KCAL/MOL
REMARK 922        TOTAL FREE ENERGY PREDICTED BY IDOCK:   -3.25 KCAL/MOL
REMARK 923 INTER-LIGAND FREE ENERGY PREDICTED BY IDOCK:   -2.81 KCAL/MOL
REMARK 924 INTRA-LIGAND FREE ENERGY PREDICTED BY IDOCK:   -0.44 KCAL/MOL
REMARK 927      BINDING AFFINITY PREDICTED BY RF-SCORE:    0.00 PKD
ROOT
HETATM    1  C   UNL     1     -11.258   6.409  68.973  1.00  0.00    -0.402 C  
HETATM    2  C   UNL     1     -10.716   7.651  69.694  1.00  0.00    -0.230 C  
HETATM    3  C   UNL     1      -9.313   8.121  69.203  1.00  0.00    -0.151 C  
HETATM    4  C   UNL     1     -10.732   7.397  71.205  1.00  0.00    -0.246 C  
HETATM    5  C   UNL     1      -9.364   8.579  67.762  1.00  0.00    -0.153 C  
HETATM    6  C   UNL     1      -8.208   7.075  69.367  1.00  0.00    -0.132 C  
HETATM    7  C   UNL     1      -8.631   9.587  67.263  1.00  0.00    -0.128 C  
HETATM    8  C   UNL     1      -8.742  10.155  65.857  1.00  0.00    -0.159 C  
HETATM    9  C   UNL     1      -9.558  11.502  65.780  1.00  0.00    -0.259 C  
HETATM   10  C   UNL     1      -9.261   9.122  64.831  1.00  0.00    -0.135 C  
HETATM   11  C   UNL     1     -11.001  11.322  66.270  1.00  0.00    -0.265 C  
HETATM   12  C   UNL     1     -11.017  11.735  67.735  1.00  0.00    -0.277 C  
HETATM   13  C   UNL     1      -9.718  12.516  68.021  1.00  0.00    -0.215 C  
HETATM   14  C   UNL     1      -9.957  13.746  68.895  1.00  0.00    -0.043 C  
HETATM   15  C   UNL     1      -9.153  14.959  68.501  1.00  0.00    -0.191 C  
HETATM   16  C   UNL     1     -10.786  13.697  69.961  1.00  0.00     0.490 C  
HETATM   17  C   UNL     1      -7.498  12.782  66.630  1.00  0.00     0.600 C  
HETATM   18  C   UNL     1      -9.216  15.280  67.002  1.00  0.00    -0.235 C  
HETATM   19  C   UNL     1      -9.044  12.735  66.625  1.00  0.00    -0.188 C  
HETATM   20  C   UNL     1      -9.550  14.094  66.076  1.00  0.00    -0.251 C  
ENDROOT
BRANCH  16  21
HETATM   21  C   UNL     1     -10.828  14.681  71.017  1.00  0.00     0.401 C  
HETATM   22  C   UNL     1     -11.885  15.399  71.442  1.00  0.00    -0.443 C  
HETATM   23  C   UNL     1     -13.240  15.510  70.765  1.00  0.00    -0.391 C  
HETATM   24  C   UNL     1     -14.349  14.942  71.659  1.00  0.00    -0.570 C  
HETATM   25  C   UNL     1     -14.312  15.529  73.070  1.00  0.00     0.549 C  
HETATM   26  O   UNL     1     -14.250  13.520  71.721  1.00  0.00    -0.191 OA 
HETATM   27  C   UNL     1     -12.917  15.452  73.704  1.00  0.00    -0.611 C  
HETATM   28  H   UNL     1     -14.937  13.168  72.275  1.00  0.00     0.000 HD 
HETATM   29  C   UNL     1     -11.808  16.048  72.818  1.00  0.00    -0.584 C  
HETATM   30  C   UNL     1     -11.831  17.572  72.781  1.00  0.00     1.601 C  
ENDBRANCH  16  21
TORSDOF 1
ENDMDL
MODEL       89
REMARK 921   NORMALIZED FREE ENERGY PREDICTED BY IDOCK:   -2.33 KCAL/MOL
REMARK 922        TOTAL FREE ENERGY PREDICTED BY IDOCK:   -3.19 KCAL/MOL
REMARK 923 INTER-LIGAND FREE ENERGY PREDICTED BY IDOCK:   -2.90 KCAL/MOL
REMARK 924 INTRA-LIGAND FREE ENERGY PREDICTED BY IDOCK:   -0.30 KCAL/MOL
REMARK 927      BINDING AFFINITY PREDICTED BY RF-SCORE:    0.00 PKD
ROOT
HETATM    1  C   UNL     1      -5.879  11.950  66.682  1.00  0.00     0.035 C  
HETATM    2  C   UNL     1      -6.814  11.279  67.699  1.00  0.00    -0.077 C  
HETATM    3  C   UNL     1      -8.188  10.834  67.115  1.00  0.00    -0.123 C  
HETATM    4  C   UNL     1      -6.984  12.207  68.906  1.00  0.00    -0.102 C  
HETATM    5  C   UNL     1      -8.014   9.752  66.072  1.00  0.00    -0.111 C  
HETATM    6  C   UNL     1      -9.022  11.976  66.530  1.00  0.00    -0.193 C  
HETATM    7  C   UNL     1      -8.876   8.740  65.882  1.00  0.00    -0.222 C  
HETATM    8  C   UNL     1      -8.677   7.571  64.931  1.00  0.00     0.223 C  
HETATM    9  C   UNL     1      -8.206   6.246  65.646  1.00  0.00    -0.143 C  
HETATM   10  C   UNL     1      -7.764   7.919  63.732  1.00  0.00    -0.135 C  
HETATM   11  C   UNL     1      -6.862   6.433  66.362  1.00  0.00    -0.061 C  
HETATM   12  C   UNL     1      -7.185   6.756  67.814  1.00  0.00    -0.091 C  
HETATM   13  C   UNL     1      -8.662   6.390  68.063  1.00  0.00    -0.115 C  
HETATM   14  C   UNL     1      -8.871   5.693  69.407  1.00  0.00    -0.114 C  
HETATM   15  C   UNL     1      -9.867   4.562  69.377  1.00  0.00    -0.260 C  
HETATM   16  C   UNL     1      -8.239   6.120  70.523  1.00  0.00    -0.114 C  
HETATM   17  C   UNL     1     -10.623   5.814  66.404  1.00  0.00    -0.219 C  
HETATM   18  C   UNL     1      -9.639   3.570  68.228  1.00  0.00    -0.161 C  
HETATM   19  C   UNL     1      -9.132   5.638  66.773  1.00  0.00    -0.120 C  
HETATM   20  C   UNL     1      -8.884   4.125  67.005  1.00  0.00    -0.125 C  
ENDROOT
BRANCH  16  21
HETATM   21  C   UNL     1      -8.608   5.752  71.869  1.00  0.00    -0.134 C  
HETATM   22  C   UNL     1      -8.411   4.574  72.492  1.00  0.00    -0.110 C  
HETATM   23  C   UNL     1      -7.950   3.274  71.854  1.00  0.00    -0.058 C  
HETATM   24  C   UNL     1      -6.597   2.831  72.424  1.00  0.00    -0.015 C  
HETATM   25  C   UNL     1      -6.594   2.807  73.953  1.00  0.00    -0.029 C  
HETATM   26  O   UNL     1      -5.560   3.689  71.949  1.00  0.00    -0.007 OA 
HETATM   27  C   UNL     1      -7.116   4.113  74.565  1.00  0.00    -0.069 C  
HETATM   28  H   UNL     1      -4.722   3.415  72.302  1.00  0.00     0.000 HD 
HETATM   29  C   UNL     1      -8.488   4.542  74.013  1.00  0.00    -0.102 C  
HETATM   30  C   UNL     1      -9.637   3.698  74.552  1.00  0.00    -0.143 C  
ENDBRANCH  16  21
TORSDOF 1
ENDMDL
MODEL       90
REMARK 921   NORMALIZED FREE ENERGY PREDICTED BY IDOCK:   -2.31 KCAL/MOL
REMARK 922        TOTAL FREE ENERGY PREDICTED BY IDOCK:   -3.17 KCAL/MOL
REMARK 923 INTER-LIGAND FREE ENERGY PREDICTED BY IDOCK:   -2.70 KCAL/MOL
REMARK 924 INTRA-LIGAND FREE ENERGY PREDICTED BY IDOCK:   -0.46 KCAL/MOL
REMARK 927      BINDING AFFINITY PREDICTED BY RF-SCORE:    0.00 PKD
ROOT
HETATM    1  C   UNL     1      -8.300   4.879  63.013  1.00  0.00    -0.115 C  
HETATM    2  C   UNL     1      -7.947   4.866  64.508  1.00  0.00    -0.103 C  
HETATM    3  C   UNL     1      -6.577   5.523  64.852  1.00  0.00    -0.039 C  
HETATM    4  C   UNL     1      -8.033   3.428  65.028  1.00  0.00    -0.086 C  
HETATM    5  C   UNL     1      -6.584   7.002  64.533  1.00  0.00    -0.042 C  
HETATM    6  C   UNL     1      -5.375   4.862  64.173  1.00  0.00    -0.013 C  
HETATM    7  C   UNL     1      -5.937   7.934  65.251  1.00  0.00    -0.038 C  
HETATM    8  C   UNL     1      -6.019   9.437  65.035  1.00  0.00    -0.065 C  
HETATM    9  C   UNL     1      -6.974  10.172  66.053  1.00  0.00    -0.117 C  
HETATM   10  C   UNL     1      -6.353   9.818  63.574  1.00  0.00    -0.116 C  
HETATM   11  C   UNL     1      -8.416   9.659  65.953  1.00  0.00    -0.136 C  
HETATM   12  C   UNL     1      -8.573   8.591  67.025  1.00  0.00    -0.124 C  
HETATM   13  C   UNL     1      -7.391   8.727  68.006  1.00  0.00    -0.088 C  
HETATM   14  C   UNL     1      -7.822   8.577  69.464  1.00  0.00    -0.097 C  
HETATM   15  C   UNL     1      -7.134   9.519  70.419  1.00  0.00    -0.120 C  
HETATM   16  C   UNL     1      -8.708   7.628  69.838  1.00  0.00    -0.139 C  
HETATM   17  C   UNL     1      -5.129  10.065  67.839  1.00  0.00    -0.032 C  
HETATM   18  C   UNL     1      -7.135  10.981  69.952  1.00  0.00     0.008 C  
HETATM   19  C   UNL     1      -6.656  10.048  67.596  1.00  0.00    -0.067 C  
HETATM   20  C   UNL     1      -7.274  11.198  68.433  1.00  0.00    -0.083 C  
ENDROOT
BRANCH  16  21
HETATM   21  C   UNL     1      -8.927   7.198  71.199  1.00  0.00    -0.145 C  
HETATM   22  C   UNL     1     -10.043   7.327  71.942  1.00  0.00    -0.196 C  
HETATM   23  C   UNL     1     -11.270   8.156  71.602  1.00  0.00    -0.314 C  
HETATM   24  C   UNL     1     -12.507   7.265  71.438  1.00  0.00    -0.383 C  
HETATM   25  C   UNL     1     -12.704   6.325  72.627  1.00  0.00     0.428 C  
HETATM   26  O   UNL     1     -12.412   6.510  70.231  1.00  0.00    -0.372 OA 
HETATM   27  C   UNL     1     -11.432   5.544  72.979  1.00  0.00    -0.288 C  
HETATM   28  H   UNL     1     -13.178   5.957  70.130  1.00  0.00     0.000 HD 
HETATM   29  C   UNL     1     -10.196   6.441  73.172  1.00  0.00    -0.222 C  
HETATM   30  C   UNL     1     -10.221   7.214  74.485  1.00  0.00     0.400 C  
ENDBRANCH  16  21
TORSDOF 1
ENDMDL
MODEL       91
REMARK 921   NORMALIZED FREE ENERGY PREDICTED BY IDOCK:   -2.28 KCAL/MOL
REMARK 922        TOTAL FREE ENERGY PREDICTED BY IDOCK:   -3.13 KCAL/MOL
REMARK 923 INTER-LIGAND FREE ENERGY PREDICTED BY IDOCK:   -2.69 KCAL/MOL
REMARK 924 INTRA-LIGAND FREE ENERGY PREDICTED BY IDOCK:   -0.44 KCAL/MOL
REMARK 927      BINDING AFFINITY PREDICTED BY RF-SCORE:    0.00 PKD
ROOT
HETATM    1  C   UNL     1     -13.519  14.562  65.700  1.00  0.00     1.101 C  
HETATM    2  C   UNL     1     -12.181  13.833  65.516  1.00  0.00    -0.470 C  
HETATM    3  C   UNL     1     -10.967  14.772  65.244  1.00  0.00    -0.382 C  
HETATM    4  C   UNL     1     -12.336  12.775  64.419  1.00  0.00    -0.498 C  
HETATM    5  C   UNL     1     -10.690  15.665  66.434  1.00  0.00    -0.291 C  
HETATM    6  C   UNL     1     -11.107  15.630  63.985  1.00  0.00     0.535 C  
HETATM    7  C   UNL     1      -9.463  16.051  66.819  1.00  0.00    -0.250 C  
HETATM    8  C   UNL     1      -9.136  16.844  68.075  1.00  0.00    -0.234 C  
HETATM    9  C   UNL     1      -8.578  15.960  69.255  1.00  0.00    -0.247 C  
HETATM   10  C   UNL     1     -10.307  17.738  68.544  1.00  0.00    -0.366 C  
HETATM   11  C   UNL     1      -9.588  14.891  69.692  1.00  0.00     0.040 C  
HETATM   12  C   UNL     1      -9.218  13.615  68.949  1.00  0.00     0.164 C  
HETATM   13  C   UNL     1      -7.795  13.792  68.383  1.00  0.00    -0.143 C  
HETATM   14  C   UNL     1      -6.940  12.537  68.551  1.00  0.00    -0.086 C  
HETATM   15  C   UNL     1      -5.505  12.804  68.926  1.00  0.00    -0.067 C  
HETATM   16  C   UNL     1      -7.449  11.307  68.319  1.00  0.00    -0.099 C  
HETATM   17  C   UNL     1      -6.272  15.924  68.120  1.00  0.00    -0.128 C  
HETATM   18  C   UNL     1      -5.344  13.786  70.095  1.00  0.00    -0.102 C  
HETATM   19  C   UNL     1      -7.259  15.126  69.004  1.00  0.00    -0.149 C  
HETATM   20  C   UNL     1      -6.519  14.760  70.316  1.00  0.00    -0.145 C  
ENDROOT
BRANCH  16  21
HETATM   21  C   UNL     1      -6.660  10.112  68.133  1.00  0.00    -0.058 C  
HETATM   22  C   UNL     1      -7.093   8.861  67.883  1.00  0.00    -0.079 C  
HETATM   23  C   UNL     1      -8.527   8.364  67.955  1.00  0.00    -0.132 C  
HETATM   24  C   UNL     1      -9.015   7.894  66.580  1.00  0.00    -0.161 C  
HETATM   25  C   UNL     1      -8.048   6.904  65.930  1.00  0.00    -0.119 C  
HETATM   26  O   UNL     1      -9.214   9.015  65.719  1.00  0.00    -0.206 OA 
HETATM   27  C   UNL     1      -6.601   7.411  65.923  1.00  0.00    -0.045 C  
HETATM   28  H   UNL     1      -9.516   8.724  64.867  1.00  0.00     0.000 HD 
HETATM   29  C   UNL     1      -6.102   7.857  67.310  1.00  0.00    -0.053 C  
HETATM   30  C   UNL     1      -5.806   6.686  68.240  1.00  0.00    -0.020 C  
ENDBRANCH  16  21
TORSDOF 1
ENDMDL
MODEL       92
REMARK 921   NORMALIZED FREE ENERGY PREDICTED BY IDOCK:   -2.27 KCAL/MOL
REMARK 922        TOTAL FREE ENERGY PREDICTED BY IDOCK:   -3.13 KCAL/MOL
REMARK 923 INTER-LIGAND FREE ENERGY PREDICTED BY IDOCK:   -2.53 KCAL/MOL
REMARK 924 INTRA-LIGAND FREE ENERGY PREDICTED BY IDOCK:   -0.60 KCAL/MOL
REMARK 927      BINDING AFFINITY PREDICTED BY RF-SCORE:    0.00 PKD
ROOT
HETATM    1  C   UNL     1      -9.345   9.429  64.604  1.00  0.00    -0.112 C  
HETATM    2  C   UNL     1      -9.677  10.867  65.030  1.00  0.00    -0.319 C  
HETATM    3  C   UNL     1      -9.918  11.046  66.559  1.00  0.00    -0.253 C  
HETATM    4  C   UNL     1     -10.866  11.369  64.206  1.00  0.00    -0.416 C  
HETATM    5  C   UNL     1      -8.660  10.755  67.349  1.00  0.00    -0.126 C  
HETATM    6  C   UNL     1     -11.073  10.210  67.116  1.00  0.00    -0.122 C  
HETATM    7  C   UNL     1      -8.306  11.402  68.471  1.00  0.00    -0.153 C  
HETATM    8  C   UNL     1      -6.996  11.224  69.222  1.00  0.00    -0.119 C  
HETATM    9  C   UNL     1      -5.945  12.366  68.943  1.00  0.00    -0.070 C  
HETATM   10  C   UNL     1      -6.373   9.823  69.021  1.00  0.00    -0.041 C  
HETATM   11  C   UNL     1      -5.565  12.440  67.459  1.00  0.00    -0.130 C  
HETATM   12  C   UNL     1      -6.455  13.506  66.835  1.00  0.00     1.200 C  
HETATM   13  C   UNL     1      -7.078  14.331  67.980  1.00  0.00    -0.145 C  
HETATM   14  C   UNL     1      -7.088  15.829  67.680  1.00  0.00    -0.192 C  
HETATM   15  C   UNL     1      -6.768  16.706  68.864  1.00  0.00    -0.184 C  
HETATM   16  C   UNL     1      -7.417  16.297  66.456  1.00  0.00    -0.169 C  
HETATM   17  C   UNL     1      -7.205  13.903  70.574  1.00  0.00     1.181 C  
HETATM   18  C   UNL     1      -5.515  16.268  69.636  1.00  0.00    -0.140 C  
HETATM   19  C   UNL     1      -6.354  13.855  69.283  1.00  0.00    -0.112 C  
HETATM   20  C   UNL     1      -5.130  14.782  69.497  1.00  0.00    -0.087 C  
ENDROOT
BRANCH  16  21
HETATM   21  C   UNL     1      -7.768  17.667  66.164  1.00  0.00    -0.293 C  
HETATM   22  C   UNL     1      -8.924  18.303  66.428  1.00  0.00    -0.257 C  
HETATM   23  C   UNL     1     -10.223  17.669  66.899  1.00  0.00    -0.334 C  
HETATM   24  C   UNL     1     -10.611  18.182  68.292  1.00  0.00    -0.249 C  
HETATM   25  C   UNL     1     -10.602  19.709  68.368  1.00  0.00    -0.247 C  
HETATM   26  O   UNL     1      -9.731  17.641  69.277  1.00  0.00    -0.145 OA 
HETATM   27  C   UNL     1      -9.301  20.320  67.834  1.00  0.00    -0.362 C  
HETATM   28  H   UNL     1      -9.971  17.959  70.139  1.00  0.00     0.000 HD 
HETATM   29  C   UNL     1      -8.927  19.826  66.425  1.00  0.00    -0.440 C  
HETATM   30  C   UNL     1      -9.795  20.436  65.330  1.00  0.00     0.306 C  
ENDBRANCH  16  21
TORSDOF 1
ENDMDL
MODEL       93
REMARK 921   NORMALIZED FREE ENERGY PREDICTED BY IDOCK:   -2.24 KCAL/MOL
REMARK 922        TOTAL FREE ENERGY PREDICTED BY IDOCK:   -3.10 KCAL/MOL
REMARK 923 INTER-LIGAND FREE ENERGY PREDICTED BY IDOCK:   -2.63 KCAL/MOL
REMARK 924 INTRA-LIGAND FREE ENERGY PREDICTED BY IDOCK:   -0.47 KCAL/MOL
REMARK 927      BINDING AFFINITY PREDICTED BY RF-SCORE:    0.00 PKD
ROOT
HETATM    1  C   UNL     1      -5.643  16.385  68.958  1.00  0.00    -0.124 C  
HETATM    2  C   UNL     1      -6.187  14.982  68.652  1.00  0.00    -0.085 C  
HETATM    3  C   UNL     1      -7.581  14.681  69.280  1.00  0.00    -0.113 C  
HETATM    4  C   UNL     1      -5.141  13.942  69.065  1.00  0.00    -0.074 C  
HETATM    5  C   UNL     1      -8.650  15.578  68.695  1.00  0.00    -0.179 C  
HETATM    6  C   UNL     1      -7.616  14.775  70.807  1.00  0.00     1.410 C  
HETATM    7  C   UNL     1      -9.919  15.198  68.476  1.00  0.00    -0.223 C  
HETATM    8  C   UNL     1     -10.987  16.027  67.781  1.00  0.00    -0.307 C  
HETATM    9  C   UNL     1     -11.232  15.613  66.279  1.00  0.00    -0.033 C  
HETATM   10  C   UNL     1     -10.747  17.549  67.914  1.00  0.00    -0.340 C  
HETATM   11  C   UNL     1      -9.965  15.772  65.430  1.00  0.00    -0.273 C  
HETATM   12  C   UNL     1      -9.293  14.407  65.392  1.00  0.00     0.422 C  
HETATM   13  C   UNL     1     -10.320  13.360  65.870  1.00  0.00    -0.290 C  
HETATM   14  C   UNL     1     -10.289  12.086  65.028  1.00  0.00    -0.318 C  
HETATM   15  C   UNL     1     -11.645  11.492  64.743  1.00  0.00    -0.086 C  
HETATM   16  C   UNL     1      -9.120  11.534  64.636  1.00  0.00     0.140 C  
HETATM   17  C   UNL     1     -12.646  13.620  67.076  1.00  0.00     0.070 C  
HETATM   18  C   UNL     1     -12.670  12.512  64.230  1.00  0.00    -0.432 C  
HETATM   19  C   UNL     1     -11.681  14.127  65.979  1.00  0.00    -0.389 C  
HETATM   20  C   UNL     1     -12.405  13.980  64.616  1.00  0.00    -0.425 C  
ENDROOT
BRANCH  16  21
HETATM   21  C   UNL     1      -8.972  10.189  64.132  1.00  0.00    -0.267 C  
HETATM   22  C   UNL     1      -7.848   9.452  64.046  1.00  0.00    -0.128 C  
HETATM   23  C   UNL     1      -6.424   9.939  64.253  1.00  0.00    -0.126 C  
HETATM   24  C   UNL     1      -5.773   9.240  65.453  1.00  0.00    -0.057 C  
HETATM   25  C   UNL     1      -5.903   7.718  65.375  1.00  0.00    -0.038 C  
HETATM   26  O   UNL     1      -6.348   9.715  66.670  1.00  0.00    -0.064 OA 
HETATM   27  C   UNL     1      -7.343   7.261  65.110  1.00  0.00    -0.081 C  
HETATM   28  H   UNL     1      -5.946   9.282  67.413  1.00  0.00     0.000 HD 
HETATM   29  C   UNL     1      -7.986   7.943  63.888  1.00  0.00    -0.121 C  
HETATM   30  C   UNL     1      -7.454   7.413  62.562  1.00  0.00    -0.099 C  
ENDBRANCH  16  21
TORSDOF 1
ENDMDL
MODEL       94
REMARK 921   NORMALIZED FREE ENERGY PREDICTED BY IDOCK:   -2.21 KCAL/MOL
REMARK 922        TOTAL FREE ENERGY PREDICTED BY IDOCK:   -3.06 KCAL/MOL
REMARK 923 INTER-LIGAND FREE ENERGY PREDICTED BY IDOCK:   -2.30 KCAL/MOL
REMARK 924 INTRA-LIGAND FREE ENERGY PREDICTED BY IDOCK:   -0.76 KCAL/MOL
REMARK 927      BINDING AFFINITY PREDICTED BY RF-SCORE:    0.00 PKD
ROOT
HETATM    1  C   UNL     1      -9.600  10.150  64.550  1.00  0.00    -0.376 C  
HETATM    2  C   UNL     1      -9.585  11.654  64.859  1.00  0.00    -0.173 C  
HETATM    3  C   UNL     1     -10.098  12.025  66.283  1.00  0.00    -0.247 C  
HETATM    4  C   UNL     1     -10.361  12.395  63.766  1.00  0.00    -0.454 C  
HETATM    5  C   UNL     1      -9.189  11.465  67.355  1.00  0.00    -0.164 C  
HETATM    6  C   UNL     1     -11.540  11.596  66.563  1.00  0.00    -0.166 C  
HETATM    7  C   UNL     1      -8.921  12.081  68.517  1.00  0.00    -0.098 C  
HETATM    8  C   UNL     1      -7.923  11.610  69.563  1.00  0.00     0.607 C  
HETATM    9  C   UNL     1      -6.550  12.386  69.522  1.00  0.00    -0.048 C  
HETATM   10  C   UNL     1      -7.706  10.080  69.541  1.00  0.00    -0.146 C  
HETATM   11  C   UNL     1      -5.843  12.222  68.170  1.00  0.00    -0.059 C  
HETATM   12  C   UNL     1      -6.221  13.435  67.333  1.00  0.00     0.033 C  
HETATM   13  C   UNL     1      -6.815  14.498  68.280  1.00  0.00    -0.113 C  
HETATM   14  C   UNL     1      -6.321  15.907  67.959  1.00  0.00    -0.144 C  
HETATM   15  C   UNL     1      -6.032  16.759  69.169  1.00  0.00    -0.165 C  
HETATM   16  C   UNL     1      -6.217  16.340  66.683  1.00  0.00     0.325 C  
HETATM   17  C   UNL     1      -7.637  14.348  70.777  1.00  0.00     1.782 C  
HETATM   18  C   UNL     1      -5.167  16.057  70.225  1.00  0.00    -0.155 C  
HETATM   19  C   UNL     1      -6.572  13.953  69.727  1.00  0.00    -0.054 C  
HETATM   20  C   UNL     1      -5.210  14.516  70.210  1.00  0.00    -0.099 C  
ENDROOT
BRANCH  16  21
HETATM   21  C   UNL     1      -6.079  17.723  66.291  1.00  0.00    -0.255 C  
HETATM   22  C   UNL     1      -7.049  18.643  66.133  1.00  0.00    -0.294 C  
HETATM   23  C   UNL     1      -8.547  18.389  66.113  1.00  0.00    -0.136 C  
HETATM   24  C   UNL     1      -9.240  19.102  67.281  1.00  0.00    -0.290 C  
HETATM   25  C   UNL     1      -8.863  20.581  67.361  1.00  0.00    -0.393 C  
HETATM   26  O   UNL     1      -8.923  18.452  68.511  1.00  0.00    -0.312 OA 
HETATM   27  C   UNL     1      -7.346  20.807  67.323  1.00  0.00    -0.397 C  
HETATM   28  H   UNL     1      -9.352  18.894  69.235  1.00  0.00     0.000 HD 
HETATM   29  C   UNL     1      -6.655  20.114  66.134  1.00  0.00    -0.252 C  
HETATM   30  C   UNL     1      -6.907  20.818  64.806  1.00  0.00    -0.061 C  
ENDBRANCH  16  21
TORSDOF 1
ENDMDL
MODEL       95
REMARK 921   NORMALIZED FREE ENERGY PREDICTED BY IDOCK:   -2.17 KCAL/MOL
REMARK 922        TOTAL FREE ENERGY PREDICTED BY IDOCK:   -3.02 KCAL/MOL
REMARK 923 INTER-LIGAND FREE ENERGY PREDICTED BY IDOCK:   -2.37 KCAL/MOL
REMARK 924 INTRA-LIGAND FREE ENERGY PREDICTED BY IDOCK:   -0.65 KCAL/MOL
REMARK 927      BINDING AFFINITY PREDICTED BY RF-SCORE:    0.00 PKD
ROOT
HETATM    1  C   UNL     1      -8.300   4.879  63.013  1.00  0.00    -0.115 C  
HETATM    2  C   UNL     1      -7.947   4.866  64.508  1.00  0.00    -0.103 C  
HETATM    3  C   UNL     1      -6.577   5.523  64.852  1.00  0.00    -0.039 C  
HETATM    4  C   UNL     1      -8.033   3.428  65.028  1.00  0.00    -0.086 C  
HETATM    5  C   UNL     1      -6.584   7.002  64.533  1.00  0.00    -0.042 C  
HETATM    6  C   UNL     1      -5.375   4.862  64.173  1.00  0.00    -0.013 C  
HETATM    7  C   UNL     1      -5.937   7.934  65.251  1.00  0.00    -0.038 C  
HETATM    8  C   UNL     1      -6.019   9.437  65.035  1.00  0.00    -0.065 C  
HETATM    9  C   UNL     1      -6.974  10.172  66.053  1.00  0.00    -0.117 C  
HETATM   10  C   UNL     1      -6.353   9.818  63.574  1.00  0.00    -0.116 C  
HETATM   11  C   UNL     1      -8.416   9.659  65.953  1.00  0.00    -0.136 C  
HETATM   12  C   UNL     1      -8.573   8.591  67.025  1.00  0.00    -0.124 C  
HETATM   13  C   UNL     1      -7.391   8.727  68.006  1.00  0.00    -0.088 C  
HETATM   14  C   UNL     1      -7.822   8.577  69.464  1.00  0.00    -0.097 C  
HETATM   15  C   UNL     1      -7.134   9.519  70.419  1.00  0.00    -0.120 C  
HETATM   16  C   UNL     1      -8.708   7.628  69.838  1.00  0.00    -0.139 C  
HETATM   17  C   UNL     1      -5.129  10.065  67.839  1.00  0.00    -0.032 C  
HETATM   18  C   UNL     1      -7.135  10.981  69.952  1.00  0.00     0.008 C  
HETATM   19  C   UNL     1      -6.656  10.048  67.596  1.00  0.00    -0.067 C  
HETATM   20  C   UNL     1      -7.274  11.198  68.433  1.00  0.00    -0.083 C  
ENDROOT
BRANCH  16  21
HETATM   21  C   UNL     1      -8.927   7.198  71.199  1.00  0.00    -0.145 C  
HETATM   22  C   UNL     1      -8.530   6.051  71.782  1.00  0.00    -0.127 C  
HETATM   23  C   UNL     1      -7.945   4.833  71.087  1.00  0.00    -0.088 C  
HETATM   24  C   UNL     1      -6.508   4.571  71.554  1.00  0.00    -0.019 C  
HETATM   25  C   UNL     1      -6.394   4.530  73.078  1.00  0.00    -0.037 C  
HETATM   26  O   UNL     1      -5.631   5.568  71.028  1.00  0.00    -0.008 OA 
HETATM   27  C   UNL     1      -7.042   5.745  73.752  1.00  0.00    -0.086 C  
HETATM   28  H   UNL     1      -4.741   5.406  71.317  1.00  0.00     0.000 HD 
HETATM   29  C   UNL     1      -8.495   5.991  73.304  1.00  0.00    -0.117 C  
HETATM   30  C   UNL     1      -9.479   4.992  73.902  1.00  0.00    -0.129 C  
ENDBRANCH  16  21
TORSDOF 1
ENDMDL
MODEL       96
REMARK 921   NORMALIZED FREE ENERGY PREDICTED BY IDOCK:   -2.12 KCAL/MOL
REMARK 922        TOTAL FREE ENERGY PREDICTED BY IDOCK:   -2.96 KCAL/MOL
REMARK 923 INTER-LIGAND FREE ENERGY PREDICTED BY IDOCK:   -3.56 KCAL/MOL
REMARK 924 INTRA-LIGAND FREE ENERGY PREDICTED BY IDOCK:    0.60 KCAL/MOL
REMARK 927      BINDING AFFINITY PREDICTED BY RF-SCORE:    0.00 PKD
ROOT
HETATM    1  C   UNL     1      -8.207  16.626  67.328  1.00  0.00    -0.197 C  
HETATM    2  C   UNL     1      -8.140  15.498  68.367  1.00  0.00    -0.136 C  
HETATM    3  C   UNL     1      -9.517  14.853  68.707  1.00  0.00    -0.214 C  
HETATM    4  C   UNL     1      -7.431  16.017  69.621  1.00  0.00    -0.005 C  
HETATM    5  C   UNL     1     -10.105  14.151  67.503  1.00  0.00    -0.236 C  
HETATM    6  C   UNL     1     -10.545  15.833  69.278  1.00  0.00    -0.244 C  
HETATM    7  C   UNL     1     -10.830  13.022  67.565  1.00  0.00    -0.264 C  
HETATM    8  C   UNL     1     -11.333  12.223  66.373  1.00  0.00    -0.405 C  
HETATM    9  C   UNL     1     -10.467  10.943  66.058  1.00  0.00    -0.287 C  
HETATM   10  C   UNL     1     -11.536  13.091  65.110  1.00  0.00    -0.357 C  
HETATM   11  C   UNL     1      -9.013  11.306  65.730  1.00  0.00    -0.191 C  
HETATM   12  C   UNL     1      -8.227  11.161  67.025  1.00  0.00    -0.146 C  
HETATM   13  C   UNL     1      -9.091  10.357  68.017  1.00  0.00    -0.136 C  
HETATM   14  C   UNL     1      -8.279   9.321  68.792  1.00  0.00    -0.112 C  
HETATM   15  C   UNL     1      -8.983   8.005  69.004  1.00  0.00    -0.145 C  
HETATM   16  C   UNL     1      -7.054   9.615  69.281  1.00  0.00    -0.063 C  
HETATM   17  C   UNL     1     -11.640   9.696  67.975  1.00  0.00     0.793 C  
HETATM   18  C   UNL     1      -9.609   7.427  67.727  1.00  0.00    -0.162 C  
HETATM   19  C   UNL     1     -10.317   9.847  67.187  1.00  0.00    -0.304 C  
HETATM   20  C   UNL     1      -9.946   8.451  66.625  1.00  0.00    -0.354 C  
ENDROOT
BRANCH  16  21
HETATM   21  C   UNL     1      -6.360   8.840  70.282  1.00  0.00    -0.038 C  
HETATM   22  C   UNL     1      -6.776   8.518  71.521  1.00  0.00    -0.073 C  
HETATM   23  C   UNL     1      -7.987   9.080  72.248  1.00  0.00     0.361 C  
HETATM   24  C   UNL     1      -9.013   7.979  72.539  1.00  0.00    -0.195 C  
HETATM   25  C   UNL     1      -8.383   6.769  73.229  1.00  0.00    -0.129 C  
HETATM   26  O   UNL     1      -9.652   7.570  71.330  1.00  0.00    -0.157 OA 
HETATM   27  C   UNL     1      -7.132   6.260  72.502  1.00  0.00    -0.083 C  
HETATM   28  H   UNL     1     -10.288   6.888  71.510  1.00  0.00     0.000 HD 
HETATM   29  C   UNL     1      -6.089   7.361  72.235  1.00  0.00    -0.040 C  
HETATM   30  C   UNL     1      -5.329   7.778  73.489  1.00  0.00    -0.045 C  
ENDBRANCH  16  21
TORSDOF 1
ENDMDL
MODEL       97
REMARK 921   NORMALIZED FREE ENERGY PREDICTED BY IDOCK:   -2.09 KCAL/MOL
REMARK 922        TOTAL FREE ENERGY PREDICTED BY IDOCK:   -2.94 KCAL/MOL
REMARK 923 INTER-LIGAND FREE ENERGY PREDICTED BY IDOCK:   -2.30 KCAL/MOL
REMARK 924 INTRA-LIGAND FREE ENERGY PREDICTED BY IDOCK:   -0.64 KCAL/MOL
REMARK 927      BINDING AFFINITY PREDICTED BY RF-SCORE:    0.00 PKD
ROOT
HETATM    1  C   UNL     1      -6.872  16.573  69.251  1.00  0.00    -0.224 C  
HETATM    2  C   UNL     1      -7.565  15.207  69.153  1.00  0.00    -0.188 C  
HETATM    3  C   UNL     1      -9.121  15.268  69.209  1.00  0.00    -0.240 C  
HETATM    4  C   UNL     1      -6.994  14.280  70.231  1.00  0.00     0.222 C  
HETATM    5  C   UNL     1      -9.683  16.004  68.013  1.00  0.00    -0.217 C  
HETATM    6  C   UNL     1      -9.680  15.884  70.494  1.00  0.00     0.940 C  
HETATM    7  C   UNL     1     -10.840  15.690  67.407  1.00  0.00    -0.315 C  
HETATM    8  C   UNL     1     -11.376  16.324  66.133  1.00  0.00     0.452 C  
HETATM    9  C   UNL     1     -11.152  15.444  64.844  1.00  0.00    -0.435 C  
HETATM   10  C   UNL     1     -10.871  17.770  65.923  1.00  0.00     0.031 C  
HETATM   11  C   UNL     1      -9.662  15.185  64.583  1.00  0.00     1.096 C  
HETATM   12  C   UNL     1      -9.341  13.835  65.207  1.00  0.00     0.570 C  
HETATM   13  C   UNL     1     -10.674  13.114  65.491  1.00  0.00    -0.297 C  
HETATM   14  C   UNL     1     -10.625  11.631  65.128  1.00  0.00    -0.343 C  
HETATM   15  C   UNL     1     -11.884  11.102  64.489  1.00  0.00     0.611 C  
HETATM   16  C   UNL     1      -9.546  10.873  65.422  1.00  0.00    -0.271 C  
HETATM   17  C   UNL     1     -13.160  13.984  65.510  1.00  0.00    -0.217 C  
HETATM   18  C   UNL     1     -12.405  11.973  63.338  1.00  0.00    -0.635 C  
HETATM   19  C   UNL     1     -11.779  13.993  64.814  1.00  0.00    -0.403 C  
HETATM   20  C   UNL     1     -11.979  13.454  63.373  1.00  0.00    -0.406 C  
ENDROOT
BRANCH  16  21
HETATM   21  C   UNL     1      -9.528   9.430  65.419  1.00  0.00    -0.322 C  
HETATM   22  C   UNL     1      -9.476   8.597  66.476  1.00  0.00    -0.278 C  
HETATM   23  C   UNL     1      -9.199   8.979  67.921  1.00  0.00    -0.151 C  
HETATM   24  C   UNL     1     -10.406   8.663  68.813  1.00  0.00    -0.208 C  
HETATM   25  C   UNL     1     -10.896   7.227  68.635  1.00  0.00    -0.112 C  
HETATM   26  O   UNL     1     -11.469   9.577  68.544  1.00  0.00    -0.450 OA 
HETATM   27  C   UNL     1     -11.113   6.855  67.163  1.00  0.00    -0.362 C  
HETATM   28  H   UNL     1     -12.216   9.381  69.096  1.00  0.00     0.000 HD 
HETATM   29  C   UNL     1      -9.891   7.146  66.272  1.00  0.00    -0.021 C  
HETATM   30  C   UNL     1      -8.756   6.149  66.474  1.00  0.00    -0.133 C  
ENDBRANCH  16  21
TORSDOF 1
ENDMDL
MODEL       98
REMARK 921   NORMALIZED FREE ENERGY PREDICTED BY IDOCK:   -2.09 KCAL/MOL
REMARK 922        TOTAL FREE ENERGY PREDICTED BY IDOCK:   -2.94 KCAL/MOL
REMARK 923 INTER-LIGAND FREE ENERGY PREDICTED BY IDOCK:   -2.50 KCAL/MOL
REMARK 924 INTRA-LIGAND FREE ENERGY PREDICTED BY IDOCK:   -0.44 KCAL/MOL
REMARK 927      BINDING AFFINITY PREDICTED BY RF-SCORE:    0.00 PKD
ROOT
HETATM    1  C   UNL     1     -11.486  12.604  62.968  1.00  0.00     0.103 C  
HETATM    2  C   UNL     1     -11.186  13.382  64.257  1.00  0.00    -0.406 C  
HETATM    3  C   UNL     1     -11.530  12.614  65.569  1.00  0.00    -0.375 C  
HETATM    4  C   UNL     1     -11.889  14.741  64.194  1.00  0.00    -0.235 C  
HETATM    5  C   UNL     1     -10.666  11.382  65.725  1.00  0.00    -0.309 C  
HETATM    6  C   UNL     1     -13.004  12.222  65.698  1.00  0.00     1.560 C  
HETATM    7  C   UNL     1     -10.218  10.917  66.902  1.00  0.00    -0.272 C  
HETATM    8  C   UNL     1      -9.251   9.758  67.089  1.00  0.00    -0.159 C  
HETATM    9  C   UNL     1      -7.769  10.211  67.381  1.00  0.00    -0.095 C  
HETATM   10  C   UNL     1      -9.310   8.733  65.932  1.00  0.00    -0.284 C  
HETATM   11  C   UNL     1      -7.193  11.051  66.234  1.00  0.00    -0.095 C  
HETATM   12  C   UNL     1      -7.405  12.509  66.614  1.00  0.00     0.461 C  
HETATM   13  C   UNL     1      -7.739  12.562  68.119  1.00  0.00    -0.141 C  
HETATM   14  C   UNL     1      -7.026  13.708  68.834  1.00  0.00    -0.110 C  
HETATM   15  C   UNL     1      -6.513  13.364  70.209  1.00  0.00     0.151 C  
HETATM   16  C   UNL     1      -6.932  14.934  68.273  1.00  0.00    -0.118 C  
HETATM   17  C   UNL     1      -8.409  10.674  69.827  1.00  0.00     0.199 C  
HETATM   18  C   UNL     1      -5.717  12.052  70.260  1.00  0.00    -0.159 C  
HETATM   19  C   UNL     1      -7.501  11.110  68.653  1.00  0.00    -0.119 C  
HETATM   20  C   UNL     1      -6.033  11.034  69.146  1.00  0.00    -0.043 C  
ENDROOT
BRANCH  16  21
HETATM   21  C   UNL     1      -6.579  16.140  68.984  1.00  0.00    -0.160 C  
HETATM   22  C   UNL     1      -6.489  17.394  68.501  1.00  0.00    -0.180 C  
HETATM   23  C   UNL     1      -6.524  17.809  67.039  1.00  0.00    -0.189 C  
HETATM   24  C   UNL     1      -7.741  18.695  66.749  1.00  0.00    -0.242 C  
HETATM   25  C   UNL     1      -7.852  19.864  67.728  1.00  0.00    -0.329 C  
HETATM   26  O   UNL     1      -8.937  17.916  66.784  1.00  0.00    -0.247 OA 
HETATM   27  C   UNL     1      -7.758  19.418  69.193  1.00  0.00    -0.287 C  
HETATM   28  H   UNL     1      -9.690  18.465  66.605  1.00  0.00     0.000 HD 
HETATM   29  C   UNL     1      -6.521  18.551  69.490  1.00  0.00    -0.222 C  
HETATM   30  C   UNL     1      -5.227  19.356  69.534  1.00  0.00    -0.197 C  
ENDBRANCH  16  21
TORSDOF 1
ENDMDL
MODEL       99
REMARK 921   NORMALIZED FREE ENERGY PREDICTED BY IDOCK:   -2.06 KCAL/MOL
REMARK 922        TOTAL FREE ENERGY PREDICTED BY IDOCK:   -2.90 KCAL/MOL
REMARK 923 INTER-LIGAND FREE ENERGY PREDICTED BY IDOCK:   -2.99 KCAL/MOL
REMARK 924 INTRA-LIGAND FREE ENERGY PREDICTED BY IDOCK:    0.09 KCAL/MOL
REMARK 927      BINDING AFFINITY PREDICTED BY RF-SCORE:    0.00 PKD
ROOT
HETATM    1  C   UNL     1      -9.931  13.171  64.056  1.00  0.00     0.299 C  
HETATM    2  C   UNL     1     -10.355  11.990  64.941  1.00  0.00    -0.316 C  
HETATM    3  C   UNL     1      -9.412  10.752  64.860  1.00  0.00    -0.288 C  
HETATM    4  C   UNL     1     -11.806  11.621  64.617  1.00  0.00    -0.101 C  
HETATM    5  C   UNL     1      -8.034  11.078  65.393  1.00  0.00     0.141 C  
HETATM    6  C   UNL     1      -9.287  10.149  63.459  1.00  0.00    -0.333 C  
HETATM    7  C   UNL     1      -7.260  10.213  66.067  1.00  0.00    -0.118 C  
HETATM    8  C   UNL     1      -5.927  10.538  66.722  1.00  0.00    -0.063 C  
HETATM    9  C   UNL     1      -6.021  10.747  68.282  1.00  0.00    -0.046 C  
HETATM   10  C   UNL     1      -5.193  11.715  66.039  1.00  0.00     0.271 C  
HETATM   11  C   UNL     1      -6.956  11.908  68.645  1.00  0.00    -0.095 C  
HETATM   12  C   UNL     1      -8.318  11.295  68.938  1.00  0.00    -0.074 C  
HETATM   13  C   UNL     1      -8.121   9.778  69.133  1.00  0.00    -0.107 C  
HETATM   14  C   UNL     1      -8.939   9.229  70.301  1.00  0.00    -0.261 C  
HETATM   15  C   UNL     1      -8.228   8.190  71.129  1.00  0.00    -0.123 C  
HETATM   16  C   UNL     1     -10.214   9.625  70.510  1.00  0.00    -0.351 C  
HETATM   17  C   UNL     1      -6.082   8.198  68.605  1.00  0.00    -0.044 C  
HETATM   18  C   UNL     1      -6.808   8.598  71.545  1.00  0.00    -0.085 C  
HETATM   19  C   UNL     1      -6.572   9.555  69.162  1.00  0.00    -0.049 C  
HETATM   20  C   UNL     1      -6.121   9.642  70.643  1.00  0.00    -0.078 C  
ENDROOT
BRANCH  16  21
HETATM   21  C   UNL     1     -11.159   8.943  71.363  1.00  0.00    -0.376 C  
HETATM   22  C   UNL     1     -11.645   7.694  71.233  1.00  0.00    -0.302 C  
HETATM   23  C   UNL     1     -11.486   6.777  70.032  1.00  0.00    -0.390 C  
HETATM   24  C   UNL     1     -10.697   5.516  70.405  1.00  0.00    -0.251 C  
HETATM   25  C   UNL     1     -11.266   4.823  71.643  1.00  0.00     0.519 C  
HETATM   26  O   UNL     1      -9.323   5.841  70.617  1.00  0.00    -0.155 OA 
HETATM   27  C   UNL     1     -11.466   5.786  72.819  1.00  0.00    -0.304 C  
HETATM   28  H   UNL     1      -8.834   5.060  70.848  1.00  0.00     0.000 HD 
HETATM   29  C   UNL     1     -12.283   7.039  72.451  1.00  0.00    -0.075 C  
HETATM   30  C   UNL     1     -13.771   6.752  72.286  1.00  0.00     0.161 C  
ENDBRANCH  16  21
TORSDOF 1
ENDMDL
MODEL      100
REMARK 921   NORMALIZED FREE ENERGY PREDICTED BY IDOCK:   -2.00 KCAL/MOL
REMARK 922        TOTAL FREE ENERGY PREDICTED BY IDOCK:   -2.84 KCAL/MOL
REMARK 923 INTER-LIGAND FREE ENERGY PREDICTED BY IDOCK:   -2.10 KCAL/MOL
REMARK 924 INTRA-LIGAND FREE ENERGY PREDICTED BY IDOCK:   -0.74 KCAL/MOL
REMARK 927      BINDING AFFINITY PREDICTED BY RF-SCORE:    0.00 PKD
ROOT
HETATM    1  C   UNL     1     -12.997  11.851  72.072  1.00  0.00    -0.370 C  
HETATM    2  C   UNL     1     -12.294  10.564  71.617  1.00  0.00    -0.374 C  
HETATM    3  C   UNL     1     -12.662  10.105  70.174  1.00  0.00    -0.017 C  
HETATM    4  C   UNL     1     -12.557   9.462  72.647  1.00  0.00    -0.056 C  
HETATM    5  C   UNL     1     -12.195  11.111  69.144  1.00  0.00    -0.244 C  
HETATM    6  C   UNL     1     -14.150   9.817  69.966  1.00  0.00     1.952 C  
HETATM    7  C   UNL     1     -11.744  10.788  67.922  1.00  0.00    -0.059 C  
HETATM    8  C   UNL     1     -11.154  11.757  66.909  1.00  0.00    -0.361 C  
HETATM    9  C   UNL     1      -9.579  11.726  66.846  1.00  0.00    -0.204 C  
HETATM   10  C   UNL     1     -11.684  13.199  67.076  1.00  0.00    -0.431 C  
HETATM   11  C   UNL     1      -8.948  12.101  68.193  1.00  0.00    -0.195 C  
HETATM   12  C   UNL     1      -8.654  10.794  68.914  1.00  0.00    -0.155 C  
HETATM   13  C   UNL     1      -8.737   9.653  67.879  1.00  0.00    -0.119 C  
HETATM   14  C   UNL     1      -7.616   8.629  68.050  1.00  0.00    -0.098 C  
HETATM   15  C   UNL     1      -7.038   8.113  66.756  1.00  0.00    -0.077 C  
HETATM   16  C   UNL     1      -7.240   8.200  69.274  1.00  0.00    -0.072 C  
HETATM   17  C   UNL     1      -9.690   9.587  65.426  1.00  0.00    -0.314 C  
HETATM   18  C   UNL     1      -6.676   9.221  65.758  1.00  0.00    -0.076 C  
HETATM   19  C   UNL     1      -8.872  10.358  66.488  1.00  0.00    -0.150 C  
HETATM   20  C   UNL     1      -7.440  10.549  65.926  1.00  0.00    -0.147 C  
ENDROOT
BRANCH  16  21
HETATM   21  C   UNL     1      -6.441   7.023  69.526  1.00  0.00    -0.043 C  
HETATM   22  C   UNL     1      -6.864   5.767  69.761  1.00  0.00    -0.061 C  
HETATM   23  C   UNL     1      -8.291   5.325  70.039  1.00  0.00    -0.098 C  
HETATM   24  C   UNL     1      -8.796   4.380  68.942  1.00  0.00    -0.098 C  
HETATM   25  C   UNL     1      -7.829   3.225  68.683  1.00  0.00    -0.060 C  
HETATM   26  O   UNL     1      -9.022   5.105  67.734  1.00  0.00    -0.109 OA 
HETATM   27  C   UNL     1      -6.388   3.700  68.461  1.00  0.00    -0.033 C  
HETATM   28  H   UNL     1      -9.335   4.520  67.054  1.00  0.00     0.000 HD 
HETATM   29  C   UNL     1      -5.871   4.626  69.577  1.00  0.00    -0.017 C  
HETATM   30  C   UNL     1      -5.546   3.881  70.867  1.00  0.00    -0.012 C  
ENDBRANCH  16  21
TORSDOF 1
ENDMDL
MODEL      101
REMARK 921   NORMALIZED FREE ENERGY PREDICTED BY IDOCK:   -1.95 KCAL/MOL
REMARK 922        TOTAL FREE ENERGY PREDICTED BY IDOCK:   -2.79 KCAL/MOL
REMARK 923 INTER-LIGAND FREE ENERGY PREDICTED BY IDOCK:   -2.36 KCAL/MOL
REMARK 924 INTRA-LIGAND FREE ENERGY PREDICTED BY IDOCK:   -0.43 KCAL/MOL
REMARK 927      BINDING AFFINITY PREDICTED BY RF-SCORE:    0.00 PKD
ROOT
HETATM    1  C   UNL     1      -5.467   7.045  67.778  1.00  0.00    -0.016 C  
HETATM    2  C   UNL     1      -6.108   8.324  67.220  1.00  0.00    -0.055 C  
HETATM    3  C   UNL     1      -7.577   8.149  66.732  1.00  0.00    -0.094 C  
HETATM    4  C   UNL     1      -5.208   8.892  66.118  1.00  0.00    -0.033 C  
HETATM    5  C   UNL     1      -8.497   7.801  67.882  1.00  0.00    -0.122 C  
HETATM    6  C   UNL     1      -7.750   7.120  65.613  1.00  0.00    -0.102 C  
HETATM    7  C   UNL     1      -9.769   8.217  67.985  1.00  0.00    -0.187 C  
HETATM    8  C   UNL     1     -10.684   7.991  69.179  1.00  0.00    -0.121 C  
HETATM    9  C   UNL     1     -10.823   9.250  70.118  1.00  0.00    -0.275 C  
HETATM   10  C   UNL     1     -10.318   6.724  69.985  1.00  0.00    -0.225 C  
HETATM   11  C   UNL     1      -9.470   9.673  70.707  1.00  0.00    -0.124 C  
HETATM   12  C   UNL     1      -8.928  10.771  69.803  1.00  0.00     0.422 C  
HETATM   13  C   UNL     1     -10.089  11.276  68.922  1.00  0.00    -0.185 C  
HETATM   14  C   UNL     1     -10.096  12.797  68.782  1.00  0.00    -0.057 C  
HETATM   15  C   UNL     1     -11.468  13.421  68.815  1.00  0.00    -0.344 C  
HETATM   16  C   UNL     1      -8.951  13.488  68.589  1.00  0.00    -0.002 C  
HETATM   17  C   UNL     1     -12.486  10.289  68.457  1.00  0.00     1.879 C  
HETATM   18  C   UNL     1     -12.340  12.933  69.980  1.00  0.00    -0.199 C  
HETATM   19  C   UNL     1     -11.377  10.591  69.492  1.00  0.00    -0.341 C  
HETATM   20  C   UNL     1     -11.977  11.549  70.553  1.00  0.00    -0.439 C  
ENDROOT
BRANCH  16  21
HETATM   21  C   UNL     1      -8.882  14.855  68.128  1.00  0.00    -0.174 C  
HETATM   22  C   UNL     1      -7.867  15.728  68.267  1.00  0.00    -0.129 C  
HETATM   23  C   UNL     1      -6.633  15.557  69.136  1.00  0.00    -0.136 C  
HETATM   24  C   UNL     1      -5.360  15.521  68.283  1.00  0.00    -0.110 C  
HETATM   25  C   UNL     1      -5.278  16.703  67.317  1.00  0.00    -0.159 C  
HETATM   26  O   UNL     1      -5.289  14.294  67.557  1.00  0.00    -0.335 OA 
HETATM   27  C   UNL     1      -6.559  16.882  66.493  1.00  0.00    -0.213 C  
HETATM   28  H   UNL     1      -4.501  14.272  67.028  1.00  0.00     0.000 HD 
HETATM   29  C   UNL     1      -7.835  16.947  67.353  1.00  0.00    -0.192 C  
HETATM   30  C   UNL     1      -7.989  18.272  68.091  1.00  0.00    -0.295 C  
ENDBRANCH  16  21
TORSDOF 1
ENDMDL
MODEL      102
REMARK 921   NORMALIZED FREE ENERGY PREDICTED BY IDOCK:   -1.89 KCAL/MOL
REMARK 922        TOTAL FREE ENERGY PREDICTED BY IDOCK:   -2.73 KCAL/MOL
REMARK 923 INTER-LIGAND FREE ENERGY PREDICTED BY IDOCK:   -2.14 KCAL/MOL
REMARK 924 INTRA-LIGAND FREE ENERGY PREDICTED BY IDOCK:   -0.59 KCAL/MOL
REMARK 927      BINDING AFFINITY PREDICTED BY RF-SCORE:    0.00 PKD
ROOT
HETATM    1  C   UNL     1      -7.523  12.575  69.066  1.00  0.00     0.088 C  
HETATM    2  C   UNL     1      -7.552  11.276  68.247  1.00  0.00    -0.114 C  
HETATM    3  C   UNL     1      -6.625  10.149  68.792  1.00  0.00    -0.052 C  
HETATM    4  C   UNL     1      -7.244  11.605  66.783  1.00  0.00    -0.082 C  
HETATM    5  C   UNL     1      -7.079   9.681  70.158  1.00  0.00    -0.116 C  
HETATM    6  C   UNL     1      -5.143  10.527  68.850  1.00  0.00    -0.042 C  
HETATM    7  C   UNL     1      -6.991   8.413  70.589  1.00  0.00    -0.040 C  
HETATM    8  C   UNL     1      -7.546   7.881  71.902  1.00  0.00    -0.094 C  
HETATM    9  C   UNL     1      -8.910   7.105  71.746  1.00  0.00    -0.129 C  
HETATM   10  C   UNL     1      -7.637   8.967  72.999  1.00  0.00     0.350 C  
HETATM   11  C   UNL     1     -10.011   8.001  71.163  1.00  0.00    -0.206 C  
HETATM   12  C   UNL     1     -10.029   7.746  69.663  1.00  0.00    -0.190 C  
HETATM   13  C   UNL     1      -9.238   6.450  69.393  1.00  0.00    -0.143 C  
HETATM   14  C   UNL     1      -9.920   5.555  68.359  1.00  0.00    -0.210 C  
HETATM   15  C   UNL     1      -9.855   4.081  68.668  1.00  0.00    -0.046 C  
HETATM   16  C   UNL     1     -10.475   6.074  67.242  1.00  0.00    -0.319 C  
HETATM   17  C   UNL     1      -7.623   5.039  70.921  1.00  0.00    -0.078 C  
HETATM   18  C   UNL     1     -10.262   3.733  70.107  1.00  0.00     0.554 C  
HETATM   19  C   UNL     1      -8.943   5.837  70.803  1.00  0.00    -0.156 C  
HETATM   20  C   UNL     1     -10.106   4.868  71.138  1.00  0.00    -0.277 C  
ENDROOT
BRANCH  16  21
HETATM   21  C   UNL     1     -10.843   5.309  66.074  1.00  0.00    -0.076 C  
HETATM   22  C   UNL     1     -10.035   4.800  65.124  1.00  0.00    -0.012 C  
HETATM   23  C   UNL     1      -8.557   5.098  64.934  1.00  0.00    -0.151 C  
HETATM   24  C   UNL     1      -7.712   3.833  65.126  1.00  0.00    -0.085 C  
HETATM   25  C   UNL     1      -8.222   2.664  64.284  1.00  0.00    -0.082 C  
HETATM   26  O   UNL     1      -7.687   3.464  66.505  1.00  0.00    -0.079 OA 
HETATM   27  C   UNL     1      -9.727   2.424  64.456  1.00  0.00    -0.046 C  
HETATM   28  H   UNL     1      -7.164   2.680  66.624  1.00  0.00     0.000 HD 
HETATM   29  C   UNL     1     -10.577   3.689  64.235  1.00  0.00    -0.208 C  
HETATM   30  C   UNL     1     -10.693   4.079  62.766  1.00  0.00    -0.097 C  
ENDBRANCH  16  21
TORSDOF 1
ENDMDL
MODEL      103
REMARK 921   NORMALIZED FREE ENERGY PREDICTED BY IDOCK:   -1.73 KCAL/MOL
REMARK 922        TOTAL FREE ENERGY PREDICTED BY IDOCK:   -2.55 KCAL/MOL
REMARK 923 INTER-LIGAND FREE ENERGY PREDICTED BY IDOCK:   -5.10 KCAL/MOL
REMARK 924 INTRA-LIGAND FREE ENERGY PREDICTED BY IDOCK:    2.54 KCAL/MOL
REMARK 927      BINDING AFFINITY PREDICTED BY RF-SCORE:    0.00 PKD
ROOT
HETATM    1  C   UNL     1      -9.936   4.555  66.440  1.00  0.00    -0.267 C  
HETATM    2  C   UNL     1      -9.941   5.563  67.599  1.00  0.00    -0.187 C  
HETATM    3  C   UNL     1      -8.598   6.330  67.792  1.00  0.00    -0.115 C  
HETATM    4  C   UNL     1     -10.374   4.846  68.881  1.00  0.00    -0.069 C  
HETATM    5  C   UNL     1      -8.294   7.209  66.598  1.00  0.00    -0.114 C  
HETATM    6  C   UNL     1      -7.396   5.428  68.079  1.00  0.00    -0.073 C  
HETATM    7  C   UNL     1      -7.687   8.404  66.675  1.00  0.00    -0.090 C  
HETATM    8  C   UNL     1      -7.475   9.368  65.518  1.00  0.00    -0.095 C  
HETATM    9  C   UNL     1      -8.505  10.561  65.490  1.00  0.00    -0.177 C  
HETATM   10  C   UNL     1      -7.399   8.655  64.148  1.00  0.00    -0.102 C  
HETATM   11  C   UNL     1      -9.950  10.062  65.354  1.00  0.00    -0.364 C  
HETATM   12  C   UNL     1     -10.518   9.988  66.764  1.00  0.00    -0.267 C  
HETATM   13  C   UNL     1      -9.585  10.790  67.694  1.00  0.00    -0.174 C  
HETATM   14  C   UNL     1     -10.357  11.643  68.699  1.00  0.00    -0.229 C  
HETATM   15  C   UNL     1      -9.763  13.007  68.947  1.00  0.00     0.177 C  
HETATM   16  C   UNL     1     -11.446  11.162  69.337  1.00  0.00    -0.368 C  
HETATM   17  C   UNL     1      -7.160  11.748  67.330  1.00  0.00    -0.126 C  
HETATM   18  C   UNL     1      -9.421  13.775  67.663  1.00  0.00    -0.217 C  
HETATM   19  C   UNL     1      -8.573  11.518  66.746  1.00  0.00    -0.170 C  
HETATM   20  C   UNL     1      -9.172  12.909  66.412  1.00  0.00    -0.144 C  
ENDROOT
BRANCH  16  21
HETATM   21  C   UNL     1     -12.037  11.749  70.515  1.00  0.00    -0.439 C  
HETATM   22  C   UNL     1     -12.047  13.045  70.883  1.00  0.00    -0.182 C  
HETATM   23  C   UNL     1     -11.245  14.173  70.256  1.00  0.00     0.006 C  
HETATM   24  C   UNL     1     -12.171  15.225  69.634  1.00  0.00    -0.271 C  
HETATM   25  C   UNL     1     -13.248  15.698  70.610  1.00  0.00    -0.162 C  
HETATM   26  O   UNL     1     -12.781  14.706  68.452  1.00  0.00    -0.291 OA 
HETATM   27  C   UNL     1     -14.001  14.535  71.267  1.00  0.00    -0.356 C  
HETATM   28  H   UNL     1     -13.354  15.357  68.066  1.00  0.00     0.000 HD 
HETATM   29  C   UNL     1     -13.072  13.493  71.917  1.00  0.00    -0.475 C  
HETATM   30  C   UNL     1     -12.454  13.979  73.223  1.00  0.00     0.242 C  
ENDBRANCH  16  21
TORSDOF 1
ENDMDL
MODEL      104
REMARK 921   NORMALIZED FREE ENERGY PREDICTED BY IDOCK:   -1.57 KCAL/MOL
REMARK 922        TOTAL FREE ENERGY PREDICTED BY IDOCK:   -2.39 KCAL/MOL
REMARK 923 INTER-LIGAND FREE ENERGY PREDICTED BY IDOCK:   -3.03 KCAL/MOL
REMARK 924 INTRA-LIGAND FREE ENERGY PREDICTED BY IDOCK:    0.64 KCAL/MOL
REMARK 927      BINDING AFFINITY PREDICTED BY RF-SCORE:    0.00 PKD
ROOT
HETATM    1  C   UNL     1      -6.839  14.263  67.359  1.00  0.00    -0.042 C  
HETATM    2  C   UNL     1      -7.343  13.260  68.406  1.00  0.00    -0.112 C  
HETATM    3  C   UNL     1      -8.815  12.794  68.196  1.00  0.00    -0.194 C  
HETATM    4  C   UNL     1      -7.128  13.848  69.803  1.00  0.00     0.223 C  
HETATM    5  C   UNL     1      -8.965  12.019  66.905  1.00  0.00    -0.199 C  
HETATM    6  C   UNL     1      -9.844  13.927  68.231  1.00  0.00    -0.231 C  
HETATM    7  C   UNL     1      -9.799  10.980  66.739  1.00  0.00    -0.229 C  
HETATM    8  C   UNL     1      -9.889  10.102  65.501  1.00  0.00    -0.365 C  
HETATM    9  C   UNL     1      -9.150   8.717  65.651  1.00  0.00    -0.221 C  
HETATM   10  C   UNL     1      -9.455  10.835  64.211  1.00  0.00    -0.307 C  
HETATM   11  C   UNL     1      -7.651   8.898  65.923  1.00  0.00    -0.093 C  
HETATM   12  C   UNL     1      -7.471   8.827  67.433  1.00  0.00    -0.089 C  
HETATM   13  C   UNL     1      -8.759   8.228  68.035  1.00  0.00    -0.135 C  
HETATM   14  C   UNL     1      -8.468   7.214  69.140  1.00  0.00    -0.133 C  
HETATM   15  C   UNL     1      -9.369   6.005  69.132  1.00  0.00    -0.136 C  
HETATM   16  C   UNL     1      -7.512   7.442  70.066  1.00  0.00    -0.084 C  
HETATM   17  C   UNL     1     -11.144   7.815  66.999  1.00  0.00     0.280 C  
HETATM   18  C   UNL     1      -9.507   5.348  67.751  1.00  0.00    -0.132 C  
HETATM   19  C   UNL     1      -9.610   7.748  66.812  1.00  0.00    -0.274 C  
HETATM   20  C   UNL     1      -9.237   6.267  66.543  1.00  0.00    -0.169 C  
ENDROOT
BRANCH  16  21
HETATM   21  C   UNL     1      -7.383   6.723  71.312  1.00  0.00    -0.082 C  
HETATM   22  C   UNL     1      -7.276   5.394  71.497  1.00  0.00    -0.076 C  
HETATM   23  C   UNL     1      -7.488   4.311  70.453  1.00  0.00    -0.045 C  
HETATM   24  C   UNL     1      -6.197   3.521  70.210  1.00  0.00    -0.023 C  
HETATM   25  C   UNL     1      -5.576   3.014  71.512  1.00  0.00    -0.008 C  
HETATM   26  O   UNL     1      -5.253   4.327  69.504  1.00  0.00    -0.007 OA 
HETATM   27  C   UNL     1      -5.427   4.119  72.565  1.00  0.00     0.000 C  
HETATM   28  H   UNL     1      -4.453   3.837  69.354  1.00  0.00     0.000 HD 
HETATM   29  C   UNL     1      -6.732   4.893  72.829  1.00  0.00    -0.065 C  
HETATM   30  C   UNL     1      -7.742   4.096  73.645  1.00  0.00    -0.081 C  
ENDBRANCH  16  21
TORSDOF 1
ENDMDL
MODEL      105
REMARK 921   NORMALIZED FREE ENERGY PREDICTED BY IDOCK:   -1.56 KCAL/MOL
REMARK 922        TOTAL FREE ENERGY PREDICTED BY IDOCK:   -2.38 KCAL/MOL
REMARK 923 INTER-LIGAND FREE ENERGY PREDICTED BY IDOCK:   -1.95 KCAL/MOL
REMARK 924 INTRA-LIGAND FREE ENERGY PREDICTED BY IDOCK:   -0.43 KCAL/MOL
REMARK 927      BINDING AFFINITY PREDICTED BY RF-SCORE:    0.00 PKD
ROOT
HETATM    1  C   UNL     1     -11.303  15.833  66.735  1.00  0.00     0.080 C  
HETATM    2  C   UNL     1     -10.174  14.794  66.780  1.00  0.00    -0.266 C  
HETATM    3  C   UNL     1      -9.710  14.409  68.217  1.00  0.00    -0.222 C  
HETATM    4  C   UNL     1      -9.007  15.289  65.921  1.00  0.00    -0.011 C  
HETATM    5  C   UNL     1     -10.818  13.718  68.982  1.00  0.00    -0.247 C  
HETATM    6  C   UNL     1      -9.177  15.583  69.041  1.00  0.00    -0.238 C  
HETATM    7  C   UNL     1     -10.621  12.729  69.869  1.00  0.00     1.032 C  
HETATM    8  C   UNL     1     -11.712  11.930  70.565  1.00  0.00    -0.103 C  
HETATM    9  C   UNL     1     -11.957  10.507  69.931  1.00  0.00    -0.339 C  
HETATM   10  C   UNL     1     -13.035  12.718  70.709  1.00  0.00     0.007 C  
HETATM   11  C   UNL     1     -12.386  10.604  68.461  1.00  0.00     0.756 C  
HETATM   12  C   UNL     1     -11.124  10.437  67.628  1.00  0.00    -0.361 C  
HETATM   13  C   UNL     1     -10.024   9.862  68.544  1.00  0.00    -0.175 C  
HETATM   14  C   UNL     1      -9.203   8.773  67.856  1.00  0.00    -0.149 C  
HETATM   15  C   UNL     1      -8.842   7.608  68.743  1.00  0.00    -0.131 C  
HETATM   16  C   UNL     1      -8.802   8.903  66.572  1.00  0.00    -0.160 C  
HETATM   17  C   UNL     1      -9.882   9.619  71.162  1.00  0.00    -0.004 C  
HETATM   18  C   UNL     1     -10.030   7.040  69.530  1.00  0.00    -0.166 C  
HETATM   19  C   UNL     1     -10.745   9.493  69.884  1.00  0.00    -0.268 C  
HETATM   20  C   UNL     1     -11.200   8.015  69.772  1.00  0.00     0.019 C  
ENDROOT
BRANCH  16  21
HETATM   21  C   UNL     1      -7.773   8.108  65.946  1.00  0.00    -0.091 C  
HETATM   22  C   UNL     1      -7.452   8.043  64.640  1.00  0.00    -0.097 C  
HETATM   23  C   UNL     1      -8.242   8.625  63.479  1.00  0.00    -0.150 C  
HETATM   24  C   UNL     1      -7.432   9.704  62.750  1.00  0.00    -0.114 C  
HETATM   25  C   UNL     1      -6.035   9.217  62.366  1.00  0.00    -0.090 C  
HETATM   26  O   UNL     1      -7.333  10.875  63.559  1.00  0.00    -0.330 OA 
HETATM   27  C   UNL     1      -5.285   8.584  63.545  1.00  0.00    -0.061 C  
HETATM   28  H   UNL     1      -6.831  11.543  63.107  1.00  0.00     0.000 HD 
HETATM   29  C   UNL     1      -6.088   7.482  64.260  1.00  0.00    -0.048 C  
HETATM   30  C   UNL     1      -6.158   6.185  63.462  1.00  0.00    -0.022 C  
ENDBRANCH  16  21
TORSDOF 1
ENDMDL
MODEL      106
REMARK 921   NORMALIZED FREE ENERGY PREDICTED BY IDOCK:   -1.56 KCAL/MOL
REMARK 922        TOTAL FREE ENERGY PREDICTED BY IDOCK:   -2.37 KCAL/MOL
REMARK 923 INTER-LIGAND FREE ENERGY PREDICTED BY IDOCK:   -2.76 KCAL/MOL
REMARK 924 INTRA-LIGAND FREE ENERGY PREDICTED BY IDOCK:    0.39 KCAL/MOL
REMARK 927      BINDING AFFINITY PREDICTED BY RF-SCORE:    0.00 PKD
ROOT
HETATM    1  C   UNL     1      -8.119   8.918  65.519  1.00  0.00    -0.112 C  
HETATM    2  C   UNL     1      -8.050  10.445  65.366  1.00  0.00    -0.152 C  
HETATM    3  C   UNL     1      -9.434  11.136  65.177  1.00  0.00    -0.257 C  
HETATM    4  C   UNL     1      -7.084  10.788  64.228  1.00  0.00     0.385 C  
HETATM    5  C   UNL     1     -10.299  10.972  66.407  1.00  0.00    -0.302 C  
HETATM    6  C   UNL     1     -10.208  10.666  63.944  1.00  0.00    -0.306 C  
HETATM    7  C   UNL     1     -11.158  11.901  66.857  1.00  0.00    -0.356 C  
HETATM    8  C   UNL     1     -11.953  11.824  68.151  1.00  0.00    -0.214 C  
HETATM    9  C   UNL     1     -11.339  12.684  69.322  1.00  0.00    -0.306 C  
HETATM   10  C   UNL     1     -12.228  10.371  68.603  1.00  0.00     0.667 C  
HETATM   11  C   UNL     1      -9.919  12.229  69.680  1.00  0.00     1.266 C  
HETATM   12  C   UNL     1      -8.966  13.131  68.909  1.00  0.00     0.300 C  
HETATM   13  C   UNL     1      -9.769  14.349  68.409  1.00  0.00    -0.226 C  
HETATM   14  C   UNL     1      -9.000  15.660  68.568  1.00  0.00    -0.192 C  
HETATM   15  C   UNL     1      -9.843  16.829  69.012  1.00  0.00    -0.260 C  
HETATM   16  C   UNL     1      -7.684  15.740  68.273  1.00  0.00    -0.132 C  
HETATM   17  C   UNL     1     -12.360  14.802  68.283  1.00  0.00     0.078 C  
HETATM   18  C   UNL     1     -10.739  16.521  70.219  1.00  0.00    -0.088 C  
HETATM   19  C   UNL     1     -11.171  14.239  69.097  1.00  0.00    -0.302 C  
HETATM   20  C   UNL     1     -11.097  15.036  70.426  1.00  0.00    -0.263 C  
ENDROOT
BRANCH  16  21
HETATM   21  C   UNL     1      -6.958  16.973  68.078  1.00  0.00    -0.170 C  
HETATM   22  C   UNL     1      -7.192  17.942  67.173  1.00  0.00    -0.206 C  
HETATM   23  C   UNL     1      -8.142  17.870  65.990  1.00  0.00    -0.130 C  
HETATM   24  C   UNL     1      -9.266  18.904  66.124  1.00  0.00    -0.176 C  
HETATM   25  C   UNL     1      -8.730  20.308  66.404  1.00  0.00    -0.247 C  
HETATM   26  O   UNL     1     -10.171  18.515  67.158  1.00  0.00    -0.340 OA 
HETATM   27  C   UNL     1      -7.731  20.338  67.568  1.00  0.00    -0.340 C  
HETATM   28  H   UNL     1     -10.867  19.156  67.241  1.00  0.00     0.000 HD 
HETATM   29  C   UNL     1      -6.587  19.318  67.418  1.00  0.00    -0.204 C  
HETATM   30  C   UNL     1      -5.555  19.730  66.374  1.00  0.00    -0.175 C  
ENDBRANCH  16  21
TORSDOF 1
ENDMDL
MODEL      107
REMARK 921   NORMALIZED FREE ENERGY PREDICTED BY IDOCK:   -1.48 KCAL/MOL
REMARK 922        TOTAL FREE ENERGY PREDICTED BY IDOCK:   -2.29 KCAL/MOL
REMARK 923 INTER-LIGAND FREE ENERGY PREDICTED BY IDOCK:   -1.96 KCAL/MOL
REMARK 924 INTRA-LIGAND FREE ENERGY PREDICTED BY IDOCK:   -0.34 KCAL/MOL
REMARK 927      BINDING AFFINITY PREDICTED BY RF-SCORE:    0.00 PKD
ROOT
HETATM    1  C   UNL     1     -10.122   4.169  64.289  1.00  0.00    -0.135 C  
HETATM    2  C   UNL     1     -10.421   5.151  65.431  1.00  0.00     0.220 C  
HETATM    3  C   UNL     1      -9.475   5.015  66.662  1.00  0.00    -0.148 C  
HETATM    4  C   UNL     1     -11.894   5.018  65.829  1.00  0.00     2.113 C  
HETATM    5  C   UNL     1      -8.049   5.366  66.298  1.00  0.00    -0.105 C  
HETATM    6  C   UNL     1      -9.506   3.639  67.330  1.00  0.00    -0.235 C  
HETATM    7  C   UNL     1      -7.188   5.982  67.122  1.00  0.00    -0.075 C  
HETATM    8  C   UNL     1      -5.792   6.459  66.754  1.00  0.00    -0.020 C  
HETATM    9  C   UNL     1      -5.705   8.008  66.472  1.00  0.00    -0.040 C  
HETATM   10  C   UNL     1      -5.161   5.641  65.603  1.00  0.00    -0.009 C  
HETATM   11  C   UNL     1      -6.608   8.426  65.304  1.00  0.00    -0.056 C  
HETATM   12  C   UNL     1      -7.916   8.906  65.917  1.00  0.00    -0.107 C  
HETATM   13  C   UNL     1      -7.675   9.145  67.421  1.00  0.00    -0.092 C  
HETATM   14  C   UNL     1      -8.341  10.426  67.922  1.00  0.00    -0.114 C  
HETATM   15  C   UNL     1      -7.521  11.211  68.914  1.00  0.00    -0.125 C  
HETATM   16  C   UNL     1      -9.588  10.766  67.529  1.00  0.00    -0.176 C  
HETATM   17  C   UNL     1      -5.688   8.453  69.004  1.00  0.00    -0.039 C  
HETATM   18  C   UNL     1      -6.068  11.436  68.472  1.00  0.00    -0.045 C  
HETATM   19  C   UNL     1      -6.129   9.001  67.627  1.00  0.00    -0.051 C  
HETATM   20  C   UNL     1      -5.508  10.413  67.465  1.00  0.00    -0.040 C  
ENDROOT
BRANCH  16  21
HETATM   21  C   UNL     1     -10.415  11.756  68.179  1.00  0.00    -0.221 C  
HETATM   22  C   UNL     1     -10.306  13.096  68.123  1.00  0.00    -0.247 C  
HETATM   23  C   UNL     1      -9.150  13.891  67.540  1.00  0.00    -0.201 C  
HETATM   24  C   UNL     1      -9.609  14.731  66.342  1.00  0.00    -0.301 C  
HETATM   25  C   UNL     1     -10.840  15.576  66.667  1.00  0.00    -0.285 C  
HETATM   26  O   UNL     1      -9.881  13.885  65.224  1.00  0.00    -0.535 OA 
HETATM   27  C   UNL     1     -11.968  14.756  67.305  1.00  0.00    -0.236 C  
HETATM   28  H   UNL     1     -10.166  14.406  64.482  1.00  0.00     0.000 HD 
HETATM   29  C   UNL     1     -11.513  13.935  68.525  1.00  0.00    -0.346 C  
HETATM   30  C   UNL     1     -11.280  14.790  69.765  1.00  0.00    -0.306 C  
ENDBRANCH  16  21
TORSDOF 1
ENDMDL
MODEL      108
REMARK 921   NORMALIZED FREE ENERGY PREDICTED BY IDOCK:   -1.44 KCAL/MOL
REMARK 922        TOTAL FREE ENERGY PREDICTED BY IDOCK:   -2.25 KCAL/MOL
REMARK 923 INTER-LIGAND FREE ENERGY PREDICTED BY IDOCK:   -1.77 KCAL/MOL
REMARK 924 INTRA-LIGAND FREE ENERGY PREDICTED BY IDOCK:   -0.48 KCAL/MOL
REMARK 927      BINDING AFFINITY PREDICTED BY RF-SCORE:    0.00 PKD
ROOT
HETATM    1  C   UNL     1     -10.969  12.592  65.655  1.00  0.00    -0.313 C  
HETATM    2  C   UNL     1     -10.136  11.356  66.022  1.00  0.00    -0.275 C  
HETATM    3  C   UNL     1      -9.369  11.473  67.373  1.00  0.00    -0.168 C  
HETATM    4  C   UNL     1      -9.191  11.029  64.861  1.00  0.00    -0.210 C  
HETATM    5  C   UNL     1     -10.328  11.575  68.539  1.00  0.00    -0.224 C  
HETATM    6  C   UNL     1      -8.372  12.632  67.432  1.00  0.00    -0.184 C  
HETATM    7  C   UNL     1     -10.105  11.041  69.750  1.00  0.00     0.285 C  
HETATM    8  C   UNL     1     -11.094  11.017  70.906  1.00  0.00     0.841 C  
HETATM    9  C   UNL     1     -11.822   9.630  71.088  1.00  0.00    -0.448 C  
HETATM   10  C   UNL     1     -12.107  12.183  70.855  1.00  0.00    -0.181 C  
HETATM   11  C   UNL     1     -12.630   9.244  69.842  1.00  0.00     1.116 C  
HETATM   12  C   UNL     1     -11.737   8.336  69.009  1.00  0.00     1.352 C  
HETATM   13  C   UNL     1     -10.574   7.865  69.905  1.00  0.00    -0.242 C  
HETATM   14  C   UNL     1     -10.252   6.384  69.712  1.00  0.00    -0.226 C  
HETATM   15  C   UNL     1      -9.915   5.647  70.983  1.00  0.00    -0.248 C  
HETATM   16  C   UNL     1     -10.227   5.827  68.481  1.00  0.00    -0.246 C  
HETATM   17  C   UNL     1      -9.729   8.700  72.255  1.00  0.00    -0.357 C  
HETATM   18  C   UNL     1     -10.916   5.889  72.121  1.00  0.00    -0.317 C  
HETATM   19  C   UNL     1     -10.933   8.349  71.349  1.00  0.00    -0.311 C  
HETATM   20  C   UNL     1     -11.717   7.203  72.039  1.00  0.00    -0.326 C  
ENDROOT
BRANCH  16  21
HETATM   21  C   UNL     1      -9.629   4.550  68.167  1.00  0.00    -0.203 C  
HETATM   22  C   UNL     1      -9.214   4.099  66.968  1.00  0.00    -0.173 C  
HETATM   23  C   UNL     1      -9.478   4.740  65.615  1.00  0.00    -0.173 C  
HETATM   24  C   UNL     1      -8.168   5.178  64.950  1.00  0.00    -0.136 C  
HETATM   25  C   UNL     1      -7.134   4.053  64.912  1.00  0.00    -0.066 C  
HETATM   26  O   UNL     1      -7.628   6.312  65.628  1.00  0.00    -0.080 OA 
HETATM   27  C   UNL     1      -6.931   3.391  66.281  1.00  0.00    -0.058 C  
HETATM   28  H   UNL     1      -6.816   6.583  65.217  1.00  0.00     0.000 HD 
HETATM   29  C   UNL     1      -8.245   2.925  66.935  1.00  0.00    -0.085 C  
HETATM   30  C   UNL     1      -8.821   1.671  66.288  1.00  0.00    -0.118 C  
ENDBRANCH  16  21
TORSDOF 1
ENDMDL
MODEL      109
REMARK 921   NORMALIZED FREE ENERGY PREDICTED BY IDOCK:   -1.42 KCAL/MOL
REMARK 922        TOTAL FREE ENERGY PREDICTED BY IDOCK:   -2.22 KCAL/MOL
REMARK 923 INTER-LIGAND FREE ENERGY PREDICTED BY IDOCK:   -1.57 KCAL/MOL
REMARK 924 INTRA-LIGAND FREE ENERGY PREDICTED BY IDOCK:   -0.65 KCAL/MOL
REMARK 927      BINDING AFFINITY PREDICTED BY RF-SCORE:    0.00 PKD
ROOT
HETATM    1  C   UNL     1      -8.277   8.848  63.098  1.00  0.00    -0.183 C  
HETATM    2  C   UNL     1      -8.687  10.084  63.912  1.00  0.00    -0.219 C  
HETATM    3  C   UNL     1      -9.231   9.766  65.337  1.00  0.00    -0.282 C  
HETATM    4  C   UNL     1      -9.685  10.910  63.095  1.00  0.00    -0.396 C  
HETATM    5  C   UNL     1      -8.158   9.146  66.206  1.00  0.00    -0.111 C  
HETATM    6  C   UNL     1     -10.475   8.875  65.350  1.00  0.00     1.924 C  
HETATM    7  C   UNL     1      -8.037   9.362  67.525  1.00  0.00    -0.110 C  
HETATM    8  C   UNL     1      -6.905   8.857  68.407  1.00  0.00    -0.065 C  
HETATM    9  C   UNL     1      -5.819   9.953  68.733  1.00  0.00    -0.038 C  
HETATM   10  C   UNL     1      -6.255   7.561  67.868  1.00  0.00    -0.048 C  
HETATM   11  C   UNL     1      -5.147  10.485  67.460  1.00  0.00    -0.036 C  
HETATM   12  C   UNL     1      -5.892  11.755  67.075  1.00  0.00    -0.145 C  
HETATM   13  C   UNL     1      -6.732  12.198  68.290  1.00  0.00    -0.063 C  
HETATM   14  C   UNL     1      -6.680  13.708  68.515  1.00  0.00    -0.095 C  
HETATM   15  C   UNL     1      -6.604  14.122  69.963  1.00  0.00    -0.059 C  
HETATM   16  C   UNL     1      -6.755  14.574  67.481  1.00  0.00    -0.141 C  
HETATM   17  C   UNL     1      -7.380  10.949  70.515  1.00  0.00     1.200 C  
HETATM   18  C   UNL     1      -5.533  13.370  70.765  1.00  0.00    -0.166 C  
HETATM   19  C   UNL     1      -6.287  11.271  69.470  1.00  0.00    -0.109 C  
HETATM   20  C   UNL     1      -5.129  11.990  70.210  1.00  0.00    -0.094 C  
ENDROOT
BRANCH  16  21
HETATM   21  C   UNL     1      -7.039  15.984  67.606  1.00  0.00    -0.178 C  
HETATM   22  C   UNL     1      -8.182  16.632  67.308  1.00  0.00    -0.197 C  
HETATM   23  C   UNL     1      -9.377  16.068  66.559  1.00  0.00    -0.296 C  
HETATM   24  C   UNL     1     -10.624  16.044  67.452  1.00  0.00    -0.316 C  
HETATM   25  C   UNL     1     -10.888  17.398  68.112  1.00  0.00    -0.273 C  
HETATM   26  O   UNL     1     -10.493  15.033  68.451  1.00  0.00    -0.230 OA 
HETATM   27  C   UNL     1      -9.647  17.966  68.811  1.00  0.00    -0.290 C  
HETATM   28  H   UNL     1     -11.265  15.019  69.004  1.00  0.00     0.000 HD 
HETATM   29  C   UNL     1      -8.403  18.015  67.906  1.00  0.00    -0.249 C  
HETATM   30  C   UNL     1      -8.466  19.130  66.868  1.00  0.00    -0.309 C  
ENDBRANCH  16  21
TORSDOF 1
ENDMDL
MODEL      110
REMARK 921   NORMALIZED FREE ENERGY PREDICTED BY IDOCK:   -1.33 KCAL/MOL
REMARK 922        TOTAL FREE ENERGY PREDICTED BY IDOCK:   -2.13 KCAL/MOL
REMARK 923 INTER-LIGAND FREE ENERGY PREDICTED BY IDOCK:   -1.94 KCAL/MOL
REMARK 924 INTRA-LIGAND FREE ENERGY PREDICTED BY IDOCK:   -0.19 KCAL/MOL
REMARK 927      BINDING AFFINITY PREDICTED BY RF-SCORE:    0.00 PKD
ROOT
HETATM    1  C   UNL     1      -8.115  15.612  66.642  1.00  0.00    -0.239 C  
HETATM    2  C   UNL     1      -7.501  14.429  67.404  1.00  0.00    -0.183 C  
HETATM    3  C   UNL     1      -8.128  14.172  68.807  1.00  0.00    -0.088 C  
HETATM    4  C   UNL     1      -5.984  14.623  67.487  1.00  0.00     0.066 C  
HETATM    5  C   UNL     1      -9.580  13.764  68.691  1.00  0.00    -0.121 C  
HETATM    6  C   UNL     1      -8.005  15.350  69.776  1.00  0.00    -0.041 C  
HETATM    7  C   UNL     1     -10.186  12.883  69.504  1.00  0.00     0.777 C  
HETATM    8  C   UNL     1     -11.604  12.358  69.345  1.00  0.00    -0.371 C  
HETATM    9  C   UNL     1     -11.679  10.917  68.709  1.00  0.00    -0.355 C  
HETATM   10  C   UNL     1     -12.533  13.349  68.607  1.00  0.00     0.309 C  
HETATM   11  C   UNL     1     -11.064  10.883  67.303  1.00  0.00    -0.350 C  
HETATM   12  C   UNL     1      -9.625  10.417  67.470  1.00  0.00    -0.178 C  
HETATM   13  C   UNL     1      -9.484   9.809  68.880  1.00  0.00    -0.161 C  
HETATM   14  C   UNL     1      -8.654   8.526  68.881  1.00  0.00    -0.127 C  
HETATM   15  C   UNL     1      -9.170   7.448  69.800  1.00  0.00    -0.140 C  
HETATM   16  C   UNL     1      -7.523   8.423  68.150  1.00  0.00    -0.097 C  
HETATM   17  C   UNL     1     -11.063   9.895  70.986  1.00  0.00    -0.401 C  
HETATM   18  C   UNL     1     -10.673   7.177  69.649  1.00  0.00    -0.256 C  
HETATM   19  C   UNL     1     -10.939   9.734  69.452  1.00  0.00    -0.241 C  
HETATM   20  C   UNL     1     -11.510   8.341  69.082  1.00  0.00     0.701 C  
ENDROOT
BRANCH  16  21
HETATM   21  C   UNL     1      -6.515   7.405  68.330  1.00  0.00    -0.045 C  
HETATM   22  C   UNL     1      -6.598   6.093  68.037  1.00  0.00    -0.062 C  
HETATM   23  C   UNL     1      -7.851   5.325  67.651  1.00  0.00    -0.096 C  
HETATM   24  C   UNL     1      -7.735   4.764  66.229  1.00  0.00    -0.091 C  
HETATM   25  C   UNL     1      -6.439   3.980  66.020  1.00  0.00    -0.037 C  
HETATM   26  O   UNL     1      -7.823   5.822  65.275  1.00  0.00    -0.095 OA 
HETATM   27  C   UNL     1      -5.198   4.761  66.471  1.00  0.00    -0.009 C  
HETATM   28  H   UNL     1      -7.751   5.474  64.394  1.00  0.00     0.000 HD 
HETATM   29  C   UNL     1      -5.303   5.300  67.909  1.00  0.00    -0.011 C  
HETATM   30  C   UNL     1      -5.142   4.214  68.966  1.00  0.00    -0.004 C  
ENDBRANCH  16  21
TORSDOF 1
ENDMDL
MODEL      111
REMARK 921   NORMALIZED FREE ENERGY PREDICTED BY IDOCK:   -1.27 KCAL/MOL
REMARK 922        TOTAL FREE ENERGY PREDICTED BY IDOCK:   -2.07 KCAL/MOL
REMARK 923 INTER-LIGAND FREE ENERGY PREDICTED BY IDOCK:   -1.63 KCAL/MOL
REMARK 924 INTRA-LIGAND FREE ENERGY PREDICTED BY IDOCK:   -0.44 KCAL/MOL
REMARK 927      BINDING AFFINITY PREDICTED BY RF-SCORE:    0.00 PKD
ROOT
HETATM    1  C   UNL     1      -5.457  19.757  70.328  1.00  0.00    -0.274 C  
HETATM    2  C   UNL     1      -6.951  19.405  70.317  1.00  0.00     0.296 C  
HETATM    3  C   UNL     1      -7.681  19.732  68.979  1.00  0.00    -0.234 C  
HETATM    4  C   UNL     1      -7.631  20.077  71.513  1.00  0.00     1.631 C  
HETATM    5  C   UNL     1      -7.141  18.893  67.842  1.00  0.00    -0.253 C  
HETATM    6  C   UNL     1      -7.638  21.210  68.586  1.00  0.00     1.415 C  
HETATM    7  C   UNL     1      -7.886  18.424  66.828  1.00  0.00    -0.253 C  
HETATM    8  C   UNL     1      -7.408  17.480  65.737  1.00  0.00    -0.021 C  
HETATM    9  C   UNL     1      -7.841  15.981  65.961  1.00  0.00     0.615 C  
HETATM   10  C   UNL     1      -5.890  17.594  65.467  1.00  0.00     0.080 C  
HETATM   11  C   UNL     1      -7.281  15.416  67.273  1.00  0.00    -0.229 C  
HETATM   12  C   UNL     1      -8.373  15.584  68.320  1.00  0.00    -0.147 C  
HETATM   13  C   UNL     1      -9.695  15.876  67.582  1.00  0.00    -0.223 C  
HETATM   14  C   UNL     1     -10.878  15.118  68.182  1.00  0.00    -0.266 C  
HETATM   15  C   UNL     1     -11.852  14.576  67.167  1.00  0.00    -0.412 C  
HETATM   16  C   UNL     1     -11.035  15.010  69.519  1.00  0.00    -0.281 C  
HETATM   17  C   UNL     1     -10.191  16.544  65.083  1.00  0.00     0.085 C  
HETATM   18  C   UNL     1     -11.184  13.810  66.017  1.00  0.00    -0.307 C  
HETATM   19  C   UNL     1      -9.385  15.658  66.063  1.00  0.00    -0.384 C  
HETATM   20  C   UNL     1      -9.714  14.179  65.733  1.00  0.00    -0.246 C  
ENDROOT
BRANCH  16  21
HETATM   21  C   UNL     1     -12.258  14.610  70.175  1.00  0.00    -0.391 C  
HETATM   22  C   UNL     1     -12.541  14.632  71.491  1.00  0.00    -0.410 C  
HETATM   23  C   UNL     1     -11.562  14.876  72.627  1.00  0.00    -0.201 C  
HETATM   24  C   UNL     1     -11.921  16.152  73.397  1.00  0.00    -0.408 C  
HETATM   25  C   UNL     1     -13.387  16.175  73.828  1.00  0.00    -0.180 C  
HETATM   26  O   UNL     1     -11.629  17.303  72.604  1.00  0.00    -0.095 OA 
HETATM   27  C   UNL     1     -14.347  15.871  72.670  1.00  0.00    -0.102 C  
HETATM   28  H   UNL     1     -11.851  18.093  73.081  1.00  0.00     0.000 HD 
HETATM   29  C   UNL     1     -14.003  14.574  71.915  1.00  0.00    -0.569 C  
HETATM   30  C   UNL     1     -14.366  13.316  72.696  1.00  0.00     0.137 C  
ENDBRANCH  16  21
TORSDOF 1
ENDMDL
MODEL      112
REMARK 921   NORMALIZED FREE ENERGY PREDICTED BY IDOCK:   -1.21 KCAL/MOL
REMARK 922        TOTAL FREE ENERGY PREDICTED BY IDOCK:   -2.01 KCAL/MOL
REMARK 923 INTER-LIGAND FREE ENERGY PREDICTED BY IDOCK:   -1.23 KCAL/MOL
REMARK 924 INTRA-LIGAND FREE ENERGY PREDICTED BY IDOCK:   -0.77 KCAL/MOL
REMARK 927      BINDING AFFINITY PREDICTED BY RF-SCORE:    0.00 PKD
ROOT
HETATM    1  C   UNL     1     -12.378  16.204  72.818  1.00  0.00    -0.585 C  
HETATM    2  C   UNL     1     -12.114  14.827  72.193  1.00  0.00    -0.378 C  
HETATM    3  C   UNL     1     -12.333  14.765  70.652  1.00  0.00    -0.401 C  
HETATM    4  C   UNL     1     -12.953  13.777  72.928  1.00  0.00    -0.249 C  
HETATM    5  C   UNL     1     -11.344  15.648  69.923  1.00  0.00    -0.340 C  
HETATM    6  C   UNL     1     -13.754  15.117  70.205  1.00  0.00     0.487 C  
HETATM    7  C   UNL     1     -10.811  15.357  68.725  1.00  0.00    -0.252 C  
HETATM    8  C   UNL     1      -9.726  16.154  68.019  1.00  0.00    -0.229 C  
HETATM    9  C   UNL     1      -8.288  15.520  68.147  1.00  0.00    -0.145 C  
HETATM   10  C   UNL     1      -9.721  17.648  68.418  1.00  0.00    -0.321 C  
HETATM   11  C   UNL     1      -7.840  15.416  69.611  1.00  0.00    -0.149 C  
HETATM   12  C   UNL     1      -8.185  14.007  70.072  1.00  0.00     1.494 C  
HETATM   13  C   UNL     1      -8.470  13.155  68.818  1.00  0.00     0.142 C  
HETATM   14  C   UNL     1      -7.852  11.761  68.908  1.00  0.00    -0.013 C  
HETATM   15  C   UNL     1      -7.259  11.256  67.617  1.00  0.00    -0.092 C  
HETATM   16  C   UNL     1      -7.902  11.045  70.052  1.00  0.00     0.814 C  
HETATM   17  C   UNL     1      -8.886  13.828  66.307  1.00  0.00     0.221 C  
HETATM   18  C   UNL     1      -6.334  12.267  66.926  1.00  0.00     0.067 C  
HETATM   19  C   UNL     1      -8.068  14.053  67.600  1.00  0.00    -0.180 C  
HETATM   20  C   UNL     1      -6.583  13.748  67.273  1.00  0.00     0.242 C  
ENDROOT
BRANCH  16  21
HETATM   21  C   UNL     1      -7.648   9.626  70.148  1.00  0.00    -0.165 C  
HETATM   22  C   UNL     1      -8.507   8.612  69.937  1.00  0.00    -0.129 C  
HETATM   23  C   UNL     1     -10.013   8.718  69.763  1.00  0.00    -0.193 C  
HETATM   24  C   UNL     1     -10.440   8.242  68.369  1.00  0.00    -0.162 C  
HETATM   25  C   UNL     1      -9.871   6.864  68.029  1.00  0.00    -0.153 C  
HETATM   26  O   UNL     1     -10.036   9.191  67.381  1.00  0.00    -0.197 OA 
HETATM   27  C   UNL     1      -8.359   6.773  68.268  1.00  0.00    -0.118 C  
HETATM   28  H   UNL     1     -10.300   8.896  66.518  1.00  0.00     0.000 HD 
HETATM   29  C   UNL     1      -7.935   7.224  69.678  1.00  0.00    -0.127 C  
HETATM   30  C   UNL     1      -8.281   6.206  70.758  1.00  0.00    -0.125 C  
ENDBRANCH  16  21
TORSDOF 1
ENDMDL
MODEL      113
REMARK 921   NORMALIZED FREE ENERGY PREDICTED BY IDOCK:   -1.01 KCAL/MOL
REMARK 922        TOTAL FREE ENERGY PREDICTED BY IDOCK:   -1.80 KCAL/MOL
REMARK 923 INTER-LIGAND FREE ENERGY PREDICTED BY IDOCK:   -1.23 KCAL/MOL
REMARK 924 INTRA-LIGAND FREE ENERGY PREDICTED BY IDOCK:   -0.56 KCAL/MOL
REMARK 927      BINDING AFFINITY PREDICTED BY RF-SCORE:    0.00 PKD
ROOT
HETATM    1  C   UNL     1      -7.911  18.172  65.892  1.00  0.00    -0.088 C  
HETATM    2  C   UNL     1      -7.462  16.829  66.486  1.00  0.00    -0.322 C  
HETATM    3  C   UNL     1      -7.879  16.610  67.971  1.00  0.00    -0.173 C  
HETATM    4  C   UNL     1      -5.950  16.679  66.293  1.00  0.00     0.597 C  
HETATM    5  C   UNL     1      -9.384  16.541  68.112  1.00  0.00    -0.218 C  
HETATM    6  C   UNL     1      -7.325  17.657  68.940  1.00  0.00    -0.239 C  
HETATM    7  C   UNL     1     -10.026  15.756  68.992  1.00  0.00    -0.234 C  
HETATM    8  C   UNL     1     -11.532  15.567  69.081  1.00  0.00    -0.356 C  
HETATM    9  C   UNL     1     -12.043  14.230  68.421  1.00  0.00    -0.297 C  
HETATM   10  C   UNL     1     -12.322  16.790  68.562  1.00  0.00     1.834 C  
HETATM   11  C   UNL     1     -11.705  14.167  66.926  1.00  0.00    -0.437 C  
HETATM   12  C   UNL     1     -10.404  13.386  66.807  1.00  0.00    -0.263 C  
HETATM   13  C   UNL     1     -10.165  12.658  68.145  1.00  0.00    -0.240 C  
HETATM   14  C   UNL     1      -9.663  11.228  67.949  1.00  0.00    -0.185 C  
HETATM   15  C   UNL     1     -10.246  10.224  68.911  1.00  0.00    -0.220 C  
HETATM   16  C   UNL     1      -8.730  10.935  67.018  1.00  0.00    -0.141 C  
HETATM   17  C   UNL     1     -11.294  12.930  70.508  1.00  0.00     0.737 C  
HETATM   18  C   UNL     1     -11.775  10.300  69.031  1.00  0.00    -0.083 C  
HETATM   19  C   UNL     1     -11.478  12.861  68.974  1.00  0.00    -0.358 C  
HETATM   20  C   UNL     1     -12.408  11.658  68.669  1.00  0.00     0.252 C  
ENDROOT
BRANCH  16  21
HETATM   21  C   UNL     1      -7.967   9.710  66.974  1.00  0.00    -0.109 C  
HETATM   22  C   UNL     1      -6.939   9.342  67.762  1.00  0.00    -0.081 C  
HETATM   23  C   UNL     1      -6.189  10.222  68.748  1.00  0.00    -0.047 C  
HETATM   24  C   UNL     1      -6.362   9.709  70.183  1.00  0.00    -0.069 C  
HETATM   25  C   UNL     1      -6.036   8.221  70.309  1.00  0.00    -0.031 C  
HETATM   26  O   UNL     1      -7.693   9.956  70.636  1.00  0.00    -0.335 OA 
HETATM   27  C   UNL     1      -6.766   7.367  69.264  1.00  0.00    -0.041 C  
HETATM   28  H   UNL     1      -7.800   9.638  71.525  1.00  0.00     0.000 HD 
HETATM   29  C   UNL     1      -6.569   7.865  67.821  1.00  0.00    -0.060 C  
HETATM   30  C   UNL     1      -5.182   7.558  67.269  1.00  0.00    -0.026 C  
ENDBRANCH  16  21
TORSDOF 1
ENDMDL
MODEL      114
REMARK 921   NORMALIZED FREE ENERGY PREDICTED BY IDOCK:   -0.87 KCAL/MOL
REMARK 922        TOTAL FREE ENERGY PREDICTED BY IDOCK:   -1.65 KCAL/MOL
REMARK 923 INTER-LIGAND FREE ENERGY PREDICTED BY IDOCK:   -1.11 KCAL/MOL
REMARK 924 INTRA-LIGAND FREE ENERGY PREDICTED BY IDOCK:   -0.54 KCAL/MOL
REMARK 927      BINDING AFFINITY PREDICTED BY RF-SCORE:    0.00 PKD
ROOT
HETATM    1  C   UNL     1     -10.102   4.040  62.514  1.00  0.00    -0.160 C  
HETATM    2  C   UNL     1     -10.347   4.023  64.030  1.00  0.00    -0.171 C  
HETATM    3  C   UNL     1      -9.166   3.448  64.868  1.00  0.00    -0.145 C  
HETATM    4  C   UNL     1     -11.657   3.282  64.313  1.00  0.00     1.871 C  
HETATM    5  C   UNL     1      -7.936   4.321  64.749  1.00  0.00    -0.090 C  
HETATM    6  C   UNL     1      -8.799   2.002  64.527  1.00  0.00    -0.106 C  
HETATM    7  C   UNL     1      -7.061   4.534  65.744  1.00  0.00    -0.067 C  
HETATM    8  C   UNL     1      -5.884   5.496  65.702  1.00  0.00    -0.024 C  
HETATM    9  C   UNL     1      -6.153   6.859  66.449  1.00  0.00    -0.034 C  
HETATM   10  C   UNL     1      -5.353   5.734  64.270  1.00  0.00    -0.016 C  
HETATM   11  C   UNL     1      -7.335   7.621  65.835  1.00  0.00    -0.074 C  
HETATM   12  C   UNL     1      -8.561   7.261  66.662  1.00  0.00    -0.128 C  
HETATM   13  C   UNL     1      -8.073   6.615  67.975  1.00  0.00    -0.110 C  
HETATM   14  C   UNL     1      -8.858   7.103  69.192  1.00  0.00    -0.135 C  
HETATM   15  C   UNL     1      -8.020   7.332  70.425  1.00  0.00    -0.104 C  
HETATM   16  C   UNL     1     -10.199   7.252  69.146  1.00  0.00    -0.197 C  
HETATM   17  C   UNL     1      -5.714   5.696  68.699  1.00  0.00    -0.018 C  
HETATM   18  C   UNL     1      -6.756   8.163  70.166  1.00  0.00    -0.036 C  
HETATM   19  C   UNL     1      -6.519   6.807  67.986  1.00  0.00    -0.053 C  
HETATM   20  C   UNL     1      -6.224   8.141  68.720  1.00  0.00    -0.044 C  
ENDROOT
BRANCH  16  21
HETATM   21  C   UNL     1     -11.053   7.387  70.303  1.00  0.00    -0.278 C  
HETATM   22  C   UNL     1     -11.398   8.513  70.954  1.00  0.00    -0.304 C  
HETATM   23  C   UNL     1     -10.796   9.895  70.762  1.00  0.00    -0.387 C  
HETATM   24  C   UNL     1     -11.846  10.886  70.246  1.00  0.00    -0.361 C  
HETATM   25  C   UNL     1     -13.117  10.876  71.096  1.00  0.00    -0.351 C  
HETATM   26  O   UNL     1     -12.168  10.596  68.886  1.00  0.00    -0.757 OA 
HETATM   27  C   UNL     1     -13.669   9.463  71.317  1.00  0.00    -0.248 C  
HETATM   28  H   UNL     1     -12.819  11.209  68.566  1.00  0.00     0.000 HD 
HETATM   29  C   UNL     1     -12.621   8.475  71.862  1.00  0.00    -0.400 C  
HETATM   30  C   UNL     1     -12.299   8.702  73.335  1.00  0.00     1.819 C  
ENDBRANCH  16  21
TORSDOF 1
ENDMDL
MODEL      115
REMARK 921   NORMALIZED FREE ENERGY PREDICTED BY IDOCK:   -0.83 KCAL/MOL
REMARK 922        TOTAL FREE ENERGY PREDICTED BY IDOCK:   -1.60 KCAL/MOL
REMARK 923 INTER-LIGAND FREE ENERGY PREDICTED BY IDOCK:   -1.11 KCAL/MOL
REMARK 924 INTRA-LIGAND FREE ENERGY PREDICTED BY IDOCK:   -0.49 KCAL/MOL
REMARK 927      BINDING AFFINITY PREDICTED BY RF-SCORE:    0.00 PKD
ROOT
HETATM    1  C   UNL     1     -12.359  11.951  71.875  1.00  0.00     0.429 C  
HETATM    2  C   UNL     1     -11.982  10.526  71.448  1.00  0.00    -0.325 C  
HETATM    3  C   UNL     1     -11.850  10.328  69.908  1.00  0.00    -0.267 C  
HETATM    4  C   UNL     1     -12.981   9.541  72.062  1.00  0.00    -0.514 C  
HETATM    5  C   UNL     1     -10.708  11.148  69.347  1.00  0.00    -0.220 C  
HETATM    6  C   UNL     1     -13.128  10.633  69.123  1.00  0.00     1.852 C  
HETATM    7  C   UNL     1      -9.923  10.755  68.331  1.00  0.00    -0.174 C  
HETATM    8  C   UNL     1      -8.695  11.492  67.821  1.00  0.00    -0.142 C  
HETATM    9  C   UNL     1      -7.333  10.878  68.326  1.00  0.00    -0.087 C  
HETATM   10  C   UNL     1      -8.757  13.015  68.081  1.00  0.00    -0.190 C  
HETATM   11  C   UNL     1      -7.227  10.905  69.856  1.00  0.00     0.006 C  
HETATM   12  C   UNL     1      -7.689   9.540  70.347  1.00  0.00    -0.177 C  
HETATM   13  C   UNL     1      -7.698   8.581  69.140  1.00  0.00    -0.091 C  
HETATM   14  C   UNL     1      -7.138   7.202  69.486  1.00  0.00    -0.071 C  
HETATM   15  C   UNL     1      -6.277   6.589  68.411  1.00  0.00    -0.033 C  
HETATM   16  C   UNL     1      -7.456   6.589  70.647  1.00  0.00    -0.080 C  
HETATM   17  C   UNL     1      -7.527   9.029  66.551  1.00  0.00    -0.089 C  
HETATM   18  C   UNL     1      -5.205   7.540  67.862  1.00  0.00    -0.026 C  
HETATM   19  C   UNL     1      -7.018   9.370  67.971  1.00  0.00    -0.079 C  
HETATM   20  C   UNL     1      -5.503   9.044  68.015  1.00  0.00    -0.035 C  
ENDROOT
BRANCH  16  21
HETATM   21  C   UNL     1      -7.251   5.186  70.920  1.00  0.00    -0.064 C  
HETATM   22  C   UNL     1      -7.966   4.384  71.732  1.00  0.00    -0.089 C  
HETATM   23  C   UNL     1      -9.028   4.815  72.730  1.00  0.00    -0.127 C  
HETATM   24  C   UNL     1     -10.398   4.236  72.359  1.00  0.00    -0.160 C  
HETATM   25  C   UNL     1     -10.344   2.726  72.126  1.00  0.00    -0.073 C  
HETATM   26  O   UNL     1     -10.910   4.889  71.198  1.00  0.00    -0.013 OA 
HETATM   27  C   UNL     1      -9.227   2.318  71.158  1.00  0.00    -0.188 C  
HETATM   28  H   UNL     1     -11.759   4.530  70.968  1.00  0.00     0.000 HD 
HETATM   29  C   UNL     1      -7.846   2.877  71.546  1.00  0.00    -0.052 C  
HETATM   30  C   UNL     1      -7.227   2.159  72.740  1.00  0.00    -0.032 C  
ENDBRANCH  16  21
TORSDOF 1
ENDMDL
MODEL      116
REMARK 921   NORMALIZED FREE ENERGY PREDICTED BY IDOCK:   -0.69 KCAL/MOL
REMARK 922        TOTAL FREE ENERGY PREDICTED BY IDOCK:   -1.45 KCAL/MOL
REMARK 923 INTER-LIGAND FREE ENERGY PREDICTED BY IDOCK:   -0.92 KCAL/MOL
REMARK 924 INTRA-LIGAND FREE ENERGY PREDICTED BY IDOCK:   -0.53 KCAL/MOL
REMARK 927      BINDING AFFINITY PREDICTED BY RF-SCORE:    0.00 PKD
ROOT
HETATM    1  C   UNL     1     -13.973  15.221  70.239  1.00  0.00     0.870 C  
HETATM    2  C   UNL     1     -12.534  14.718  70.063  1.00  0.00    -0.327 C  
HETATM    3  C   UNL     1     -11.965  13.947  71.292  1.00  0.00    -0.124 C  
HETATM    4  C   UNL     1     -11.639  15.897  69.670  1.00  0.00    -0.339 C  
HETATM    5  C   UNL     1     -12.730  12.664  71.534  1.00  0.00    -0.326 C  
HETATM    6  C   UNL     1     -11.924  14.767  72.584  1.00  0.00    -0.261 C  
HETATM    7  C   UNL     1     -12.176  11.528  71.986  1.00  0.00     0.950 C  
HETATM    8  C   UNL     1     -12.883  10.189  72.125  1.00  0.00    -0.381 C  
HETATM    9  C   UNL     1     -12.564   9.179  70.957  1.00  0.00    -0.211 C  
HETATM   10  C   UNL     1     -14.407  10.334  72.344  1.00  0.00     0.811 C  
HETATM   11  C   UNL     1     -12.990   9.733  69.592  1.00  0.00     1.404 C  
HETATM   12  C   UNL     1     -11.755  10.379  68.980  1.00  0.00    -0.167 C  
HETATM   13  C   UNL     1     -10.524   9.888  69.769  1.00  0.00    -0.292 C  
HETATM   14  C   UNL     1      -9.346   9.547  68.858  1.00  0.00    -0.149 C  
HETATM   15  C   UNL     1      -8.573   8.320  69.269  1.00  0.00    -0.138 C  
HETATM   16  C   UNL     1      -9.019  10.336  67.811  1.00  0.00    -0.135 C  
HETATM   17  C   UNL     1     -10.314   8.627  72.070  1.00  0.00    -0.416 C  
HETATM   18  C   UNL     1      -9.459   7.102  69.565  1.00  0.00    -0.151 C  
HETATM   19  C   UNL     1     -11.056   8.765  70.721  1.00  0.00    -0.306 C  
HETATM   20  C   UNL     1     -10.913   7.416  69.969  1.00  0.00    -0.264 C  
ENDROOT
BRANCH  16  21
HETATM   21  C   UNL     1      -7.761  10.287  67.104  1.00  0.00    -0.092 C  
HETATM   22  C   UNL     1      -7.466   9.609  65.979  1.00  0.00    -0.099 C  
HETATM   23  C   UNL     1      -8.325   8.555  65.301  1.00  0.00    -0.168 C  
HETATM   24  C   UNL     1      -8.751   9.010  63.900  1.00  0.00    -0.083 C  
HETATM   25  C   UNL     1      -7.563   9.477  63.058  1.00  0.00    -0.111 C  
HETATM   26  O   UNL     1      -9.719  10.054  63.996  1.00  0.00    -0.353 OA 
HETATM   27  C   UNL     1      -6.685  10.499  63.791  1.00  0.00     0.084 C  
HETATM   28  H   UNL     1      -9.983  10.337  63.128  1.00  0.00     0.000 HD 
HETATM   29  C   UNL     1      -6.234  10.029  65.186  1.00  0.00    -0.109 C  
HETATM   30  C   UNL     1      -5.146   8.964  65.133  1.00  0.00    -0.037 C  
ENDBRANCH  16  21
TORSDOF 1
ENDMDL
MODEL      117
REMARK 921   NORMALIZED FREE ENERGY PREDICTED BY IDOCK:   -0.68 KCAL/MOL
REMARK 922        TOTAL FREE ENERGY PREDICTED BY IDOCK:   -1.44 KCAL/MOL
REMARK 923 INTER-LIGAND FREE ENERGY PREDICTED BY IDOCK:   -0.66 KCAL/MOL
REMARK 924 INTRA-LIGAND FREE ENERGY PREDICTED BY IDOCK:   -0.78 KCAL/MOL
REMARK 927      BINDING AFFINITY PREDICTED BY RF-SCORE:    0.00 PKD
ROOT
HETATM    1  C   UNL     1     -11.636  15.313  66.659  1.00  0.00    -0.036 C  
HETATM    2  C   UNL     1     -10.689  14.104  66.621  1.00  0.00    -0.289 C  
HETATM    3  C   UNL     1      -9.957  13.816  67.966  1.00  0.00    -0.246 C  
HETATM    4  C   UNL     1      -9.702  14.282  65.464  1.00  0.00    -0.189 C  
HETATM    5  C   UNL     1     -10.938  13.426  69.050  1.00  0.00    -0.265 C  
HETATM    6  C   UNL     1      -9.080  14.968  68.463  1.00  0.00    -0.188 C  
HETATM    7  C   UNL     1     -10.680  12.530  70.016  1.00  0.00     1.070 C  
HETATM    8  C   UNL     1     -11.677  12.023  71.046  1.00  0.00     0.695 C  
HETATM    9  C   UNL     1     -12.267  10.599  70.709  1.00  0.00    -0.474 C  
HETATM   10  C   UNL     1     -12.800  13.041  71.348  1.00  0.00    -0.385 C  
HETATM   11  C   UNL     1     -13.016  10.596  69.370  1.00  0.00     0.910 C  
HETATM   12  C   UNL     1     -12.026  10.112  68.320  1.00  0.00     0.940 C  
HETATM   13  C   UNL     1     -10.834   9.466  69.055  1.00  0.00    -0.161 C  
HETATM   14  C   UNL     1     -10.365   8.176  68.384  1.00  0.00    -0.236 C  
HETATM   15  C   UNL     1      -9.974   7.080  69.342  1.00  0.00    -0.165 C  
HETATM   16  C   UNL     1     -10.267   8.082  67.040  1.00  0.00    -0.374 C  
HETATM   17  C   UNL     1     -10.108   9.513  71.586  1.00  0.00     0.176 C  
HETATM   18  C   UNL     1     -11.009   6.826  70.446  1.00  0.00    -0.330 C  
HETATM   19  C   UNL     1     -11.259   9.391  70.560  1.00  0.00    -0.329 C  
HETATM   20  C   UNL     1     -11.935   8.013  70.780  1.00  0.00    -0.132 C  
ENDROOT
BRANCH  16  21
HETATM   21  C   UNL     1      -9.542   7.049  66.337  1.00  0.00    -0.159 C  
HETATM   22  C   UNL     1      -8.233   7.020  66.023  1.00  0.00    -0.129 C  
HETATM   23  C   UNL     1      -7.245   8.169  66.136  1.00  0.00    -0.066 C  
HETATM   24  C   UNL     1      -6.136   7.843  67.144  1.00  0.00    -0.053 C  
HETATM   25  C   UNL     1      -5.483   6.489  66.868  1.00  0.00    -0.013 C  
HETATM   26  O   UNL     1      -6.658   7.869  68.473  1.00  0.00    -0.057 OA 
HETATM   27  C   UNL     1      -6.509   5.361  66.703  1.00  0.00    -0.044 C  
HETATM   28  H   UNL     1      -5.971   7.667  69.098  1.00  0.00     0.000 HD 
HETATM   29  C   UNL     1      -7.606   5.677  65.670  1.00  0.00    -0.086 C  
HETATM   30  C   UNL     1      -7.111   5.590  64.231  1.00  0.00    -0.049 C  
ENDBRANCH  16  21
TORSDOF 1
ENDMDL
MODEL      118
REMARK 921   NORMALIZED FREE ENERGY PREDICTED BY IDOCK:   -0.61 KCAL/MOL
REMARK 922        TOTAL FREE ENERGY PREDICTED BY IDOCK:   -1.37 KCAL/MOL
REMARK 923 INTER-LIGAND FREE ENERGY PREDICTED BY IDOCK:   -2.07 KCAL/MOL
REMARK 924 INTRA-LIGAND FREE ENERGY PREDICTED BY IDOCK:    0.70 KCAL/MOL
REMARK 927      BINDING AFFINITY PREDICTED BY RF-SCORE:    0.00 PKD
ROOT
HETATM    1  C   UNL     1      -7.404   2.707  69.588  1.00  0.00    -0.044 C  
HETATM    2  C   UNL     1      -6.628   4.003  69.318  1.00  0.00    -0.040 C  
HETATM    3  C   UNL     1      -6.149   4.173  67.845  1.00  0.00    -0.032 C  
HETATM    4  C   UNL     1      -5.463   4.102  70.308  1.00  0.00    -0.012 C  
HETATM    5  C   UNL     1      -7.323   4.295  66.899  1.00  0.00    -0.077 C  
HETATM    6  C   UNL     1      -5.215   3.063  67.356  1.00  0.00    -0.009 C  
HETATM    7  C   UNL     1      -7.332   5.066  65.800  1.00  0.00    -0.077 C  
HETATM    8  C   UNL     1      -8.529   5.309  64.895  1.00  0.00    -0.150 C  
HETATM    9  C   UNL     1      -9.241   6.693  65.145  1.00  0.00     0.588 C  
HETATM   10  C   UNL     1      -9.543   4.142  64.912  1.00  0.00    -0.178 C  
HETATM   11  C   UNL     1      -9.775   6.809  66.579  1.00  0.00    -0.183 C  
HETATM   12  C   UNL     1      -8.710   7.542  67.381  1.00  0.00    -0.124 C  
HETATM   13  C   UNL     1      -7.735   8.201  66.384  1.00  0.00    -0.092 C  
HETATM   14  C   UNL     1      -7.342   9.617  66.802  1.00  0.00    -0.091 C  
HETATM   15  C   UNL     1      -7.245  10.600  65.663  1.00  0.00    -0.084 C  
HETATM   16  C   UNL     1      -7.057   9.913  68.088  1.00  0.00    -0.077 C  
HETATM   17  C   UNL     1      -7.398   7.869  63.793  1.00  0.00    -0.103 C  
HETATM   18  C   UNL     1      -8.459  10.579  64.724  1.00  0.00    -0.150 C  
HETATM   19  C   UNL     1      -8.388   8.013  64.973  1.00  0.00    -0.121 C  
HETATM   20  C   UNL     1      -9.263   9.264  64.699  1.00  0.00    -0.112 C  
ENDROOT
BRANCH  16  21
HETATM   21  C   UNL     1      -6.375  11.108  68.526  1.00  0.00    -0.046 C  
HETATM   22  C   UNL     1      -6.693  12.390  68.266  1.00  0.00    -0.070 C  
HETATM   23  C   UNL     1      -7.722  12.885  67.263  1.00  0.00    -0.122 C  
HETATM   24  C   UNL     1      -8.858  13.638  67.967  1.00  0.00    -0.187 C  
HETATM   25  C   UNL     1      -8.336  14.724  68.907  1.00  0.00    -0.163 C  
HETATM   26  O   UNL     1      -9.679  12.722  68.691  1.00  0.00    -0.375 OA 
HETATM   27  C   UNL     1      -7.260  14.206  69.869  1.00  0.00     0.253 C  
HETATM   28  H   UNL     1     -10.382  13.188  69.127  1.00  0.00     0.000 HD 
HETATM   29  C   UNL     1      -6.105  13.475  69.159  1.00  0.00    -0.091 C  
HETATM   30  C   UNL     1      -5.159  14.423  68.432  1.00  0.00    -0.105 C  
ENDBRANCH  16  21
TORSDOF 1
ENDMDL
MODEL      119
REMARK 921   NORMALIZED FREE ENERGY PREDICTED BY IDOCK:   -0.48 KCAL/MOL
REMARK 922        TOTAL FREE ENERGY PREDICTED BY IDOCK:   -1.23 KCAL/MOL
REMARK 923 INTER-LIGAND FREE ENERGY PREDICTED BY IDOCK:   -0.50 KCAL/MOL
REMARK 924 INTRA-LIGAND FREE ENERGY PREDICTED BY IDOCK:   -0.73 KCAL/MOL
REMARK 927      BINDING AFFINITY PREDICTED BY RF-SCORE:    0.00 PKD
ROOT
HETATM    1  C   UNL     1     -12.942  13.251  70.135  1.00  0.00     0.359 C  
HETATM    2  C   UNL     1     -12.133  12.030  70.594  1.00  0.00    -0.369 C  
HETATM    3  C   UNL     1     -12.233  10.797  69.647  1.00  0.00    -0.325 C  
HETATM    4  C   UNL     1     -12.534  11.677  72.029  1.00  0.00     0.337 C  
HETATM    5  C   UNL     1     -11.628  11.097  68.293  1.00  0.00    -0.359 C  
HETATM    6  C   UNL     1     -13.654  10.261  69.462  1.00  0.00     2.396 C  
HETATM    7  C   UNL     1     -10.964  10.201  67.546  1.00  0.00    -0.319 C  
HETATM    8  C   UNL     1     -10.239  10.494  66.242  1.00  0.00    -0.296 C  
HETATM    9  C   UNL     1      -8.676  10.629  66.402  1.00  0.00    -0.155 C  
HETATM   10  C   UNL     1     -10.834  11.701  65.482  1.00  0.00    -0.334 C  
HETATM   11  C   UNL     1      -8.297  11.772  67.353  1.00  0.00    -0.159 C  
HETATM   12  C   UNL     1      -8.091  11.146  68.724  1.00  0.00    -0.140 C  
HETATM   13  C   UNL     1      -7.960   9.621  68.534  1.00  0.00    -0.089 C  
HETATM   14  C   UNL     1      -6.855   9.018  69.399  1.00  0.00    -0.049 C  
HETATM   15  C   UNL     1      -6.048   7.940  68.721  1.00  0.00    -0.039 C  
HETATM   16  C   UNL     1      -6.681   9.404  70.682  1.00  0.00    -0.097 C  
HETATM   17  C   UNL     1      -8.476   8.067  66.472  1.00  0.00    -0.137 C  
HETATM   18  C   UNL     1      -5.554   8.328  67.321  1.00  0.00    -0.038 C  
HETATM   19  C   UNL     1      -7.877   9.397  66.987  1.00  0.00    -0.098 C  
HETATM   20  C   UNL     1      -6.376   9.413  66.598  1.00  0.00    -0.066 C  
ENDROOT
BRANCH  16  21
HETATM   21  C   UNL     1      -5.901   8.683  71.661  1.00  0.00    -0.050 C  
HETATM   22  C   UNL     1      -6.265   7.609  72.386  1.00  0.00    -0.043 C  
HETATM   23  C   UNL     1      -7.664   7.028  72.510  1.00  0.00    -0.093 C  
HETATM   24  C   UNL     1      -7.720   5.603  71.947  1.00  0.00    -0.105 C  
HETATM   25  C   UNL     1      -6.623   4.709  72.526  1.00  0.00    -0.046 C  
HETATM   26  O   UNL     1      -7.620   5.634  70.523  1.00  0.00    -0.084 OA 
HETATM   27  C   UNL     1      -5.232   5.347  72.435  1.00  0.00    -0.016 C  
HETATM   28  H   UNL     1      -7.655   4.751  70.174  1.00  0.00     0.000 HD 
HETATM   29  C   UNL     1      -5.170   6.767  73.027  1.00  0.00    -0.037 C  
HETATM   30  C   UNL     1      -5.199   6.778  74.551  1.00  0.00    -0.046 C  
ENDBRANCH  16  21
TORSDOF 1
ENDMDL
MODEL      120
REMARK 921   NORMALIZED FREE ENERGY PREDICTED BY IDOCK:   -0.45 KCAL/MOL
REMARK 922        TOTAL FREE ENERGY PREDICTED BY IDOCK:   -1.20 KCAL/MOL
REMARK 923 INTER-LIGAND FREE ENERGY PREDICTED BY IDOCK:   -0.46 KCAL/MOL
REMARK 924 INTRA-LIGAND FREE ENERGY PREDICTED BY IDOCK:   -0.74 KCAL/MOL
REMARK 927      BINDING AFFINITY PREDICTED BY RF-SCORE:    0.00 PKD
ROOT
HETATM    1  C   UNL     1     -12.420  13.440  66.864  1.00  0.00    -0.114 C  
HETATM    2  C   UNL     1     -11.508  12.224  67.084  1.00  0.00    -0.419 C  
HETATM    3  C   UNL     1     -10.751  12.224  68.446  1.00  0.00    -0.255 C  
HETATM    4  C   UNL     1     -10.544  12.104  65.900  1.00  0.00    -0.293 C  
HETATM    5  C   UNL     1     -11.716  12.120  69.607  1.00  0.00    -0.396 C  
HETATM    6  C   UNL     1      -9.832  13.429  68.655  1.00  0.00    -0.116 C  
HETATM    7  C   UNL     1     -11.459  11.457  70.747  1.00  0.00     0.353 C  
HETATM    8  C   UNL     1     -12.445  11.228  71.882  1.00  0.00     0.043 C  
HETATM    9  C   UNL     1     -13.081   9.785  71.886  1.00  0.00    -0.544 C  
HETATM   10  C   UNL     1     -13.532  12.324  71.965  1.00  0.00    -0.418 C  
HETATM   11  C   UNL     1     -13.862   9.503  70.596  1.00  0.00     0.343 C  
HETATM   12  C   UNL     1     -12.911   8.764  69.666  1.00  0.00     2.765 C  
HETATM   13  C   UNL     1     -11.719   8.263  70.507  1.00  0.00    -0.067 C  
HETATM   14  C   UNL     1     -11.302   6.840  70.137  1.00  0.00    -0.404 C  
HETATM   15  C   UNL     1     -10.918   5.976  71.312  1.00  0.00    -0.340 C  
HETATM   16  C   UNL     1     -11.239   6.441  68.848  1.00  0.00    -0.385 C  
HETATM   17  C   UNL     1     -10.932   8.856  72.949  1.00  0.00     0.885 C  
HETATM   18  C   UNL     1     -11.933   6.012  72.463  1.00  0.00    -0.176 C  
HETATM   19  C   UNL     1     -12.110   8.542  71.997  1.00  0.00    -0.428 C  
HETATM   20  C   UNL     1     -12.818   7.272  72.535  1.00  0.00     0.327 C  
ENDROOT
BRANCH  16  21
HETATM   21  C   UNL     1     -10.560   5.254  68.385  1.00  0.00    -0.077 C  
HETATM   22  C   UNL     1      -9.291   5.140  67.949  1.00  0.00    -0.139 C  
HETATM   23  C   UNL     1      -8.334   6.276  67.630  1.00  0.00    -0.117 C  
HETATM   24  C   UNL     1      -7.115   6.246  68.560  1.00  0.00    -0.083 C  
HETATM   25  C   UNL     1      -6.452   4.870  68.601  1.00  0.00    -0.037 C  
HETATM   26  O   UNL     1      -7.494   6.642  69.878  1.00  0.00    -0.090 OA 
HETATM   27  C   UNL     1      -7.453   3.740  68.871  1.00  0.00    -0.054 C  
HETATM   28  H   UNL     1      -6.740   6.624  70.455  1.00  0.00     0.000 HD 
HETATM   29  C   UNL     1      -8.662   3.753  67.917  1.00  0.00    -0.124 C  
HETATM   30  C   UNL     1      -8.319   3.266  66.514  1.00  0.00    -0.103 C  
ENDBRANCH  16  21
TORSDOF 1
ENDMDL
MODEL      121
REMARK 921   NORMALIZED FREE ENERGY PREDICTED BY IDOCK:   -0.42 KCAL/MOL
REMARK 922        TOTAL FREE ENERGY PREDICTED BY IDOCK:   -1.16 KCAL/MOL
REMARK 923 INTER-LIGAND FREE ENERGY PREDICTED BY IDOCK:   -0.39 KCAL/MOL
REMARK 924 INTRA-LIGAND FREE ENERGY PREDICTED BY IDOCK:   -0.78 KCAL/MOL
REMARK 927      BINDING AFFINITY PREDICTED BY RF-SCORE:    0.00 PKD
ROOT
HETATM    1  C   UNL     1     -12.585  13.479  66.821  1.00  0.00    -0.042 C  
HETATM    2  C   UNL     1     -11.494  12.437  66.533  1.00  0.00    -0.427 C  
HETATM    3  C   UNL     1     -10.420  12.302  67.654  1.00  0.00    -0.230 C  
HETATM    4  C   UNL     1     -10.859  12.744  65.173  1.00  0.00    -0.318 C  
HETATM    5  C   UNL     1     -11.031  11.785  68.937  1.00  0.00    -0.288 C  
HETATM    6  C   UNL     1      -9.646  13.591  67.942  1.00  0.00    -0.218 C  
HETATM    7  C   UNL     1     -10.405  10.965  69.796  1.00  0.00     0.011 C  
HETATM    8  C   UNL     1     -11.026  10.328  71.030  1.00  0.00     0.015 C  
HETATM    9  C   UNL     1     -11.442   8.821  70.823  1.00  0.00    -0.309 C  
HETATM   10  C   UNL     1     -12.191  11.160  71.614  1.00  0.00     0.014 C  
HETATM   11  C   UNL     1     -12.483   8.666  69.707  1.00  0.00     1.742 C  
HETATM   12  C   UNL     1     -11.714   8.323  68.440  1.00  0.00     1.887 C  
HETATM   13  C   UNL     1     -10.291   7.894  68.851  1.00  0.00    -0.225 C  
HETATM   14  C   UNL     1      -9.797   6.681  68.064  1.00  0.00    -0.140 C  
HETATM   15  C   UNL     1      -9.013   5.684  68.879  1.00  0.00    -0.115 C  
HETATM   16  C   UNL     1     -10.015   6.572  66.735  1.00  0.00    -0.224 C  
HETATM   17  C   UNL     1      -8.989   8.116  71.129  1.00  0.00    -0.174 C  
HETATM   18  C   UNL     1      -9.694   5.294  70.198  1.00  0.00    -0.262 C  
HETATM   19  C   UNL     1     -10.320   7.787  70.412  1.00  0.00    -0.212 C  
HETATM   20  C   UNL     1     -10.691   6.323  70.767  1.00  0.00    -0.312 C  
ENDROOT
BRANCH  16  21
HETATM   21  C   UNL     1      -9.326   5.654  65.860  1.00  0.00    -0.119 C  
HETATM   22  C   UNL     1      -8.152   5.833  65.225  1.00  0.00    -0.130 C  
HETATM   23  C   UNL     1      -7.376   7.133  65.100  1.00  0.00    -0.081 C  
HETATM   24  C   UNL     1      -6.011   7.027  65.792  1.00  0.00    -0.036 C  
HETATM   25  C   UNL     1      -5.230   5.793  65.343  1.00  0.00    -0.009 C  
HETATM   26  O   UNL     1      -6.180   7.007  67.210  1.00  0.00    -0.037 OA 
HETATM   27  C   UNL     1      -6.059   4.505  65.429  1.00  0.00    -0.023 C  
HETATM   28  H   UNL     1      -5.335   6.941  67.638  1.00  0.00     0.000 HD 
HETATM   29  C   UNL     1      -7.416   4.603  64.709  1.00  0.00    -0.072 C  
HETATM   30  C   UNL     1      -7.291   4.554  63.191  1.00  0.00    -0.052 C  
ENDBRANCH  16  21
TORSDOF 1
ENDMDL
MODEL      122
REMARK 921   NORMALIZED FREE ENERGY PREDICTED BY IDOCK:   -0.30 KCAL/MOL
REMARK 922        TOTAL FREE ENERGY PREDICTED BY IDOCK:   -1.04 KCAL/MOL
REMARK 923 INTER-LIGAND FREE ENERGY PREDICTED BY IDOCK:   -1.98 KCAL/MOL
REMARK 924 INTRA-LIGAND FREE ENERGY PREDICTED BY IDOCK:    0.94 KCAL/MOL
REMARK 927      BINDING AFFINITY PREDICTED BY RF-SCORE:    0.00 PKD
ROOT
HETATM    1  C   UNL     1      -7.994   8.974  65.178  1.00  0.00    -0.119 C  
HETATM    2  C   UNL     1      -7.555  10.390  64.779  1.00  0.00    -0.058 C  
HETATM    3  C   UNL     1      -8.535  11.120  63.812  1.00  0.00     0.314 C  
HETATM    4  C   UNL     1      -6.135  10.329  64.208  1.00  0.00    -0.121 C  
HETATM    5  C   UNL     1      -9.872  11.370  64.475  1.00  0.00    -0.302 C  
HETATM    6  C   UNL     1      -8.753  10.403  62.479  1.00  0.00    -0.253 C  
HETATM    7  C   UNL     1     -10.632  12.455  64.259  1.00  0.00    -0.391 C  
HETATM    8  C   UNL     1     -11.918  12.800  64.993  1.00  0.00    -0.456 C  
HETATM    9  C   UNL     1     -11.733  13.888  66.119  1.00  0.00    -0.393 C  
HETATM   10  C   UNL     1     -12.656  11.552  65.531  1.00  0.00     2.261 C  
HETATM   11  C   UNL     1     -10.748  13.427  67.201  1.00  0.00    -0.268 C  
HETATM   12  C   UNL     1      -9.390  14.002  66.827  1.00  0.00    -0.289 C  
HETATM   13  C   UNL     1      -9.617  15.104  65.771  1.00  0.00    -0.344 C  
HETATM   14  C   UNL     1      -8.752  16.338  66.021  1.00  0.00    -0.285 C  
HETATM   15  C   UNL     1      -9.446  17.651  65.761  1.00  0.00     0.194 C  
HETATM   16  C   UNL     1      -7.457  16.223  66.390  1.00  0.00    -0.062 C  
HETATM   17  C   UNL     1     -11.725  15.725  64.321  1.00  0.00    -0.162 C  
HETATM   18  C   UNL     1     -10.829  17.759  66.417  1.00  0.00     0.061 C  
HETATM   19  C   UNL     1     -11.168  15.304  65.701  1.00  0.00    -0.256 C  
HETATM   20  C   UNL     1     -11.535  16.421  66.713  1.00  0.00     0.621 C  
ENDROOT
BRANCH  16  21
HETATM   21  C   UNL     1      -6.487  17.290  66.333  1.00  0.00    -0.267 C  
HETATM   22  C   UNL     1      -6.594  18.538  66.827  1.00  0.00    -0.208 C  
HETATM   23  C   UNL     1      -7.851  19.196  67.371  1.00  0.00    -0.267 C  
HETATM   24  C   UNL     1      -7.693  19.537  68.858  1.00  0.00    -0.334 C  
HETATM   25  C   UNL     1      -6.412  20.322  69.138  1.00  0.00    -0.308 C  
HETATM   26  O   UNL     1      -7.713  18.343  69.640  1.00  0.00     0.278 OA 
HETATM   27  C   UNL     1      -5.169  19.661  68.529  1.00  0.00    -0.205 C  
HETATM   28  H   UNL     1      -7.614  18.554  70.561  1.00  0.00     0.000 HD 
HETATM   29  C   UNL     1      -5.318  19.345  67.029  1.00  0.00    -0.161 C  
HETATM   30  C   UNL     1      -5.229  20.585  66.147  1.00  0.00    -0.201 C  
ENDBRANCH  16  21
TORSDOF 1
ENDMDL
MODEL      123
REMARK 921   NORMALIZED FREE ENERGY PREDICTED BY IDOCK:    0.22 KCAL/MOL
REMARK 922        TOTAL FREE ENERGY PREDICTED BY IDOCK:   -0.49 KCAL/MOL
REMARK 923 INTER-LIGAND FREE ENERGY PREDICTED BY IDOCK:   -0.00 KCAL/MOL
REMARK 924 INTRA-LIGAND FREE ENERGY PREDICTED BY IDOCK:   -0.49 KCAL/MOL
REMARK 927      BINDING AFFINITY PREDICTED BY RF-SCORE:    0.00 PKD
ROOT
HETATM    1  C   UNL     1     -11.734   5.697  69.352  1.00  0.00     1.633 C  
HETATM    2  C   UNL     1     -11.220   7.140  69.257  1.00  0.00    -0.040 C  
HETATM    3  C   UNL     1      -9.722   7.317  69.648  1.00  0.00    -0.159 C  
HETATM    4  C   UNL     1     -12.133   8.050  70.085  1.00  0.00     0.527 C  
HETATM    5  C   UNL     1      -8.815   6.586  68.682  1.00  0.00    -0.121 C  
HETATM    6  C   UNL     1      -9.391   6.891  71.079  1.00  0.00    -0.156 C  
HETATM    7  C   UNL     1      -7.603   7.023  68.305  1.00  0.00    -0.111 C  
HETATM    8  C   UNL     1      -6.717   6.382  67.248  1.00  0.00    -0.060 C  
HETATM    9  C   UNL     1      -6.758   7.119  65.855  1.00  0.00    -0.053 C  
HETATM   10  C   UNL     1      -6.970   4.864  67.091  1.00  0.00    -0.064 C  
HETATM   11  C   UNL     1      -8.172   7.131  65.259  1.00  0.00    -0.128 C  
HETATM   12  C   UNL     1      -8.797   8.461  65.652  1.00  0.00    -0.196 C  
HETATM   13  C   UNL     1      -7.666   9.393  66.134  1.00  0.00    -0.100 C  
HETATM   14  C   UNL     1      -7.824  10.820  65.613  1.00  0.00    -0.076 C  
HETATM   15  C   UNL     1      -6.534  11.482  65.202  1.00  0.00     1.630 C  
HETATM   16  C   UNL     1      -9.031  11.428  65.590  1.00  0.00    -0.131 C  
HETATM   17  C   UNL     1      -5.157   8.909  66.770  1.00  0.00    -0.034 C  
HETATM   18  C   UNL     1      -5.659  10.614  64.286  1.00  0.00    -0.067 C  
HETATM   19  C   UNL     1      -6.334   8.640  65.803  1.00  0.00    -0.056 C  
HETATM   20  C   UNL     1      -5.887   9.093  64.388  1.00  0.00    -0.069 C  
ENDROOT
BRANCH  16  21
HETATM   21  C   UNL     1      -9.235  12.848  65.430  1.00  0.00     0.492 C  
HETATM   22  C   UNL     1     -10.221  13.609  65.941  1.00  0.00    -0.318 C  
HETATM   23  C   UNL     1     -11.483  13.118  66.629  1.00  0.00    -0.389 C  
HETATM   24  C   UNL     1     -11.528  13.581  68.091  1.00  0.00    -0.303 C  
HETATM   25  C   UNL     1     -11.291  15.085  68.229  1.00  0.00    -0.331 C  
HETATM   26  O   UNL     1     -10.564  12.864  68.862  1.00  0.00    -0.353 OA 
HETATM   27  C   UNL     1     -10.040  15.557  67.478  1.00  0.00    -0.241 C  
HETATM   28  H   UNL     1     -10.592  13.150  69.768  1.00  0.00     0.000 HD 
HETATM   29  C   UNL     1     -10.010  15.117  66.003  1.00  0.00    -0.335 C  
HETATM   30  C   UNL     1     -10.973  15.907  65.125  1.00  0.00    -0.389 C  
ENDBRANCH  16  21
TORSDOF 1
ENDMDL
MODEL      124
REMARK 921   NORMALIZED FREE ENERGY PREDICTED BY IDOCK:    0.37 KCAL/MOL
REMARK 922        TOTAL FREE ENERGY PREDICTED BY IDOCK:   -0.33 KCAL/MOL
REMARK 923 INTER-LIGAND FREE ENERGY PREDICTED BY IDOCK:   -1.75 KCAL/MOL
REMARK 924 INTRA-LIGAND FREE ENERGY PREDICTED BY IDOCK:    1.42 KCAL/MOL
REMARK 927      BINDING AFFINITY PREDICTED BY RF-SCORE:    0.00 PKD
ROOT
HETATM    1  C   UNL     1      -7.081  17.505  67.545  1.00  0.00    -0.184 C  
HETATM    2  C   UNL     1      -6.777  16.115  68.124  1.00  0.00    -0.133 C  
HETATM    3  C   UNL     1      -7.864  15.571  69.099  1.00  0.00    -0.215 C  
HETATM    4  C   UNL     1      -5.391  16.139  68.776  1.00  0.00    -0.111 C  
HETATM    5  C   UNL     1      -9.177  15.344  68.382  1.00  0.00    -0.192 C  
HETATM    6  C   UNL     1      -8.101  16.450  70.329  1.00  0.00     1.976 C  
HETATM    7  C   UNL     1     -10.030  14.347  68.666  1.00  0.00    -0.241 C  
HETATM    8  C   UNL     1     -11.296  14.014  67.891  1.00  0.00    -0.317 C  
HETATM    9  C   UNL     1     -11.133  12.794  66.905  1.00  0.00    -0.308 C  
HETATM   10  C   UNL     1     -11.902  15.242  67.173  1.00  0.00     0.054 C  
HETATM   11  C   UNL     1     -10.055  13.058  65.846  1.00  0.00    -0.291 C  
HETATM   12  C   UNL     1      -8.770  12.434  66.368  1.00  0.00     0.013 C  
HETATM   13  C   UNL     1      -9.142  11.478  67.520  1.00  0.00    -0.166 C  
HETATM   14  C   UNL     1      -8.363  10.165  67.464  1.00  0.00    -0.118 C  
HETATM   15  C   UNL     1      -9.171   8.943  67.820  1.00  0.00    -0.153 C  
HETATM   16  C   UNL     1      -7.045  10.145  67.170  1.00  0.00    -0.089 C  
HETATM   17  C   UNL     1     -11.371  11.178  68.890  1.00  0.00    -0.344 C  
HETATM   18  C   UNL     1     -10.519   8.861  67.091  1.00  0.00    -0.344 C  
HETATM   19  C   UNL     1     -10.705  11.398  67.511  1.00  0.00    -0.266 C  
HETATM   20  C   UNL     1     -11.101  10.203  66.606  1.00  0.00     0.139 C  
ENDROOT
BRANCH  16  21
HETATM   21  C   UNL     1      -6.165   9.024  67.406  1.00  0.00    -0.059 C  
HETATM   22  C   UNL     1      -6.394   7.721  67.156  1.00  0.00    -0.055 C  
HETATM   23  C   UNL     1      -7.720   7.089  66.769  1.00  0.00    -0.098 C  
HETATM   24  C   UNL     1      -7.645   6.467  65.369  1.00  0.00    -0.089 C  
HETATM   25  C   UNL     1      -6.445   5.533  65.215  1.00  0.00    -0.039 C  
HETATM   26  O   UNL     1      -7.593   7.493  64.378  1.00  0.00    -0.096 OA 
HETATM   27  C   UNL     1      -5.130   6.181  65.666  1.00  0.00    -0.013 C  
HETATM   28  H   UNL     1      -7.546   7.108  63.511  1.00  0.00     0.000 HD 
HETATM   29  C   UNL     1      -5.198   6.781  67.083  1.00  0.00    -0.009 C  
HETATM   30  C   UNL     1      -5.182   5.721  68.179  1.00  0.00    -0.004 C  
ENDBRANCH  16  21
TORSDOF 1
ENDMDL
MODEL      125
REMARK 921   NORMALIZED FREE ENERGY PREDICTED BY IDOCK:    0.39 KCAL/MOL
REMARK 922        TOTAL FREE ENERGY PREDICTED BY IDOCK:   -0.31 KCAL/MOL
REMARK 923 INTER-LIGAND FREE ENERGY PREDICTED BY IDOCK:   -0.59 KCAL/MOL
REMARK 924 INTRA-LIGAND FREE ENERGY PREDICTED BY IDOCK:    0.27 KCAL/MOL
REMARK 927      BINDING AFFINITY PREDICTED BY RF-SCORE:    0.00 PKD
ROOT
HETATM    1  C   UNL     1     -12.383  15.465  68.028  1.00  0.00     0.567 C  
HETATM    2  C   UNL     1     -11.226  14.457  67.998  1.00  0.00    -0.298 C  
HETATM    3  C   UNL     1     -10.672  14.070  69.402  1.00  0.00    -0.085 C  
HETATM    4  C   UNL     1     -10.122  14.993  67.081  1.00  0.00    -0.239 C  
HETATM    5  C   UNL     1     -11.716  13.341  70.220  1.00  0.00    -0.217 C  
HETATM    6  C   UNL     1     -10.125  15.249  70.209  1.00  0.00    -0.020 C  
HETATM    7  C   UNL     1     -11.443  12.349  71.082  1.00  0.00     1.878 C  
HETATM    8  C   UNL     1     -12.472  11.513  71.828  1.00  0.00    -0.072 C  
HETATM    9  C   UNL     1     -12.713  10.090  71.193  1.00  0.00    -0.484 C  
HETATM   10  C   UNL     1     -13.805  12.262  72.056  1.00  0.00     0.042 C  
HETATM   11  C   UNL     1     -13.227  10.190  69.751  1.00  0.00     0.975 C  
HETATM   12  C   UNL     1     -12.010  10.067  68.846  1.00  0.00     0.475 C  
HETATM   13  C   UNL     1     -10.845   9.513  69.692  1.00  0.00    -0.255 C  
HETATM   14  C   UNL     1     -10.035   8.454  68.947  1.00  0.00    -0.194 C  
HETATM   15  C   UNL     1      -9.593   7.291  69.798  1.00  0.00    -0.162 C  
HETATM   16  C   UNL     1      -9.710   8.609  67.644  1.00  0.00    -0.201 C  
HETATM   17  C   UNL     1     -10.550   9.247  72.295  1.00  0.00     0.407 C  
HETATM   18  C   UNL     1     -10.720   6.683  70.644  1.00  0.00    -0.286 C  
HETATM   19  C   UNL     1     -11.479   9.111  71.066  1.00  0.00    -0.372 C  
HETATM   20  C   UNL     1     -11.900   7.622  70.962  1.00  0.00    -0.306 C  
ENDROOT
BRANCH  16  21
HETATM   21  C   UNL     1      -8.697   7.848  66.952  1.00  0.00    -0.136 C  
HETATM   22  C   UNL     1      -8.649   6.518  66.750  1.00  0.00    -0.117 C  
HETATM   23  C   UNL     1      -9.539   5.468  67.394  1.00  0.00    -0.128 C  
HETATM   24  C   UNL     1     -10.380   4.739  66.340  1.00  0.00    -0.273 C  
HETATM   25  C   UNL     1      -9.528   4.206  65.188  1.00  0.00    -0.173 C  
HETATM   26  O   UNL     1     -11.395   5.607  65.834  1.00  0.00    -0.639 OA 
HETATM   27  C   UNL     1      -8.602   5.275  64.596  1.00  0.00    -0.125 C  
HETATM   28  H   UNL     1     -11.915   5.155  65.180  1.00  0.00     0.000 HD 
HETATM   29  C   UNL     1      -7.736   5.987  65.652  1.00  0.00    -0.094 C  
HETATM   30  C   UNL     1      -6.594   5.121  66.168  1.00  0.00    -0.052 C  
ENDBRANCH  16  21
TORSDOF 1
ENDMDL
MODEL      126
REMARK 921   NORMALIZED FREE ENERGY PREDICTED BY IDOCK:    0.40 KCAL/MOL
REMARK 922        TOTAL FREE ENERGY PREDICTED BY IDOCK:   -0.30 KCAL/MOL
REMARK 923 INTER-LIGAND FREE ENERGY PREDICTED BY IDOCK:   -0.51 KCAL/MOL
REMARK 924 INTRA-LIGAND FREE ENERGY PREDICTED BY IDOCK:    0.21 KCAL/MOL
REMARK 927      BINDING AFFINITY PREDICTED BY RF-SCORE:    0.00 PKD
ROOT
HETATM    1  C   UNL     1     -11.899  15.911  67.384  1.00  0.00     0.470 C  
HETATM    2  C   UNL     1     -11.561  14.531  66.802  1.00  0.00    -0.388 C  
HETATM    3  C   UNL     1     -10.282  14.503  65.912  1.00  0.00    -0.339 C  
HETATM    4  C   UNL     1     -12.785  13.992  66.055  1.00  0.00    -0.379 C  
HETATM    5  C   UNL     1      -9.046  14.826  66.722  1.00  0.00    -0.291 C  
HETATM    6  C   UNL     1     -10.346  15.423  64.691  1.00  0.00     0.122 C  
HETATM    7  C   UNL     1      -7.839  14.275  66.511  1.00  0.00     0.973 C  
HETATM    8  C   UNL     1      -6.606  14.481  67.376  1.00  0.00     0.028 C  
HETATM    9  C   UNL     1      -6.317  13.285  68.362  1.00  0.00    -0.086 C  
HETATM   10  C   UNL     1      -6.612  15.837  68.120  1.00  0.00    -0.136 C  
HETATM   11  C   UNL     1      -7.477  13.061  69.341  1.00  0.00     0.434 C  
HETATM   12  C   UNL     1      -8.350  11.971  68.737  1.00  0.00     0.048 C  
HETATM   13  C   UNL     1      -7.539  11.276  67.625  1.00  0.00    -0.106 C  
HETATM   14  C   UNL     1      -7.707   9.757  67.643  1.00  0.00    -0.094 C  
HETATM   15  C   UNL     1      -6.444   8.985  67.359  1.00  0.00    -0.064 C  
HETATM   16  C   UNL     1      -8.916   9.189  67.845  1.00  0.00    -0.131 C  
HETATM   17  C   UNL     1      -5.297  11.947  66.419  1.00  0.00     0.233 C  
HETATM   18  C   UNL     1      -5.236   9.453  68.181  1.00  0.00    -0.037 C  
HETATM   19  C   UNL     1      -6.087  11.848  67.745  1.00  0.00    -0.067 C  
HETATM   20  C   UNL     1      -5.296  10.907  68.690  1.00  0.00    -0.040 C  
ENDROOT
BRANCH  16  21
HETATM   21  C   UNL     1      -9.235   7.809  67.561  1.00  0.00    -0.147 C  
HETATM   22  C   UNL     1      -9.193   7.173  66.375  1.00  0.00    -0.196 C  
HETATM   23  C   UNL     1      -9.011   7.811  65.008  1.00  0.00     0.340 C  
HETATM   24  C   UNL     1      -7.713   7.333  64.346  1.00  0.00    -0.120 C  
HETATM   25  C   UNL     1      -7.594   5.809  64.340  1.00  0.00    -0.085 C  
HETATM   26  O   UNL     1      -6.585   7.906  65.008  1.00  0.00    -0.050 OA 
HETATM   27  C   UNL     1      -7.837   5.192  65.723  1.00  0.00    -0.095 C  
HETATM   28  H   UNL     1      -5.781   7.610  64.599  1.00  0.00     0.000 HD 
HETATM   29  C   UNL     1      -9.155   5.650  66.374  1.00  0.00    -0.150 C  
HETATM   30  C   UNL     1     -10.385   5.006  65.746  1.00  0.00    -0.158 C  
ENDBRANCH  16  21
TORSDOF 1
ENDMDL
MODEL      127
REMARK 921   NORMALIZED FREE ENERGY PREDICTED BY IDOCK:    0.73 KCAL/MOL
REMARK 922        TOTAL FREE ENERGY PREDICTED BY IDOCK:    0.04 KCAL/MOL
REMARK 923 INTER-LIGAND FREE ENERGY PREDICTED BY IDOCK:    0.32 KCAL/MOL
REMARK 924 INTRA-LIGAND FREE ENERGY PREDICTED BY IDOCK:   -0.28 KCAL/MOL
REMARK 927      BINDING AFFINITY PREDICTED BY RF-SCORE:    0.00 PKD
ROOT
HETATM    1  C   UNL     1      -9.120  17.413  66.472  1.00  0.00    -0.288 C  
HETATM    2  C   UNL     1      -8.439  16.202  67.126  1.00  0.00    -0.218 C  
HETATM    3  C   UNL     1      -8.757  16.025  68.641  1.00  0.00    -0.206 C  
HETATM    4  C   UNL     1      -6.932  16.278  66.867  1.00  0.00    -0.226 C  
HETATM    5  C   UNL     1     -10.224  15.730  68.861  1.00  0.00    -0.219 C  
HETATM    6  C   UNL     1      -8.339  17.211  69.513  1.00  0.00     0.570 C  
HETATM    7  C   UNL     1     -10.697  14.917  69.820  1.00  0.00    -0.223 C  
HETATM    8  C   UNL     1     -12.149  14.501  69.996  1.00  0.00    -0.395 C  
HETATM    9  C   UNL     1     -12.465  13.057  69.447  1.00  0.00     0.160 C  
HETATM   10  C   UNL     1     -13.145  15.545  69.441  1.00  0.00     0.925 C  
HETATM   11  C   UNL     1     -12.180  12.943  67.944  1.00  0.00    -0.029 C  
HETATM   12  C   UNL     1     -10.777  12.371  67.809  1.00  0.00    -0.247 C  
HETATM   13  C   UNL     1     -10.372  11.784  69.177  1.00  0.00    -0.008 C  
HETATM   14  C   UNL     1      -9.655  10.441  69.046  1.00  0.00    -0.212 C  
HETATM   15  C   UNL     1     -10.032   9.427  70.097  1.00  0.00    -0.269 C  
HETATM   16  C   UNL     1      -8.725  10.234  68.089  1.00  0.00    -0.123 C  
HETATM   17  C   UNL     1     -11.436  12.040  71.572  1.00  0.00     2.744 C  
HETATM   18  C   UNL     1     -11.547   9.270  70.288  1.00  0.00    -0.151 C  
HETATM   19  C   UNL     1     -11.666  11.836  70.056  1.00  0.00    -0.386 C  
HETATM   20  C   UNL     1     -12.402  10.484  69.874  1.00  0.00    -0.247 C  
ENDROOT
BRANCH  16  21
HETATM   21  C   UNL     1      -7.777   9.144  68.084  1.00  0.00    -0.092 C  
HETATM   22  C   UNL     1      -8.008   7.844  67.820  1.00  0.00    -0.124 C  
HETATM   23  C   UNL     1      -9.363   7.171  67.680  1.00  0.00    -0.135 C  
HETATM   24  C   UNL     1      -9.557   6.614  66.265  1.00  0.00    -0.039 C  
HETATM   25  C   UNL     1      -8.383   5.740  65.822  1.00  0.00    -0.134 C  
HETATM   26  O   UNL     1      -9.745   7.682  65.337  1.00  0.00     0.090 OA 
HETATM   27  C   UNL     1      -7.027   6.426  66.027  1.00  0.00    -0.062 C  
HETATM   28  H   UNL     1      -9.864   7.337  64.460  1.00  0.00     0.000 HD 
HETATM   29  C   UNL     1      -6.821   6.961  67.456  1.00  0.00    -0.077 C  
HETATM   30  C   UNL     1      -6.544   5.857  68.470  1.00  0.00    -0.055 C  
ENDBRANCH  16  21
TORSDOF 1
ENDMDL
MODEL      128
REMARK 921   NORMALIZED FREE ENERGY PREDICTED BY IDOCK:    0.84 KCAL/MOL
REMARK 922        TOTAL FREE ENERGY PREDICTED BY IDOCK:    0.17 KCAL/MOL
REMARK 923 INTER-LIGAND FREE ENERGY PREDICTED BY IDOCK:   -0.03 KCAL/MOL
REMARK 924 INTRA-LIGAND FREE ENERGY PREDICTED BY IDOCK:    0.20 KCAL/MOL
REMARK 927      BINDING AFFINITY PREDICTED BY RF-SCORE:    0.00 PKD
ROOT
HETATM    1  C   UNL     1      -8.498  20.020  70.048  1.00  0.00     1.085 C  
HETATM    2  C   UNL     1      -9.663  19.024  69.968  1.00  0.00     0.817 C  
HETATM    3  C   UNL     1     -10.216  18.793  68.529  1.00  0.00    -0.397 C  
HETATM    4  C   UNL     1     -10.766  19.469  70.934  1.00  0.00     2.819 C  
HETATM    5  C   UNL     1      -9.175  18.146  67.641  1.00  0.00    -0.259 C  
HETATM    6  C   UNL     1     -10.750  20.056  67.850  1.00  0.00    -0.267 C  
HETATM    7  C   UNL     1      -9.453  17.254  66.678  1.00  0.00    -0.278 C  
HETATM    8  C   UNL     1      -8.429  16.493  65.850  1.00  0.00    -0.016 C  
HETATM    9  C   UNL     1      -8.201  15.009  66.331  1.00  0.00     0.282 C  
HETATM   10  C   UNL     1      -7.089  17.251  65.706  1.00  0.00     0.153 C  
HETATM   11  C   UNL     1      -7.691  14.951  67.777  1.00  0.00    -0.174 C  
HETATM   12  C   UNL     1      -8.913  14.742  68.661  1.00  0.00    -0.185 C  
HETATM   13  C   UNL     1     -10.079  14.291  67.757  1.00  0.00    -0.231 C  
HETATM   14  C   UNL     1     -10.901  13.166  68.385  1.00  0.00    -0.283 C  
HETATM   15  C   UNL     1     -11.349  12.104  67.413  1.00  0.00    -0.393 C  
HETATM   16  C   UNL     1     -11.228  13.185  69.695  1.00  0.00    -0.088 C  
HETATM   17  C   UNL     1     -10.368  14.305  65.140  1.00  0.00    -0.440 C  
HETATM   18  C   UNL     1     -10.224  11.579  66.510  1.00  0.00    -0.253 C  
HETATM   19  C   UNL     1      -9.444  14.032  66.350  1.00  0.00    -0.278 C  
HETATM   20  C   UNL     1      -9.035  12.537  66.297  1.00  0.00    -0.009 C  
ENDROOT
BRANCH  16  21
HETATM   21  C   UNL     1     -12.250  12.363  70.300  1.00  0.00    -0.345 C  
HETATM   22  C   UNL     1     -12.298  11.020  70.379  1.00  0.00    -0.442 C  
HETATM   23  C   UNL     1     -11.397  10.034  69.654  1.00  0.00    -0.253 C  
HETATM   24  C   UNL     1     -10.570   9.212  70.650  1.00  0.00    -0.246 C  
HETATM   25  C   UNL     1     -11.437   8.576  71.736  1.00  0.00    -0.378 C  
HETATM   26  O   UNL     1      -9.565  10.030  71.247  1.00  0.00    -0.046 OA 
HETATM   27  C   UNL     1     -12.374   9.586  72.410  1.00  0.00    -0.105 C  
HETATM   28  H   UNL     1      -9.052   9.521  71.864  1.00  0.00     0.000 HD 
HETATM   29  C   UNL     1     -13.226  10.391  71.411  1.00  0.00    -0.459 C  
HETATM   30  C   UNL     1     -14.359   9.575  70.801  1.00  0.00     0.635 C  
ENDBRANCH  16  21
TORSDOF 1
ENDMDL
MODEL      129
REMARK 921   NORMALIZED FREE ENERGY PREDICTED BY IDOCK:    1.05 KCAL/MOL
REMARK 922        TOTAL FREE ENERGY PREDICTED BY IDOCK:    0.39 KCAL/MOL
REMARK 923 INTER-LIGAND FREE ENERGY PREDICTED BY IDOCK:   -1.97 KCAL/MOL
REMARK 924 INTRA-LIGAND FREE ENERGY PREDICTED BY IDOCK:    2.36 KCAL/MOL
REMARK 927      BINDING AFFINITY PREDICTED BY RF-SCORE:    0.00 PKD
ROOT
HETATM    1  C   UNL     1     -11.407  16.451  67.271  1.00  0.00     0.218 C  
HETATM    2  C   UNL     1     -10.270  15.447  67.034  1.00  0.00    -0.262 C  
HETATM    3  C   UNL     1      -9.633  14.876  68.336  1.00  0.00    -0.209 C  
HETATM    4  C   UNL     1      -9.220  16.090  66.122  1.00  0.00    -0.388 C  
HETATM    5  C   UNL     1     -10.632  14.055  69.120  1.00  0.00    -0.149 C  
HETATM    6  C   UNL     1      -9.016  15.936  69.251  1.00  0.00    -0.251 C  
HETATM    7  C   UNL     1     -10.320  12.957  69.827  1.00  0.00     1.151 C  
HETATM    8  C   UNL     1     -11.311  12.038  70.525  1.00  0.00     0.643 C  
HETATM    9  C   UNL     1     -11.616  10.712  69.728  1.00  0.00    -0.385 C  
HETATM   10  C   UNL     1     -12.614  12.761  70.936  1.00  0.00    -0.342 C  
HETATM   11  C   UNL     1     -12.221  11.003  68.348  1.00  0.00     0.208 C  
HETATM   12  C   UNL     1     -11.067  10.989  67.356  1.00  0.00    -0.370 C  
HETATM   13  C   UNL     1      -9.859  10.322  68.044  1.00  0.00    -0.171 C  
HETATM   14  C   UNL     1      -9.116   9.363  67.115  1.00  0.00    -0.148 C  
HETATM   15  C   UNL     1      -8.638   8.096  67.778  1.00  0.00    -0.131 C  
HETATM   16  C   UNL     1      -8.874   9.684  65.825  1.00  0.00    -0.186 C  
HETATM   17  C   UNL     1      -9.399   9.716  70.565  1.00  0.00    -0.227 C  
HETATM   18  C   UNL     1      -9.717   7.390  68.611  1.00  0.00    -0.152 C  
HETATM   19  C   UNL     1     -10.408   9.749  69.394  1.00  0.00    -0.232 C  
HETATM   20  C   UNL     1     -10.859   8.289  69.126  1.00  0.00    -0.036 C  
ENDROOT
BRANCH  16  21
HETATM   21  C   UNL     1      -7.920   9.012  64.974  1.00  0.00    -0.123 C  
HETATM   22  C   UNL     1      -7.552   7.717  64.998  1.00  0.00    -0.096 C  
HETATM   23  C   UNL     1      -7.889   6.696  66.072  1.00  0.00    -0.104 C  
HETATM   24  C   UNL     1      -8.745   5.560  65.501  1.00  0.00    -0.154 C  
HETATM   25  C   UNL     1      -8.132   4.952  64.239  1.00  0.00    -0.115 C  
HETATM   26  O   UNL     1     -10.064   6.030  65.224  1.00  0.00     0.207 OA 
HETATM   27  C   UNL     1      -7.753   6.013  63.198  1.00  0.00    -0.095 C  
HETATM   28  H   UNL     1     -10.594   5.326  64.870  1.00  0.00     0.000 HD 
HETATM   29  C   UNL     1      -6.870   7.139  63.765  1.00  0.00    -0.048 C  
HETATM   30  C   UNL     1      -5.430   6.701  64.009  1.00  0.00    -0.027 C  
ENDBRANCH  16  21
TORSDOF 1
ENDMDL
MODEL      130
REMARK 921   NORMALIZED FREE ENERGY PREDICTED BY IDOCK:    3.79 KCAL/MOL
REMARK 922        TOTAL FREE ENERGY PREDICTED BY IDOCK:    3.29 KCAL/MOL
REMARK 923 INTER-LIGAND FREE ENERGY PREDICTED BY IDOCK:    3.90 KCAL/MOL
REMARK 924 INTRA-LIGAND FREE ENERGY PREDICTED BY IDOCK:   -0.60 KCAL/MOL
REMARK 927      BINDING AFFINITY PREDICTED BY RF-SCORE:    0.00 PKD
ROOT
HETATM    1  C   UNL     1     -12.415  12.196  62.888  1.00  0.00     0.154 C  
HETATM    2  C   UNL     1     -12.013  13.427  63.713  1.00  0.00    -0.517 C  
HETATM    3  C   UNL     1     -12.333  13.317  65.233  1.00  0.00    -0.525 C  
HETATM    4  C   UNL     1     -12.647  14.673  63.088  1.00  0.00     1.659 C  
HETATM    5  C   UNL     1     -11.527  12.215  65.884  1.00  0.00    -0.418 C  
HETATM    6  C   UNL     1     -13.817  13.118  65.550  1.00  0.00     3.105 C  
HETATM    7  C   UNL     1     -11.047  12.267  67.137  1.00  0.00    -0.330 C  
HETATM    8  C   UNL     1     -10.134  11.237  67.782  1.00  0.00    -0.199 C  
HETATM    9  C   UNL     1      -8.618  11.670  67.820  1.00  0.00    -0.144 C  
HETATM   10  C   UNL     1     -10.301   9.823  67.178  1.00  0.00    -0.311 C  
HETATM   11  C   UNL     1      -8.055  11.899  66.411  1.00  0.00     0.091 C  
HETATM   12  C   UNL     1      -8.173  13.390  66.134  1.00  0.00     1.315 C  
HETATM   13  C   UNL     1      -8.431  14.103  67.477  1.00  0.00    -0.194 C  
HETATM   14  C   UNL     1      -7.626  15.394  67.616  1.00  0.00    -0.188 C  
HETATM   15  C   UNL     1      -7.065  15.635  68.995  1.00  0.00    -0.151 C  
HETATM   16  C   UNL     1      -7.496  16.254  66.582  1.00  0.00    -0.238 C  
HETATM   17  C   UNL     1      -9.114  13.174  69.844  1.00  0.00     2.784 C  
HETATM   18  C   UNL     1      -6.337  14.420  69.586  1.00  0.00    -0.140 C  
HETATM   19  C   UNL     1      -8.243  13.006  68.577  1.00  0.00    -0.067 C  
HETATM   20  C   UNL     1      -6.758  13.049  69.023  1.00  0.00    -0.099 C  
ENDROOT
BRANCH  16  21
HETATM   21  C   UNL     1      -7.046  17.621  66.699  1.00  0.00    -0.258 C  
HETATM   22  C   UNL     1      -7.736  18.748  66.437  1.00  0.00    -0.289 C  
HETATM   23  C   UNL     1      -9.083  18.848  65.742  1.00  0.00     0.393 C  
HETATM   24  C   UNL     1     -10.144  19.432  66.683  1.00  0.00    -0.407 C  
HETATM   25  C   UNL     1      -9.684  20.737  67.334  1.00  0.00    -0.473 C  
HETATM   26  O   UNL     1     -10.486  18.480  67.690  1.00  0.00    -0.385 OA 
HETATM   27  C   UNL     1      -8.297  20.618  67.978  1.00  0.00     0.106 C  
HETATM   28  H   UNL     1     -11.143  18.842  68.273  1.00  0.00     0.000 HD 
HETATM   29  C   UNL     1      -7.226  20.057  67.024  1.00  0.00    -0.274 C  
HETATM   30  C   UNL     1      -6.776  21.067  65.974  1.00  0.00    -0.102 C  
ENDBRANCH  16  21
TORSDOF 1
ENDMDL
MODEL      131
REMARK 921   NORMALIZED FREE ENERGY PREDICTED BY IDOCK:    3.92 KCAL/MOL
REMARK 922        TOTAL FREE ENERGY PREDICTED BY IDOCK:    3.42 KCAL/MOL
REMARK 923 INTER-LIGAND FREE ENERGY PREDICTED BY IDOCK:    0.37 KCAL/MOL
REMARK 924 INTRA-LIGAND FREE ENERGY PREDICTED BY IDOCK:    3.05 KCAL/MOL
REMARK 927      BINDING AFFINITY PREDICTED BY RF-SCORE:    0.00 PKD
ROOT
HETATM    1  C   UNL     1     -10.777  15.001  66.870  1.00  0.00    -0.308 C  
HETATM    2  C   UNL     1     -11.041  13.558  67.323  1.00  0.00    -0.302 C  
HETATM    3  C   UNL     1     -11.292  12.553  66.159  1.00  0.00    -0.388 C  
HETATM    4  C   UNL     1     -12.192  13.556  68.334  1.00  0.00    -0.150 C  
HETATM    5  C   UNL     1     -10.062  12.401  65.292  1.00  0.00    -0.285 C  
HETATM    6  C   UNL     1     -12.495  12.899  65.279  1.00  0.00    -0.552 C  
HETATM    7  C   UNL     1      -9.690  11.254  64.702  1.00  0.00    -0.294 C  
HETATM    8  C   UNL     1      -8.400  11.031  63.927  1.00  0.00     0.281 C  
HETATM    9  C   UNL     1      -7.289  10.273  64.750  1.00  0.00    -0.099 C  
HETATM   10  C   UNL     1      -7.847  12.330  63.296  1.00  0.00     3.978 C  
HETATM   11  C   UNL     1      -6.886  11.047  66.011  1.00  0.00    -0.017 C  
HETATM   12  C   UNL     1      -7.712  10.476  67.155  1.00  0.00    -0.101 C  
HETATM   13  C   UNL     1      -8.308   9.133  66.683  1.00  0.00    -0.122 C  
HETATM   14  C   UNL     1      -8.237   8.053  67.762  1.00  0.00    -0.129 C  
HETATM   15  C   UNL     1      -7.888   6.679  67.248  1.00  0.00    -0.112 C  
HETATM   16  C   UNL     1      -8.526   8.332  69.052  1.00  0.00    -0.131 C  
HETATM   17  C   UNL     1      -8.490   8.047  64.292  1.00  0.00     0.083 C  
HETATM   18  C   UNL     1      -6.670   6.660  66.315  1.00  0.00    -0.049 C  
HETATM   19  C   UNL     1      -7.626   8.832  65.306  1.00  0.00    -0.091 C  
HETATM   20  C   UNL     1      -6.359   7.986  65.593  1.00  0.00    -0.042 C  
ENDROOT
BRANCH  16  21
HETATM   21  C   UNL     1      -8.802   7.342  70.066  1.00  0.00    -0.141 C  
HETATM   22  C   UNL     1      -8.405   6.056  70.103  1.00  0.00    -0.120 C  
HETATM   23  C   UNL     1      -7.752   5.274  68.976  1.00  0.00    -0.082 C  
HETATM   24  C   UNL     1      -6.334   4.835  69.360  1.00  0.00    -0.031 C  
HETATM   25  C   UNL     1      -6.297   4.122  70.712  1.00  0.00    -0.022 C  
HETATM   26  O   UNL     1      -5.459   5.962  69.381  1.00  0.00    -0.004 OA 
HETATM   27  C   UNL     1      -7.011   4.911  71.816  1.00  0.00    -0.056 C  
HETATM   28  H   UNL     1      -4.581   5.690  69.619  1.00  0.00     0.000 HD 
HETATM   29  C   UNL     1      -8.445   5.328  71.440  1.00  0.00    -0.125 C  
HETATM   30  C   UNL     1      -9.431   4.166  71.477  1.00  0.00    -0.221 C  
ENDBRANCH  16  21
TORSDOF 1
ENDMDL
MODEL      132
REMARK 921   NORMALIZED FREE ENERGY PREDICTED BY IDOCK:    4.64 KCAL/MOL
REMARK 922        TOTAL FREE ENERGY PREDICTED BY IDOCK:    4.19 KCAL/MOL
REMARK 923 INTER-LIGAND FREE ENERGY PREDICTED BY IDOCK:    4.28 KCAL/MOL
REMARK 924 INTRA-LIGAND FREE ENERGY PREDICTED BY IDOCK:   -0.09 KCAL/MOL
REMARK 927      BINDING AFFINITY PREDICTED BY RF-SCORE:    0.00 PKD
ROOT
HETATM    1  C   UNL     1      -7.559   8.988  64.241  1.00  0.00    -0.117 C  
HETATM    2  C   UNL     1      -8.356  10.281  64.467  1.00  0.00    -0.168 C  
HETATM    3  C   UNL     1      -9.179  10.308  65.790  1.00  0.00    -0.215 C  
HETATM    4  C   UNL     1      -9.241  10.539  63.244  1.00  0.00    -0.299 C  
HETATM    5  C   UNL     1      -8.270  10.272  67.000  1.00  0.00    -0.122 C  
HETATM    6  C   UNL     1     -10.222   9.194  65.905  1.00  0.00     0.034 C  
HETATM    7  C   UNL     1      -8.519  10.916  68.151  1.00  0.00    -0.131 C  
HETATM    8  C   UNL     1      -7.576  11.004  69.341  1.00  0.00    -0.058 C  
HETATM    9  C   UNL     1      -6.801  12.375  69.435  1.00  0.00     0.021 C  
HETATM   10  C   UNL     1      -6.608   9.802  69.431  1.00  0.00    -0.049 C  
HETATM   11  C   UNL     1      -5.931  12.623  68.196  1.00  0.00    -0.081 C  
HETATM   12  C   UNL     1      -6.755  13.487  67.253  1.00  0.00     0.136 C  
HETATM   13  C   UNL     1      -7.933  14.075  68.056  1.00  0.00    -0.152 C  
HETATM   14  C   UNL     1      -8.188  15.545  67.725  1.00  0.00    -0.157 C  
HETATM   15  C   UNL     1      -8.546  16.400  68.914  1.00  0.00    -0.250 C  
HETATM   16  C   UNL     1      -8.145  15.994  66.452  1.00  0.00    -0.255 C  
HETATM   17  C   UNL     1      -8.900  13.476  70.430  1.00  0.00     4.355 C  
HETATM   18  C   UNL     1      -7.600  16.221  70.110  1.00  0.00     1.142 C  
HETATM   19  C   UNL     1      -7.649  13.704  69.550  1.00  0.00     0.480 C  
HETATM   20  C   UNL     1      -6.848  14.877  70.173  1.00  0.00    -0.072 C  
ENDROOT
BRANCH  16  21
HETATM   21  C   UNL     1      -8.679  17.259  66.006  1.00  0.00    -0.125 C  
HETATM   22  C   UNL     1      -8.235  18.497  66.294  1.00  0.00    -0.248 C  
HETATM   23  C   UNL     1      -7.195  18.870  67.337  1.00  0.00    -0.225 C  
HETATM   24  C   UNL     1      -5.961  19.502  66.683  1.00  0.00    -0.168 C  
HETATM   25  C   UNL     1      -6.330  20.647  65.739  1.00  0.00    -0.275 C  
HETATM   26  O   UNL     1      -5.217  18.510  65.976  1.00  0.00    -0.135 OA 
HETATM   27  C   UNL     1      -7.421  20.255  64.734  1.00  0.00     0.571 C  
HETATM   28  H   UNL     1      -4.453  18.901  65.570  1.00  0.00     0.000 HD 
HETATM   29  C   UNL     1      -8.671  19.647  65.395  1.00  0.00     0.800 C  
HETATM   30  C   UNL     1      -9.536  20.684  66.101  1.00  0.00     0.039 C  
ENDBRANCH  16  21
TORSDOF 1
ENDMDL
MODEL      133
REMARK 921   NORMALIZED FREE ENERGY PREDICTED BY IDOCK:    4.64 KCAL/MOL
REMARK 922        TOTAL FREE ENERGY PREDICTED BY IDOCK:    4.19 KCAL/MOL
REMARK 923 INTER-LIGAND FREE ENERGY PREDICTED BY IDOCK:    2.27 KCAL/MOL
REMARK 924 INTRA-LIGAND FREE ENERGY PREDICTED BY IDOCK:    1.92 KCAL/MOL
REMARK 927      BINDING AFFINITY PREDICTED BY RF-SCORE:    0.00 PKD
ROOT
HETATM    1  C   UNL     1      -9.925   8.550  69.378  1.00  0.00    -0.194 C  
HETATM    2  C   UNL     1      -9.076   9.815  69.189  1.00  0.00    -0.166 C  
HETATM    3  C   UNL     1      -8.562  10.035  67.734  1.00  0.00    -0.118 C  
HETATM    4  C   UNL     1      -7.925   9.798  70.200  1.00  0.00    -0.201 C  
HETATM    5  C   UNL     1      -9.711  10.270  66.778  1.00  0.00    -0.231 C  
HETATM    6  C   UNL     1      -7.680   8.903  67.202  1.00  0.00    -0.095 C  
HETATM    7  C   UNL     1      -9.658  11.097  65.722  1.00  0.00    -0.255 C  
HETATM    8  C   UNL     1     -10.824  11.452  64.813  1.00  0.00    -0.339 C  
HETATM    9  C   UNL     1     -11.465  12.858  65.125  1.00  0.00    -0.348 C  
HETATM   10  C   UNL     1     -11.899  10.343  64.753  1.00  0.00     3.565 C  
HETATM   11  C   UNL     1     -12.018  12.927  66.555  1.00  0.00    -0.447 C  
HETATM   12  C   UNL     1     -10.929  13.558  67.411  1.00  0.00    -0.286 C  
HETATM   13  C   UNL     1      -9.903  14.214  66.465  1.00  0.00    -0.298 C  
HETATM   14  C   UNL     1      -9.442  15.583  66.964  1.00  0.00    -0.238 C  
HETATM   15  C   UNL     1      -9.271  16.618  65.881  1.00  0.00    -0.175 C  
HETATM   16  C   UNL     1      -9.165  15.796  68.269  1.00  0.00    -0.188 C  
HETATM   17  C   UNL     1      -9.537  14.001  63.867  1.00  0.00     3.647 C  
HETATM   18  C   UNL     1     -10.467  16.712  64.923  1.00  0.00     0.168 C  
HETATM   19  C   UNL     1     -10.539  14.136  65.037  1.00  0.00    -0.436 C  
HETATM   20  C   UNL     1     -11.340  15.446  64.816  1.00  0.00    -0.381 C  
ENDROOT
BRANCH  16  21
HETATM   21  C   UNL     1      -8.427  16.927  68.780  1.00  0.00    -0.244 C  
HETATM   22  C   UNL     1      -8.463  18.204  68.355  1.00  0.00    -0.311 C  
HETATM   23  C   UNL     1      -9.124  18.721  67.088  1.00  0.00    -0.295 C  
HETATM   24  C   UNL     1     -10.261  19.695  67.420  1.00  0.00    -0.434 C  
HETATM   25  C   UNL     1      -9.817  20.797  68.382  1.00  0.00     0.236 C  
HETATM   26  O   UNL     1     -11.370  18.985  67.972  1.00  0.00    -0.071 OA 
HETATM   27  C   UNL     1      -9.104  20.245  69.623  1.00  0.00     0.868 C  
HETATM   28  H   UNL     1     -12.074  19.588  68.178  1.00  0.00     0.000 HD 
HETATM   29  C   UNL     1      -7.944  19.290  69.288  1.00  0.00    -0.123 C  
HETATM   30  C   UNL     1      -6.710  20.013  68.762  1.00  0.00    -0.344 C  
ENDBRANCH  16  21
TORSDOF 1
ENDMDL
MODEL      134
REMARK 921   NORMALIZED FREE ENERGY PREDICTED BY IDOCK:    5.18 KCAL/MOL
REMARK 922        TOTAL FREE ENERGY PREDICTED BY IDOCK:    4.76 KCAL/MOL
REMARK 923 INTER-LIGAND FREE ENERGY PREDICTED BY IDOCK:    3.44 KCAL/MOL
REMARK 924 INTRA-LIGAND FREE ENERGY PREDICTED BY IDOCK:    1.31 KCAL/MOL
REMARK 927      BINDING AFFINITY PREDICTED BY RF-SCORE:    0.00 PKD
ROOT
HETATM    1  C   UNL     1     -10.602  17.657  70.594  1.00  0.00     1.639 C  
HETATM    2  C   UNL     1     -10.873  16.393  69.766  1.00  0.00    -0.343 C  
HETATM    3  C   UNL     1     -10.198  16.386  68.361  1.00  0.00    -0.259 C  
HETATM    4  C   UNL     1     -12.387  16.177  69.669  1.00  0.00     0.314 C  
HETATM    5  C   UNL     1      -8.690  16.378  68.479  1.00  0.00    -0.223 C  
HETATM    6  C   UNL     1     -10.632  17.537  67.450  1.00  0.00    -0.311 C  
HETATM    7  C   UNL     1      -7.869  15.735  67.634  1.00  0.00    -0.168 C  
HETATM    8  C   UNL     1      -6.362  15.603  67.788  1.00  0.00    -0.179 C  
HETATM    9  C   UNL     1      -5.904  14.204  68.353  1.00  0.00    -0.104 C  
HETATM   10  C   UNL     1      -5.735  16.767  68.588  1.00  0.00    -0.124 C  
HETATM   11  C   UNL     1      -6.488  13.933  69.746  1.00  0.00    -0.095 C  
HETATM   12  C   UNL     1      -7.749  13.107  69.534  1.00  0.00     0.777 C  
HETATM   13  C   UNL     1      -7.719  12.557  68.094  1.00  0.00    -0.141 C  
HETATM   14  C   UNL     1      -8.174  11.101  68.016  1.00  0.00    -0.125 C  
HETATM   15  C   UNL     1      -7.385  10.250  67.053  1.00  0.00    -0.092 C  
HETATM   16  C   UNL     1      -9.237  10.660  68.725  1.00  0.00    -0.182 C  
HETATM   17  C   UNL     1      -6.218  13.173  66.020  1.00  0.00     4.804 C  
HETATM   18  C   UNL     1      -5.864  10.385  67.214  1.00  0.00    -0.052 C  
HETATM   19  C   UNL     1      -6.296  12.906  67.541  1.00  0.00    -0.161 C  
HETATM   20  C   UNL     1      -5.373  11.699  67.851  1.00  0.00    -0.048 C  
ENDROOT
BRANCH  16  21
HETATM   21  C   UNL     1      -9.933   9.420  68.479  1.00  0.00    -0.190 C  
HETATM   22  C   UNL     1      -9.406   8.201  68.257  1.00  0.00    -0.137 C  
HETATM   23  C   UNL     1      -7.945   7.877  67.991  1.00  0.00    -0.128 C  
HETATM   24  C   UNL     1      -7.370   6.986  69.098  1.00  0.00    -0.092 C  
HETATM   25  C   UNL     1      -8.239   5.757  69.362  1.00  0.00    -0.108 C  
HETATM   26  O   UNL     1      -7.213   7.738  70.302  1.00  0.00    -0.060 OA 
HETATM   27  C   UNL     1      -9.716   6.112  69.571  1.00  0.00    -0.175 C  
HETATM   28  H   UNL     1      -6.857   7.186  70.988  1.00  0.00     0.000 HD 
HETATM   29  C   UNL     1     -10.302   6.983  68.444  1.00  0.00    -0.216 C  
HETATM   30  C   UNL     1     -10.555   6.203  67.160  1.00  0.00    -0.374 C  
ENDBRANCH  16  21
TORSDOF 1
ENDMDL
MODEL      135
REMARK 921   NORMALIZED FREE ENERGY PREDICTED BY IDOCK:    5.22 KCAL/MOL
REMARK 922        TOTAL FREE ENERGY PREDICTED BY IDOCK:    4.80 KCAL/MOL
REMARK 923 INTER-LIGAND FREE ENERGY PREDICTED BY IDOCK:    5.29 KCAL/MOL
REMARK 924 INTRA-LIGAND FREE ENERGY PREDICTED BY IDOCK:   -0.49 KCAL/MOL
REMARK 927      BINDING AFFINITY PREDICTED BY RF-SCORE:    0.00 PKD
ROOT
HETATM    1  C   UNL     1      -8.031  17.131  68.137  1.00  0.00    -0.216 C  
HETATM    2  C   UNL     1      -8.106  15.648  68.528  1.00  0.00    -0.147 C  
HETATM    3  C   UNL     1      -9.534  15.030  68.441  1.00  0.00    -0.201 C  
HETATM    4  C   UNL     1      -7.494  15.468  69.921  1.00  0.00     0.016 C  
HETATM    5  C   UNL     1     -10.037  15.016  67.014  1.00  0.00    -0.244 C  
HETATM    6  C   UNL     1     -10.569  15.711  69.339  1.00  0.00    -0.253 C  
HETATM    7  C   UNL     1     -10.810  14.048  66.495  1.00  0.00    -0.300 C  
HETATM    8  C   UNL     1     -11.234  13.935  65.039  1.00  0.00    -0.342 C  
HETATM    9  C   UNL     1     -10.396  12.884  64.215  1.00  0.00    -0.396 C  
HETATM   10  C   UNL     1     -11.285  15.303  64.320  1.00  0.00    -0.042 C  
HETATM   11  C   UNL     1      -8.904  13.240  64.187  1.00  0.00     4.100 C  
HETATM   12  C   UNL     1      -8.247  12.450  65.309  1.00  0.00     2.132 C  
HETATM   13  C   UNL     1      -9.231  11.349  65.752  1.00  0.00    -0.223 C  
HETATM   14  C   UNL     1      -8.536  10.011  65.999  1.00  0.00    -0.148 C  
HETATM   15  C   UNL     1      -9.311   8.807  65.526  1.00  0.00    -0.165 C  
HETATM   16  C   UNL     1      -7.351   9.946  66.644  1.00  0.00    -0.099 C  
HETATM   17  C   UNL     1     -11.790  10.986  65.247  1.00  0.00     1.153 C  
HETATM   18  C   UNL     1      -9.840   8.939  64.091  1.00  0.00     2.110 C  
HETATM   19  C   UNL     1     -10.396  11.381  64.706  1.00  0.00    -0.349 C  
HETATM   20  C   UNL     1     -10.032  10.380  63.579  1.00  0.00    -0.169 C  
ENDROOT
BRANCH  16  21
HETATM   21  C   UNL     1      -6.783   8.743  67.206  1.00  0.00    -0.063 C  
HETATM   22  C   UNL     1      -7.170   8.079  68.312  1.00  0.00    -0.093 C  
HETATM   23  C   UNL     1      -8.159   8.559  69.361  1.00  0.00    -0.112 C  
HETATM   24  C   UNL     1      -9.389   7.645  69.415  1.00  0.00    -0.152 C  
HETATM   25  C   UNL     1      -9.008   6.171  69.551  1.00  0.00    -0.133 C  
HETATM   26  O   UNL     1     -10.194   7.834  68.251  1.00  0.00    -0.190 OA 
HETATM   27  C   UNL     1      -7.968   5.732  68.514  1.00  0.00    -0.101 C  
HETATM   28  H   UNL     1     -10.955   7.268  68.285  1.00  0.00     0.000 HD 
HETATM   29  C   UNL     1      -6.720   6.634  68.479  1.00  0.00    -0.064 C  
HETATM   30  C   UNL     1      -5.793   6.413  69.668  1.00  0.00    -0.018 C  
ENDBRANCH  16  21
TORSDOF 1
ENDMDL
MODEL      136
REMARK 921   NORMALIZED FREE ENERGY PREDICTED BY IDOCK:    5.46 KCAL/MOL
REMARK 922        TOTAL FREE ENERGY PREDICTED BY IDOCK:    5.06 KCAL/MOL
REMARK 923 INTER-LIGAND FREE ENERGY PREDICTED BY IDOCK:    3.77 KCAL/MOL
REMARK 924 INTRA-LIGAND FREE ENERGY PREDICTED BY IDOCK:    1.29 KCAL/MOL
REMARK 927      BINDING AFFINITY PREDICTED BY RF-SCORE:    0.00 PKD
ROOT
HETATM    1  C   UNL     1     -13.284  10.371  69.880  1.00  0.00     0.553 C  
HETATM    2  C   UNL     1     -12.096  11.340  69.970  1.00  0.00    -0.425 C  
HETATM    3  C   UNL     1     -11.099  11.249  68.776  1.00  0.00    -0.288 C  
HETATM    4  C   UNL     1     -11.391  11.140  71.315  1.00  0.00     1.267 C  
HETATM    5  C   UNL     1     -11.758  11.664  67.479  1.00  0.00    -0.288 C  
HETATM    6  C   UNL     1     -10.452   9.873  68.601  1.00  0.00    -0.231 C  
HETATM    7  C   UNL     1     -11.133  12.320  66.489  1.00  0.00    -0.343 C  
HETATM    8  C   UNL     1     -11.789  12.860  65.228  1.00  0.00    -0.429 C  
HETATM    9  C   UNL     1     -12.069  14.411  65.274  1.00  0.00    -0.380 C  
HETATM   10  C   UNL     1     -13.055  12.070  64.824  1.00  0.00     0.799 C  
HETATM   11  C   UNL     1     -13.011  14.786  66.425  1.00  0.00     1.136 C  
HETATM   12  C   UNL     1     -12.128  15.206  67.590  1.00  0.00     0.137 C  
HETATM   13  C   UNL     1     -10.708  15.458  67.042  1.00  0.00    -0.321 C  
HETATM   14  C   UNL     1     -10.065  16.707  67.642  1.00  0.00    -0.272 C  
HETATM   15  C   UNL     1      -9.265  17.530  66.663  1.00  0.00    -0.277 C  
HETATM   16  C   UNL     1     -10.177  16.990  68.958  1.00  0.00    -0.313 C  
HETATM   17  C   UNL     1      -9.596  14.859  64.732  1.00  0.00     0.908 C  
HETATM   18  C   UNL     1     -10.007  17.821  65.352  1.00  0.00     0.609 C  
HETATM   19  C   UNL     1     -10.841  15.385  65.484  1.00  0.00    -0.384 C  
HETATM   20  C   UNL     1     -11.120  16.823  64.976  1.00  0.00    -0.063 C  
ENDROOT
BRANCH  16  21
HETATM   21  C   UNL     1      -9.355  17.941  69.670  1.00  0.00     0.759 C  
HETATM   22  C   UNL     1      -8.012  18.020  69.699  1.00  0.00     0.795 C  
HETATM   23  C   UNL     1      -7.029  16.991  69.167  1.00  0.00    -0.228 C  
HETATM   24  C   UNL     1      -6.187  17.573  68.025  1.00  0.00    -0.153 C  
HETATM   25  C   UNL     1      -5.544  18.907  68.403  1.00  0.00    -0.197 C  
HETATM   26  O   UNL     1      -6.991  17.734  66.856  1.00  0.00    -0.164 OA 
HETATM   27  C   UNL     1      -6.552  19.904  68.988  1.00  0.00    -0.364 C  
HETATM   28  H   UNL     1      -6.470  18.095  66.149  1.00  0.00     0.000 HD 
HETATM   29  C   UNL     1      -7.377  19.328  70.153  1.00  0.00     0.563 C  
HETATM   30  C   UNL     1      -6.577  19.206  71.445  1.00  0.00     1.360 C  
ENDBRANCH  16  21
TORSDOF 1
ENDMDL
MODEL      137
REMARK 921   NORMALIZED FREE ENERGY PREDICTED BY IDOCK:    6.25 KCAL/MOL
REMARK 922        TOTAL FREE ENERGY PREDICTED BY IDOCK:    5.89 KCAL/MOL
REMARK 923 INTER-LIGAND FREE ENERGY PREDICTED BY IDOCK:    6.43 KCAL/MOL
REMARK 924 INTRA-LIGAND FREE ENERGY PREDICTED BY IDOCK:   -0.53 KCAL/MOL
REMARK 927      BINDING AFFINITY PREDICTED BY RF-SCORE:    0.00 PKD
ROOT
HETATM    1  C   UNL     1      -8.620   8.659  71.648  1.00  0.00    -0.254 C  
HETATM    2  C   UNL     1      -8.218   9.811  70.714  1.00  0.00     0.240 C  
HETATM    3  C   UNL     1      -7.195   9.416  69.607  1.00  0.00    -0.067 C  
HETATM    4  C   UNL     1      -7.714  10.984  71.560  1.00  0.00     6.140 C  
HETATM    5  C   UNL     1      -7.792   8.412  68.645  1.00  0.00    -0.116 C  
HETATM    6  C   UNL     1      -5.865   8.880  70.142  1.00  0.00    -0.030 C  
HETATM    7  C   UNL     1      -7.523   8.373  67.330  1.00  0.00    -0.093 C  
HETATM    8  C   UNL     1      -8.192   7.461  66.314  1.00  0.00    -0.126 C  
HETATM    9  C   UNL     1      -9.306   8.177  65.458  1.00  0.00     0.141 C  
HETATM   10  C   UNL     1      -8.717   6.148  66.938  1.00  0.00    -0.109 C  
HETATM   11  C   UNL     1     -10.440   8.719  66.338  1.00  0.00    -0.024 C  
HETATM   12  C   UNL     1     -10.119  10.182  66.608  1.00  0.00    -0.283 C  
HETATM   13  C   UNL     1      -9.035  10.622  65.603  1.00  0.00    -0.203 C  
HETATM   14  C   UNL     1      -9.304  12.012  65.029  1.00  0.00     0.135 C  
HETATM   15  C   UNL     1      -8.989  12.154  63.561  1.00  0.00     0.934 C  
HETATM   16  C   UNL     1      -9.733  13.024  65.815  1.00  0.00    -0.157 C  
HETATM   17  C   UNL     1      -7.480   9.237  63.992  1.00  0.00    -0.110 C  
HETATM   18  C   UNL     1      -9.580  11.034  62.693  1.00  0.00    -0.285 C  
HETATM   19  C   UNL     1      -8.891   9.434  64.594  1.00  0.00    -0.238 C  
HETATM   20  C   UNL     1      -9.866   9.705  63.419  1.00  0.00     0.932 C  
ENDROOT
BRANCH  16  21
HETATM   21  C   UNL     1      -9.702  14.421  65.450  1.00  0.00    -0.156 C  
HETATM   22  C   UNL     1      -9.258  15.461  66.180  1.00  0.00    -0.362 C  
HETATM   23  C   UNL     1      -8.884  15.444  67.653  1.00  0.00    -0.179 C  
HETATM   24  C   UNL     1      -7.399  15.772  67.847  1.00  0.00    -0.136 C  
HETATM   25  C   UNL     1      -6.989  17.052  67.119  1.00  0.00    -0.213 C  
HETATM   26  O   UNL     1      -6.593  14.680  67.404  1.00  0.00    -0.283 OA 
HETATM   27  C   UNL     1      -7.429  17.061  65.649  1.00  0.00     0.765 C  
HETATM   28  H   UNL     1      -5.673  14.884  67.523  1.00  0.00     0.000 HD 
HETATM   29  C   UNL     1      -8.927  16.760  65.457  1.00  0.00     0.628 C  
HETATM   30  C   UNL     1      -9.824  17.928  65.850  1.00  0.00    -0.063 C  
ENDBRANCH  16  21
TORSDOF 1
ENDMDL
MODEL      138
REMARK 921   NORMALIZED FREE ENERGY PREDICTED BY IDOCK:    7.79 KCAL/MOL
REMARK 922        TOTAL FREE ENERGY PREDICTED BY IDOCK:    7.52 KCAL/MOL
REMARK 923 INTER-LIGAND FREE ENERGY PREDICTED BY IDOCK:    3.76 KCAL/MOL
REMARK 924 INTRA-LIGAND FREE ENERGY PREDICTED BY IDOCK:    3.76 KCAL/MOL
REMARK 927      BINDING AFFINITY PREDICTED BY RF-SCORE:    0.00 PKD
ROOT
HETATM    1  C   UNL     1      -9.492  19.884  66.320  1.00  0.00    -0.505 C  
HETATM    2  C   UNL     1      -8.644  18.611  66.461  1.00  0.00    -0.307 C  
HETATM    3  C   UNL     1      -8.466  18.114  67.926  1.00  0.00    -0.259 C  
HETATM    4  C   UNL     1      -7.295  18.833  65.769  1.00  0.00    -0.199 C  
HETATM    5  C   UNL     1      -9.790  17.688  68.524  1.00  0.00    -0.346 C  
HETATM    6  C   UNL     1      -7.790  19.124  68.855  1.00  0.00    -0.351 C  
HETATM    7  C   UNL     1      -9.937  16.671  69.387  1.00  0.00    -0.162 C  
HETATM    8  C   UNL     1     -11.261  16.138  69.913  1.00  0.00    -0.349 C  
HETATM    9  C   UNL     1     -11.740  14.816  69.198  1.00  0.00    -0.344 C  
HETATM   10  C   UNL     1     -12.377  17.207  69.928  1.00  0.00     4.202 C  
HETATM   11  C   UNL     1     -11.946  15.025  67.693  1.00  0.00    -0.093 C  
HETATM   12  C   UNL     1     -10.659  14.581  67.012  1.00  0.00    -0.278 C  
HETATM   13  C   UNL     1      -9.845  13.759  68.031  1.00  0.00    -0.239 C  
HETATM   14  C   UNL     1      -9.211  12.517  67.404  1.00  0.00    -0.186 C  
HETATM   15  C   UNL     1      -9.240  11.291  68.281  1.00  0.00    -0.176 C  
HETATM   16  C   UNL     1      -8.632  12.566  66.185  1.00  0.00     0.345 C  
HETATM   17  C   UNL     1     -10.095  13.460  70.635  1.00  0.00     4.231 C  
HETATM   18  C   UNL     1     -10.617  11.004  68.896  1.00  0.00    -0.239 C  
HETATM   19  C   UNL     1     -10.794  13.551  69.258  1.00  0.00    -0.107 C  
HETATM   20  C   UNL     1     -11.555  12.219  69.033  1.00  0.00    -0.368 C  
ENDROOT
BRANCH  16  21
HETATM   21  C   UNL     1      -7.740  11.561  65.656  1.00  0.00     0.576 C  
HETATM   22  C   UNL     1      -7.591  10.286  66.061  1.00  0.00    -0.128 C  
HETATM   23  C   UNL     1      -8.169   9.658  67.318  1.00  0.00    -0.114 C  
HETATM   24  C   UNL     1      -9.154   8.536  66.969  1.00  0.00    -0.143 C  
HETATM   25  C   UNL     1      -8.556   7.525  65.990  1.00  0.00    -0.164 C  
HETATM   26  O   UNL     1     -10.354   9.087  66.427  1.00  0.00    -0.261 OA 
HETATM   27  C   UNL     1      -7.932   8.194  64.759  1.00  0.00    -0.147 C  
HETATM   28  H   UNL     1     -10.964   8.392  66.210  1.00  0.00     0.000 HD 
HETATM   29  C   UNL     1      -6.921   9.301  65.111  1.00  0.00    -0.085 C  
HETATM   30  C   UNL     1      -5.595   8.755  65.627  1.00  0.00    -0.046 C  
ENDBRANCH  16  21
TORSDOF 1
ENDMDL
MODEL      139
REMARK 921   NORMALIZED FREE ENERGY PREDICTED BY IDOCK:    8.16 KCAL/MOL
REMARK 922        TOTAL FREE ENERGY PREDICTED BY IDOCK:    7.92 KCAL/MOL
REMARK 923 INTER-LIGAND FREE ENERGY PREDICTED BY IDOCK:    7.10 KCAL/MOL
REMARK 924 INTRA-LIGAND FREE ENERGY PREDICTED BY IDOCK:    0.82 KCAL/MOL
REMARK 927      BINDING AFFINITY PREDICTED BY RF-SCORE:    0.00 PKD
ROOT
HETATM    1  C   UNL     1     -11.597   4.457  66.145  1.00  0.00     3.146 C  
HETATM    2  C   UNL     1     -10.838   5.460  67.026  1.00  0.00    -0.118 C  
HETATM    3  C   UNL     1      -9.287   5.385  66.897  1.00  0.00    -0.127 C  
HETATM    4  C   UNL     1     -11.295   5.293  68.478  1.00  0.00     1.608 C  
HETATM    5  C   UNL     1      -8.834   5.768  65.505  1.00  0.00    -0.119 C  
HETATM    6  C   UNL     1      -8.690   4.026  67.270  1.00  0.00    -0.120 C  
HETATM    7  C   UNL     1      -7.699   6.432  65.235  1.00  0.00    -0.098 C  
HETATM    8  C   UNL     1      -7.271   6.941  63.868  1.00  0.00    -0.066 C  
HETATM    9  C   UNL     1      -7.520   8.484  63.659  1.00  0.00    -0.115 C  
HETATM   10  C   UNL     1      -7.865   6.112  62.705  1.00  0.00    -0.098 C  
HETATM   11  C   UNL     1      -9.006   8.844  63.790  1.00  0.00     0.203 C  
HETATM   12  C   UNL     1      -9.218   9.300  65.226  1.00  0.00    -0.275 C  
HETATM   13  C   UNL     1      -7.833   9.586  65.841  1.00  0.00    -0.100 C  
HETATM   14  C   UNL     1      -7.822  10.858  66.687  1.00  0.00    -0.145 C  
HETATM   15  C   UNL     1      -6.574  11.693  66.545  1.00  0.00     0.035 C  
HETATM   16  C   UNL     1      -8.840  11.150  67.526  1.00  0.00    -0.139 C  
HETATM   17  C   UNL     1      -5.401   8.995  65.022  1.00  0.00    -0.038 C  
HETATM   18  C   UNL     1      -6.168  11.951  65.087  1.00  0.00     3.117 C  
HETATM   19  C   UNL     1      -6.818   9.493  64.653  1.00  0.00    -0.101 C  
HETATM   20  C   UNL     1      -6.671  10.918  64.059  1.00  0.00     0.583 C  
ENDROOT
BRANCH  16  21
HETATM   21  C   UNL     1      -8.779  12.131  68.584  1.00  0.00     0.005 C  
HETATM   22  C   UNL     1      -8.405  13.422  68.501  1.00  0.00    -0.085 C  
HETATM   23  C   UNL     1      -7.744  14.102  67.314  1.00  0.00    -0.132 C  
HETATM   24  C   UNL     1      -8.639  15.210  66.747  1.00  0.00    -0.262 C  
HETATM   25  C   UNL     1      -9.116  16.178  67.829  1.00  0.00    -0.197 C  
HETATM   26  O   UNL     1      -9.762  14.639  66.076  1.00  0.00    -0.295 OA 
HETATM   27  C   UNL     1      -9.728  15.459  69.037  1.00  0.00    -0.239 C  
HETATM   28  H   UNL     1     -10.316  15.326  65.724  1.00  0.00     0.000 HD 
HETATM   29  C   UNL     1      -8.817  14.365  69.624  1.00  0.00     0.582 C  
HETATM   30  C   UNL     1      -7.641  14.930  70.413  1.00  0.00     0.687 C  
ENDBRANCH  16  21
TORSDOF 1
ENDMDL
MODEL      140
REMARK 921   NORMALIZED FREE ENERGY PREDICTED BY IDOCK:   10.21 KCAL/MOL
REMARK 922        TOTAL FREE ENERGY PREDICTED BY IDOCK:   10.09 KCAL/MOL
REMARK 923 INTER-LIGAND FREE ENERGY PREDICTED BY IDOCK:   10.53 KCAL/MOL
REMARK 924 INTRA-LIGAND FREE ENERGY PREDICTED BY IDOCK:   -0.44 KCAL/MOL
REMARK 927      BINDING AFFINITY PREDICTED BY RF-SCORE:    0.00 PKD
ROOT
HETATM    1  C   UNL     1      -9.829  11.230  72.022  1.00  0.00    12.059 C  
HETATM    2  C   UNL     1      -9.870  10.116  70.966  1.00  0.00     0.984 C  
HETATM    3  C   UNL     1     -11.146  10.124  70.071  1.00  0.00    -0.368 C  
HETATM    4  C   UNL     1      -9.672   8.765  71.660  1.00  0.00    -0.366 C  
HETATM    5  C   UNL     1     -11.213  11.376  69.225  1.00  0.00    -0.342 C  
HETATM    6  C   UNL     1     -12.457   9.961  70.844  1.00  0.00    -0.401 C  
HETATM    7  C   UNL     1     -11.706  11.419  67.977  1.00  0.00    -0.324 C  
HETATM    8  C   UNL     1     -11.679  12.626  67.052  1.00  0.00    -0.438 C  
HETATM    9  C   UNL     1     -10.541  12.564  65.962  1.00  0.00    -0.289 C  
HETATM   10  C   UNL     1     -11.652  13.969  67.818  1.00  0.00    -0.378 C  
HETATM   11  C   UNL     1      -9.146  12.496  66.597  1.00  0.00    -0.203 C  
HETATM   12  C   UNL     1      -8.768  11.023  66.657  1.00  0.00    -0.160 C  
HETATM   13  C   UNL     1      -9.727  10.249  65.730  1.00  0.00    -0.297 C  
HETATM   14  C   UNL     1      -9.007   9.183  64.905  1.00  0.00    -0.201 C  
HETATM   15  C   UNL     1      -9.492   9.061  63.483  1.00  0.00     1.130 C  
HETATM   16  C   UNL     1      -8.057   8.395  65.455  1.00  0.00    -0.133 C  
HETATM   17  C   UNL     1     -11.984  10.953  64.571  1.00  0.00     1.675 C  
HETATM   18  C   UNL     1      -9.595  10.404  62.748  1.00  0.00    -0.311 C  
HETATM   19  C   UNL     1     -10.538  11.343  64.957  1.00  0.00    -0.359 C  
HETATM   20  C   UNL     1      -9.769  11.646  63.645  1.00  0.00    -0.310 C  
ENDROOT
BRANCH  16  21
HETATM   21  C   UNL     1      -7.563   7.171  64.869  1.00  0.00    -0.103 C  
HETATM   22  C   UNL     1      -6.685   6.295  65.393  1.00  0.00    -0.047 C  
HETATM   23  C   UNL     1      -5.832   6.495  66.635  1.00  0.00    -0.018 C  
HETATM   24  C   UNL     1      -6.196   5.475  67.721  1.00  0.00    -0.034 C  
HETATM   25  C   UNL     1      -6.193   4.041  67.191  1.00  0.00    -0.036 C  
HETATM   26  O   UNL     1      -7.473   5.785  68.278  1.00  0.00    -0.078 OA 
HETATM   27  C   UNL     1      -7.017   3.884  65.907  1.00  0.00    -0.065 C  
HETATM   28  H   UNL     1      -7.698   5.153  68.951  1.00  0.00     0.000 HD 
HETATM   29  C   UNL     1      -6.632   4.890  64.807  1.00  0.00    -0.043 C  
HETATM   30  C   UNL     1      -5.307   4.556  64.132  1.00  0.00    -0.013 C  
ENDBRANCH  16  21
TORSDOF 1
ENDMDL
MODEL      141
REMARK 921   NORMALIZED FREE ENERGY PREDICTED BY IDOCK:   13.63 KCAL/MOL
REMARK 922        TOTAL FREE ENERGY PREDICTED BY IDOCK:   13.71 KCAL/MOL
REMARK 923 INTER-LIGAND FREE ENERGY PREDICTED BY IDOCK:   13.44 KCAL/MOL
REMARK 924 INTRA-LIGAND FREE ENERGY PREDICTED BY IDOCK:    0.27 KCAL/MOL
REMARK 927      BINDING AFFINITY PREDICTED BY RF-SCORE:    0.00 PKD
ROOT
HETATM    1  C   UNL     1     -12.305  10.282  64.796  1.00  0.00     6.600 C  
HETATM    2  C   UNL     1     -12.103  11.637  65.489  1.00  0.00     0.533 C  
HETATM    3  C   UNL     1     -11.595  11.540  66.959  1.00  0.00    -0.203 C  
HETATM    4  C   UNL     1     -13.401  12.445  65.390  1.00  0.00     2.031 C  
HETATM    5  C   UNL     1     -10.209  10.936  67.019  1.00  0.00    -0.256 C  
HETATM    6  C   UNL     1     -12.528  10.770  67.897  1.00  0.00     2.262 C  
HETATM    7  C   UNL     1      -9.266  11.295  67.905  1.00  0.00    -0.157 C  
HETATM    8  C   UNL     1      -7.828  10.800  67.920  1.00  0.00    -0.109 C  
HETATM    9  C   UNL     1      -6.799  11.827  67.309  1.00  0.00    -0.134 C  
HETATM   10  C   UNL     1      -7.668   9.398  67.289  1.00  0.00    -0.091 C  
HETATM   11  C   UNL     1      -7.113  12.143  65.841  1.00  0.00     1.728 C  
HETATM   12  C   UNL     1      -7.943  13.419  65.840  1.00  0.00     2.606 C  
HETATM   13  C   UNL     1      -7.804  14.076  67.228  1.00  0.00    -0.143 C  
HETATM   14  C   UNL     1      -7.633  15.592  67.141  1.00  0.00    -0.253 C  
HETATM   15  C   UNL     1      -6.644  16.166  68.124  1.00  0.00    -0.131 C  
HETATM   16  C   UNL     1      -8.367  16.331  66.282  1.00  0.00    -0.343 C  
HETATM   17  C   UNL     1      -6.848  13.162  69.505  1.00  0.00     0.092 C  
HETATM   18  C   UNL     1      -5.301  15.423  68.154  1.00  0.00    -0.125 C  
HETATM   19  C   UNL     1      -6.693  13.259  67.969  1.00  0.00    -0.127 C  
HETATM   20  C   UNL     1      -5.338  13.956  67.681  1.00  0.00     0.057 C  
ENDROOT
BRANCH  16  21
HETATM   21  C   UNL     1      -8.516  17.766  66.349  1.00  0.00    -0.270 C  
HETATM   22  C   UNL     1      -7.557  18.707  66.254  1.00  0.00    -0.291 C  
HETATM   23  C   UNL     1      -6.055  18.479  66.273  1.00  0.00    -0.208 C  
HETATM   24  C   UNL     1      -5.417  18.909  64.947  1.00  0.00    -0.219 C  
HETATM   25  C   UNL     1      -5.824  20.326  64.542  1.00  0.00    -0.292 C  
HETATM   26  O   UNL     1      -5.766  17.989  63.913  1.00  0.00     0.560 OA 
HETATM   27  C   UNL     1      -7.342  20.540  64.586  1.00  0.00     0.488 C  
HETATM   28  H   UNL     1      -5.371  18.256  63.091  1.00  0.00     0.000 HD 
HETATM   29  C   UNL     1      -7.978  20.134  65.929  1.00  0.00    -0.197 C  
HETATM   30  C   UNL     1      -7.692  21.129  67.048  1.00  0.00     0.034 C  
ENDBRANCH  16  21
TORSDOF 1
ENDMDL
MODEL      142
REMARK 921   NORMALIZED FREE ENERGY PREDICTED BY IDOCK:   13.79 KCAL/MOL
REMARK 922        TOTAL FREE ENERGY PREDICTED BY IDOCK:   13.87 KCAL/MOL
REMARK 923 INTER-LIGAND FREE ENERGY PREDICTED BY IDOCK:   14.39 KCAL/MOL
REMARK 924 INTRA-LIGAND FREE ENERGY PREDICTED BY IDOCK:   -0.52 KCAL/MOL
REMARK 927      BINDING AFFINITY PREDICTED BY RF-SCORE:    0.00 PKD
ROOT
HETATM    1  C   UNL     1      -5.997  10.588  64.819  1.00  0.00    -0.077 C  
HETATM    2  C   UNL     1      -6.536  10.030  66.144  1.00  0.00    -0.086 C  
HETATM    3  C   UNL     1      -8.089   9.933  66.219  1.00  0.00    -0.114 C  
HETATM    4  C   UNL     1      -5.962  10.856  67.301  1.00  0.00    -0.054 C  
HETATM    5  C   UNL     1      -8.624   8.942  65.209  1.00  0.00    -0.209 C  
HETATM    6  C   UNL     1      -8.811  11.272  66.049  1.00  0.00    -0.189 C  
HETATM    7  C   UNL     1      -9.688   8.151  65.417  1.00  0.00     0.799 C  
HETATM    8  C   UNL     1     -10.181   7.060  64.479  1.00  0.00     5.422 C  
HETATM    9  C   UNL     1      -9.763   5.606  64.924  1.00  0.00     0.775 C  
HETATM   10  C   UNL     1      -9.812   7.325  63.002  1.00  0.00     4.830 C  
HETATM   11  C   UNL     1      -8.239   5.444  64.984  1.00  0.00    -0.137 C  
HETATM   12  C   UNL     1      -7.832   5.689  66.429  1.00  0.00    -0.101 C  
HETATM   13  C   UNL     1      -9.103   5.611  67.299  1.00  0.00    -0.110 C  
HETATM   14  C   UNL     1      -8.872   4.849  68.603  1.00  0.00    -0.116 C  
HETATM   15  C   UNL     1     -10.014   3.954  69.014  1.00  0.00     0.151 C  
HETATM   16  C   UNL     1      -7.749   5.030  69.330  1.00  0.00    -0.068 C  
HETATM   17  C   UNL     1     -11.658   5.608  66.661  1.00  0.00     1.214 C  
HETATM   18  C   UNL     1     -10.526   3.049  67.885  1.00  0.00     2.679 C  
HETATM   19  C   UNL     1     -10.233   5.096  66.345  1.00  0.00    -0.303 C  
HETATM   20  C   UNL     1     -10.258   3.549  66.452  1.00  0.00     0.743 C  
ENDROOT
BRANCH  16  21
HETATM   21  C   UNL     1      -7.582   4.620  70.705  1.00  0.00    -0.054 C  
HETATM   22  C   UNL     1      -7.011   5.305  71.714  1.00  0.00    -0.070 C  
HETATM   23  C   UNL     1      -6.205   6.588  71.599  1.00  0.00    -0.042 C  
HETATM   24  C   UNL     1      -6.895   7.739  72.341  1.00  0.00    -0.067 C  
HETATM   25  C   UNL     1      -7.262   7.363  73.777  1.00  0.00    -0.103 C  
HETATM   26  O   UNL     1      -8.064   8.150  71.632  1.00  0.00    -0.103 OA 
HETATM   27  C   UNL     1      -8.027   6.037  73.863  1.00  0.00    -0.101 C  
HETATM   28  H   UNL     1      -8.491   8.862  72.092  1.00  0.00     0.000 HD 
HETATM   29  C   UNL     1      -7.319   4.875  73.142  1.00  0.00    -0.087 C  
HETATM   30  C   UNL     1      -6.105   4.354  73.902  1.00  0.00    -0.032 C  
ENDBRANCH  16  21
TORSDOF 1
ENDMDL
MODEL      143
REMARK 921   NORMALIZED FREE ENERGY PREDICTED BY IDOCK:   14.06 KCAL/MOL
REMARK 922        TOTAL FREE ENERGY PREDICTED BY IDOCK:   14.16 KCAL/MOL
REMARK 923 INTER-LIGAND FREE ENERGY PREDICTED BY IDOCK:   14.66 KCAL/MOL
REMARK 924 INTRA-LIGAND FREE ENERGY PREDICTED BY IDOCK:   -0.50 KCAL/MOL
REMARK 927      BINDING AFFINITY PREDICTED BY RF-SCORE:    0.00 PKD
ROOT
HETATM    1  C   UNL     1     -12.292  10.289  64.795  1.00  0.00     6.600 C  
HETATM    2  C   UNL     1     -12.049  11.657  65.451  1.00  0.00     0.480 C  
HETATM    3  C   UNL     1     -11.540  11.585  66.922  1.00  0.00    -0.166 C  
HETATM    4  C   UNL     1     -13.323  12.499  65.331  1.00  0.00     1.721 C  
HETATM    5  C   UNL     1     -10.173  10.942  66.996  1.00  0.00    -0.256 C  
HETATM    6  C   UNL     1     -12.493  10.869  67.882  1.00  0.00     2.003 C  
HETATM    7  C   UNL     1      -9.217  11.297  67.870  1.00  0.00    -0.157 C  
HETATM    8  C   UNL     1      -7.794  10.760  67.897  1.00  0.00    -0.109 C  
HETATM    9  C   UNL     1      -6.737  11.739  67.256  1.00  0.00    -0.133 C  
HETATM   10  C   UNL     1      -7.677   9.337  67.304  1.00  0.00    -0.095 C  
HETATM   11  C   UNL     1      -7.045  12.024  65.780  1.00  0.00     1.720 C  
HETATM   12  C   UNL     1      -7.837  13.323  65.745  1.00  0.00     3.297 C  
HETATM   13  C   UNL     1      -7.675  14.013  67.114  1.00  0.00    -0.004 C  
HETATM   14  C   UNL     1      -7.459  15.521  66.986  1.00  0.00    -0.205 C  
HETATM   15  C   UNL     1      -6.451  16.092  67.950  1.00  0.00    -0.158 C  
HETATM   16  C   UNL     1      -8.173  16.258  66.107  1.00  0.00    -0.204 C  
HETATM   17  C   UNL     1      -6.741  13.135  69.414  1.00  0.00    -0.022 C  
HETATM   18  C   UNL     1      -5.131  15.310  67.999  1.00  0.00    -0.126 C  
HETATM   19  C   UNL     1      -6.587  13.185  67.876  1.00  0.00    -0.137 C  
HETATM   20  C   UNL     1      -5.212  13.833  67.566  1.00  0.00     0.165 C  
ENDROOT
BRANCH  16  21
HETATM   21  C   UNL     1      -8.280  17.698  66.135  1.00  0.00    -0.205 C  
HETATM   22  C   UNL     1      -8.973  18.463  66.999  1.00  0.00    -0.275 C  
HETATM   23  C   UNL     1      -9.991  17.986  68.022  1.00  0.00    -0.346 C  
HETATM   24  C   UNL     1      -9.522  18.293  69.449  1.00  0.00     0.263 C  
HETATM   25  C   UNL     1      -9.110  19.755  69.620  1.00  0.00     0.435 C  
HETATM   26  O   UNL     1      -8.436  17.437  69.804  1.00  0.00     0.757 OA 
HETATM   27  C   UNL     1      -8.125  20.221  68.541  1.00  0.00     0.121 C  
HETATM   28  H   UNL     1      -8.145  17.627  70.688  1.00  0.00     0.000 HD 
HETATM   29  C   UNL     1      -8.610  19.938  67.107  1.00  0.00    -0.384 C  
HETATM   30  C   UNL     1      -9.722  20.879  66.658  1.00  0.00     0.078 C  
ENDBRANCH  16  21
TORSDOF 1
ENDMDL
MODEL      144
REMARK 921   NORMALIZED FREE ENERGY PREDICTED BY IDOCK:   15.41 KCAL/MOL
REMARK 922        TOTAL FREE ENERGY PREDICTED BY IDOCK:   15.58 KCAL/MOL
REMARK 923 INTER-LIGAND FREE ENERGY PREDICTED BY IDOCK:   12.05 KCAL/MOL
REMARK 924 INTRA-LIGAND FREE ENERGY PREDICTED BY IDOCK:    3.53 KCAL/MOL
REMARK 927      BINDING AFFINITY PREDICTED BY RF-SCORE:    0.00 PKD
ROOT
HETATM    1  C   UNL     1     -10.332  17.900  72.593  1.00  0.00     5.443 C  
HETATM    2  C   UNL     1     -10.621  16.751  71.616  1.00  0.00     2.253 C  
HETATM    3  C   UNL     1     -10.325  17.084  70.123  1.00  0.00     0.456 C  
HETATM    4  C   UNL     1     -12.065  16.279  71.817  1.00  0.00    -0.408 C  
HETATM    5  C   UNL     1      -8.850  17.335  69.901  1.00  0.00     1.564 C  
HETATM    6  C   UNL     1     -11.130  18.263  69.571  1.00  0.00     1.980 C  
HETATM    7  C   UNL     1      -8.184  16.991  68.787  1.00  0.00    -0.245 C  
HETATM    8  C   UNL     1      -6.683  17.115  68.575  1.00  0.00    -0.178 C  
HETATM    9  C   UNL     1      -5.906  15.753  68.744  1.00  0.00    -0.100 C  
HETATM   10  C   UNL     1      -6.046  18.237  69.427  1.00  0.00    -0.254 C  
HETATM   11  C   UNL     1      -6.079  15.168  70.152  1.00  0.00    -0.148 C  
HETATM   12  C   UNL     1      -7.224  14.169  70.068  1.00  0.00     0.335 C  
HETATM   13  C   UNL     1      -7.477  13.862  68.578  1.00  0.00    -0.122 C  
HETATM   14  C   UNL     1      -7.728  12.377  68.323  1.00  0.00    -0.140 C  
HETATM   15  C   UNL     1      -7.093  11.844  67.064  1.00  0.00    -0.116 C  
HETATM   16  C   UNL     1      -8.506  11.645  69.150  1.00  0.00     0.279 C  
HETATM   17  C   UNL     1      -6.646  15.055  66.383  1.00  0.00     2.923 C  
HETATM   18  C   UNL     1      -5.615  12.228  66.907  1.00  0.00     0.072 C  
HETATM   19  C   UNL     1      -6.302  14.546  67.803  1.00  0.00    -0.169 C  
HETATM   20  C   UNL     1      -5.170  13.496  67.661  1.00  0.00     0.018 C  
ENDROOT
BRANCH  16  21
HETATM   21  C   UNL     1      -9.060  10.351  68.829  1.00  0.00    -0.165 C  
HETATM   22  C   UNL     1      -9.545   9.924  67.647  1.00  0.00    -0.172 C  
HETATM   23  C   UNL     1      -9.832  10.775  66.422  1.00  0.00    -0.254 C  
HETATM   24  C   UNL     1      -8.946  10.355  65.242  1.00  0.00    -0.187 C  
HETATM   25  C   UNL     1      -9.008   8.850  64.980  1.00  0.00    -0.160 C  
HETATM   26  O   UNL     1      -7.596  10.753  65.475  1.00  0.00    -0.294 OA 
HETATM   27  C   UNL     1      -8.770   8.020  66.247  1.00  0.00    -0.174 C  
HETATM   28  H   UNL     1      -7.047  10.493  64.745  1.00  0.00     0.000 HD 
HETATM   29  C   UNL     1      -9.679   8.423  67.423  1.00  0.00    -0.222 C  
HETATM   30  C   UNL     1     -11.119   7.954  67.250  1.00  0.00     0.234 C  
ENDBRANCH  16  21
TORSDOF 1
ENDMDL
MODEL      145
REMARK 921   NORMALIZED FREE ENERGY PREDICTED BY IDOCK:   16.15 KCAL/MOL
REMARK 922        TOTAL FREE ENERGY PREDICTED BY IDOCK:   16.37 KCAL/MOL
REMARK 923 INTER-LIGAND FREE ENERGY PREDICTED BY IDOCK:   17.06 KCAL/MOL
REMARK 924 INTRA-LIGAND FREE ENERGY PREDICTED BY IDOCK:   -0.69 KCAL/MOL
REMARK 927      BINDING AFFINITY PREDICTED BY RF-SCORE:    0.00 PKD
ROOT
HETATM    1  C   UNL     1      -7.366  13.357  73.936  1.00  0.00     6.142 C  
HETATM    2  C   UNL     1      -6.945  14.228  72.743  1.00  0.00     3.310 C  
HETATM    3  C   UNL     1      -6.373  13.429  71.533  1.00  0.00     1.302 C  
HETATM    4  C   UNL     1      -5.965  15.299  73.230  1.00  0.00     1.296 C  
HETATM    5  C   UNL     1      -7.428  12.531  70.923  1.00  0.00     5.147 C  
HETATM    6  C   UNL     1      -5.127  12.604  71.857  1.00  0.00    -0.026 C  
HETATM    7  C   UNL     1      -7.525  12.263  69.612  1.00  0.00     0.719 C  
HETATM    8  C   UNL     1      -8.639  11.467  68.948  1.00  0.00    -0.020 C  
HETATM    9  C   UNL     1      -9.722  12.365  68.237  1.00  0.00    -0.218 C  
HETATM   10  C   UNL     1      -9.294  10.441  69.902  1.00  0.00     0.080 C  
HETATM   11  C   UNL     1     -10.419  13.308  69.226  1.00  0.00     0.164 C  
HETATM   12  C   UNL     1      -9.686  14.639  69.148  1.00  0.00    -0.108 C  
HETATM   13  C   UNL     1      -8.824  14.630  67.868  1.00  0.00    -0.170 C  
HETATM   14  C   UNL     1      -8.877  15.962  67.120  1.00  0.00    -0.228 C  
HETATM   15  C   UNL     1      -8.927  15.833  65.619  1.00  0.00     0.160 C  
HETATM   16  C   UNL     1      -8.824  17.139  67.781  1.00  0.00    -0.225 C  
HETATM   17  C   UNL     1      -8.132  12.679  66.242  1.00  0.00     0.704 C  
HETATM   18  C   UNL     1      -9.981  14.835  65.120  1.00  0.00    -0.279 C  
HETATM   19  C   UNL     1      -9.245  13.340  67.088  1.00  0.00    -0.235 C  
HETATM   20  C   UNL     1     -10.391  13.738  66.122  1.00  0.00    -0.301 C  
ENDROOT
BRANCH  16  21
HETATM   21  C   UNL     1      -8.543  18.415  67.168  1.00  0.00    -0.262 C  
HETATM   22  C   UNL     1      -7.347  18.919  66.807  1.00  0.00    -0.224 C  
HETATM   23  C   UNL     1      -5.980  18.356  67.160  1.00  0.00    -0.166 C  
HETATM   24  C   UNL     1      -5.223  17.922  65.899  1.00  0.00    -0.200 C  
HETATM   25  C   UNL     1      -5.185  19.024  64.839  1.00  0.00    -0.218 C  
HETATM   26  O   UNL     1      -5.812  16.742  65.353  1.00  0.00     1.126 OA 
HETATM   27  C   UNL     1      -6.572  19.608  64.546  1.00  0.00     0.088 C  
HETATM   28  H   UNL     1      -5.343  16.474  64.572  1.00  0.00     0.000 HD 
HETATM   29  C   UNL     1      -7.321  20.070  65.810  1.00  0.00    -0.321 C  
HETATM   30  C   UNL     1      -6.771  21.369  66.387  1.00  0.00     0.022 C  
ENDBRANCH  16  21
TORSDOF 1
ENDMDL
MODEL      146
REMARK 921   NORMALIZED FREE ENERGY PREDICTED BY IDOCK:   16.84 KCAL/MOL
REMARK 922        TOTAL FREE ENERGY PREDICTED BY IDOCK:   17.10 KCAL/MOL
REMARK 923 INTER-LIGAND FREE ENERGY PREDICTED BY IDOCK:   14.97 KCAL/MOL
REMARK 924 INTRA-LIGAND FREE ENERGY PREDICTED BY IDOCK:    2.13 KCAL/MOL
REMARK 927      BINDING AFFINITY PREDICTED BY RF-SCORE:    0.00 PKD
ROOT
HETATM    1  C   UNL     1      -5.252  18.625  70.889  1.00  0.00    -0.272 C  
HETATM    2  C   UNL     1      -6.014  17.345  71.259  1.00  0.00     1.229 C  
HETATM    3  C   UNL     1      -7.398  17.193  70.559  1.00  0.00     2.785 C  
HETATM    4  C   UNL     1      -6.139  17.264  72.784  1.00  0.00     3.745 C  
HETATM    5  C   UNL     1      -7.239  17.054  69.060  1.00  0.00    -0.229 C  
HETATM    6  C   UNL     1      -8.384  18.323  70.863  1.00  0.00     5.804 C  
HETATM    7  C   UNL     1      -8.025  16.289  68.285  1.00  0.00    -0.166 C  
HETATM    8  C   UNL     1      -7.823  16.028  66.801  1.00  0.00    -0.288 C  
HETATM    9  C   UNL     1      -7.167  14.629  66.487  1.00  0.00     1.795 C  
HETATM   10  C   UNL     1      -7.074  17.175  66.085  1.00  0.00    -0.223 C  
HETATM   11  C   UNL     1      -5.778  14.495  67.124  1.00  0.00     0.855 C  
HETATM   12  C   UNL     1      -5.975  13.778  68.451  1.00  0.00    -0.099 C  
HETATM   13  C   UNL     1      -7.381  13.144  68.442  1.00  0.00    -0.116 C  
HETATM   14  C   UNL     1      -7.387  11.733  69.029  1.00  0.00    -0.055 C  
HETATM   15  C   UNL     1      -8.279  10.758  68.303  1.00  0.00    -0.124 C  
HETATM   16  C   UNL     1      -6.684  11.435  70.143  1.00  0.00     0.156 C  
HETATM   17  C   UNL     1      -9.446  13.496  66.847  1.00  0.00    -0.258 C  
HETATM   18  C   UNL     1      -8.086  10.761  66.780  1.00  0.00    -0.137 C  
HETATM   19  C   UNL     1      -7.914  13.327  66.982  1.00  0.00     0.013 C  
HETATM   20  C   UNL     1      -7.512  12.061  66.181  1.00  0.00     0.719 C  
ENDROOT
BRANCH  16  21
HETATM   21  C   UNL     1      -6.877  10.251  70.947  1.00  0.00     0.320 C  
HETATM   22  C   UNL     1      -7.214   9.014  70.537  1.00  0.00    -0.081 C  
HETATM   23  C   UNL     1      -7.689   8.614  69.150  1.00  0.00    -0.097 C  
HETATM   24  C   UNL     1      -6.704   7.641  68.491  1.00  0.00    -0.054 C  
HETATM   25  C   UNL     1      -6.369   6.456  69.397  1.00  0.00    -0.035 C  
HETATM   26  O   UNL     1      -5.507   8.326  68.124  1.00  0.00    -0.033 OA 
HETATM   27  C   UNL     1      -5.946   6.890  70.805  1.00  0.00    -0.028 C  
HETATM   28  H   UNL     1      -4.897   7.724  67.716  1.00  0.00     0.000 HD 
HETATM   29  C   UNL     1      -6.949   7.845  71.478  1.00  0.00    -0.060 C  
HETATM   30  C   UNL     1      -8.215   7.141  71.952  1.00  0.00    -0.104 C  
ENDBRANCH  16  21
TORSDOF 1
ENDMDL
MODEL      147
REMARK 921   NORMALIZED FREE ENERGY PREDICTED BY IDOCK:   18.42 KCAL/MOL
REMARK 922        TOTAL FREE ENERGY PREDICTED BY IDOCK:   18.77 KCAL/MOL
REMARK 923 INTER-LIGAND FREE ENERGY PREDICTED BY IDOCK:   19.49 KCAL/MOL
REMARK 924 INTRA-LIGAND FREE ENERGY PREDICTED BY IDOCK:   -0.72 KCAL/MOL
REMARK 927      BINDING AFFINITY PREDICTED BY RF-SCORE:    0.00 PKD
ROOT
HETATM    1  C   UNL     1     -10.863  11.094  62.744  1.00  0.00     0.495 C  
HETATM    2  C   UNL     1     -10.900  10.041  63.860  1.00  0.00     2.570 C  
HETATM    3  C   UNL     1      -9.839   8.909  63.713  1.00  0.00     2.558 C  
HETATM    4  C   UNL     1     -12.321   9.477  63.965  1.00  0.00    12.938 C  
HETATM    5  C   UNL     1      -8.434   9.458  63.832  1.00  0.00    -0.204 C  
HETATM    6  C   UNL     1      -9.961   8.097  62.422  1.00  0.00     4.016 C  
HETATM    7  C   UNL     1      -7.412   8.800  64.401  1.00  0.00    -0.107 C  
HETATM    8  C   UNL     1      -6.021   9.363  64.649  1.00  0.00    -0.072 C  
HETATM    9  C   UNL     1      -5.778   9.818  66.139  1.00  0.00    -0.057 C  
HETATM   10  C   UNL     1      -5.638  10.479  63.649  1.00  0.00    -0.132 C  
HETATM   11  C   UNL     1      -6.754  10.923  66.564  1.00  0.00    -0.133 C  
HETATM   12  C   UNL     1      -7.911  10.231  67.271  1.00  0.00    -0.103 C  
HETATM   13  C   UNL     1      -7.465   8.796  67.615  1.00  0.00    -0.093 C  
HETATM   14  C   UNL     1      -7.904   8.369  69.015  1.00  0.00    -0.102 C  
HETATM   15  C   UNL     1      -6.881   7.559  69.771  1.00  0.00    -0.047 C  
HETATM   16  C   UNL     1      -9.137   8.662  69.482  1.00  0.00    -0.146 C  
HETATM   17  C   UNL     1      -5.405   7.366  66.812  1.00  0.00    -0.023 C  
HETATM   18  C   UNL     1      -5.474   8.174  69.757  1.00  0.00    -0.023 C  
HETATM   19  C   UNL     1      -5.936   8.740  67.283  1.00  0.00    -0.047 C  
HETATM   20  C   UNL     1      -5.169   9.117  68.577  1.00  0.00    -0.034 C  
ENDROOT
BRANCH  16  21
HETATM   21  C   UNL     1      -9.752   8.039  70.631  1.00  0.00    -0.180 C  
HETATM   22  C   UNL     1     -10.371   6.846  70.697  1.00  0.00    -0.220 C  
HETATM   23  C   UNL     1     -10.767   5.961  69.526  1.00  0.00    -0.414 C  
HETATM   24  C   UNL     1     -10.024   4.621  69.574  1.00  0.00    -0.196 C  
HETATM   25  C   UNL     1     -10.149   3.939  70.937  1.00  0.00    -0.009 C  
HETATM   26  O   UNL     1      -8.646   4.811  69.251  1.00  0.00    -0.082 OA 
HETATM   27  C   UNL     1      -9.796   4.874  72.100  1.00  0.00    -0.226 C  
HETATM   28  H   UNL     1      -8.186   3.981  69.281  1.00  0.00     0.000 HD 
HETATM   29  C   UNL     1     -10.564   6.208  72.067  1.00  0.00    -0.259 C  
HETATM   30  C   UNL     1     -12.025   6.065  72.477  1.00  0.00    -0.176 C  
ENDBRANCH  16  21
TORSDOF 1
ENDMDL
MODEL      148
REMARK 921   NORMALIZED FREE ENERGY PREDICTED BY IDOCK:   21.75 KCAL/MOL
REMARK 922        TOTAL FREE ENERGY PREDICTED BY IDOCK:   22.30 KCAL/MOL
REMARK 923 INTER-LIGAND FREE ENERGY PREDICTED BY IDOCK:   19.18 KCAL/MOL
REMARK 924 INTRA-LIGAND FREE ENERGY PREDICTED BY IDOCK:    3.12 KCAL/MOL
REMARK 927      BINDING AFFINITY PREDICTED BY RF-SCORE:    0.00 PKD
ROOT
HETATM    1  C   UNL     1      -8.885  19.489  70.528  1.00  0.00     1.874 C  
HETATM    2  C   UNL     1      -9.506  18.084  70.515  1.00  0.00     3.245 C  
HETATM    3  C   UNL     1     -10.050  17.633  69.126  1.00  0.00    -0.232 C  
HETATM    4  C   UNL     1     -10.584  18.006  71.600  1.00  0.00     3.229 C  
HETATM    5  C   UNL     1      -8.932  17.503  68.116  1.00  0.00    -0.266 C  
HETATM    6  C   UNL     1     -11.147  18.537  68.558  1.00  0.00     0.812 C  
HETATM    7  C   UNL     1      -8.894  16.577  67.144  1.00  0.00    -0.213 C  
HETATM    8  C   UNL     1      -7.735  16.337  66.190  1.00  0.00     0.145 C  
HETATM    9  C   UNL     1      -6.838  15.101  66.582  1.00  0.00     1.327 C  
HETATM   10  C   UNL     1      -6.879  17.603  65.954  1.00  0.00    -0.253 C  
HETATM   11  C   UNL     1      -6.205  15.273  67.969  1.00  0.00    -0.156 C  
HETATM   12  C   UNL     1      -7.115  14.555  68.954  1.00  0.00    -0.118 C  
HETATM   13  C   UNL     1      -8.058  13.640  68.146  1.00  0.00    -0.156 C  
HETATM   14  C   UNL     1      -8.241  12.270  68.798  1.00  0.00     0.081 C  
HETATM   15  C   UNL     1      -8.283  11.117  67.828  1.00  0.00    -0.119 C  
HETATM   16  C   UNL     1      -8.404  12.146  70.133  1.00  0.00     3.543 C  
HETATM   17  C   UNL     1      -8.597  13.523  65.572  1.00  0.00     2.035 C  
HETATM   18  C   UNL     1      -7.143  11.133  66.799  1.00  0.00    -0.139 C  
HETATM   19  C   UNL     1      -7.525  13.681  66.675  1.00  0.00     1.173 C  
HETATM   20  C   UNL     1      -6.517  12.513  66.517  1.00  0.00     1.121 C  
ENDROOT
BRANCH  16  21
HETATM   21  C   UNL     1      -8.900  10.962  70.796  1.00  0.00     3.721 C  
HETATM   22  C   UNL     1      -9.899  10.149  70.406  1.00  0.00     0.073 C  
HETATM   23  C   UNL     1     -10.896  10.404  69.288  1.00  0.00    -0.280 C  
HETATM   24  C   UNL     1     -10.754   9.357  68.176  1.00  0.00    -0.178 C  
HETATM   25  C   UNL     1     -10.786   7.929  68.720  1.00  0.00    -0.082 C  
HETATM   26  O   UNL     1      -9.546   9.574  67.448  1.00  0.00    -0.136 OA 
HETATM   27  C   UNL     1      -9.809   7.718  69.883  1.00  0.00    -0.177 C  
HETATM   28  H   UNL     1      -9.458   8.926  66.760  1.00  0.00     0.000 HD 
HETATM   29  C   UNL     1      -9.971   8.753  71.012  1.00  0.00    -0.297 C  
HETATM   30  C   UNL     1     -11.213   8.516  71.864  1.00  0.00    -0.397 C  
ENDBRANCH  16  21
TORSDOF 1
ENDMDL
MODEL      149
REMARK 921   NORMALIZED FREE ENERGY PREDICTED BY IDOCK:   22.28 KCAL/MOL
REMARK 922        TOTAL FREE ENERGY PREDICTED BY IDOCK:   22.86 KCAL/MOL
REMARK 923 INTER-LIGAND FREE ENERGY PREDICTED BY IDOCK:   23.29 KCAL/MOL
REMARK 924 INTRA-LIGAND FREE ENERGY PREDICTED BY IDOCK:   -0.43 KCAL/MOL
REMARK 927      BINDING AFFINITY PREDICTED BY RF-SCORE:    0.00 PKD
ROOT
HETATM    1  C   UNL     1      -6.410  16.792  66.225  1.00  0.00     0.275 C  
HETATM    2  C   UNL     1      -7.836  16.411  66.647  1.00  0.00    -0.316 C  
HETATM    3  C   UNL     1      -8.531  15.377  65.712  1.00  0.00     1.042 C  
HETATM    4  C   UNL     1      -8.668  17.689  66.798  1.00  0.00    -0.277 C  
HETATM    5  C   UNL     1      -7.816  14.043  65.745  1.00  0.00     3.959 C  
HETATM    6  C   UNL     1      -8.677  15.840  64.261  1.00  0.00     8.772 C  
HETATM    7  C   UNL     1      -8.431  12.854  65.652  1.00  0.00     1.604 C  
HETATM    8  C   UNL     1      -7.764  11.495  65.803  1.00  0.00     0.454 C  
HETATM    9  C   UNL     1      -7.992  10.831  67.215  1.00  0.00    -0.117 C  
HETATM   10  C   UNL     1      -6.265  11.516  65.425  1.00  0.00     1.218 C  
HETATM   11  C   UNL     1      -7.430  11.698  68.349  1.00  0.00    -0.107 C  
HETATM   12  C   UNL     1      -8.590  12.529  68.877  1.00  0.00     0.307 C  
HETATM   13  C   UNL     1      -9.898  11.905  68.350  1.00  0.00    -0.201 C  
HETATM   14  C   UNL     1     -10.992  11.859  69.415  1.00  0.00    -0.156 C  
HETATM   15  C   UNL     1     -11.823  10.600  69.403  1.00  0.00    -0.325 C  
HETATM   16  C   UNL     1     -11.206  12.902  70.246  1.00  0.00     0.556 C  
HETATM   17  C   UNL     1     -10.346  10.108  66.479  1.00  0.00    -0.270 C  
HETATM   18  C   UNL     1     -10.991   9.312  69.356  1.00  0.00    -0.138 C  
HETATM   19  C   UNL     1      -9.478  10.555  67.678  1.00  0.00    -0.164 C  
HETATM   20  C   UNL     1      -9.576   9.450  68.762  1.00  0.00    -0.156 C  
ENDROOT
BRANCH  16  21
HETATM   21  C   UNL     1     -12.393  13.088  71.047  1.00  0.00    -0.335 C  
HETATM   22  C   UNL     1     -12.522  13.782  72.193  1.00  0.00    -0.099 C  
HETATM   23  C   UNL     1     -11.399  14.355  73.040  1.00  0.00     1.316 C  
HETATM   24  C   UNL     1     -11.482  15.885  73.102  1.00  0.00     0.178 C  
HETATM   25  C   UNL     1     -12.874  16.373  73.506  1.00  0.00    -0.429 C  
HETATM   26  O   UNL     1     -11.117  16.448  71.841  1.00  0.00     0.157 OA 
HETATM   27  C   UNL     1     -13.989  15.734  72.669  1.00  0.00    -0.557 C  
HETATM   28  H   UNL     1     -11.169  17.396  71.879  1.00  0.00     0.000 HD 
HETATM   29  C   UNL     1     -13.921  14.196  72.632  1.00  0.00    -0.412 C  
HETATM   30  C   UNL     1     -14.373  13.548  73.935  1.00  0.00     7.508 C  
ENDBRANCH  16  21
TORSDOF 1
ENDMDL
MODEL      150
REMARK 921   NORMALIZED FREE ENERGY PREDICTED BY IDOCK:   23.67 KCAL/MOL
REMARK 922        TOTAL FREE ENERGY PREDICTED BY IDOCK:   24.33 KCAL/MOL
REMARK 923 INTER-LIGAND FREE ENERGY PREDICTED BY IDOCK:   24.83 KCAL/MOL
REMARK 924 INTRA-LIGAND FREE ENERGY PREDICTED BY IDOCK:   -0.50 KCAL/MOL
REMARK 927      BINDING AFFINITY PREDICTED BY RF-SCORE:    0.00 PKD
ROOT
HETATM    1  C   UNL     1      -8.303  16.138  68.323  1.00  0.00    -0.171 C  
HETATM    2  C   UNL     1      -8.833  14.706  68.488  1.00  0.00    -0.182 C  
HETATM    3  C   UNL     1     -10.346  14.538  68.157  1.00  0.00    -0.232 C  
HETATM    4  C   UNL     1      -8.502  14.212  69.899  1.00  0.00     1.210 C  
HETATM    5  C   UNL     1     -10.622  14.820  66.697  1.00  0.00    -0.299 C  
HETATM    6  C   UNL     1     -11.277  15.388  69.024  1.00  0.00    -0.295 C  
HETATM    7  C   UNL     1     -11.544  14.176  65.963  1.00  0.00    -0.364 C  
HETATM    8  C   UNL     1     -11.766  14.344  64.468  1.00  0.00    -0.430 C  
HETATM    9  C   UNL     1     -11.133  13.190  63.600  1.00  0.00    -0.172 C  
HETATM   10  C   UNL     1     -11.339  15.737  63.951  1.00  0.00     0.522 C  
HETATM   11  C   UNL     1      -9.613  13.104  63.786  1.00  0.00     1.649 C  
HETATM   12  C   UNL     1      -9.365  12.044  64.849  1.00  0.00     0.173 C  
HETATM   13  C   UNL     1     -10.665  11.231  65.020  1.00  0.00    -0.322 C  
HETATM   14  C   UNL     1     -10.402   9.732  65.149  1.00  0.00     0.334 C  
HETATM   15  C   UNL     1     -11.396   8.858  64.427  1.00  0.00    10.923 C  
HETATM   16  C   UNL     1      -9.385   9.261  65.905  1.00  0.00    -0.297 C  
HETATM   17  C   UNL     1     -13.124  11.675  64.191  1.00  0.00     0.450 C  
HETATM   18  C   UNL     1     -11.655   9.288  62.976  1.00  0.00    11.503 C  
HETATM   19  C   UNL     1     -11.612  11.707  63.868  1.00  0.00    -0.403 C  
HETATM   20  C   UNL     1     -11.373  10.769  62.657  1.00  0.00     1.833 C  
ENDROOT
BRANCH  16  21
HETATM   21  C   UNL     1      -9.253   7.893  66.348  1.00  0.00    -0.241 C  
HETATM   22  C   UNL     1      -8.741   6.847  65.673  1.00  0.00    -0.086 C  
HETATM   23  C   UNL     1      -8.379   6.806  64.198  1.00  0.00     0.152 C  
HETATM   24  C   UNL     1      -6.876   6.573  64.006  1.00  0.00    -0.045 C  
HETATM   25  C   UNL     1      -6.371   5.369  64.802  1.00  0.00    -0.034 C  
HETATM   26  O   UNL     1      -6.147   7.742  64.379  1.00  0.00    -0.047 OA 
HETATM   27  C   UNL     1      -6.799   5.413  66.274  1.00  0.00    -0.059 C  
HETATM   28  H   UNL     1      -5.215   7.598  64.261  1.00  0.00     0.000 HD 
HETATM   29  C   UNL     1      -8.313   5.618  66.465  1.00  0.00    -0.110 C  
HETATM   30  C   UNL     1      -9.128   4.369  66.149  1.00  0.00    -0.130 C  
ENDBRANCH  16  21
TORSDOF 1
ENDMDL
MODEL      151
REMARK 921   NORMALIZED FREE ENERGY PREDICTED BY IDOCK:   24.38 KCAL/MOL
REMARK 922        TOTAL FREE ENERGY PREDICTED BY IDOCK:   25.08 KCAL/MOL
REMARK 923 INTER-LIGAND FREE ENERGY PREDICTED BY IDOCK:   24.53 KCAL/MOL
REMARK 924 INTRA-LIGAND FREE ENERGY PREDICTED BY IDOCK:    0.55 KCAL/MOL
REMARK 927      BINDING AFFINITY PREDICTED BY RF-SCORE:    0.00 PKD
ROOT
HETATM    1  C   UNL     1     -10.179  17.578  74.391  1.00  0.00     7.315 C  
HETATM    2  C   UNL     1     -10.868  16.498  73.544  1.00  0.00     3.677 C  
HETATM    3  C   UNL     1     -11.416  17.005  72.177  1.00  0.00     0.672 C  
HETATM    4  C   UNL     1     -11.962  15.830  74.382  1.00  0.00    -0.297 C  
HETATM    5  C   UNL     1     -10.293  17.461  71.271  1.00  0.00     3.053 C  
HETATM    6  C   UNL     1     -12.460  18.119  72.292  1.00  0.00     8.553 C  
HETATM    7  C   UNL     1     -10.289  17.311  69.937  1.00  0.00     0.292 C  
HETATM    8  C   UNL     1      -9.131  17.643  69.009  1.00  0.00    -0.034 C  
HETATM    9  C   UNL     1      -8.301  16.381  68.556  1.00  0.00    -0.202 C  
HETATM   10  C   UNL     1      -8.211  18.752  69.570  1.00  0.00     0.426 C  
HETATM   11  C   UNL     1      -7.677  15.649  69.751  1.00  0.00     0.003 C  
HETATM   12  C   UNL     1      -8.635  14.525  70.119  1.00  0.00     1.166 C  
HETATM   13  C   UNL     1      -9.611  14.330  68.942  1.00  0.00    -0.086 C  
HETATM   14  C   UNL     1      -9.869  12.856  68.636  1.00  0.00    -0.074 C  
HETATM   15  C   UNL     1      -9.956  12.528  67.167  1.00  0.00    -0.217 C  
HETATM   16  C   UNL     1     -10.056  11.957  69.627  1.00  0.00     0.896 C  
HETATM   17  C   UNL     1     -10.123  15.820  66.832  1.00  0.00    -0.267 C  
HETATM   18  C   UNL     1      -8.804  13.110  66.335  1.00  0.00     0.093 C  
HETATM   19  C   UNL     1      -9.058  15.228  67.785  1.00  0.00    -0.182 C  
HETATM   20  C   UNL     1      -8.107  14.348  66.932  1.00  0.00     0.020 C  
ENDROOT
BRANCH  16  21
HETATM   21  C   UNL     1     -10.617  10.639  69.448  1.00  0.00    -0.270 C  
HETATM   22  C   UNL     1     -10.190   9.657  68.632  1.00  0.00    -0.209 C  
HETATM   23  C   UNL     1      -9.144   9.776  67.537  1.00  0.00    -0.142 C  
HETATM   24  C   UNL     1      -7.929   8.890  67.838  1.00  0.00    -0.102 C  
HETATM   25  C   UNL     1      -8.330   7.450  68.158  1.00  0.00    -0.124 C  
HETATM   26  O   UNL     1      -7.178   9.438  68.921  1.00  0.00    -0.070 OA 
HETATM   27  C   UNL     1      -9.426   7.366  69.227  1.00  0.00    -0.154 C  
HETATM   28  H   UNL     1      -6.426   8.889  69.108  1.00  0.00     0.000 HD 
HETATM   29  C   UNL     1     -10.658   8.234  68.910  1.00  0.00    -0.160 C  
HETATM   30  C   UNL     1     -11.531   7.648  67.807  1.00  0.00     0.954 C  
ENDBRANCH  16  21
TORSDOF 1
ENDMDL
MODEL      152
REMARK 921   NORMALIZED FREE ENERGY PREDICTED BY IDOCK:   25.54 KCAL/MOL
REMARK 922        TOTAL FREE ENERGY PREDICTED BY IDOCK:   26.31 KCAL/MOL
REMARK 923 INTER-LIGAND FREE ENERGY PREDICTED BY IDOCK:   24.88 KCAL/MOL
REMARK 924 INTRA-LIGAND FREE ENERGY PREDICTED BY IDOCK:    1.43 KCAL/MOL
REMARK 927      BINDING AFFINITY PREDICTED BY RF-SCORE:    0.00 PKD
ROOT
HETATM    1  C   UNL     1     -10.865  11.092  62.743  1.00  0.00     0.495 C  
HETATM    2  C   UNL     1     -10.910  10.010  63.831  1.00  0.00     2.570 C  
HETATM    3  C   UNL     1      -9.866   8.868  63.647  1.00  0.00     2.669 C  
HETATM    4  C   UNL     1     -12.337   9.463  63.930  1.00  0.00    14.170 C  
HETATM    5  C   UNL     1      -8.453   9.394  63.772  1.00  0.00    -0.200 C  
HETATM    6  C   UNL     1     -10.006   8.093  62.335  1.00  0.00     4.016 C  
HETATM    7  C   UNL     1      -7.436   8.707  64.317  1.00  0.00    -0.109 C  
HETATM    8  C   UNL     1      -6.036   9.245  64.570  1.00  0.00    -0.072 C  
HETATM    9  C   UNL     1      -5.778   9.656  66.071  1.00  0.00    -0.056 C  
HETATM   10  C   UNL     1      -5.643  10.381  63.598  1.00  0.00    -0.149 C  
HETATM   11  C   UNL     1      -6.736  10.762  66.531  1.00  0.00    -0.126 C  
HETATM   12  C   UNL     1      -7.898  10.067  67.227  1.00  0.00    -0.102 C  
HETATM   13  C   UNL     1      -7.470   8.617  67.530  1.00  0.00    -0.090 C  
HETATM   14  C   UNL     1      -7.906   8.158  68.920  1.00  0.00    -0.112 C  
HETATM   15  C   UNL     1      -6.890   7.315  69.648  1.00  0.00    -0.049 C  
HETATM   16  C   UNL     1      -9.132   8.456  69.403  1.00  0.00    -0.154 C  
HETATM   17  C   UNL     1      -5.435   7.181  66.675  1.00  0.00    -0.023 C  
HETATM   18  C   UNL     1      -5.475   7.910  69.641  1.00  0.00    -0.023 C  
HETATM   19  C   UNL     1      -5.944   8.549  67.187  1.00  0.00    -0.054 C  
HETATM   20  C   UNL     1      -5.164   8.881  68.485  1.00  0.00    -0.037 C  
ENDROOT
BRANCH  16  21
HETATM   21  C   UNL     1      -9.749   7.811  70.538  1.00  0.00    -0.175 C  
HETATM   22  C   UNL     1      -9.191   7.502  71.724  1.00  0.00    -0.162 C  
HETATM   23  C   UNL     1      -7.713   7.558  72.074  1.00  0.00    -0.094 C  
HETATM   24  C   UNL     1      -7.450   8.584  73.182  1.00  0.00     0.023 C  
HETATM   25  C   UNL     1      -8.366   8.381  74.389  1.00  0.00    -0.020 C  
HETATM   26  O   UNL     1      -7.605   9.909  72.672  1.00  0.00     1.685 OA 
HETATM   27  C   UNL     1      -9.845   8.273  73.996  1.00  0.00     1.515 C  
HETATM   28  H   UNL     1      -7.442  10.545  73.358  1.00  0.00     0.000 HD 
HETATM   29  C   UNL     1     -10.113   7.222  72.904  1.00  0.00    -0.272 C  
HETATM   30  C   UNL     1     -10.029   5.791  73.422  1.00  0.00    -0.186 C  
ENDBRANCH  16  21
TORSDOF 1
ENDMDL
MODEL      153
REMARK 921   NORMALIZED FREE ENERGY PREDICTED BY IDOCK:   25.91 KCAL/MOL
REMARK 922        TOTAL FREE ENERGY PREDICTED BY IDOCK:   26.70 KCAL/MOL
REMARK 923 INTER-LIGAND FREE ENERGY PREDICTED BY IDOCK:   27.14 KCAL/MOL
REMARK 924 INTRA-LIGAND FREE ENERGY PREDICTED BY IDOCK:   -0.44 KCAL/MOL
REMARK 927      BINDING AFFINITY PREDICTED BY RF-SCORE:    0.00 PKD
ROOT
HETATM    1  C   UNL     1     -14.117   6.094  69.820  1.00  0.00     9.196 C  
HETATM    2  C   UNL     1     -13.372   7.119  70.687  1.00  0.00     0.389 C  
HETATM    3  C   UNL     1     -11.853   6.824  70.871  1.00  0.00    -0.438 C  
HETATM    4  C   UNL     1     -14.091   7.249  72.033  1.00  0.00    -0.315 C  
HETATM    5  C   UNL     1     -11.115   6.916  69.553  1.00  0.00    -0.270 C  
HETATM    6  C   UNL     1     -11.549   5.477  71.531  1.00  0.00     0.236 C  
HETATM    7  C   UNL     1      -9.860   7.375  69.420  1.00  0.00    -0.168 C  
HETATM    8  C   UNL     1      -9.130   7.597  68.104  1.00  0.00    -0.132 C  
HETATM    9  C   UNL     1      -9.095   9.105  67.646  1.00  0.00    -0.133 C  
HETATM   10  C   UNL     1      -9.639   6.675  66.972  1.00  0.00    -0.183 C  
HETATM   11  C   UNL     1     -10.506   9.670  67.438  1.00  0.00    -0.319 C  
HETATM   12  C   UNL     1     -10.886  10.376  68.732  1.00  0.00    -0.269 C  
HETATM   13  C   UNL     1      -9.599  10.576  69.558  1.00  0.00    -0.125 C  
HETATM   14  C   UNL     1      -9.534  11.956  70.210  1.00  0.00     3.860 C  
HETATM   15  C   UNL     1      -8.165  12.588  70.199  1.00  0.00     3.593 C  
HETATM   16  C   UNL     1     -10.622  12.509  70.790  1.00  0.00     4.003 C  
HETATM   17  C   UNL     1      -7.187   9.551  69.309  1.00  0.00    -0.063 C  
HETATM   18  C   UNL     1      -7.480  12.552  68.826  1.00  0.00    -0.049 C  
HETATM   19  C   UNL     1      -8.424  10.162  68.610  1.00  0.00    -0.122 C  
HETATM   20  C   UNL     1      -7.956  11.442  67.869  1.00  0.00    -0.120 C  
ENDROOT
BRANCH  16  21
HETATM   21  C   UNL     1     -10.590  13.631  71.698  1.00  0.00     5.348 C  
HETATM   22  C   UNL     1     -11.260  14.795  71.604  1.00  0.00     0.097 C  
HETATM   23  C   UNL     1     -12.043  15.299  70.403  1.00  0.00    -0.388 C  
HETATM   24  C   UNL     1     -13.531  15.452  70.743  1.00  0.00    -0.268 C  
HETATM   25  C   UNL     1     -13.753  16.270  72.015  1.00  0.00     0.907 C  
HETATM   26  O   UNL     1     -14.138  14.167  70.879  1.00  0.00    -0.181 OA 
HETATM   27  C   UNL     1     -12.907  15.771  73.193  1.00  0.00    -0.631 C  
HETATM   28  H   UNL     1     -15.060  14.261  71.089  1.00  0.00     0.000 HD 
HETATM   29  C   UNL     1     -11.409  15.645  72.860  1.00  0.00     0.004 C  
HETATM   30  C   UNL     1     -10.702  16.992  72.777  1.00  0.00     3.678 C  
ENDBRANCH  16  21
TORSDOF 1
ENDMDL
MODEL      154
REMARK 921   NORMALIZED FREE ENERGY PREDICTED BY IDOCK:   26.94 KCAL/MOL
REMARK 922        TOTAL FREE ENERGY PREDICTED BY IDOCK:   27.79 KCAL/MOL
REMARK 923 INTER-LIGAND FREE ENERGY PREDICTED BY IDOCK:   27.56 KCAL/MOL
REMARK 924 INTRA-LIGAND FREE ENERGY PREDICTED BY IDOCK:    0.23 KCAL/MOL
REMARK 927      BINDING AFFINITY PREDICTED BY RF-SCORE:    0.00 PKD
ROOT
HETATM    1  C   UNL     1     -13.391  10.984  68.651  1.00  0.00     4.657 C  
HETATM    2  C   UNL     1     -12.572  12.140  69.242  1.00  0.00     0.513 C  
HETATM    3  C   UNL     1     -11.041  12.051  68.967  1.00  0.00    -0.291 C  
HETATM    4  C   UNL     1     -12.874  12.249  70.740  1.00  0.00    -0.101 C  
HETATM    5  C   UNL     1     -10.744  12.166  67.488  1.00  0.00    -0.265 C  
HETATM    6  C   UNL     1     -10.374  10.791  69.524  1.00  0.00    -0.178 C  
HETATM    7  C   UNL     1      -9.659  12.773  66.979  1.00  0.00    -0.229 C  
HETATM    8  C   UNL     1      -9.387  13.015  65.503  1.00  0.00     0.277 C  
HETATM    9  C   UNL     1      -9.696  14.489  65.035  1.00  0.00     0.132 C  
HETATM   10  C   UNL     1     -10.075  11.977  64.587  1.00  0.00    -0.291 C  
HETATM   11  C   UNL     1     -11.169  14.858  65.252  1.00  0.00    -0.369 C  
HETATM   12  C   UNL     1     -11.245  15.578  66.591  1.00  0.00    -0.118 C  
HETATM   13  C   UNL     1      -9.812  15.984  66.991  1.00  0.00    -0.240 C  
HETATM   14  C   UNL     1      -9.748  17.394  67.576  1.00  0.00    -0.266 C  
HETATM   15  C   UNL     1      -8.544  18.194  67.148  1.00  0.00    -0.250 C  
HETATM   16  C   UNL     1     -10.682  17.834  68.448  1.00  0.00    -0.205 C  
HETATM   17  C   UNL     1      -7.463  15.262  66.046  1.00  0.00     2.707 C  
HETATM   18  C   UNL     1      -8.295  18.172  65.634  1.00  0.00     0.548 C  
HETATM   19  C   UNL     1      -8.923  15.673  65.741  1.00  0.00    -0.028 C  
HETATM   20  C   UNL     1      -8.874  16.960  64.878  1.00  0.00     3.687 C  
ENDROOT
BRANCH  16  21
HETATM   21  C   UNL     1     -10.539  18.998  69.290  1.00  0.00     0.609 C  
HETATM   22  C   UNL     1      -9.615  19.226  70.243  1.00  0.00     1.097 C  
HETATM   23  C   UNL     1      -8.632  18.218  70.816  1.00  0.00     5.222 C  
HETATM   24  C   UNL     1      -7.186  18.630  70.515  1.00  0.00     1.845 C  
HETATM   25  C   UNL     1      -6.900  20.075  70.922  1.00  0.00     0.311 C  
HETATM   26  O   UNL     1      -6.902  18.449  69.128  1.00  0.00    -0.273 OA 
HETATM   27  C   UNL     1      -7.940  21.060  70.374  1.00  0.00     3.809 C  
HETATM   28  H   UNL     1      -6.007  18.704  68.941  1.00  0.00     0.000 HD 
HETATM   29  C   UNL     1      -9.391  20.661  70.701  1.00  0.00     1.952 C  
HETATM   30  C   UNL     1      -9.762  20.906  72.159  1.00  0.00     3.300 C  
ENDBRANCH  16  21
TORSDOF 1
ENDMDL
MODEL      155
REMARK 921   NORMALIZED FREE ENERGY PREDICTED BY IDOCK:   27.07 KCAL/MOL
REMARK 922        TOTAL FREE ENERGY PREDICTED BY IDOCK:   27.93 KCAL/MOL
REMARK 923 INTER-LIGAND FREE ENERGY PREDICTED BY IDOCK:   28.36 KCAL/MOL
REMARK 924 INTRA-LIGAND FREE ENERGY PREDICTED BY IDOCK:   -0.43 KCAL/MOL
REMARK 927      BINDING AFFINITY PREDICTED BY RF-SCORE:    0.00 PKD
ROOT
HETATM    1  C   UNL     1      -7.909   5.755  66.318  1.00  0.00    -0.101 C  
HETATM    2  C   UNL     1      -7.786   6.982  67.233  1.00  0.00    -0.110 C  
HETATM    3  C   UNL     1      -6.581   7.913  66.904  1.00  0.00    -0.059 C  
HETATM    4  C   UNL     1      -7.761   6.515  68.691  1.00  0.00    -0.102 C  
HETATM    5  C   UNL     1      -6.734   8.543  65.537  1.00  0.00    -0.059 C  
HETATM    6  C   UNL     1      -5.215   7.231  67.001  1.00  0.00    -0.022 C  
HETATM    7  C   UNL     1      -6.330   9.785  65.227  1.00  0.00    -0.088 C  
HETATM    8  C   UNL     1      -6.574  10.494  63.904  1.00  0.00     0.079 C  
HETATM    9  C   UNL     1      -7.759  11.534  63.952  1.00  0.00     1.747 C  
HETATM   10  C   UNL     1      -6.730   9.516  62.717  1.00  0.00    -0.099 C  
HETATM   11  C   UNL     1      -9.090  10.864  64.316  1.00  0.00    -0.168 C  
HETATM   12  C   UNL     1      -9.266  11.033  65.818  1.00  0.00    -0.226 C  
HETATM   13  C   UNL     1      -8.273  12.114  66.292  1.00  0.00     0.270 C  
HETATM   14  C   UNL     1      -8.895  13.074  67.304  1.00  0.00    -0.208 C  
HETATM   15  C   UNL     1      -8.488  14.515  67.130  1.00  0.00    -0.234 C  
HETATM   16  C   UNL     1      -9.696  12.625  68.295  1.00  0.00    -0.216 C  
HETATM   17  C   UNL     1      -6.206  13.229  65.102  1.00  0.00    11.265 C  
HETATM   18  C   UNL     1      -8.609  15.021  65.685  1.00  0.00     1.469 C  
HETATM   19  C   UNL     1      -7.663  12.726  64.986  1.00  0.00     5.427 C  
HETATM   20  C   UNL     1      -8.545  13.939  64.590  1.00  0.00     5.465 C  
ENDROOT
BRANCH  16  21
HETATM   21  C   UNL     1     -10.060  13.386  69.468  1.00  0.00     0.738 C  
HETATM   22  C   UNL     1     -11.267  13.477  70.057  1.00  0.00     0.088 C  
HETATM   23  C   UNL     1     -12.590  12.977  69.502  1.00  0.00     0.310 C  
HETATM   24  C   UNL     1     -13.183  11.882  70.396  1.00  0.00     0.798 C  
HETATM   25  C   UNL     1     -13.247  12.306  71.864  1.00  0.00    -0.481 C  
HETATM   26  O   UNL     1     -12.423  10.680  70.270  1.00  0.00    -0.318 OA 
HETATM   27  C   UNL     1     -11.912  12.857  72.378  1.00  0.00     2.379 C  
HETATM   28  H   UNL     1     -12.790  10.002  70.825  1.00  0.00     0.000 HD 
HETATM   29  C   UNL     1     -11.331  13.977  71.495  1.00  0.00     1.240 C  
HETATM   30  C   UNL     1     -12.067  15.302  71.652  1.00  0.00    -0.429 C  
ENDBRANCH  16  21
TORSDOF 1
ENDMDL
MODEL      156
REMARK 921   NORMALIZED FREE ENERGY PREDICTED BY IDOCK:   29.70 KCAL/MOL
REMARK 922        TOTAL FREE ENERGY PREDICTED BY IDOCK:   30.72 KCAL/MOL
REMARK 923 INTER-LIGAND FREE ENERGY PREDICTED BY IDOCK:   31.33 KCAL/MOL
REMARK 924 INTRA-LIGAND FREE ENERGY PREDICTED BY IDOCK:   -0.61 KCAL/MOL
REMARK 927      BINDING AFFINITY PREDICTED BY RF-SCORE:    0.00 PKD
ROOT
HETATM    1  C   UNL     1      -9.662   5.133  67.450  1.00  0.00    -0.172 C  
HETATM    2  C   UNL     1     -10.101   6.593  67.634  1.00  0.00    -0.192 C  
HETATM    3  C   UNL     1      -9.046   7.500  68.336  1.00  0.00    -0.133 C  
HETATM    4  C   UNL     1     -11.447   6.620  68.363  1.00  0.00     0.059 C  
HETATM    5  C   UNL     1      -7.797   7.640  67.493  1.00  0.00    -0.119 C  
HETATM    6  C   UNL     1      -8.660   7.041  69.744  1.00  0.00    -0.141 C  
HETATM    7  C   UNL     1      -7.054   8.756  67.422  1.00  0.00    -0.079 C  
HETATM    8  C   UNL     1      -5.868   8.976  66.497  1.00  0.00    -0.055 C  
HETATM    9  C   UNL     1      -6.210   9.838  65.222  1.00  0.00    -0.086 C  
HETATM   10  C   UNL     1      -5.153   7.660  66.113  1.00  0.00    -0.025 C  
HETATM   11  C   UNL     1      -7.291   9.174  64.359  1.00  0.00    -0.100 C  
HETATM   12  C   UNL     1      -8.618   9.792  64.774  1.00  0.00    -0.195 C  
HETATM   13  C   UNL     1      -8.313  11.071  65.581  1.00  0.00    -0.060 C  
HETATM   14  C   UNL     1      -9.240  12.228  65.212  1.00  0.00     0.293 C  
HETATM   15  C   UNL     1      -8.565  13.574  65.152  1.00  0.00     3.055 C  
HETATM   16  C   UNL     1     -10.563  12.031  65.019  1.00  0.00    -0.332 C  
HETATM   17  C   UNL     1      -6.081  11.972  66.648  1.00  0.00     0.169 C  
HETATM   18  C   UNL     1      -7.266  13.577  64.334  1.00  0.00    16.790 C  
HETATM   19  C   UNL     1      -6.771  11.299  65.438  1.00  0.00     0.649 C  
HETATM   20  C   UNL     1      -6.553  12.217  64.207  1.00  0.00     6.072 C  
ENDROOT
BRANCH  16  21
HETATM   21  C   UNL     1     -11.556  13.079  64.992  1.00  0.00    -0.359 C  
HETATM   22  C   UNL     1     -12.081  13.754  66.032  1.00  0.00    -0.470 C  
HETATM   23  C   UNL     1     -11.919  13.422  67.506  1.00  0.00    -0.381 C  
HETATM   24  C   UNL     1     -11.186  14.547  68.246  1.00  0.00    -0.277 C  
HETATM   25  C   UNL     1     -11.815  15.916  67.984  1.00  0.00     0.078 C  
HETATM   26  O   UNL     1      -9.808  14.566  67.871  1.00  0.00    -0.217 OA 
HETATM   27  C   UNL     1     -12.017  16.198  66.490  1.00  0.00     1.381 C  
HETATM   28  H   UNL     1      -9.355  15.264  68.329  1.00  0.00     0.000 HD 
HETATM   29  C   UNL     1     -12.778  15.080  65.754  1.00  0.00     0.569 C  
HETATM   30  C   UNL     1     -14.269  15.068  66.069  1.00  0.00     5.607 C  
ENDBRANCH  16  21
TORSDOF 1
ENDMDL
MODEL      157
REMARK 921   NORMALIZED FREE ENERGY PREDICTED BY IDOCK:   30.89 KCAL/MOL
REMARK 922        TOTAL FREE ENERGY PREDICTED BY IDOCK:   31.97 KCAL/MOL
REMARK 923 INTER-LIGAND FREE ENERGY PREDICTED BY IDOCK:   26.29 KCAL/MOL
REMARK 924 INTRA-LIGAND FREE ENERGY PREDICTED BY IDOCK:    5.68 KCAL/MOL
REMARK 927      BINDING AFFINITY PREDICTED BY RF-SCORE:    0.00 PKD
ROOT
HETATM    1  C   UNL     1      -9.667  20.475  64.350  1.00  0.00     3.258 C  
HETATM    2  C   UNL     1      -8.741  19.254  64.443  1.00  0.00     5.933 C  
HETATM    3  C   UNL     1      -7.824  19.235  65.702  1.00  0.00     0.076 C  
HETATM    4  C   UNL     1      -7.931  19.145  63.148  1.00  0.00    12.019 C  
HETATM    5  C   UNL     1      -8.639  19.121  66.971  1.00  0.00    -0.309 C  
HETATM    6  C   UNL     1      -6.880  20.435  65.810  1.00  0.00    -0.273 C  
HETATM    7  C   UNL     1      -8.248  18.443  68.062  1.00  0.00    -0.286 C  
HETATM    8  C   UNL     1      -9.087  18.204  69.308  1.00  0.00     0.222 C  
HETATM    9  C   UNL     1      -9.726  16.763  69.374  1.00  0.00    -0.046 C  
HETATM   10  C   UNL     1     -10.151  19.303  69.536  1.00  0.00     0.046 C  
HETATM   11  C   UNL     1     -10.660  16.499  68.186  1.00  0.00    -0.329 C  
HETATM   12  C   UNL     1      -9.834  15.768  67.138  1.00  0.00    -0.227 C  
HETATM   13  C   UNL     1      -8.551  15.253  67.821  1.00  0.00    -0.163 C  
HETATM   14  C   UNL     1      -8.189  13.833  67.386  1.00  0.00    -0.194 C  
HETATM   15  C   UNL     1      -7.668  12.954  68.494  1.00  0.00    -0.109 C  
HETATM   16  C   UNL     1      -8.287  13.450  66.094  1.00  0.00     1.107 C  
HETATM   17  C   UNL     1      -7.468  15.814  70.153  1.00  0.00     0.540 C  
HETATM   18  C   UNL     1      -8.535  12.979  69.761  1.00  0.00     2.204 C  
HETATM   19  C   UNL     1      -8.755  15.516  69.350  1.00  0.00    -0.258 C  
HETATM   20  C   UNL     1      -9.398  14.241  69.956  1.00  0.00     1.313 C  
ENDROOT
BRANCH  16  21
HETATM   21  C   UNL     1      -7.675  12.266  65.538  1.00  0.00     2.268 C  
HETATM   22  C   UNL     1      -6.950  11.327  66.175  1.00  0.00     0.067 C  
HETATM   23  C   UNL     1      -6.414  11.402  67.595  1.00  0.00    -0.063 C  
HETATM   24  C   UNL     1      -7.029  10.306  68.473  1.00  0.00    -0.066 C  
HETATM   25  C   UNL     1      -6.910   8.921  67.838  1.00  0.00    -0.070 C  
HETATM   26  O   UNL     1      -8.400  10.602  68.741  1.00  0.00    -0.127 OA 
HETATM   27  C   UNL     1      -7.408   8.891  66.388  1.00  0.00    -0.088 C  
HETATM   28  H   UNL     1      -8.781   9.923  69.284  1.00  0.00     0.000 HD 
HETATM   29  C   UNL     1      -6.769   9.974  65.499  1.00  0.00    -0.105 C  
HETATM   30  C   UNL     1      -5.324   9.663  65.127  1.00  0.00    -0.046 C  
ENDBRANCH  16  21
TORSDOF 1
ENDMDL
MODEL      158
REMARK 921   NORMALIZED FREE ENERGY PREDICTED BY IDOCK:   34.38 KCAL/MOL
REMARK 922        TOTAL FREE ENERGY PREDICTED BY IDOCK:   35.66 KCAL/MOL
REMARK 923 INTER-LIGAND FREE ENERGY PREDICTED BY IDOCK:   36.35 KCAL/MOL
REMARK 924 INTRA-LIGAND FREE ENERGY PREDICTED BY IDOCK:   -0.68 KCAL/MOL
REMARK 927      BINDING AFFINITY PREDICTED BY RF-SCORE:    0.00 PKD
ROOT
HETATM    1  C   UNL     1     -12.336  10.373  73.054  1.00  0.00     3.817 C  
HETATM    2  C   UNL     1     -12.329  11.047  71.674  1.00  0.00    -0.206 C  
HETATM    3  C   UNL     1     -11.129  12.011  71.434  1.00  0.00     4.028 C  
HETATM    4  C   UNL     1     -13.673  11.748  71.455  1.00  0.00     0.767 C  
HETATM    5  C   UNL     1      -9.815  11.260  71.435  1.00  0.00     7.704 C  
HETATM    6  C   UNL     1     -11.050  13.175  72.423  1.00  0.00     6.667 C  
HETATM    7  C   UNL     1      -8.766  11.570  70.657  1.00  0.00     5.423 C  
HETATM    8  C   UNL     1      -7.478  10.770  70.541  1.00  0.00     1.159 C  
HETATM    9  C   UNL     1      -7.408   9.867  69.250  1.00  0.00    -0.084 C  
HETATM   10  C   UNL     1      -7.160   9.956  71.816  1.00  0.00     1.228 C  
HETATM   11  C   UNL     1      -8.542   8.835  69.214  1.00  0.00    -0.130 C  
HETATM   12  C   UNL     1      -9.656   9.444  68.373  1.00  0.00    -0.157 C  
HETATM   13  C   UNL     1      -9.064  10.637  67.596  1.00  0.00    -0.145 C  
HETATM   14  C   UNL     1      -9.553  10.690  66.149  1.00  0.00    -0.232 C  
HETATM   15  C   UNL     1      -8.499  11.089  65.148  1.00  0.00     0.038 C  
HETATM   16  C   UNL     1     -10.845  10.449  65.837  1.00  0.00     0.079 C  
HETATM   17  C   UNL     1      -6.789  11.936  67.856  1.00  0.00    -0.083 C  
HETATM   18  C   UNL     1      -7.182  10.316  65.296  1.00  0.00    -0.134 C  
HETATM   19  C   UNL     1      -7.519  10.573  67.840  1.00  0.00    -0.091 C  
HETATM   20  C   UNL     1      -6.906   9.727  66.694  1.00  0.00    -0.084 C  
ENDROOT
BRANCH  16  21
HETATM   21  C   UNL     1     -11.465  10.786  64.578  1.00  0.00     1.040 C  
HETATM   22  C   UNL     1     -12.245  11.846  64.293  1.00  0.00    -0.331 C  
HETATM   23  C   UNL     1     -12.843  12.828  65.286  1.00  0.00    -0.140 C  
HETATM   24  C   UNL     1     -12.300  14.243  65.055  1.00  0.00    -0.428 C  
HETATM   25  C   UNL     1     -12.430  14.681  63.596  1.00  0.00     0.487 C  
HETATM   26  O   UNL     1     -10.935  14.319  65.466  1.00  0.00    -0.299 OA 
HETATM   27  C   UNL     1     -11.868  13.645  62.616  1.00  0.00     2.151 C  
HETATM   28  H   UNL     1     -10.599  15.195  65.322  1.00  0.00     0.000 HD 
HETATM   29  C   UNL     1     -12.435  12.229  62.830  1.00  0.00     0.195 C  
HETATM   30  C   UNL     1     -13.870  12.082  62.339  1.00  0.00     4.108 C  
ENDBRANCH  16  21
TORSDOF 1
ENDMDL
MODEL      159
REMARK 921   NORMALIZED FREE ENERGY PREDICTED BY IDOCK:   45.32 KCAL/MOL
REMARK 922        TOTAL FREE ENERGY PREDICTED BY IDOCK:   47.24 KCAL/MOL
REMARK 923 INTER-LIGAND FREE ENERGY PREDICTED BY IDOCK:   42.30 KCAL/MOL
REMARK 924 INTRA-LIGAND FREE ENERGY PREDICTED BY IDOCK:    4.94 KCAL/MOL
REMARK 927      BINDING AFFINITY PREDICTED BY RF-SCORE:    0.00 PKD
ROOT
HETATM    1  C   UNL     1      -5.647   7.520  67.279  1.00  0.00    -0.031 C  
HETATM    2  C   UNL     1      -6.271   8.780  66.663  1.00  0.00    -0.058 C  
HETATM    3  C   UNL     1      -7.514   8.509  65.763  1.00  0.00    -0.081 C  
HETATM    4  C   UNL     1      -5.186   9.557  65.912  1.00  0.00    -0.036 C  
HETATM    5  C   UNL     1      -8.661   7.942  66.570  1.00  0.00    -0.149 C  
HETATM    6  C   UNL     1      -7.236   7.600  64.564  1.00  0.00    -0.076 C  
HETATM    7  C   UNL     1      -9.955   8.210  66.337  1.00  0.00    -0.238 C  
HETATM    8  C   UNL     1     -11.125   7.758  67.198  1.00  0.00     0.201 C  
HETATM    9  C   UNL     1     -11.680   8.883  68.154  1.00  0.00     1.895 C  
HETATM   10  C   UNL     1     -10.832   6.453  67.974  1.00  0.00    -0.396 C  
HETATM   11  C   UNL     1     -10.609   9.376  69.135  1.00  0.00    -0.234 C  
HETATM   12  C   UNL     1      -9.987  10.618  68.513  1.00  0.00    -0.176 C  
HETATM   13  C   UNL     1     -10.917  11.095  67.379  1.00  0.00    -0.347 C  
HETATM   14  C   UNL     1     -11.085  12.613  67.362  1.00  0.00    -0.315 C  
HETATM   15  C   UNL     1     -12.483  13.085  67.050  1.00  0.00     0.219 C  
HETATM   16  C   UNL     1     -10.032  13.436  67.559  1.00  0.00    -0.230 C  
HETATM   17  C   UNL     1     -12.943   9.924  66.172  1.00  0.00    13.863 C  
HETATM   18  C   UNL     1     -13.570  12.381  67.874  1.00  0.00     7.974 C  
HETATM   19  C   UNL     1     -12.211  10.221  67.501  1.00  0.00     3.114 C  
HETATM   20  C   UNL     1     -13.200  10.987  68.418  1.00  0.00     4.862 C  
ENDROOT
BRANCH  16  21
HETATM   21  C   UNL     1     -10.018  14.846  67.245  1.00  0.00    -0.230 C  
HETATM   22  C   UNL     1     -10.715  15.492  66.291  1.00  0.00    -0.307 C  
HETATM   23  C   UNL     1     -11.520  14.860  65.168  1.00  0.00    -0.357 C  
HETATM   24  C   UNL     1     -13.008  15.209  65.294  1.00  0.00     0.773 C  
HETATM   25  C   UNL     1     -13.238  16.712  65.451  1.00  0.00     6.565 C  
HETATM   26  O   UNL     1     -13.585  14.511  66.398  1.00  0.00     0.875 OA 
HETATM   27  C   UNL     1     -12.370  17.330  66.555  1.00  0.00     4.592 C  
HETATM   28  H   UNL     1     -14.506  14.728  66.476  1.00  0.00     0.000 HD 
HETATM   29  C   UNL     1     -10.873  17.002  66.412  1.00  0.00     0.048 C  
HETATM   30  C   UNL     1     -10.197  17.782  65.289  1.00  0.00     0.586 C  
ENDBRANCH  16  21
TORSDOF 1
ENDMDL
MODEL      160
REMARK 921   NORMALIZED FREE ENERGY PREDICTED BY IDOCK:   46.31 KCAL/MOL
REMARK 922        TOTAL FREE ENERGY PREDICTED BY IDOCK:   48.30 KCAL/MOL
REMARK 923 INTER-LIGAND FREE ENERGY PREDICTED BY IDOCK:   48.72 KCAL/MOL
REMARK 924 INTRA-LIGAND FREE ENERGY PREDICTED BY IDOCK:   -0.42 KCAL/MOL
REMARK 927      BINDING AFFINITY PREDICTED BY RF-SCORE:    0.00 PKD
ROOT
HETATM    1  C   UNL     1      -9.691  11.912  72.910  1.00  0.00    22.590 C  
HETATM    2  C   UNL     1      -8.786  11.182  71.908  1.00  0.00    12.182 C  
HETATM    3  C   UNL     1      -8.285   9.787  72.389  1.00  0.00     3.164 C  
HETATM    4  C   UNL     1      -7.623  12.102  71.525  1.00  0.00     9.111 C  
HETATM    5  C   UNL     1      -9.436   8.819  72.552  1.00  0.00    -0.100 C  
HETATM    6  C   UNL     1      -7.465   9.826  73.680  1.00  0.00     2.837 C  
HETATM    7  C   UNL     1      -9.360   7.504  72.291  1.00  0.00    -0.185 C  
HETATM    8  C   UNL     1     -10.522   6.523  72.325  1.00  0.00    -0.226 C  
HETATM    9  C   UNL     1     -11.092   6.167  70.899  1.00  0.00    -0.371 C  
HETATM   10  C   UNL     1     -11.649   6.960  73.290  1.00  0.00     0.366 C  
HETATM   11  C   UNL     1     -11.619   7.409  70.169  1.00  0.00    -0.092 C  
HETATM   12  C   UNL     1     -10.490   7.899  69.275  1.00  0.00    -0.221 C  
HETATM   13  C   UNL     1      -9.449   6.767  69.164  1.00  0.00    -0.141 C  
HETATM   14  C   UNL     1      -8.917   6.602  67.741  1.00  0.00    -0.112 C  
HETATM   15  C   UNL     1      -8.714   5.171  67.311  1.00  0.00    -0.103 C  
HETATM   16  C   UNL     1      -8.610   7.675  66.979  1.00  0.00    -0.122 C  
HETATM   17  C   UNL     1      -9.133   4.544  70.537  1.00  0.00    -0.172 C  
HETATM   18  C   UNL     1      -9.919   4.264  67.599  1.00  0.00    -0.084 C  
HETATM   19  C   UNL     1     -10.109   5.521  69.843  1.00  0.00    -0.305 C  
HETATM   20  C   UNL     1     -10.851   4.730  68.734  1.00  0.00     1.005 C  
ENDROOT
BRANCH  16  21
HETATM   21  C   UNL     1      -7.813   7.629  65.776  1.00  0.00    -0.106 C  
HETATM   22  C   UNL     1      -7.887   8.434  64.699  1.00  0.00    -0.127 C  
HETATM   23  C   UNL     1      -8.976   9.449  64.395  1.00  0.00    -0.215 C  
HETATM   24  C   UNL     1      -8.407  10.872  64.359  1.00  0.00     0.157 C  
HETATM   25  C   UNL     1      -7.185  10.984  63.447  1.00  0.00     0.640 C  
HETATM   26  O   UNL     1      -8.069  11.300  65.679  1.00  0.00    -0.366 OA 
HETATM   27  C   UNL     1      -6.129   9.912  63.742  1.00  0.00    -0.123 C  
HETATM   28  H   UNL     1      -7.717  12.182  65.657  1.00  0.00     0.000 HD 
HETATM   29  C   UNL     1      -6.696   8.480  63.750  1.00  0.00    -0.080 C  
HETATM   30  C   UNL     1      -7.003   7.954  62.353  1.00  0.00    -0.086 C  
ENDBRANCH  16  21
TORSDOF 1
ENDMDL
MODEL      161
REMARK 921   NORMALIZED FREE ENERGY PREDICTED BY IDOCK:   47.09 KCAL/MOL
REMARK 922        TOTAL FREE ENERGY PREDICTED BY IDOCK:   49.12 KCAL/MOL
REMARK 923 INTER-LIGAND FREE ENERGY PREDICTED BY IDOCK:   49.88 KCAL/MOL
REMARK 924 INTRA-LIGAND FREE ENERGY PREDICTED BY IDOCK:   -0.76 KCAL/MOL
REMARK 927      BINDING AFFINITY PREDICTED BY RF-SCORE:    0.00 PKD
ROOT
HETATM    1  C   UNL     1      -7.574  12.986  72.069  1.00  0.00    10.102 C  
HETATM    2  C   UNL     1      -7.832  11.474  71.999  1.00  0.00    12.002 C  
HETATM    3  C   UNL     1      -9.183  11.081  71.328  1.00  0.00     6.867 C  
HETATM    4  C   UNL     1      -7.704  10.882  73.406  1.00  0.00    11.443 C  
HETATM    5  C   UNL     1      -9.206  11.482  69.869  1.00  0.00     1.822 C  
HETATM    6  C   UNL     1     -10.420  11.644  72.030  1.00  0.00    10.494 C  
HETATM    7  C   UNL     1      -9.813  10.777  68.901  1.00  0.00    -0.209 C  
HETATM    8  C   UNL     1      -9.755  11.081  67.412  1.00  0.00    -0.189 C  
HETATM    9  C   UNL     1      -8.743  10.168  66.618  1.00  0.00    -0.134 C  
HETATM   10  C   UNL     1      -9.517  12.579  67.113  1.00  0.00    -0.208 C  
HETATM   11  C   UNL     1      -7.306  10.330  67.131  1.00  0.00    -0.091 C  
HETATM   12  C   UNL     1      -7.075   9.212  68.137  1.00  0.00    -0.078 C  
HETATM   13  C   UNL     1      -8.194   8.168  67.950  1.00  0.00    -0.129 C  
HETATM   14  C   UNL     1      -7.671   6.734  68.017  1.00  0.00    -0.112 C  
HETATM   15  C   UNL     1      -8.304   5.791  67.025  1.00  0.00    -0.108 C  
HETATM   16  C   UNL     1      -6.757   6.364  68.940  1.00  0.00    -0.060 C  
HETATM   17  C   UNL     1     -10.471   8.265  66.632  1.00  0.00    -0.217 C  
HETATM   18  C   UNL     1      -8.343   6.338  65.591  1.00  0.00    -0.147 C  
HETATM   19  C   UNL     1      -8.962   8.603  66.657  1.00  0.00    -0.174 C  
HETATM   20  C   UNL     1      -8.301   7.873  65.459  1.00  0.00    -0.152 C  
ENDROOT
BRANCH  16  21
HETATM   21  C   UNL     1      -6.449   4.998  69.293  1.00  0.00    -0.039 C  
HETATM   22  C   UNL     1      -7.025   4.235  70.241  1.00  0.00    -0.038 C  
HETATM   23  C   UNL     1      -7.991   4.698  71.318  1.00  0.00    -0.088 C  
HETATM   24  C   UNL     1      -9.362   4.030  71.152  1.00  0.00    -0.146 C  
HETATM   25  C   UNL     1      -9.252   2.510  71.029  1.00  0.00    -0.201 C  
HETATM   26  O   UNL     1     -10.033   4.563  70.011  1.00  0.00    -0.220 OA 
HETATM   27  C   UNL     1      -8.230   2.075  69.973  1.00  0.00    -0.061 C  
HETATM   28  H   UNL     1     -10.881   4.148  69.908  1.00  0.00     0.000 HD 
HETATM   29  C   UNL     1      -6.846   2.724  70.157  1.00  0.00    -0.033 C  
HETATM   30  C   UNL     1      -6.061   2.134  71.323  1.00  0.00    -0.017 C  
ENDBRANCH  16  21
TORSDOF 1
ENDMDL
MODEL      162
REMARK 921   NORMALIZED FREE ENERGY PREDICTED BY IDOCK:   51.02 KCAL/MOL
REMARK 922        TOTAL FREE ENERGY PREDICTED BY IDOCK:   53.28 KCAL/MOL
REMARK 923 INTER-LIGAND FREE ENERGY PREDICTED BY IDOCK:   53.93 KCAL/MOL
REMARK 924 INTRA-LIGAND FREE ENERGY PREDICTED BY IDOCK:   -0.65 KCAL/MOL
REMARK 927      BINDING AFFINITY PREDICTED BY RF-SCORE:    0.00 PKD
ROOT
HETATM    1  C   UNL     1      -8.178  10.155  71.853  1.00  0.00     4.019 C  
HETATM    2  C   UNL     1      -8.370  11.500  71.138  1.00  0.00     8.236 C  
HETATM    3  C   UNL     1      -9.667  11.595  70.281  1.00  0.00     2.984 C  
HETATM    4  C   UNL     1      -7.118  11.805  70.309  1.00  0.00     1.229 C  
HETATM    5  C   UNL     1     -10.903  11.511  71.149  1.00  0.00     3.267 C  
HETATM    6  C   UNL     1      -9.759  10.555  69.162  1.00  0.00    -0.226 C  
HETATM    7  C   UNL     1     -12.042  12.181  70.910  1.00  0.00    -0.181 C  
HETATM    8  C   UNL     1     -13.259  12.218  71.821  1.00  0.00    -0.428 C  
HETATM    9  C   UNL     1     -13.365  13.534  72.683  1.00  0.00    -0.546 C  
HETATM   10  C   UNL     1     -13.388  10.955  72.703  1.00  0.00     0.871 C  
HETATM   11  C   UNL     1     -12.152  13.712  73.605  1.00  0.00     2.658 C  
HETATM   12  C   UNL     1     -11.177  14.619  72.869  1.00  0.00     0.988 C  
HETATM   13  C   UNL     1     -11.939  15.293  71.710  1.00  0.00    -0.453 C  
HETATM   14  C   UNL     1     -11.589  16.773  71.564  1.00  0.00     0.278 C  
HETATM   15  C   UNL     1     -12.760  17.662  71.230  1.00  0.00     9.857 C  
HETATM   16  C   UNL     1     -10.314  17.205  71.675  1.00  0.00     3.729 C  
HETATM   17  C   UNL     1     -14.288  14.783  70.635  1.00  0.00     0.622 C  
HETATM   18  C   UNL     1     -13.985  17.432  72.126  1.00  0.00     9.222 C  
HETATM   19  C   UNL     1     -13.444  14.918  71.924  1.00  0.00    -0.477 C  
HETATM   20  C   UNL     1     -14.081  16.041  72.783  1.00  0.00    -0.222 C  
ENDROOT
BRANCH  16  21
HETATM   21  C   UNL     1      -9.843  18.499  71.240  1.00  0.00     4.369 C  
HETATM   22  C   UNL     1      -9.107  18.793  70.151  1.00  0.00     1.737 C  
HETATM   23  C   UNL     1      -8.408  17.804  69.233  1.00  0.00     0.258 C  
HETATM   24  C   UNL     1      -8.983  17.871  67.813  1.00  0.00    -0.254 C  
HETATM   25  C   UNL     1      -9.022  19.300  67.272  1.00  0.00    -0.338 C  
HETATM   26  O   UNL     1     -10.294  17.306  67.787  1.00  0.00    -0.326 OA 
HETATM   27  C   UNL     1      -9.684  20.283  68.245  1.00  0.00    -0.292 C  
HETATM   28  H   UNL     1     -10.651  17.348  66.908  1.00  0.00     0.000 HD 
HETATM   29  C   UNL     1      -9.086  20.236  69.663  1.00  0.00     0.868 C  
HETATM   30  C   UNL     1      -7.715  20.894  69.754  1.00  0.00     2.478 C  
ENDBRANCH  16  21
TORSDOF 1
ENDMDL
MODEL      163
REMARK 921   NORMALIZED FREE ENERGY PREDICTED BY IDOCK:   54.06 KCAL/MOL
REMARK 922        TOTAL FREE ENERGY PREDICTED BY IDOCK:   56.50 KCAL/MOL
REMARK 923 INTER-LIGAND FREE ENERGY PREDICTED BY IDOCK:   56.38 KCAL/MOL
REMARK 924 INTRA-LIGAND FREE ENERGY PREDICTED BY IDOCK:    0.11 KCAL/MOL
REMARK 927      BINDING AFFINITY PREDICTED BY RF-SCORE:    0.00 PKD
ROOT
HETATM    1  C   UNL     1      -9.127  11.833  73.151  1.00  0.00    24.112 C  
HETATM    2  C   UNL     1      -8.356  12.582  72.055  1.00  0.00    17.794 C  
HETATM    3  C   UNL     1      -8.156  11.771  70.739  1.00  0.00     5.927 C  
HETATM    4  C   UNL     1      -7.023  13.070  72.629  1.00  0.00     6.787 C  
HETATM    5  C   UNL     1      -9.481  11.485  70.066  1.00  0.00     2.068 C  
HETATM    6  C   UNL     1      -7.383  10.463  70.919  1.00  0.00     1.098 C  
HETATM    7  C   UNL     1      -9.660  11.445  68.736  1.00  0.00    -0.139 C  
HETATM    8  C   UNL     1     -10.994  11.283  68.025  1.00  0.00    -0.302 C  
HETATM    9  C   UNL     1     -11.582  12.634  67.463  1.00  0.00    -0.418 C  
HETATM   10  C   UNL     1     -12.039  10.522  68.873  1.00  0.00     0.094 C  
HETATM   11  C   UNL     1     -11.830  13.655  68.582  1.00  0.00    -0.409 C  
HETATM   12  C   UNL     1     -10.600  14.550  68.634  1.00  0.00    -0.255 C  
HETATM   13  C   UNL     1      -9.802  14.334  67.332  1.00  0.00    -0.235 C  
HETATM   14  C   UNL     1      -9.272  15.643  66.749  1.00  0.00    -0.275 C  
HETATM   15  C   UNL     1      -9.345  15.732  65.246  1.00  0.00     0.418 C  
HETATM   16  C   UNL     1      -8.736  16.596  67.542  1.00  0.00    -0.198 C  
HETATM   17  C   UNL     1      -9.973  12.487  65.464  1.00  0.00    -0.248 C  
HETATM   18  C   UNL     1     -10.713  15.342  64.671  1.00  0.00    -0.226 C  
HETATM   19  C   UNL     1     -10.716  13.448  66.421  1.00  0.00    -0.289 C  
HETATM   20  C   UNL     1     -11.568  14.408  65.550  1.00  0.00    -0.347 C  
ENDROOT
BRANCH  16  21
HETATM   21  C   UNL     1      -7.929  17.699  67.074  1.00  0.00    -0.242 C  
HETATM   22  C   UNL     1      -8.293  18.709  66.261  1.00  0.00    -0.249 C  
HETATM   23  C   UNL     1      -9.580  18.813  65.461  1.00  0.00     0.837 C  
HETATM   24  C   UNL     1     -10.417  20.013  65.920  1.00  0.00    -0.406 C  
HETATM   25  C   UNL     1      -9.602  21.306  65.955  1.00  0.00     2.073 C  
HETATM   26  O   UNL     1     -10.978  19.757  67.207  1.00  0.00    -0.414 OA 
HETATM   27  C   UNL     1      -8.284  21.153  66.723  1.00  0.00     0.447 C  
HETATM   28  H   UNL     1     -11.496  20.500  67.492  1.00  0.00     0.000 HD 
HETATM   29  C   UNL     1      -7.431  19.964  66.242  1.00  0.00    -0.316 C  
HETATM   30  C   UNL     1      -6.751  20.223  64.903  1.00  0.00    -0.298 C  
ENDBRANCH  16  21
TORSDOF 1
ENDMDL
MODEL      164
REMARK 921   NORMALIZED FREE ENERGY PREDICTED BY IDOCK:   61.46 KCAL/MOL
REMARK 922        TOTAL FREE ENERGY PREDICTED BY IDOCK:   64.33 KCAL/MOL
REMARK 923 INTER-LIGAND FREE ENERGY PREDICTED BY IDOCK:   58.11 KCAL/MOL
REMARK 924 INTRA-LIGAND FREE ENERGY PREDICTED BY IDOCK:    6.21 KCAL/MOL
REMARK 927      BINDING AFFINITY PREDICTED BY RF-SCORE:    0.00 PKD
ROOT
HETATM    1  C   UNL     1      -8.525   9.652  64.149  1.00  0.00    -0.186 C  
HETATM    2  C   UNL     1      -7.900  10.779  64.983  1.00  0.00     0.112 C  
HETATM    3  C   UNL     1      -8.028  12.197  64.350  1.00  0.00     3.306 C  
HETATM    4  C   UNL     1      -6.441  10.423  65.287  1.00  0.00    -0.105 C  
HETATM    5  C   UNL     1      -9.476  12.626  64.259  1.00  0.00     0.433 C  
HETATM    6  C   UNL     1      -7.369  12.333  62.975  1.00  0.00     4.508 C  
HETATM    7  C   UNL     1      -9.901  13.890  64.417  1.00  0.00     0.758 C  
HETATM    8  C   UNL     1     -11.353  14.340  64.454  1.00  0.00    -0.284 C  
HETATM    9  C   UNL     1     -11.897  14.606  65.910  1.00  0.00    -0.272 C  
HETATM   10  C   UNL     1     -12.294  13.402  63.663  1.00  0.00    -0.422 C  
HETATM   11  C   UNL     1     -11.832  13.346  66.782  1.00  0.00    -0.452 C  
HETATM   12  C   UNL     1     -10.530  13.427  67.567  1.00  0.00    -0.236 C  
HETATM   13  C   UNL     1     -10.012  14.877  67.474  1.00  0.00    -0.219 C  
HETATM   14  C   UNL     1      -9.471  15.389  68.808  1.00  0.00    -0.211 C  
HETATM   15  C   UNL     1      -9.812  16.827  69.110  1.00  0.00    -0.228 C  
HETATM   16  C   UNL     1      -8.706  14.607  69.600  1.00  0.00     0.318 C  
HETATM   17  C   UNL     1     -10.709  16.886  65.921  1.00  0.00    -0.151 C  
HETATM   18  C   UNL     1     -11.295  17.165  68.906  1.00  0.00     0.411 C  
HETATM   19  C   UNL     1     -11.162  15.692  66.793  1.00  0.00    -0.083 C  
HETATM   20  C   UNL     1     -12.061  16.255  67.925  1.00  0.00     0.867 C  
ENDROOT
BRANCH  16  21
HETATM   21  C   UNL     1      -7.894  15.087  70.693  1.00  0.00     1.346 C  
HETATM   22  C   UNL     1      -7.591  16.361  71.007  1.00  0.00     4.285 C  
HETATM   23  C   UNL     1      -7.849  17.593  70.156  1.00  0.00     2.251 C  
HETATM   24  C   UNL     1      -8.823  18.550  70.854  1.00  0.00     5.286 C  
HETATM   25  C   UNL     1      -8.394  18.865  72.287  1.00  0.00     8.864 C  
HETATM   26  O   UNL     1     -10.140  17.999  70.851  1.00  0.00     2.008 OA 
HETATM   27  C   UNL     1      -8.088  17.604  73.104  1.00  0.00    15.372 C  
HETATM   28  H   UNL     1     -10.743  18.592  71.284  1.00  0.00     0.000 HD 
HETATM   29  C   UNL     1      -7.088  16.657  72.414  1.00  0.00     8.754 C  
HETATM   30  C   UNL     1      -5.654  17.171  72.458  1.00  0.00     2.083 C  
ENDBRANCH  16  21
TORSDOF 1
ENDMDL
MODEL      165
REMARK 921   NORMALIZED FREE ENERGY PREDICTED BY IDOCK:   64.42 KCAL/MOL
REMARK 922        TOTAL FREE ENERGY PREDICTED BY IDOCK:   67.46 KCAL/MOL
REMARK 923 INTER-LIGAND FREE ENERGY PREDICTED BY IDOCK:   66.48 KCAL/MOL
REMARK 924 INTRA-LIGAND FREE ENERGY PREDICTED BY IDOCK:    0.99 KCAL/MOL
REMARK 927      BINDING AFFINITY PREDICTED BY RF-SCORE:    0.00 PKD
ROOT
HETATM    1  C   UNL     1      -7.175   1.692  67.122  1.00  0.00    -0.050 C  
HETATM    2  C   UNL     1      -6.931   3.158  66.738  1.00  0.00    -0.054 C  
HETATM    3  C   UNL     1      -7.303   3.509  65.266  1.00  0.00    -0.072 C  
HETATM    4  C   UNL     1      -5.478   3.522  67.058  1.00  0.00    -0.020 C  
HETATM    5  C   UNL     1      -8.789   3.353  65.025  1.00  0.00    -0.122 C  
HETATM    6  C   UNL     1      -6.530   2.709  64.215  1.00  0.00    -0.027 C  
HETATM    7  C   UNL     1      -9.508   4.139  64.208  1.00  0.00    -0.160 C  
HETATM    8  C   UNL     1     -11.018   4.092  64.033  1.00  0.00    -0.013 C  
HETATM    9  C   UNL     1     -11.782   5.226  64.819  1.00  0.00     2.915 C  
HETATM   10  C   UNL     1     -11.615   2.698  64.334  1.00  0.00     2.586 C  
HETATM   11  C   UNL     1     -11.536   5.136  66.331  1.00  0.00     1.294 C  
HETATM   12  C   UNL     1     -10.394   6.092  66.643  1.00  0.00    -0.249 C  
HETATM   13  C   UNL     1     -10.214   7.027  65.429  1.00  0.00     2.337 C  
HETATM   14  C   UNL     1      -9.972   8.478  65.841  1.00  0.00     0.116 C  
HETATM   15  C   UNL     1     -10.668   9.498  64.975  1.00  0.00     2.241 C  
HETATM   16  C   UNL     1      -9.151   8.787  66.868  1.00  0.00    -0.169 C  
HETATM   17  C   UNL     1     -11.159   6.904  62.974  1.00  0.00    13.226 C  
HETATM   18  C   UNL     1     -12.153   9.193  64.735  1.00  0.00    13.300 C  
HETATM   19  C   UNL     1     -11.429   6.731  64.487  1.00  0.00    11.772 C  
HETATM   20  C   UNL     1     -12.564   7.714  64.874  1.00  0.00    18.658 C  
ENDROOT
BRANCH  16  21
HETATM   21  C   UNL     1      -8.610  10.101  67.124  1.00  0.00    -0.125 C  
HETATM   22  C   UNL     1      -9.269  11.273  67.191  1.00  0.00    -0.169 C  
HETATM   23  C   UNL     1     -10.714  11.526  66.795  1.00  0.00    -0.311 C  
HETATM   24  C   UNL     1     -11.548  11.963  68.006  1.00  0.00    -0.332 C  
HETATM   25  C   UNL     1     -10.901  13.121  68.766  1.00  0.00    -0.278 C  
HETATM   26  O   UNL     1     -11.751  10.858  68.887  1.00  0.00    -0.297 OA 
HETATM   27  C   UNL     1      -9.428  12.857  69.102  1.00  0.00     0.609 C  
HETATM   28  H   UNL     1     -12.267  11.128  69.637  1.00  0.00     0.000 HD 
HETATM   29  C   UNL     1      -8.585  12.447  67.880  1.00  0.00    -0.171 C  
HETATM   30  C   UNL     1      -8.281  13.613  66.948  1.00  0.00     0.044 C  
ENDBRANCH  16  21
TORSDOF 1
ENDMDL
MODEL      166
REMARK 921   NORMALIZED FREE ENERGY PREDICTED BY IDOCK:   68.05 KCAL/MOL
REMARK 922        TOTAL FREE ENERGY PREDICTED BY IDOCK:   71.30 KCAL/MOL
REMARK 923 INTER-LIGAND FREE ENERGY PREDICTED BY IDOCK:   71.83 KCAL/MOL
REMARK 924 INTRA-LIGAND FREE ENERGY PREDICTED BY IDOCK:   -0.53 KCAL/MOL
REMARK 927      BINDING AFFINITY PREDICTED BY RF-SCORE:    0.00 PKD
ROOT
HETATM    1  C   UNL     1     -13.901   4.381  67.832  1.00  0.00    30.091 C  
HETATM    2  C   UNL     1     -12.601   5.070  68.273  1.00  0.00    13.203 C  
HETATM    3  C   UNL     1     -11.334   4.168  68.188  1.00  0.00     5.784 C  
HETATM    4  C   UNL     1     -12.795   5.645  69.680  1.00  0.00     7.377 C  
HETATM    5  C   UNL     1     -11.029   3.787  66.756  1.00  0.00     3.076 C  
HETATM    6  C   UNL     1     -11.403   2.904  69.047  1.00  0.00     9.290 C  
HETATM    7  C   UNL     1      -9.790   3.640  66.260  1.00  0.00    -0.013 C  
HETATM    8  C   UNL     1      -9.442   3.379  64.803  1.00  0.00    -0.155 C  
HETATM    9  C   UNL     1      -8.955   4.663  64.028  1.00  0.00    -0.117 C  
HETATM   10  C   UNL     1     -10.570   2.651  64.036  1.00  0.00     0.040 C  
HETATM   11  C   UNL     1     -10.030   5.758  64.008  1.00  0.00     2.387 C  
HETATM   12  C   UNL     1      -9.718   6.694  65.166  1.00  0.00     1.464 C  
HETATM   13  C   UNL     1      -8.277   6.406  65.633  1.00  0.00    -0.140 C  
HETATM   14  C   UNL     1      -7.496   7.683  65.937  1.00  0.00    -0.082 C  
HETATM   15  C   UNL     1      -6.055   7.655  65.496  1.00  0.00    -0.038 C  
HETATM   16  C   UNL     1      -8.067   8.712  66.601  1.00  0.00    -0.100 C  
HETATM   17  C   UNL     1      -6.634   4.416  65.106  1.00  0.00    -0.047 C  
HETATM   18  C   UNL     1      -5.862   7.177  64.050  1.00  0.00    -0.037 C  
HETATM   19  C   UNL     1      -7.680   5.423  64.571  1.00  0.00    -0.095 C  
HETATM   20  C   UNL     1      -6.985   6.285  63.485  1.00  0.00    -0.046 C  
ENDROOT
BRANCH  16  21
HETATM   21  C   UNL     1      -7.343   9.802  67.212  1.00  0.00    -0.087 C  
HETATM   22  C   UNL     1      -7.523  10.337  68.434  1.00  0.00    -0.090 C  
HETATM   23  C   UNL     1      -8.680  10.070  69.382  1.00  0.00    -0.195 C  
HETATM   24  C   UNL     1      -8.189   9.414  70.678  1.00  0.00    -0.168 C  
HETATM   25  C   UNL     1      -7.032  10.184  71.314  1.00  0.00     0.813 C  
HETATM   26  O   UNL     1      -7.795   8.065  70.426  1.00  0.00    -0.087 OA 
HETATM   27  C   UNL     1      -5.905  10.486  70.318  1.00  0.00    -0.089 C  
HETATM   28  H   UNL     1      -7.490   7.658  71.228  1.00  0.00     0.000 HD 
HETATM   29  C   UNL     1      -6.395  11.171  69.029  1.00  0.00    -0.054 C  
HETATM   30  C   UNL     1      -6.758  12.637  69.235  1.00  0.00    -0.054 C  
ENDBRANCH  16  21
TORSDOF 1
ENDMDL
MODEL      167
REMARK 921   NORMALIZED FREE ENERGY PREDICTED BY IDOCK:   69.83 KCAL/MOL
REMARK 922        TOTAL FREE ENERGY PREDICTED BY IDOCK:   73.19 KCAL/MOL
REMARK 923 INTER-LIGAND FREE ENERGY PREDICTED BY IDOCK:   73.63 KCAL/MOL
REMARK 924 INTRA-LIGAND FREE ENERGY PREDICTED BY IDOCK:   -0.44 KCAL/MOL
REMARK 927      BINDING AFFINITY PREDICTED BY RF-SCORE:    0.00 PKD
ROOT
HETATM    1  C   UNL     1      -9.323  12.486  74.482  1.00  0.00    16.688 C  
HETATM    2  C   UNL     1      -8.477  13.258  73.459  1.00  0.00    14.505 C  
HETATM    3  C   UNL     1      -7.419  12.392  72.713  1.00  0.00    13.364 C  
HETATM    4  C   UNL     1      -7.836  14.464  74.153  1.00  0.00     7.284 C  
HETATM    5  C   UNL     1      -8.083  11.338  71.854  1.00  0.00    11.104 C  
HETATM    6  C   UNL     1      -6.390  11.728  73.630  1.00  0.00     4.293 C  
HETATM    7  C   UNL     1      -7.610  10.921  70.668  1.00  0.00     1.950 C  
HETATM    8  C   UNL     1      -8.309   9.957  69.723  1.00  0.00    -0.196 C  
HETATM    9  C   UNL     1      -9.031  10.666  68.514  1.00  0.00    -0.156 C  
HETATM   10  C   UNL     1      -9.261   8.982  70.454  1.00  0.00    -0.243 C  
HETATM   11  C   UNL     1     -10.117  11.640  68.990  1.00  0.00    -0.034 C  
HETATM   12  C   UNL     1      -9.473  13.019  69.037  1.00  0.00     0.407 C  
HETATM   13  C   UNL     1      -8.156  12.954  68.238  1.00  0.00    -0.151 C  
HETATM   14  C   UNL     1      -7.945  14.185  67.359  1.00  0.00    -0.201 C  
HETATM   15  C   UNL     1      -7.356  13.892  66.003  1.00  0.00     4.209 C  
HETATM   16  C   UNL     1      -8.222  15.427  67.815  1.00  0.00    -0.159 C  
HETATM   17  C   UNL     1      -6.765  10.912  67.325  1.00  0.00    -0.082 C  
HETATM   18  C   UNL     1      -8.061  12.750  65.258  1.00  0.00     3.276 C  
HETATM   19  C   UNL     1      -8.157  11.553  67.540  1.00  0.00    -0.137 C  
HETATM   20  C   UNL     1      -8.808  11.734  66.144  1.00  0.00    -0.107 C  
ENDROOT
BRANCH  16  21
HETATM   21  C   UNL     1      -7.763  16.651  67.202  1.00  0.00    -0.213 C  
HETATM   22  C   UNL     1      -8.494  17.715  66.820  1.00  0.00    -0.274 C  
HETATM   23  C   UNL     1     -10.010  17.794  66.738  1.00  0.00    -0.333 C  
HETATM   24  C   UNL     1     -10.558  18.842  67.714  1.00  0.00    -0.390 C  
HETATM   25  C   UNL     1      -9.858  20.192  67.566  1.00  0.00    -0.574 C  
HETATM   26  O   UNL     1     -10.434  18.374  69.057  1.00  0.00    -0.442 OA 
HETATM   27  C   UNL     1      -8.330  20.072  67.597  1.00  0.00    -0.364 C  
HETATM   28  H   UNL     1     -10.774  19.024  69.662  1.00  0.00     0.000 HD 
HETATM   29  C   UNL     1      -7.777  19.040  66.597  1.00  0.00    -0.260 C  
HETATM   30  C   UNL     1      -7.822  19.527  65.153  1.00  0.00     0.864 C  
ENDBRANCH  16  21
TORSDOF 1
ENDMDL
MODEL      168
REMARK 921   NORMALIZED FREE ENERGY PREDICTED BY IDOCK:   71.33 KCAL/MOL
REMARK 922        TOTAL FREE ENERGY PREDICTED BY IDOCK:   74.78 KCAL/MOL
REMARK 923 INTER-LIGAND FREE ENERGY PREDICTED BY IDOCK:   71.06 KCAL/MOL
REMARK 924 INTRA-LIGAND FREE ENERGY PREDICTED BY IDOCK:    3.72 KCAL/MOL
REMARK 927      BINDING AFFINITY PREDICTED BY RF-SCORE:    0.00 PKD
ROOT
HETATM    1  C   UNL     1      -6.465  15.428  73.271  1.00  0.00     3.131 C  
HETATM    2  C   UNL     1      -6.655  15.995  71.856  1.00  0.00     3.407 C  
HETATM    3  C   UNL     1      -6.901  14.918  70.758  1.00  0.00     0.489 C  
HETATM    4  C   UNL     1      -5.460  16.891  71.515  1.00  0.00     0.422 C  
HETATM    5  C   UNL     1      -8.205  14.188  70.992  1.00  0.00     4.271 C  
HETATM    6  C   UNL     1      -5.768  13.901  70.609  1.00  0.00    -0.180 C  
HETATM    7  C   UNL     1      -9.013  13.750  70.012  1.00  0.00     2.361 C  
HETATM    8  C   UNL     1     -10.385  13.123  70.206  1.00  0.00     2.451 C  
HETATM    9  C   UNL     1     -11.580  14.116  69.934  1.00  0.00    -0.329 C  
HETATM   10  C   UNL     1     -10.537  12.420  71.575  1.00  0.00     7.749 C  
HETATM   11  C   UNL     1     -11.540  15.326  70.875  1.00  0.00    -0.382 C  
HETATM   12  C   UNL     1     -10.827  16.439  70.122  1.00  0.00    -0.265 C  
HETATM   13  C   UNL     1     -10.784  16.050  68.631  1.00  0.00    -0.281 C  
HETATM   14  C   UNL     1     -11.086  17.232  67.711  1.00  0.00    -0.037 C  
HETATM   15  C   UNL     1     -11.940  16.891  66.516  1.00  0.00     2.471 C  
HETATM   16  C   UNL     1     -10.567  18.456  67.949  1.00  0.00    -0.379 C  
HETATM   17  C   UNL     1     -11.270  13.771  67.405  1.00  0.00    -0.330 C  
HETATM   18  C   UNL     1     -13.195  16.080  66.865  1.00  0.00     5.039 C  
HETATM   19  C   UNL     1     -11.687  14.778  68.503  1.00  0.00    -0.347 C  
HETATM   20  C   UNL     1     -13.122  15.263  68.170  1.00  0.00     2.712 C  
ENDROOT
BRANCH  16  21
HETATM   21  C   UNL     1     -10.523  19.533  66.989  1.00  0.00    -0.587 C  
HETATM   22  C   UNL     1     -10.308  19.456  65.662  1.00  0.00    -0.294 C  
HETATM   23  C   UNL     1      -9.840  18.235  64.887  1.00  0.00     2.989 C  
HETATM   24  C   UNL     1     -10.904  17.782  63.880  1.00  0.00     6.063 C  
HETATM   25  C   UNL     1     -11.388  18.931  62.995  1.00  0.00    17.434 C  
HETATM   26  O   UNL     1     -12.011  17.197  64.565  1.00  0.00     0.423 OA 
HETATM   27  C   UNL     1     -11.800  20.167  63.804  1.00  0.00     7.837 C  
HETATM   28  H   UNL     1     -12.671  16.917  63.941  1.00  0.00     0.000 HD 
HETATM   29  C   UNL     1     -10.720  20.638  64.795  1.00  0.00     1.444 C  
HETATM   30  C   UNL     1      -9.550  21.336  64.112  1.00  0.00     3.782 C  
ENDBRANCH  16  21
TORSDOF 1
ENDMDL
MODEL      169
REMARK 921   NORMALIZED FREE ENERGY PREDICTED BY IDOCK:   88.81 KCAL/MOL
REMARK 922        TOTAL FREE ENERGY PREDICTED BY IDOCK:   93.28 KCAL/MOL
REMARK 923 INTER-LIGAND FREE ENERGY PREDICTED BY IDOCK:   93.75 KCAL/MOL
REMARK 924 INTRA-LIGAND FREE ENERGY PREDICTED BY IDOCK:   -0.47 KCAL/MOL
REMARK 927      BINDING AFFINITY PREDICTED BY RF-SCORE:    0.00 PKD
ROOT
HETATM    1  C   UNL     1      -7.625   1.665  66.630  1.00  0.00    -0.064 C  
HETATM    2  C   UNL     1      -7.404   3.143  66.278  1.00  0.00    -0.071 C  
HETATM    3  C   UNL     1      -7.768   3.516  64.809  1.00  0.00    -0.078 C  
HETATM    4  C   UNL     1      -5.961   3.525  66.620  1.00  0.00    -0.024 C  
HETATM    5  C   UNL     1      -9.248   3.339  64.551  1.00  0.00    -0.138 C  
HETATM    6  C   UNL     1      -6.971   2.751  63.750  1.00  0.00    -0.040 C  
HETATM    7  C   UNL     1      -9.974   4.128  63.742  1.00  0.00    -0.094 C  
HETATM    8  C   UNL     1     -11.481   4.058  63.552  1.00  0.00     0.903 C  
HETATM    9  C   UNL     1     -12.272   5.163  64.353  1.00  0.00     4.518 C  
HETATM   10  C   UNL     1     -12.056   2.648  63.819  1.00  0.00     3.722 C  
HETATM   11  C   UNL     1     -12.039   5.047  65.865  1.00  0.00     3.472 C  
HETATM   12  C   UNL     1     -10.917   6.017  66.207  1.00  0.00     0.215 C  
HETATM   13  C   UNL     1     -10.743   6.978  65.014  1.00  0.00     5.855 C  
HETATM   14  C   UNL     1     -10.531   8.425  65.458  1.00  0.00     2.371 C  
HETATM   15  C   UNL     1     -11.236   9.450  64.606  1.00  0.00     6.299 C  
HETATM   16  C   UNL     1      -9.725   8.728  66.499  1.00  0.00    -0.328 C  
HETATM   17  C   UNL     1     -11.662   6.888  62.548  1.00  0.00    12.596 C  
HETATM   18  C   UNL     1     -12.713   9.124  64.344  1.00  0.00    17.859 C  
HETATM   19  C   UNL     1     -11.943   6.680  64.055  1.00  0.00    14.821 C  
HETATM   20  C   UNL     1     -13.099   7.635  64.450  1.00  0.00    22.777 C  
ENDROOT
BRANCH  16  21
HETATM   21  C   UNL     1      -9.209  10.046  66.786  1.00  0.00    -0.173 C  
HETATM   22  C   UNL     1      -8.183  10.380  67.591  1.00  0.00    -0.110 C  
HETATM   23  C   UNL     1      -7.459   9.468  68.566  1.00  0.00    -0.080 C  
HETATM   24  C   UNL     1      -5.985   9.305  68.175  1.00  0.00    -0.041 C  
HETATM   25  C   UNL     1      -5.293  10.650  67.954  1.00  0.00    -0.036 C  
HETATM   26  O   UNL     1      -5.874   8.503  66.999  1.00  0.00    -0.041 OA 
HETATM   27  C   UNL     1      -6.077  11.569  67.009  1.00  0.00    -0.131 C  
HETATM   28  H   UNL     1      -4.962   8.402  66.756  1.00  0.00     0.000 HD 
HETATM   29  C   UNL     1      -7.550  11.755  67.418  1.00  0.00    -0.143 C  
HETATM   30  C   UNL     1      -7.721  12.666  68.628  1.00  0.00    -0.066 C  
ENDBRANCH  16  21
TORSDOF 1
ENDMDL
MODEL      170
REMARK 921   NORMALIZED FREE ENERGY PREDICTED BY IDOCK:   89.84 KCAL/MOL
REMARK 922        TOTAL FREE ENERGY PREDICTED BY IDOCK:   94.37 KCAL/MOL
REMARK 923 INTER-LIGAND FREE ENERGY PREDICTED BY IDOCK:   90.36 KCAL/MOL
REMARK 924 INTRA-LIGAND FREE ENERGY PREDICTED BY IDOCK:    4.01 KCAL/MOL
REMARK 927      BINDING AFFINITY PREDICTED BY RF-SCORE:    0.00 PKD
ROOT
HETATM    1  C   UNL     1     -14.212   4.374  73.190  1.00  0.00     4.833 C  
HETATM    2  C   UNL     1     -12.948   5.237  73.069  1.00  0.00     1.269 C  
HETATM    3  C   UNL     1     -11.820   4.608  72.198  1.00  0.00     1.134 C  
HETATM    4  C   UNL     1     -12.450   5.589  74.474  1.00  0.00     8.477 C  
HETATM    5  C   UNL     1     -12.256   4.469  70.756  1.00  0.00     7.504 C  
HETATM    6  C   UNL     1     -11.310   3.259  72.708  1.00  0.00     0.324 C  
HETATM    7  C   UNL     1     -11.439   4.620  69.701  1.00  0.00     4.513 C  
HETATM    8  C   UNL     1     -11.863   4.609  68.240  1.00  0.00     8.020 C  
HETATM    9  C   UNL     1     -11.976   6.047  67.603  1.00  0.00     2.809 C  
HETATM   10  C   UNL     1     -13.145   3.780  67.993  1.00  0.00    28.661 C  
HETATM   11  C   UNL     1     -13.013   6.913  68.329  1.00  0.00     9.002 C  
HETATM   12  C   UNL     1     -12.248   7.743  69.349  1.00  0.00     1.848 C  
HETATM   13  C   UNL     1     -10.751   7.678  68.986  1.00  0.00    -0.134 C  
HETATM   14  C   UNL     1     -10.059   9.033  69.120  1.00  0.00    -0.201 C  
HETATM   15  C   UNL     1      -9.054   9.332  68.036  1.00  0.00    -0.132 C  
HETATM   16  C   UNL     1     -10.309   9.847  70.169  1.00  0.00    -0.336 C  
HETATM   17  C   UNL     1      -9.420   6.114  67.337  1.00  0.00    -0.118 C  
HETATM   18  C   UNL     1      -9.583   9.078  66.618  1.00  0.00    -0.274 C  
HETATM   19  C   UNL     1     -10.688   6.962  67.595  1.00  0.00    -0.344 C  
HETATM   20  C   UNL     1     -10.739   8.066  66.506  1.00  0.00     0.350 C  
ENDROOT
BRANCH  16  21
HETATM   21  C   UNL     1      -9.489  10.971  70.554  1.00  0.00     2.710 C  
HETATM   22  C   UNL     1      -8.149  11.087  70.477  1.00  0.00     2.577 C  
HETATM   23  C   UNL     1      -7.157   9.978  70.171  1.00  0.00    -0.157 C  
HETATM   24  C   UNL     1      -6.403  10.259  68.866  1.00  0.00    -0.047 C  
HETATM   25  C   UNL     1      -5.793  11.661  68.841  1.00  0.00    -0.048 C  
HETATM   26  O   UNL     1      -7.275  10.088  67.748  1.00  0.00    -0.086 OA 
HETATM   27  C   UNL     1      -6.806  12.752  69.207  1.00  0.00    -0.012 C  
HETATM   28  H   UNL     1      -6.808  10.263  66.940  1.00  0.00     0.000 HD 
HETATM   29  C   UNL     1      -7.543  12.483  70.533  1.00  0.00     3.847 C  
HETATM   30  C   UNL     1      -6.670  12.725  71.758  1.00  0.00     4.367 C  
ENDBRANCH  16  21
TORSDOF 1
ENDMDL
